MODEL 1
REMARK VINA RESULT:     -13.2      0.000      0.000
REMARK SMILES O=C(OCCOCCOC(=O)c1nccnc1C(=O)Nc1ccc2c(c1)OCO2)c1ccc(-c2c3nc(c(-c4c(F)c(F)c(F)c(F)c4F)c4ccc([nH]4)c(-c4c(F)c(F)c(F)c(F)c4F)c4nc(c(-c5c(F)c(F)c(F)c(F)c5F)c5ccc2[nH]5)C=C4)C=C3)cc1
REMARK SMILES IDX 6 1 5 2 4 3 3 4 2 5 1 6 30 7 31 8 92 9 32 10 91 11 33 12
REMARK SMILES IDX 34 13 35 14 85 15 36 16 90 17 84 18 86 19 37 20 89 21 83 22
REMARK SMILES IDX 82 23 38 25 70 26 50 27 69 28 51 29 54 30 68 31 87 32 52 33
REMARK SMILES IDX 53 34 67 36 88 37 55 38 39 39 40 40 48 41 41 42 42 43 46 44
REMARK SMILES IDX 49 45 43 46 44 47 47 48 45 49 71 50 72 51 80 52 73 53 74 54
REMARK SMILES IDX 78 55 81 56 75 57 76 58 79 59 77 60 56 61 57 62 65 63 58 64
REMARK SMILES IDX 59 65 63 66 66 67 60 68 61 69 64 70 62 71 7 72 8 73 9 74
REMARK SMILES IDX 10 75 11 76 12 77 13 78 17 79 14 80 16 81 15 82 18 83 19 84
REMARK SMILES IDX 20 85 21 87 22 88 26 89 23 90 25 91 24 92 27 93 29 94 28 95
REMARK H PARENT 86 24 54 35 20 86
REMARK Flexibility Score: inf
ROOT
ATOM      1  O   UNL A   1      31.103  28.003  24.736  1.00  0.00    -0.374 OA
ENDROOT
BRANCH   1   2
ATOM      2  C   UNL A   1      31.974  28.144  25.848  1.00  0.00     0.202 C 
BRANCH   2   3
ATOM      3  C   UNL A   1      31.826  29.474  26.592  1.00  0.00     0.261 C 
BRANCH   3   4
ATOM      4  O   UNL A   1      32.857  30.436  26.273  1.00  0.00    -0.460 OA
BRANCH   4   5
ATOM      5  C   UNL A   1      33.406  31.300  27.174  1.00  0.00     0.338 C 
ATOM      6  O   UNL A   1      32.823  32.316  27.526  1.00  0.00    -0.246 OA
BRANCH   5   7
ATOM      7  C   UNL A   1      34.765  31.030  27.697  1.00  0.00     0.060 A 
ATOM      8  C   UNL A   1      35.191  29.725  27.909  1.00  0.00     0.016 A 
ATOM      9  C   UNL A   1      35.669  32.064  27.905  1.00  0.00     0.016 A 
ATOM     10  C   UNL A   1      36.359  29.440  28.587  1.00  0.00     0.010 A 
ATOM     11  C   UNL A   1      36.932  31.772  28.439  1.00  0.00     0.010 A 
ATOM     12  C   UNL A   1      37.255  30.464  28.858  1.00  0.00    -0.014 A 
BRANCH  12  13
ATOM     13  C   UNL A   1      38.434  30.193  29.715  1.00  0.00     0.031 A 
ATOM     14  C   UNL A   1      39.553  29.395  29.113  1.00  0.00     0.074 A 
ATOM     15  C   UNL A   1      38.563  30.715  30.951  1.00  0.00     0.049 A 
ATOM     16  N   UNL A   1      40.524  28.746  29.692  1.00  0.00    -0.248 NA
ATOM     17  C   UNL A   1      39.551  29.290  27.643  1.00  0.00     0.031 C 
ATOM     18  C   UNL A   1      37.636  31.652  31.590  1.00  0.00     0.029 A 
ATOM     19  N   UNL A   1      39.551  30.545  31.888  1.00  0.00    -0.354 N 
ATOM     20  C   UNL A   1      41.169  28.060  28.671  1.00  0.00     0.074 A 
ATOM     21  C   UNL A   1      40.495  28.389  27.436  1.00  0.00     0.031 C 
ATOM     22  C   UNL A   1      38.126  32.016  32.785  1.00  0.00     0.029 A 
ATOM     23  C   UNL A   1      39.323  31.232  33.056  1.00  0.00     0.049 A 
ATOM     24  H   UNL A   1      40.346  29.985  31.738  1.00  0.00     0.167 HD
ATOM     25  C   UNL A   1      42.217  27.209  28.779  1.00  0.00     0.037 A 
ATOM     26  C   UNL A   1      39.973  31.174  34.235  1.00  0.00     0.037 A 
ATOM     27  C   UNL A   1      42.905  26.984  30.021  1.00  0.00     0.049 A 
ATOM     28  C   UNL A   1      41.110  30.194  34.355  1.00  0.00     0.074 A 
ATOM     29  C   UNL A   1      43.952  26.127  30.297  1.00  0.00     0.029 A 
ATOM     30  N   UNL A   1      42.617  27.663  31.201  1.00  0.00    -0.354 N 
ATOM     31  N   UNL A   1      41.626  29.407  33.438  1.00  0.00    -0.248 NA
ATOM     32  C   UNL A   1      41.730  30.062  35.677  1.00  0.00     0.031 C 
ATOM     33  C   UNL A   1      44.271  26.260  31.655  1.00  0.00     0.029 A 
ATOM     34  C   UNL A   1      43.464  27.244  32.209  1.00  0.00     0.049 A 
ATOM     35  H   UNL A   1      41.913  28.343  31.303  1.00  0.00     0.167 HD
ATOM     36  C   UNL A   1      42.645  28.706  34.062  1.00  0.00     0.074 A 
ATOM     37  C   UNL A   1      42.682  29.172  35.436  1.00  0.00     0.031 C 
ATOM     38  C   UNL A   1      43.477  27.760  33.556  1.00  0.00     0.037 A 
BRANCH  25  39
ATOM     39  C   UNL A   1      42.582  26.413  27.559  1.00  0.00     0.064 A 
ATOM     40  C   UNL A   1      42.004  25.169  27.260  1.00  0.00     0.173 A 
ATOM     41  C   UNL A   1      43.602  26.876  26.711  1.00  0.00     0.173 A 
ATOM     42  F   UNL A   1      41.048  24.661  28.053  1.00  0.00    -0.203 F 
ATOM     43  C   UNL A   1      42.470  24.398  26.197  1.00  0.00     0.198 A 
ATOM     44  C   UNL A   1      44.038  26.120  25.626  1.00  0.00     0.198 A 
ATOM     45  F   UNL A   1      44.196  28.055  26.949  1.00  0.00    -0.203 F 
ATOM     46  F   UNL A   1      41.968  23.172  25.990  1.00  0.00    -0.200 F 
ATOM     47  C   UNL A   1      43.485  24.873  25.380  1.00  0.00     0.200 A 
ATOM     48  F   UNL A   1      45.017  26.586  24.837  1.00  0.00    -0.200 F 
ATOM     49  F   UNL A   1      43.946  24.121  24.372  1.00  0.00    -0.200 F 
ENDBRANCH  25  39
BRANCH  26  50
ATOM     50  C   UNL A   1      39.529  32.002  35.391  1.00  0.00     0.064 A 
ATOM     51  C   UNL A   1      40.037  33.294  35.591  1.00  0.00     0.173 A 
ATOM     52  C   UNL A   1      38.590  31.528  36.321  1.00  0.00     0.173 A 
ATOM     53  F   UNL A   1      40.956  33.789  34.750  1.00  0.00    -0.203 F 
ATOM     54  C   UNL A   1      39.632  34.072  36.677  1.00  0.00     0.198 A 
ATOM     55  C   UNL A   1      38.160  32.319  37.386  1.00  0.00     0.198 A 
ATOM     56  F   UNL A   1      38.073  30.298  36.189  1.00  0.00    -0.203 F 
ATOM     57  F   UNL A   1      40.169  35.284  36.867  1.00  0.00    -0.200 F 
ATOM     58  C   UNL A   1      38.686  33.587  37.569  1.00  0.00     0.200 A 
ATOM     59  F   UNL A   1      37.234  31.850  38.234  1.00  0.00    -0.200 F 
ATOM     60  F   UNL A   1      38.290  34.337  38.605  1.00  0.00    -0.200 F 
ENDBRANCH  26  50
BRANCH  38  61
ATOM     61  C   UNL A   1      44.536  27.232  34.475  1.00  0.00     0.064 A 
ATOM     62  C   UNL A   1      44.338  26.081  35.250  1.00  0.00     0.173 A 
ATOM     63  C   UNL A   1      45.782  27.872  34.542  1.00  0.00     0.173 A 
ATOM     64  F   UNL A   1      43.156  25.446  35.229  1.00  0.00    -0.203 F 
ATOM     65  C   UNL A   1      45.346  25.603  36.081  1.00  0.00     0.198 A 
ATOM     66  C   UNL A   1      46.798  27.372  35.348  1.00  0.00     0.198 A 
ATOM     67  F   UNL A   1      46.019  28.972  33.812  1.00  0.00    -0.203 F 
ATOM     68  F   UNL A   1      45.122  24.530  36.852  1.00  0.00    -0.200 F 
ATOM     69  C   UNL A   1      46.577  26.243  36.123  1.00  0.00     0.200 A 
ATOM     70  F   UNL A   1      47.991  27.981  35.376  1.00  0.00    -0.200 F 
ATOM     71  F   UNL A   1      47.550  25.775  36.917  1.00  0.00    -0.200 F 
ENDBRANCH  38  61
ENDBRANCH  12  13
ENDBRANCH   5   7
ENDBRANCH   4   5
ENDBRANCH   3   4
ENDBRANCH   2   3
ENDBRANCH   1   2
BRANCH   1  72
ATOM     72  C   UNL A   1      30.348  26.781  24.722  1.00  0.00     0.202 C 
BRANCH  72  73
ATOM     73  C   UNL A   1      30.563  25.985  23.289  1.00  0.00     0.261 C 
BRANCH  73  74
ATOM     74  O   UNL A   1      32.030  24.707  22.751  1.00  0.00    -0.458 OA
BRANCH  74  75
ATOM     75  C   UNL A   1      33.239  23.912  22.738  1.00  0.00     0.359 C 
ATOM     76  O   UNL A   1      33.623  23.388  21.695  1.00  0.00    -0.244 OA
BRANCH  75  77
ATOM     77  C   UNL A   1      34.039  23.659  24.012  1.00  0.00     0.179 A 
ATOM     78  N   UNL A   1      35.394  23.798  23.815  1.00  0.00    -0.245 NA
ATOM     79  C   UNL A   1      33.546  23.165  25.232  1.00  0.00     0.161 A 
ATOM     80  C   UNL A   1      36.200  23.420  24.835  1.00  0.00     0.132 A 
ATOM     81  N   UNL A   1      34.389  22.787  26.249  1.00  0.00    -0.247 NA
ATOM     82  C   UNL A   1      35.709  22.920  26.024  1.00  0.00     0.132 A 
BRANCH  79  83
ATOM     83  C   UNL A   1      32.123  22.842  25.565  1.00  0.00     0.276 C 
ATOM     84  O   UNL A   1      31.399  23.676  26.107  1.00  0.00    -0.267 OA
ATOM     85  N   UNL A   1      31.605  21.608  25.280  1.00  0.00    -0.320 N 
ATOM     86  H   UNL A   1      30.674  21.422  25.537  1.00  0.00     0.170 HD
BRANCH  85  87
ATOM     87  C   UNL A   1      32.325  20.610  24.651  1.00  0.00     0.045 A 
ATOM     88  C   UNL A   1      32.143  20.279  22.846  1.00  0.00     0.030 A 
ATOM     89  C   UNL A   1      32.922  19.318  25.759  1.00  0.00     0.076 A 
ATOM     90  C   UNL A   1      32.523  18.622  22.216  1.00  0.00     0.053 A 
ATOM     91  C   UNL A   1      33.290  17.727  25.066  1.00  0.00     0.167 A 
ATOM     92  C   UNL A   1      33.087  17.382  23.371  1.00  0.00     0.165 A 
ATOM     93  O   UNL A   1      33.961  16.683  25.618  1.00  0.00    -0.454 OA
ATOM     94  O   UNL A   1      33.697  16.190  23.134  1.00  0.00    -0.454 OA
ATOM     95  C   UNL A   1      34.356  15.916  24.425  1.00  0.00     0.468 C 
ENDBRANCH  85  87
ENDBRANCH  79  83
ENDBRANCH  75  77
ENDBRANCH  74  75
ENDBRANCH  73  74
ENDBRANCH  72  73
ENDBRANCH   1  72
TORSDOF 16
ENDMDL
MODEL 2
REMARK VINA RESULT:     -13.1      0.740      2.061
REMARK SMILES O=C(OCCOCCOC(=O)c1nccnc1C(=O)Nc1ccc2c(c1)OCO2)c1ccc(-c2c3nc(c(-c4c(F)c(F)c(F)c(F)c4F)c4ccc([nH]4)c(-c4c(F)c(F)c(F)c(F)c4F)c4nc(c(-c5c(F)c(F)c(F)c(F)c5F)c5ccc2[nH]5)C=C4)C=C3)cc1
REMARK SMILES IDX 6 1 5 2 4 3 3 4 2 5 1 6 30 7 31 8 92 9 32 10 91 11 33 12
REMARK SMILES IDX 34 13 35 14 85 15 36 16 90 17 84 18 86 19 37 20 89 21 83 22
REMARK SMILES IDX 82 23 38 25 70 26 50 27 69 28 51 29 54 30 68 31 87 32 52 33
REMARK SMILES IDX 53 34 67 36 88 37 55 38 39 39 40 40 48 41 41 42 42 43 46 44
REMARK SMILES IDX 49 45 43 46 44 47 47 48 45 49 71 50 72 51 80 52 73 53 74 54
REMARK SMILES IDX 78 55 81 56 75 57 76 58 79 59 77 60 56 61 57 62 65 63 58 64
REMARK SMILES IDX 59 65 63 66 66 67 60 68 61 69 64 70 62 71 7 72 8 73 9 74
REMARK SMILES IDX 10 75 11 76 12 77 13 78 17 79 14 80 16 81 15 82 18 83 19 84
REMARK SMILES IDX 20 85 21 87 22 88 26 89 23 90 25 91 24 92 27 93 29 94 28 95
REMARK H PARENT 86 24 54 35 20 86
REMARK Flexibility Score: inf
ROOT
ATOM      1  O   UNL A   1      30.650  29.630  24.283  1.00  0.00    -0.374 OA
ENDROOT
BRANCH   1   2
ATOM      2  C   UNL A   1      31.403  29.223  25.415  1.00  0.00     0.202 C 
BRANCH   2   3
ATOM      3  C   UNL A   1      32.653  30.070  25.670  1.00  0.00     0.261 C 
BRANCH   3   4
ATOM      4  O   UNL A   1      32.864  30.389  27.064  1.00  0.00    -0.460 OA
BRANCH   4   5
ATOM      5  C   UNL A   1      33.657  31.405  27.508  1.00  0.00     0.338 C 
ATOM      6  O   UNL A   1      33.306  32.574  27.428  1.00  0.00    -0.246 OA
BRANCH   5   7
ATOM      7  C   UNL A   1      34.999  31.090  28.050  1.00  0.00     0.060 A 
ATOM      8  C   UNL A   1      35.346  29.779  28.350  1.00  0.00     0.016 A 
ATOM      9  C   UNL A   1      35.963  32.079  28.190  1.00  0.00     0.016 A 
ATOM     10  C   UNL A   1      36.497  29.471  29.047  1.00  0.00     0.010 A 
ATOM     11  C   UNL A   1      37.208  31.749  28.744  1.00  0.00     0.010 A 
ATOM     12  C   UNL A   1      37.453  30.454  29.250  1.00  0.00    -0.014 A 
BRANCH  12  13
ATOM     13  C   UNL A   1      38.615  30.172  30.126  1.00  0.00     0.031 A 
ATOM     14  C   UNL A   1      39.732  29.355  29.543  1.00  0.00     0.074 A 
ATOM     15  C   UNL A   1      38.734  30.697  31.361  1.00  0.00     0.049 A 
ATOM     16  N   UNL A   1      40.685  28.695  30.140  1.00  0.00    -0.248 NA
ATOM     17  C   UNL A   1      39.749  29.242  28.075  1.00  0.00     0.031 C 
ATOM     18  C   UNL A   1      37.812  31.651  31.982  1.00  0.00     0.029 A 
ATOM     19  N   UNL A   1      39.707  30.518  32.313  1.00  0.00    -0.354 N 
ATOM     20  C   UNL A   1      41.335  27.994  29.131  1.00  0.00     0.074 A 
ATOM     21  C   UNL A   1      40.683  28.326  27.886  1.00  0.00     0.031 C 
ATOM     22  C   UNL A   1      38.290  32.014  33.183  1.00  0.00     0.029 A 
ATOM     23  C   UNL A   1      39.471  31.214  33.475  1.00  0.00     0.049 A 
ATOM     24  H   UNL A   1      40.496  29.947  32.177  1.00  0.00     0.167 HD
ATOM     25  C   UNL A   1      42.368  27.130  29.259  1.00  0.00     0.037 A 
ATOM     26  C   UNL A   1      40.104  31.154  34.662  1.00  0.00     0.037 A 
ATOM     27  C   UNL A   1      43.036  26.901  30.512  1.00  0.00     0.049 A 
ATOM     28  C   UNL A   1      41.225  30.158  34.804  1.00  0.00     0.074 A 
ATOM     29  C   UNL A   1      44.066  26.031  30.807  1.00  0.00     0.029 A 
ATOM     30  N   UNL A   1      42.740  27.590  31.684  1.00  0.00    -0.354 N 
ATOM     31  N   UNL A   1      41.742  29.360  33.898  1.00  0.00    -0.248 NA
ATOM     32  C   UNL A   1      41.825  30.025  36.135  1.00  0.00     0.031 C 
ATOM     33  C   UNL A   1      44.368  26.166  32.168  1.00  0.00     0.029 A 
ATOM     34  C   UNL A   1      43.567  27.164  32.707  1.00  0.00     0.049 A 
ATOM     35  H   UNL A   1      42.045  28.281  31.773  1.00  0.00     0.167 HD
ATOM     36  C   UNL A   1      42.743  28.647  34.540  1.00  0.00     0.074 A 
ATOM     37  C   UNL A   1      42.767  29.120  35.913  1.00  0.00     0.031 C 
ATOM     38  C   UNL A   1      43.568  27.688  34.051  1.00  0.00     0.037 A 
BRANCH  25  39
ATOM     39  C   UNL A   1      42.740  26.322  28.048  1.00  0.00     0.064 A 
ATOM     40  C   UNL A   1      43.689  26.752  27.107  1.00  0.00     0.173 A 
ATOM     41  C   UNL A   1      42.061  25.121  27.784  1.00  0.00     0.173 A 
ATOM     42  F   UNL A   1      44.345  27.908  27.291  1.00  0.00    -0.203 F 
ATOM     43  C   UNL A   1      43.902  26.043  25.927  1.00  0.00     0.198 A 
ATOM     44  C   UNL A   1      42.305  24.393  26.621  1.00  0.00     0.198 A 
ATOM     45  F   UNL A   1      41.138  24.661  28.643  1.00  0.00    -0.203 F 
ATOM     46  F   UNL A   1      44.743  26.524  25.001  1.00  0.00    -0.200 F 
ATOM     47  C   UNL A   1      43.212  24.864  25.685  1.00  0.00     0.200 A 
ATOM     48  F   UNL A   1      41.639  23.253  26.394  1.00  0.00    -0.200 F 
ATOM     49  F   UNL A   1      43.404  24.195  24.540  1.00  0.00    -0.200 F 
ENDBRANCH  25  39
BRANCH  26  50
ATOM     50  C   UNL A   1      39.655  31.994  35.808  1.00  0.00     0.064 A 
ATOM     51  C   UNL A   1      38.594  31.586  36.630  1.00  0.00     0.173 A 
ATOM     52  C   UNL A   1      40.269  33.220  36.111  1.00  0.00     0.173 A 
ATOM     53  F   UNL A   1      37.952  30.437  36.373  1.00  0.00    -0.203 F 
ATOM     54  C   UNL A   1      38.162  32.372  37.700  1.00  0.00     0.198 A 
ATOM     55  C   UNL A   1      39.860  33.987  37.200  1.00  0.00     0.198 A 
ATOM     56  F   UNL A   1      41.283  33.668  35.357  1.00  0.00    -0.203 F 
ATOM     57  F   UNL A   1      37.118  31.976  38.439  1.00  0.00    -0.200 F 
ATOM     58  C   UNL A   1      38.801  33.567  37.990  1.00  0.00     0.200 A 
ATOM     59  F   UNL A   1      40.493  35.134  37.484  1.00  0.00    -0.200 F 
ATOM     60  F   UNL A   1      38.393  34.317  39.022  1.00  0.00    -0.200 F 
ENDBRANCH  26  50
BRANCH  38  61
ATOM     61  C   UNL A   1      44.606  27.149  34.988  1.00  0.00     0.064 A 
ATOM     62  C   UNL A   1      45.819  27.814  35.212  1.00  0.00     0.173 A 
ATOM     63  C   UNL A   1      44.355  25.967  35.701  1.00  0.00     0.173 A 
ATOM     64  F   UNL A   1      46.108  28.938  34.540  1.00  0.00    -0.203 F 
ATOM     65  C   UNL A   1      46.757  27.299  36.101  1.00  0.00     0.198 A 
ATOM     66  C   UNL A   1      45.280  25.475  36.614  1.00  0.00     0.198 A 
ATOM     67  F   UNL A   1      43.204  25.302  35.524  1.00  0.00    -0.203 F 
ATOM     68  F   UNL A   1      47.932  27.922  36.266  1.00  0.00    -0.200 F 
ATOM     69  C   UNL A   1      46.484  26.137  36.807  1.00  0.00     0.200 A 
ATOM     70  F   UNL A   1      45.008  24.360  37.306  1.00  0.00    -0.200 F 
ATOM     71  F   UNL A   1      47.385  25.648  37.670  1.00  0.00    -0.200 F 
ENDBRANCH  38  61
ENDBRANCH  12  13
ENDBRANCH   5   7
ENDBRANCH   4   5
ENDBRANCH   3   4
ENDBRANCH   2   3
ENDBRANCH   1   2
BRANCH   1  72
ATOM     72  C   UNL A   1      30.447  28.601  23.300  1.00  0.00     0.202 C 
BRANCH  72  73
ATOM     73  C   UNL A   1      30.336  27.121  24.027  1.00  0.00     0.261 C 
BRANCH  73  74
ATOM     74  O   UNL A   1      31.706  25.642  24.120  1.00  0.00    -0.458 OA
BRANCH  74  75
ATOM     75  C   UNL A   1      32.802  24.748  23.814  1.00  0.00     0.359 C 
ATOM     76  O   UNL A   1      32.955  24.327  22.670  1.00  0.00    -0.244 OA
BRANCH  75  77
ATOM     77  C   UNL A   1      33.761  24.263  24.897  1.00  0.00     0.179 A 
ATOM     78  N   UNL A   1      35.077  24.493  24.571  1.00  0.00    -0.245 NA
ATOM     79  C   UNL A   1      33.432  23.503  26.034  1.00  0.00     0.161 A 
ATOM     80  C   UNL A   1      36.011  23.940  25.382  1.00  0.00     0.132 A 
ATOM     81  N   UNL A   1      34.402  22.953  26.836  1.00  0.00    -0.247 NA
ATOM     82  C   UNL A   1      35.681  23.181  26.487  1.00  0.00     0.132 A 
BRANCH  79  83
ATOM     83  C   UNL A   1      32.067  23.063  26.460  1.00  0.00     0.276 C 
ATOM     84  O   UNL A   1      31.408  23.734  27.254  1.00  0.00    -0.267 OA
ATOM     85  N   UNL A   1      31.530  21.899  25.982  1.00  0.00    -0.320 N 
ATOM     86  H   UNL A   1      30.641  21.627  26.303  1.00  0.00     0.170 HD
BRANCH  85  87
ATOM     87  C   UNL A   1      32.175  21.086  25.068  1.00  0.00     0.045 A 
ATOM     88  C   UNL A   1      31.870  21.236  23.256  1.00  0.00     0.030 A 
ATOM     89  C   UNL A   1      32.797  19.541  25.763  1.00  0.00     0.076 A 
ATOM     90  C   UNL A   1      32.153  19.792  22.197  1.00  0.00     0.053 A 
ATOM     91  C   UNL A   1      33.067  18.178  24.660  1.00  0.00     0.167 A 
ATOM     92  C   UNL A   1      32.747  18.287  22.952  1.00  0.00     0.165 A 
ATOM     93  O   UNL A   1      33.735  17.016  24.878  1.00  0.00    -0.454 OA
ATOM     94  O   UNL A   1      33.300  17.187  22.375  1.00  0.00    -0.454 OA
ATOM     95  C   UNL A   1      34.029  16.578  23.503  1.00  0.00     0.468 C 
ENDBRANCH  85  87
ENDBRANCH  79  83
ENDBRANCH  75  77
ENDBRANCH  74  75
ENDBRANCH  73  74
ENDBRANCH  72  73
ENDBRANCH   1  72
TORSDOF 16
ENDMDL
MODEL 3
REMARK VINA RESULT:     -13.1      4.001      9.821
REMARK SMILES O=C(OCCOCCOC(=O)c1nccnc1C(=O)Nc1ccc2c(c1)OCO2)c1ccc(-c2c3nc(c(-c4c(F)c(F)c(F)c(F)c4F)c4ccc([nH]4)c(-c4c(F)c(F)c(F)c(F)c4F)c4nc(c(-c5c(F)c(F)c(F)c(F)c5F)c5ccc2[nH]5)C=C4)C=C3)cc1
REMARK SMILES IDX 6 1 5 2 4 3 3 4 2 5 1 6 30 7 31 8 92 9 32 10 91 11 33 12
REMARK SMILES IDX 34 13 35 14 85 15 36 16 90 17 84 18 86 19 37 20 89 21 83 22
REMARK SMILES IDX 82 23 38 25 70 26 50 27 69 28 51 29 54 30 68 31 87 32 52 33
REMARK SMILES IDX 53 34 67 36 88 37 55 38 39 39 40 40 48 41 41 42 42 43 46 44
REMARK SMILES IDX 49 45 43 46 44 47 47 48 45 49 71 50 72 51 80 52 73 53 74 54
REMARK SMILES IDX 78 55 81 56 75 57 76 58 79 59 77 60 56 61 57 62 65 63 58 64
REMARK SMILES IDX 59 65 63 66 66 67 60 68 61 69 64 70 62 71 7 72 8 73 9 74
REMARK SMILES IDX 10 75 11 76 12 77 13 78 17 79 14 80 16 81 15 82 18 83 19 84
REMARK SMILES IDX 20 85 21 87 22 88 26 89 23 90 25 91 24 92 27 93 29 94 28 95
REMARK H PARENT 86 24 54 35 20 86
REMARK Flexibility Score: inf
ROOT
ATOM      1  O   UNL A   1      33.645  19.734  25.508  1.00  0.00    -0.374 OA
ENDROOT
BRANCH   1   2
ATOM      2  C   UNL A   1      34.441  20.908  25.461  1.00  0.00     0.202 C 
BRANCH   2   3
ATOM      3  C   UNL A   1      35.939  20.640  25.288  1.00  0.00     0.261 C 
BRANCH   3   4
ATOM      4  O   UNL A   1      36.775  21.760  25.655  1.00  0.00    -0.460 OA
BRANCH   4   5
ATOM      5  C   UNL A   1      38.135  21.705  25.753  1.00  0.00     0.338 C 
ATOM      6  O   UNL A   1      38.769  20.750  25.328  1.00  0.00    -0.246 OA
BRANCH   5   7
ATOM      7  C   UNL A   1      38.854  22.800  26.441  1.00  0.00     0.060 A 
ATOM      8  C   UNL A   1      38.330  24.087  26.455  1.00  0.00     0.016 A 
ATOM      9  C   UNL A   1      40.019  22.552  27.156  1.00  0.00     0.016 A 
ATOM     10  C   UNL A   1      39.063  25.169  26.898  1.00  0.00     0.010 A 
ATOM     11  C   UNL A   1      40.693  23.623  27.760  1.00  0.00     0.010 A 
ATOM     12  C   UNL A   1      40.259  24.952  27.566  1.00  0.00    -0.014 A 
BRANCH  12  13
ATOM     13  C   UNL A   1      41.123  26.107  27.908  1.00  0.00     0.031 A 
ATOM     14  C   UNL A   1      40.552  27.144  28.831  1.00  0.00     0.074 A 
ATOM     15  C   UNL A   1      42.405  26.195  27.501  1.00  0.00     0.049 A 
ATOM     16  N   UNL A   1      40.925  28.376  29.040  1.00  0.00    -0.248 NA
ATOM     17  C   UNL A   1      39.364  26.736  29.601  1.00  0.00     0.031 C 
ATOM     18  C   UNL A   1      43.142  25.175  26.752  1.00  0.00     0.029 A 
ATOM     19  N   UNL A   1      43.329  27.193  27.686  1.00  0.00    -0.354 N 
ATOM     20  C   UNL A   1      39.951  28.921  29.866  1.00  0.00     0.074 A 
ATOM     21  C   UNL A   1      38.985  27.882  30.138  1.00  0.00     0.031 C 
ATOM     22  C   UNL A   1      44.413  25.573  26.591  1.00  0.00     0.029 A 
ATOM     23  C   UNL A   1      44.543  26.932  27.098  1.00  0.00     0.049 A 
ATOM     24  H   UNL A   1      43.140  28.016  28.191  1.00  0.00     0.167 HD
ATOM     25  C   UNL A   1      39.874  30.192  30.325  1.00  0.00     0.037 A 
ATOM     26  C   UNL A   1      45.613  27.733  26.929  1.00  0.00     0.037 A 
ATOM     27  C   UNL A   1      40.909  31.162  30.095  1.00  0.00     0.049 A 
ATOM     28  C   UNL A   1      45.499  29.156  27.407  1.00  0.00     0.074 A 
ATOM     29  C   UNL A   1      40.956  32.493  30.459  1.00  0.00     0.029 A 
ATOM     30  N   UNL A   1      42.110  30.877  29.452  1.00  0.00    -0.354 N 
ATOM     31  N   UNL A   1      44.508  29.739  28.044  1.00  0.00    -0.248 NA
ATOM     32  C   UNL A   1      46.628  30.045  27.112  1.00  0.00     0.031 C 
ATOM     33  C   UNL A   1      42.170  33.023  30.003  1.00  0.00     0.029 A 
ATOM     34  C   UNL A   1      42.905  32.007  29.407  1.00  0.00     0.049 A 
ATOM     35  H   UNL A   1      42.358  29.999  29.083  1.00  0.00     0.167 HD
ATOM     36  C   UNL A   1      44.902  31.052  28.249  1.00  0.00     0.074 A 
ATOM     37  C   UNL A   1      46.230  31.176  27.677  1.00  0.00     0.031 C 
ATOM     38  C   UNL A   1      44.233  32.069  28.849  1.00  0.00     0.037 A 
BRANCH  25  39
ATOM     39  C   UNL A   1      38.600  30.596  31.011  1.00  0.00     0.064 A 
ATOM     40  C   UNL A   1      37.461  31.026  30.311  1.00  0.00     0.173 A 
ATOM     41  C   UNL A   1      38.550  30.630  32.414  1.00  0.00     0.173 A 
ATOM     42  F   UNL A   1      37.462  31.046  28.969  1.00  0.00    -0.203 F 
ATOM     43  C   UNL A   1      36.350  31.526  30.985  1.00  0.00     0.198 A 
ATOM     44  C   UNL A   1      37.422  31.094  33.086  1.00  0.00     0.198 A 
ATOM     45  F   UNL A   1      39.609  30.237  33.139  1.00  0.00    -0.203 F 
ATOM     46  F   UNL A   1      35.314  32.020  30.292  1.00  0.00    -0.200 F 
ATOM     47  C   UNL A   1      36.330  31.558  32.372  1.00  0.00     0.200 A 
ATOM     48  F   UNL A   1      37.406  31.119  34.427  1.00  0.00    -0.200 F 
ATOM     49  F   UNL A   1      35.268  32.059  33.018  1.00  0.00    -0.200 F 
ENDBRANCH  25  39
BRANCH  26  50
ATOM     50  C   UNL A   1      46.832  27.239  26.229  1.00  0.00     0.064 A 
ATOM     51  C   UNL A   1      47.027  27.481  24.861  1.00  0.00     0.173 A 
ATOM     52  C   UNL A   1      47.829  26.516  26.903  1.00  0.00     0.173 A 
ATOM     53  F   UNL A   1      46.095  28.143  24.160  1.00  0.00    -0.203 F 
ATOM     54  C   UNL A   1      48.161  27.014  24.197  1.00  0.00     0.198 A 
ATOM     55  C   UNL A   1      48.979  26.079  26.247  1.00  0.00     0.198 A 
ATOM     56  F   UNL A   1      47.697  26.245  28.209  1.00  0.00    -0.203 F 
ATOM     57  F   UNL A   1      48.298  27.222  22.881  1.00  0.00    -0.200 F 
ATOM     58  C   UNL A   1      49.141  26.321  24.892  1.00  0.00     0.200 A 
ATOM     59  F   UNL A   1      49.929  25.424  26.929  1.00  0.00    -0.200 F 
ATOM     60  F   UNL A   1      50.235  25.881  24.256  1.00  0.00    -0.200 F 
ENDBRANCH  26  50
BRANCH  38  61
ATOM     61  C   UNL A   1      44.963  33.372  28.978  1.00  0.00     0.064 A 
ATOM     62  C   UNL A   1      44.857  34.380  28.011  1.00  0.00     0.173 A 
ATOM     63  C   UNL A   1      45.745  33.622  30.116  1.00  0.00     0.173 A 
ATOM     64  F   UNL A   1      44.133  34.179  26.900  1.00  0.00    -0.203 F 
ATOM     65  C   UNL A   1      45.532  35.587  28.167  1.00  0.00     0.198 A 
ATOM     66  C   UNL A   1      46.390  34.841  30.284  1.00  0.00     0.198 A 
ATOM     67  F   UNL A   1      45.868  32.688  31.071  1.00  0.00    -0.203 F 
ATOM     68  F   UNL A   1      45.460  36.520  27.209  1.00  0.00    -0.200 F 
ATOM     69  C   UNL A   1      46.290  35.820  29.306  1.00  0.00     0.200 A 
ATOM     70  F   UNL A   1      47.109  35.070  31.392  1.00  0.00    -0.200 F 
ATOM     71  F   UNL A   1      46.931  36.986  29.459  1.00  0.00    -0.200 F 
ENDBRANCH  38  61
ENDBRANCH  12  13
ENDBRANCH   5   7
ENDBRANCH   4   5
ENDBRANCH   3   4
ENDBRANCH   2   3
ENDBRANCH   1   2
BRANCH   1  72
ATOM     72  C   UNL A   1      33.544  19.032  24.258  1.00  0.00     0.202 C 
BRANCH  72  73
ATOM     73  C   UNL A   1      32.440  19.767  23.270  1.00  0.00     0.261 C 
BRANCH  73  74
ATOM     74  O   UNL A   1      31.680  21.633  23.377  1.00  0.00    -0.458 OA
BRANCH  74  75
ATOM     75  C   UNL A   1      31.536  23.062  23.553  1.00  0.00     0.359 C 
ATOM     76  O   UNL A   1      30.539  23.640  23.127  1.00  0.00    -0.244 OA
BRANCH  75  77
ATOM     77  C   UNL A   1      32.626  23.897  24.219  1.00  0.00     0.179 A 
ATOM     78  N   UNL A   1      33.824  23.825  23.546  1.00  0.00    -0.245 NA
ATOM     79  C   UNL A   1      32.549  24.542  25.466  1.00  0.00     0.161 A 
ATOM     80  C   UNL A   1      34.898  24.384  24.153  1.00  0.00     0.132 A 
ATOM     81  N   UNL A   1      33.657  25.098  26.059  1.00  0.00    -0.247 NA
ATOM     82  C   UNL A   1      34.818  25.002  25.385  1.00  0.00     0.132 A 
BRANCH  79  83
ATOM     83  C   UNL A   1      31.364  24.604  26.378  1.00  0.00     0.276 C 
ATOM     84  O   UNL A   1      31.192  23.750  27.246  1.00  0.00    -0.267 OA
ATOM     85  N   UNL A   1      30.445  25.610  26.256  1.00  0.00    -0.320 N 
ATOM     86  H   UNL A   1      29.665  25.606  26.855  1.00  0.00     0.170 HD
BRANCH  85  87
ATOM     87  C   UNL A   1      30.558  26.633  25.332  1.00  0.00     0.045 A 
ATOM     88  C   UNL A   1      31.609  28.114  25.652  1.00  0.00     0.030 A 
ATOM     89  C   UNL A   1      29.191  26.721  24.157  1.00  0.00     0.076 A 
ATOM     90  C   UNL A   1      31.212  29.669  24.810  1.00  0.00     0.053 A 
ATOM     91  C   UNL A   1      28.876  28.274  23.358  1.00  0.00     0.167 A 
ATOM     92  C   UNL A   1      29.832  29.695  23.677  1.00  0.00     0.165 A 
ATOM     93  O   UNL A   1      28.087  28.544  22.286  1.00  0.00    -0.454 OA
ATOM     94  O   UNL A   1      29.506  30.611  22.727  1.00  0.00    -0.454 OA
ATOM     95  C   UNL A   1      28.634  29.832  21.829  1.00  0.00     0.468 C 
ENDBRANCH  85  87
ENDBRANCH  79  83
ENDBRANCH  75  77
ENDBRANCH  74  75
ENDBRANCH  73  74
ENDBRANCH  72  73
ENDBRANCH   1  72
TORSDOF 16
ENDMDL
