MODEL 1
REMARK VINA RESULT:     -12.1      0.000      0.000
REMARK SMILES C[NH2+][C@@H](C)c1ccc(SCc2ccc(C(=O)OCCOCCOC(=O)c3ccc(-c4c5nc(c(-c6c(F)c(F)c(F)c(F)c6F)c6ccc([nH]6)c(-c6c(F)c(F)c(F)c(F)c6F)c6nc(c(-c7c(F)c(F)c(F)c(F)c7F)c7ccc4[nH]7)C=C6)C=C5)cc3)cc2)cc1
REMARK SMILES IDX 18 1 17 2 15 3 16 4 14 5 11 6 12 7 90 8 13 9 89 10 10 11
REMARK SMILES IDX 9 12 8 13 5 14 6 15 92 16 7 17 91 18 3 19 4 20 2 21 1 22
REMARK SMILES IDX 19 25 20 26 21 27 22 28 23 29 24 30 25 31 26 32 27 33 88 34
REMARK SMILES IDX 28 35 87 36 29 37 30 38 31 39 81 40 32 41 86 42 80 43 82 44
REMARK SMILES IDX 33 45 85 46 79 47 78 48 34 50 66 51 46 52 65 53 47 54 50 55
REMARK SMILES IDX 64 56 83 57 48 58 49 59 63 61 84 62 51 63 35 64 36 65 44 66
REMARK SMILES IDX 37 67 38 68 42 69 45 70 39 71 40 72 43 73 41 74 67 75 68 76
REMARK SMILES IDX 76 77 69 78 70 79 74 80 77 81 71 82 72 83 75 84 73 85 52 86
REMARK SMILES IDX 53 87 61 88 54 89 55 90 59 91 62 92 56 93 57 94 60 95 58 96
REMARK H PARENT 2 23 2 24 82 49 50 60
REMARK Flexibility Score: inf
ROOT
ATOM      1  C   UNL A   1      39.961  21.751  26.450  1.00  0.00     0.261 C 
ENDROOT
BRANCH   1   2
ATOM      2  O   UNL A   1      38.619  21.893  25.960  1.00  0.00    -0.460 OA
BRANCH   2   3
ATOM      3  C   UNL A   1      38.128  23.154  26.050  1.00  0.00     0.338 C 
ATOM      4  O   UNL A   1      38.669  24.106  26.592  1.00  0.00    -0.246 OA
BRANCH   3   5
ATOM      5  C   UNL A   1      36.862  23.299  25.292  1.00  0.00     0.060 A 
ATOM      6  C   UNL A   1      34.574  23.544  23.668  1.00  0.00    -0.038 A 
ATOM      7  C   UNL A   1      35.669  22.772  23.253  1.00  0.00     0.005 A 
ATOM      8  C   UNL A   1      34.639  24.186  24.916  1.00  0.00     0.005 A 
ATOM      9  C   UNL A   1      36.796  22.641  24.060  1.00  0.00     0.016 A 
ATOM     10  C   UNL A   1      35.775  24.060  25.731  1.00  0.00     0.016 A 
BRANCH   6  11
ATOM     11  C   UNL A   1      33.410  23.733  22.719  1.00  0.00     0.110 C 
BRANCH  11  12
ATOM     12  S   UNL A   1      31.846  22.943  23.205  1.00  0.00    -0.121 SA
BRANCH  12  13
ATOM     13  C   UNL A   1      32.272  21.266  23.654  1.00  0.00     0.008 A 
ATOM     14  C   UNL A   1      33.193  18.719  24.531  1.00  0.00     0.009 A 
ATOM     15  C   UNL A   1      33.228  19.830  25.381  1.00  0.00     0.011 A 
ATOM     16  C   UNL A   1      32.628  18.891  23.258  1.00  0.00     0.011 A 
ATOM     17  C   UNL A   1      32.784  21.084  24.945  1.00  0.00     0.015 A 
ATOM     18  C   UNL A   1      32.163  20.143  22.834  1.00  0.00     0.015 A 
BRANCH  14  19
ATOM     19  C   UNL A   1      33.705  17.341  24.942  1.00  0.00     0.210 C 
ATOM     20  C   UNL A   1      33.979  16.503  23.690  1.00  0.00     0.081 C 
BRANCH  19  21
ATOM     21  N   UNL A   1      32.782  16.677  25.878  1.00  0.00    -0.343 N 
ATOM     22  C   UNL A   1      32.535  15.280  25.557  1.00  0.00     0.331 C 
ATOM     23  H   UNL A   1      33.182  16.727  26.815  1.00  0.00     0.346 HD
ATOM     24  H   UNL A   1      31.888  17.164  25.813  1.00  0.00     0.346 HD
ENDBRANCH  19  21
ENDBRANCH  14  19
ENDBRANCH  12  13
ENDBRANCH  11  12
ENDBRANCH   6  11
ENDBRANCH   3   5
ENDBRANCH   2   3
ENDBRANCH   1   2
BRANCH   1  25
ATOM     25  C   UNL A   1      40.496  20.329  26.253  1.00  0.00     0.202 C 
BRANCH  25  26
ATOM     26  O   UNL A   1      41.826  20.210  25.756  1.00  0.00    -0.374 OA
BRANCH  26  27
ATOM     27  C   UNL A   1      42.802  21.118  26.274  1.00  0.00     0.202 C 
BRANCH  27  28
ATOM     28  C   UNL A   1      43.627  21.894  25.240  1.00  0.00     0.261 C 
BRANCH  28  29
ATOM     29  O   UNL A   1      43.005  23.149  24.897  1.00  0.00    -0.460 OA
BRANCH  29  30
ATOM     30  C   UNL A   1      43.769  24.248  25.094  1.00  0.00     0.338 C 
ATOM     31  O   UNL A   1      44.809  24.546  24.523  1.00  0.00    -0.246 OA
BRANCH  30  32
ATOM     32  C   UNL A   1      43.064  25.181  25.991  1.00  0.00     0.060 A 
ATOM     33  C   UNL A   1      43.460  26.526  25.981  1.00  0.00     0.016 A 
ATOM     34  C   UNL A   1      42.079  24.737  26.873  1.00  0.00     0.016 A 
ATOM     35  C   UNL A   1      42.902  27.427  26.886  1.00  0.00     0.010 A 
ATOM     36  C   UNL A   1      41.528  25.637  27.789  1.00  0.00     0.010 A 
ATOM     37  C   UNL A   1      41.961  26.976  27.821  1.00  0.00    -0.014 A 
BRANCH  37  38
ATOM     38  C   UNL A   1      41.546  27.852  28.942  1.00  0.00     0.031 A 
ATOM     39  C   UNL A   1      42.324  27.792  30.227  1.00  0.00     0.074 A 
ATOM     40  C   UNL A   1      40.494  28.678  28.825  1.00  0.00     0.049 A 
ATOM     41  N   UNL A   1      42.080  28.366  31.377  1.00  0.00    -0.248 NA
ATOM     42  C   UNL A   1      43.541  26.964  30.213  1.00  0.00     0.031 C 
ATOM     43  C   UNL A   1      39.699  28.866  27.614  1.00  0.00     0.029 A 
ATOM     44  N   UNL A   1      39.903  29.502  29.750  1.00  0.00    -0.354 N 
ATOM     45  C   UNL A   1      43.102  27.960  32.224  1.00  0.00     0.074 A 
ATOM     46  C   UNL A   1      43.958  27.073  31.465  1.00  0.00     0.031 C 
ATOM     47  C   UNL A   1      38.708  29.736  27.875  1.00  0.00     0.029 A 
ATOM     48  C   UNL A   1      38.777  30.132  29.282  1.00  0.00     0.049 A 
ATOM     49  H   UNL A   1      40.253  29.630  30.662  1.00  0.00     0.167 HD
ATOM     50  C   UNL A   1      43.308  28.300  33.518  1.00  0.00     0.037 A 
ATOM     51  C   UNL A   1      37.887  30.911  29.927  1.00  0.00     0.037 A 
ATOM     52  C   UNL A   1      42.454  29.182  34.268  1.00  0.00     0.049 A 
ATOM     53  C   UNL A   1      38.090  31.206  31.392  1.00  0.00     0.074 A 
ATOM     54  C   UNL A   1      42.578  29.594  35.582  1.00  0.00     0.029 A 
ATOM     55  N   UNL A   1      41.308  29.782  33.766  1.00  0.00    -0.354 N 
ATOM     56  N   UNL A   1      39.061  30.826  32.187  1.00  0.00    -0.248 NA
ATOM     57  C   UNL A   1      37.070  32.038  32.049  1.00  0.00     0.031 C 
ATOM     58  C   UNL A   1      41.483  30.408  35.890  1.00  0.00     0.029 A 
ATOM     59  C   UNL A   1      40.705  30.545  34.751  1.00  0.00     0.049 A 
ATOM     60  H   UNL A   1      40.975  29.681  32.844  1.00  0.00     0.167 HD
ATOM     61  C   UNL A   1      38.790  31.399  33.424  1.00  0.00     0.074 A 
ATOM     62  C   UNL A   1      37.563  32.154  33.275  1.00  0.00     0.031 C 
ATOM     63  C   UNL A   1      39.497  31.310  34.577  1.00  0.00     0.037 A 
BRANCH  50  64
ATOM     64  C   UNL A   1      44.488  27.690  34.214  1.00  0.00     0.064 A 
ATOM     65  C   UNL A   1      45.751  28.302  34.199  1.00  0.00     0.173 A 
ATOM     66  C   UNL A   1      44.348  26.491  34.928  1.00  0.00     0.173 A 
ATOM     67  F   UNL A   1      45.941  29.442  33.519  1.00  0.00    -0.203 F 
ATOM     68  C   UNL A   1      46.836  27.721  34.853  1.00  0.00     0.198 A 
ATOM     69  C   UNL A   1      45.428  25.927  35.604  1.00  0.00     0.198 A 
ATOM     70  F   UNL A   1      43.161  25.867  34.976  1.00  0.00    -0.203 F 
ATOM     71  F   UNL A   1      48.043  28.299  34.787  1.00  0.00    -0.200 F 
ATOM     72  C   UNL A   1      46.671  26.539  35.559  1.00  0.00     0.200 A 
ATOM     73  F   UNL A   1      45.265  24.791  36.296  1.00  0.00    -0.200 F 
ATOM     74  F   UNL A   1      47.714  25.985  36.193  1.00  0.00    -0.200 F 
ENDBRANCH  50  64
BRANCH  51  75
ATOM     75  C   UNL A   1      36.710  31.455  29.201  1.00  0.00     0.064 A 
ATOM     76  C   UNL A   1      36.643  32.809  28.848  1.00  0.00     0.173 A 
ATOM     77  C   UNL A   1      35.624  30.636  28.857  1.00  0.00     0.173 A 
ATOM     78  F   UNL A   1      37.645  33.638  29.179  1.00  0.00    -0.203 F 
ATOM     79  C   UNL A   1      35.528  33.328  28.194  1.00  0.00     0.198 A 
ATOM     80  C   UNL A   1      34.522  31.150  28.178  1.00  0.00     0.198 A 
ATOM     81  F   UNL A   1      35.637  29.333  29.175  1.00  0.00    -0.203 F 
ATOM     82  F   UNL A   1      35.469  34.636  27.908  1.00  0.00    -0.200 F 
ATOM     83  C   UNL A   1      34.471  32.497  27.854  1.00  0.00     0.200 A 
ATOM     84  F   UNL A   1      33.507  30.342  27.843  1.00  0.00    -0.200 F 
ATOM     85  F   UNL A   1      33.399  32.996  27.222  1.00  0.00    -0.200 F 
ENDBRANCH  51  75
BRANCH  63  86
ATOM     86  C   UNL A   1      39.001  32.091  35.759  1.00  0.00     0.064 A 
ATOM     87  C   UNL A   1      38.236  31.493  36.771  1.00  0.00     0.173 A 
ATOM     88  C   UNL A   1      39.358  33.440  35.912  1.00  0.00     0.173 A 
ATOM     89  F   UNL A   1      37.858  30.211  36.664  1.00  0.00    -0.203 F 
ATOM     90  C   UNL A   1      37.836  32.223  37.889  1.00  0.00     0.198 A 
ATOM     91  C   UNL A   1      38.979  34.157  37.043  1.00  0.00     0.198 A 
ATOM     92  F   UNL A   1      40.094  34.054  34.974  1.00  0.00    -0.203 F 
ATOM     93  F   UNL A   1      37.078  31.642  38.829  1.00  0.00    -0.200 F 
ATOM     94  C   UNL A   1      38.216  33.550  38.028  1.00  0.00     0.200 A 
ATOM     95  F   UNL A   1      39.359  35.435  37.182  1.00  0.00    -0.200 F 
ATOM     96  F   UNL A   1      37.842  34.245  39.112  1.00  0.00    -0.200 F 
ENDBRANCH  63  86
ENDBRANCH  37  38
ENDBRANCH  30  32
ENDBRANCH  29  30
ENDBRANCH  28  29
ENDBRANCH  27  28
ENDBRANCH  26  27
ENDBRANCH  25  26
ENDBRANCH   1  25
TORSDOF 19
ENDMDL
MODEL 2
REMARK VINA RESULT:     -10.7      3.806      9.123
REMARK SMILES C[NH2+][C@@H](C)c1ccc(SCc2ccc(C(=O)OCCOCCOC(=O)c3ccc(-c4c5nc(c(-c6c(F)c(F)c(F)c(F)c6F)c6ccc([nH]6)c(-c6c(F)c(F)c(F)c(F)c6F)c6nc(c(-c7c(F)c(F)c(F)c(F)c7F)c7ccc4[nH]7)C=C6)C=C5)cc3)cc2)cc1
REMARK SMILES IDX 18 1 17 2 15 3 16 4 14 5 11 6 12 7 90 8 13 9 89 10 10 11
REMARK SMILES IDX 9 12 8 13 5 14 6 15 92 16 7 17 91 18 3 19 4 20 2 21 1 22
REMARK SMILES IDX 19 25 20 26 21 27 22 28 23 29 24 30 25 31 26 32 27 33 88 34
REMARK SMILES IDX 28 35 87 36 29 37 30 38 31 39 81 40 32 41 86 42 80 43 82 44
REMARK SMILES IDX 33 45 85 46 79 47 78 48 34 50 66 51 46 52 65 53 47 54 50 55
REMARK SMILES IDX 64 56 83 57 48 58 49 59 63 61 84 62 51 63 35 64 36 65 44 66
REMARK SMILES IDX 37 67 38 68 42 69 45 70 39 71 40 72 43 73 41 74 67 75 68 76
REMARK SMILES IDX 76 77 69 78 70 79 74 80 77 81 71 82 72 83 75 84 73 85 52 86
REMARK SMILES IDX 53 87 61 88 54 89 55 90 59 91 62 92 56 93 57 94 60 95 58 96
REMARK H PARENT 2 23 2 24 82 49 50 60
REMARK Flexibility Score: inf
ROOT
ATOM      1  C   UNL A   1      34.777  31.700  28.921  1.00  0.00     0.261 C 
ENDROOT
BRANCH   1   2
ATOM      2  O   UNL A   1      33.952  31.199  27.858  1.00  0.00    -0.460 OA
BRANCH   2   3
ATOM      3  C   UNL A   1      34.448  30.095  27.246  1.00  0.00     0.338 C 
ATOM      4  O   UNL A   1      35.606  29.707  27.278  1.00  0.00    -0.246 OA
BRANCH   3   5
ATOM      5  C   UNL A   1      33.373  29.304  26.600  1.00  0.00     0.060 A 
ATOM      6  C   UNL A   1      31.361  27.651  25.527  1.00  0.00    -0.038 A 
ATOM      7  C   UNL A   1      31.661  27.619  26.896  1.00  0.00     0.005 A 
ATOM      8  C   UNL A   1      32.079  28.533  24.702  1.00  0.00     0.005 A 
ATOM      9  C   UNL A   1      32.647  28.444  27.429  1.00  0.00     0.016 A 
ATOM     10  C   UNL A   1      33.079  29.363  25.234  1.00  0.00     0.016 A 
BRANCH   6  11
ATOM     11  C   UNL A   1      30.347  26.672  24.976  1.00  0.00     0.110 C 
BRANCH  11  12
ATOM     12  S   UNL A   1      30.921  25.604  23.621  1.00  0.00    -0.121 SA
BRANCH  12  13
ATOM     13  C   UNL A   1      31.704  24.203  24.409  1.00  0.00     0.008 A 
ATOM     14  C   UNL A   1      33.128  21.948  25.404  1.00  0.00     0.009 A 
ATOM     15  C   UNL A   1      33.778  22.940  24.660  1.00  0.00     0.011 A 
ATOM     16  C   UNL A   1      31.769  22.138  25.696  1.00  0.00     0.011 A 
ATOM     17  C   UNL A   1      33.073  24.044  24.164  1.00  0.00     0.015 A 
ATOM     18  C   UNL A   1      31.073  23.257  25.216  1.00  0.00     0.015 A 
BRANCH  14  19
ATOM     19  C   UNL A   1      33.839  20.704  25.930  1.00  0.00     0.210 C 
ATOM     20  C   UNL A   1      35.000  20.346  24.997  1.00  0.00     0.081 C 
BRANCH  19  21
ATOM     21  N   UNL A   1      32.902  19.586  26.126  1.00  0.00    -0.343 N 
ATOM     22  C   UNL A   1      32.925  18.614  25.043  1.00  0.00     0.331 C 
ATOM     23  H   UNL A   1      33.145  19.108  26.993  1.00  0.00     0.346 HD
ATOM     24  H   UNL A   1      31.963  19.983  26.153  1.00  0.00     0.346 HD
ENDBRANCH  19  21
ENDBRANCH  14  19
ENDBRANCH  12  13
ENDBRANCH  11  12
ENDBRANCH   6  11
ENDBRANCH   3   5
ENDBRANCH   2   3
ENDBRANCH   1   2
BRANCH   1  25
ATOM     25  C   UNL A   1      34.344  33.099  29.372  1.00  0.00     0.202 C 
BRANCH  25  26
ATOM     26  O   UNL A   1      34.025  34.031  28.342  1.00  0.00    -0.374 OA
BRANCH  26  27
ATOM     27  C   UNL A   1      34.055  35.420  28.684  1.00  0.00     0.202 C 
BRANCH  27  28
ATOM     28  C   UNL A   1      32.852  35.953  29.472  1.00  0.00     0.261 C 
BRANCH  28  29
ATOM     29  O   UNL A   1      33.236  36.410  30.784  1.00  0.00    -0.460 OA
BRANCH  29  30
ATOM     30  C   UNL A   1      32.778  35.665  31.816  1.00  0.00     0.338 C 
ATOM     31  O   UNL A   1      31.613  35.422  32.104  1.00  0.00    -0.246 OA
BRANCH  30  32
ATOM     32  C   UNL A   1      33.911  34.991  32.475  1.00  0.00     0.060 A 
ATOM     33  C   UNL A   1      35.175  35.591  32.385  1.00  0.00     0.016 A 
ATOM     34  C   UNL A   1      33.752  33.761  33.115  1.00  0.00     0.016 A 
ATOM     35  C   UNL A   1      36.296  34.941  32.897  1.00  0.00     0.010 A 
ATOM     36  C   UNL A   1      34.879  33.104  33.616  1.00  0.00     0.010 A 
ATOM     37  C   UNL A   1      36.158  33.675  33.480  1.00  0.00    -0.014 A 
BRANCH  37  38
ATOM     38  C   UNL A   1      37.358  32.867  33.800  1.00  0.00     0.031 A 
ATOM     39  C   UNL A   1      38.085  33.140  35.087  1.00  0.00     0.074 A 
ATOM     40  C   UNL A   1      37.799  31.916  32.960  1.00  0.00     0.049 A 
ATOM     41  N   UNL A   1      39.217  32.652  35.525  1.00  0.00    -0.248 NA
ATOM     42  C   UNL A   1      37.448  34.099  36.004  1.00  0.00     0.031 C 
ATOM     43  C   UNL A   1      37.149  31.522  31.713  1.00  0.00     0.029 A 
ATOM     44  N   UNL A   1      38.915  31.120  33.027  1.00  0.00    -0.354 N 
ATOM     45  C   UNL A   1      39.435  33.254  36.756  1.00  0.00     0.074 A 
ATOM     46  C   UNL A   1      38.329  34.158  36.990  1.00  0.00     0.031 C 
ATOM     47  C   UNL A   1      37.889  30.572  31.118  1.00  0.00     0.029 A 
ATOM     48  C   UNL A   1      39.084  30.321  31.923  1.00  0.00     0.049 A 
ATOM     49  H   UNL A   1      39.536  31.121  33.792  1.00  0.00     0.167 HD
ATOM     50  C   UNL A   1      40.463  33.065  37.616  1.00  0.00     0.037 A 
ATOM     51  C   UNL A   1      40.106  29.509  31.589  1.00  0.00     0.037 A 
ATOM     52  C   UNL A   1      41.560  32.165  37.379  1.00  0.00     0.049 A 
ATOM     53  C   UNL A   1      41.283  29.380  32.522  1.00  0.00     0.074 A 
ATOM     54  C   UNL A   1      42.648  31.896  38.189  1.00  0.00     0.029 A 
ATOM     55  N   UNL A   1      41.708  31.389  36.238  1.00  0.00    -0.354 N 
ATOM     56  N   UNL A   1      41.481  29.944  33.689  1.00  0.00    -0.248 NA
ATOM     57  C   UNL A   1      42.380  28.501  32.090  1.00  0.00     0.031 C 
ATOM     58  C   UNL A   1      43.479  30.993  37.519  1.00  0.00     0.029 A 
ATOM     59  C   UNL A   1      42.882  30.658  36.313  1.00  0.00     0.049 A 
ATOM     60  H   UNL A   1      41.072  31.363  35.486  1.00  0.00     0.167 HD
ATOM     61  C   UNL A   1      42.702  29.464  34.145  1.00  0.00     0.074 A 
ATOM     62  C   UNL A   1      43.201  28.560  33.130  1.00  0.00     0.031 C 
ATOM     63  C   UNL A   1      43.349  29.745  35.303  1.00  0.00     0.037 A 
BRANCH  50  64
ATOM     64  C   UNL A   1      40.465  33.872  38.880  1.00  0.00     0.064 A 
ATOM     65  C   UNL A   1      39.769  33.453  40.024  1.00  0.00     0.173 A 
ATOM     66  C   UNL A   1      41.196  35.067  38.956  1.00  0.00     0.173 A 
ATOM     67  F   UNL A   1      39.045  32.325  39.998  1.00  0.00    -0.203 F 
ATOM     68  C   UNL A   1      39.784  34.215  41.191  1.00  0.00     0.198 A 
ATOM     69  C   UNL A   1      41.231  35.813  40.133  1.00  0.00     0.198 A 
ATOM     70  F   UNL A   1      41.880  35.511  37.892  1.00  0.00    -0.203 F 
ATOM     71  F   UNL A   1      39.075  33.820  42.257  1.00  0.00    -0.200 F 
ATOM     72  C   UNL A   1      40.520  35.389  41.245  1.00  0.00     0.200 A 
ATOM     73  F   UNL A   1      41.951  36.941  40.188  1.00  0.00    -0.200 F 
ATOM     74  F   UNL A   1      40.538  36.118  42.369  1.00  0.00    -0.200 F 
ENDBRANCH  50  64
BRANCH  51  75
ATOM     75  C   UNL A   1      40.074  28.765  30.303  1.00  0.00     0.064 A 
ATOM     76  C   UNL A   1      39.456  27.511  30.211  1.00  0.00     0.173 A 
ATOM     77  C   UNL A   1      40.672  29.285  29.145  1.00  0.00     0.173 A 
ATOM     78  F   UNL A   1      38.894  26.960  31.297  1.00  0.00    -0.203 F 
ATOM     79  C   UNL A   1      39.450  26.797  29.014  1.00  0.00     0.198 A 
ATOM     80  C   UNL A   1      40.641  28.583  27.942  1.00  0.00     0.198 A 
ATOM     81  F   UNL A   1      41.279  30.479  29.181  1.00  0.00    -0.203 F 
ATOM     82  F   UNL A   1      38.891  25.580  28.965  1.00  0.00    -0.200 F 
ATOM     83  C   UNL A   1      40.037  27.337  27.879  1.00  0.00     0.200 A 
ATOM     84  F   UNL A   1      41.201  29.112  26.846  1.00  0.00    -0.200 F 
ATOM     85  F   UNL A   1      40.030  26.651  26.728  1.00  0.00    -0.200 F 
ENDBRANCH  51  75
BRANCH  63  86
ATOM     86  C   UNL A   1      44.640  29.027  35.570  1.00  0.00     0.064 A 
ATOM     87  C   UNL A   1      45.878  29.569  35.197  1.00  0.00     0.173 A 
ATOM     88  C   UNL A   1      44.639  27.811  36.273  1.00  0.00     0.173 A 
ATOM     89  F   UNL A   1      45.932  30.721  34.512  1.00  0.00    -0.203 F 
ATOM     90  C   UNL A   1      47.068  28.913  35.506  1.00  0.00     0.198 A 
ATOM     91  C   UNL A   1      45.830  27.174  36.604  1.00  0.00     0.198 A 
ATOM     92  F   UNL A   1      43.480  27.255  36.657  1.00  0.00    -0.203 F 
ATOM     93  F   UNL A   1      48.239  29.432  35.111  1.00  0.00    -0.200 F 
ATOM     94  C   UNL A   1      47.043  27.723  36.217  1.00  0.00     0.200 A 
ATOM     95  F   UNL A   1      45.804  26.030  37.304  1.00  0.00    -0.200 F 
ATOM     96  F   UNL A   1      48.190  27.102  36.528  1.00  0.00    -0.200 F 
ENDBRANCH  63  86
ENDBRANCH  37  38
ENDBRANCH  30  32
ENDBRANCH  29  30
ENDBRANCH  28  29
ENDBRANCH  27  28
ENDBRANCH  26  27
ENDBRANCH  25  26
ENDBRANCH   1  25
TORSDOF 19
ENDMDL
MODEL 3
REMARK VINA RESULT:     -10.5      4.793     10.413
REMARK SMILES C[NH2+][C@@H](C)c1ccc(SCc2ccc(C(=O)OCCOCCOC(=O)c3ccc(-c4c5nc(c(-c6c(F)c(F)c(F)c(F)c6F)c6ccc([nH]6)c(-c6c(F)c(F)c(F)c(F)c6F)c6nc(c(-c7c(F)c(F)c(F)c(F)c7F)c7ccc4[nH]7)C=C6)C=C5)cc3)cc2)cc1
REMARK SMILES IDX 18 1 17 2 15 3 16 4 14 5 11 6 12 7 90 8 13 9 89 10 10 11
REMARK SMILES IDX 9 12 8 13 5 14 6 15 92 16 7 17 91 18 3 19 4 20 2 21 1 22
REMARK SMILES IDX 19 25 20 26 21 27 22 28 23 29 24 30 25 31 26 32 27 33 88 34
REMARK SMILES IDX 28 35 87 36 29 37 30 38 31 39 81 40 32 41 86 42 80 43 82 44
REMARK SMILES IDX 33 45 85 46 79 47 78 48 34 50 66 51 46 52 65 53 47 54 50 55
REMARK SMILES IDX 64 56 83 57 48 58 49 59 63 61 84 62 51 63 35 64 36 65 44 66
REMARK SMILES IDX 37 67 38 68 42 69 45 70 39 71 40 72 43 73 41 74 67 75 68 76
REMARK SMILES IDX 76 77 69 78 70 79 74 80 77 81 71 82 72 83 75 84 73 85 52 86
REMARK SMILES IDX 53 87 61 88 54 89 55 90 59 91 62 92 56 93 57 94 60 95 58 96
REMARK H PARENT 2 23 2 24 82 49 50 60
REMARK Flexibility Score: inf
ROOT
ATOM      1  C   UNL A   1      35.940  23.060  25.734  1.00  0.00     0.261 C 
ENDROOT
BRANCH   1   2
ATOM      2  O   UNL A   1      34.938  22.544  24.844  1.00  0.00    -0.460 OA
BRANCH   2   3
ATOM      3  C   UNL A   1      34.443  23.460  23.976  1.00  0.00     0.338 C 
ATOM      4  O   UNL A   1      34.489  23.402  22.756  1.00  0.00    -0.246 OA
BRANCH   3   5
ATOM      5  C   UNL A   1      33.705  24.533  24.684  1.00  0.00     0.060 A 
ATOM      6  C   UNL A   1      32.474  26.702  25.994  1.00  0.00    -0.038 A 
ATOM      7  C   UNL A   1      33.419  26.919  24.979  1.00  0.00     0.005 A 
ATOM      8  C   UNL A   1      32.148  25.379  26.337  1.00  0.00     0.005 A 
ATOM      9  C   UNL A   1      34.019  25.847  24.324  1.00  0.00     0.016 A 
ATOM     10  C   UNL A   1      32.754  24.296  25.681  1.00  0.00     0.016 A 
BRANCH   6  11
ATOM     11  C   UNL A   1      31.918  27.894  26.742  1.00  0.00     0.110 C 
BRANCH  11  12
ATOM     12  S   UNL A   1      31.513  29.353  25.735  1.00  0.00    -0.121 SA
BRANCH  12  13
ATOM     13  C   UNL A   1      32.253  30.744  26.582  1.00  0.00     0.008 A 
ATOM     14  C   UNL A   1      33.307  33.138  27.703  1.00  0.00     0.009 A 
ATOM     15  C   UNL A   1      32.034  33.114  27.121  1.00  0.00     0.011 A 
ATOM     16  C   UNL A   1      34.014  31.929  27.772  1.00  0.00     0.011 A 
ATOM     17  C   UNL A   1      31.522  31.938  26.562  1.00  0.00     0.015 A 
ATOM     18  C   UNL A   1      33.487  30.748  27.231  1.00  0.00     0.015 A 
BRANCH  14  19
ATOM     19  C   UNL A   1      33.931  34.403  28.286  1.00  0.00     0.210 C 
ATOM     20  C   UNL A   1      34.739  34.045  29.537  1.00  0.00     0.081 C 
BRANCH  19  21
ATOM     21  N   UNL A   1      32.916  35.438  28.544  1.00  0.00    -0.343 N 
ATOM     22  C   UNL A   1      33.090  36.117  29.819  1.00  0.00     0.331 C 
ATOM     23  H   UNL A   1      32.966  36.133  27.799  1.00  0.00     0.346 HD
ATOM     24  H   UNL A   1      32.010  34.969  28.575  1.00  0.00     0.346 HD
ENDBRANCH  19  21
ENDBRANCH  14  19
ENDBRANCH  12  13
ENDBRANCH  11  12
ENDBRANCH   6  11
ENDBRANCH   3   5
ENDBRANCH   2   3
ENDBRANCH   1   2
BRANCH   1  25
ATOM     25  C   UNL A   1      37.358  22.773  25.231  1.00  0.00     0.202 C 
BRANCH  25  26
ATOM     26  O   UNL A   1      37.521  21.624  24.405  1.00  0.00    -0.374 OA
BRANCH  26  27
ATOM     27  C   UNL A   1      37.617  20.355  25.059  1.00  0.00     0.202 C 
BRANCH  27  28
ATOM     28  C   UNL A   1      38.999  19.689  25.053  1.00  0.00     0.261 C 
BRANCH  28  29
ATOM     29  O   UNL A   1      39.786  20.088  26.193  1.00  0.00    -0.460 OA
BRANCH  29  30
ATOM     30  C   UNL A   1      41.104  19.793  26.120  1.00  0.00     0.338 C 
ATOM     31  O   UNL A   1      41.620  18.786  25.653  1.00  0.00    -0.246 OA
BRANCH  30  32
ATOM     32  C   UNL A   1      41.894  20.972  26.520  1.00  0.00     0.060 A 
ATOM     33  C   UNL A   1      42.004  21.254  27.889  1.00  0.00     0.016 A 
ATOM     34  C   UNL A   1      42.462  21.822  25.571  1.00  0.00     0.016 A 
ATOM     35  C   UNL A   1      42.647  22.415  28.314  1.00  0.00     0.010 A 
ATOM     36  C   UNL A   1      43.095  22.993  25.998  1.00  0.00     0.010 A 
ATOM     37  C   UNL A   1      43.160  23.310  27.367  1.00  0.00    -0.014 A 
BRANCH  37  38
ATOM     38  C   UNL A   1      43.619  24.656  27.785  1.00  0.00     0.031 A 
ATOM     39  C   UNL A   1      42.587  25.693  28.129  1.00  0.00     0.074 A 
ATOM     40  C   UNL A   1      44.927  24.954  27.849  1.00  0.00     0.049 A 
ATOM     41  N   UNL A   1      42.740  26.963  28.401  1.00  0.00    -0.248 NA
ATOM     42  C   UNL A   1      41.189  25.232  28.165  1.00  0.00     0.031 C 
ATOM     43  C   UNL A   1      46.020  24.019  27.595  1.00  0.00     0.029 A 
ATOM     44  N   UNL A   1      45.555  26.141  28.132  1.00  0.00    -0.354 N 
ATOM     45  C   UNL A   1      41.462  27.456  28.625  1.00  0.00     0.074 A 
ATOM     46  C   UNL A   1      40.541  26.354  28.438  1.00  0.00     0.031 C 
ATOM     47  C   UNL A   1      47.189  24.673  27.713  1.00  0.00     0.029 A 
ATOM     48  C   UNL A   1      46.922  26.080  28.010  1.00  0.00     0.049 A 
ATOM     49  H   UNL A   1      45.073  26.958  28.397  1.00  0.00     0.167 HD
ATOM     50  C   UNL A   1      41.091  28.713  28.962  1.00  0.00     0.037 A 
ATOM     51  C   UNL A   1      47.845  27.058  28.095  1.00  0.00     0.037 A 
ATOM     52  C   UNL A   1      42.010  29.805  29.146  1.00  0.00     0.049 A 
ATOM     53  C   UNL A   1      47.400  28.470  28.385  1.00  0.00     0.074 A 
ATOM     54  C   UNL A   1      41.736  31.115  29.493  1.00  0.00     0.029 A 
ATOM     55  N   UNL A   1      43.385  29.709  28.991  1.00  0.00    -0.354 N 
ATOM     56  N   UNL A   1      46.192  28.930  28.604  1.00  0.00    -0.248 NA
ATOM     57  C   UNL A   1      48.449  29.499  28.437  1.00  0.00     0.031 C 
ATOM     58  C   UNL A   1      42.941  31.824  29.502  1.00  0.00     0.029 A 
ATOM     59  C   UNL A   1      43.972  30.944  29.213  1.00  0.00     0.049 A 
ATOM     60  H   UNL A   1      43.872  28.885  28.757  1.00  0.00     0.167 HD
ATOM     61  C   UNL A   1      46.338  30.288  28.854  1.00  0.00     0.074 A 
ATOM     62  C   UNL A   1      47.753  30.580  28.761  1.00  0.00     0.031 C 
ATOM     63  C   UNL A   1      45.385  31.209  29.140  1.00  0.00     0.037 A 
BRANCH  50  64
ATOM     64  C   UNL A   1      39.624  28.983  29.121  1.00  0.00     0.064 A 
ATOM     65  C   UNL A   1      38.828  29.389  28.039  1.00  0.00     0.173 A 
ATOM     66  C   UNL A   1      39.001  28.806  30.365  1.00  0.00     0.173 A 
ATOM     67  F   UNL A   1      39.378  29.585  26.832  1.00  0.00    -0.203 F 
ATOM     68  C   UNL A   1      37.466  29.633  28.205  1.00  0.00     0.198 A 
ATOM     69  C   UNL A   1      37.635  29.025  30.521  1.00  0.00     0.198 A 
ATOM     70  F   UNL A   1      39.717  28.416  31.431  1.00  0.00    -0.203 F 
ATOM     71  F   UNL A   1      36.734  30.065  27.169  1.00  0.00    -0.200 F 
ATOM     72  C   UNL A   1      36.871  29.444  29.443  1.00  0.00     0.200 A 
ATOM     73  F   UNL A   1      37.058  28.831  31.715  1.00  0.00    -0.200 F 
ATOM     74  F   UNL A   1      35.560  29.674  29.599  1.00  0.00    -0.200 F 
ENDBRANCH  50  64
BRANCH  51  75
ATOM     75  C   UNL A   1      49.282  26.744  27.886  1.00  0.00     0.064 A 
ATOM     76  C   UNL A   1      49.854  26.803  26.608  1.00  0.00     0.173 A 
ATOM     77  C   UNL A   1      50.107  26.364  28.954  1.00  0.00     0.173 A 
ATOM     78  F   UNL A   1      49.098  27.134  25.550  1.00  0.00    -0.203 F 
ATOM     79  C   UNL A   1      51.194  26.479  26.403  1.00  0.00     0.198 A 
ATOM     80  C   UNL A   1      51.454  26.067  28.753  1.00  0.00     0.198 A 
ATOM     81  F   UNL A   1      49.607  26.288  30.196  1.00  0.00    -0.203 F 
ATOM     82  F   UNL A   1      51.705  26.500  25.165  1.00  0.00    -0.200 F 
ATOM     83  C   UNL A   1      51.994  26.118  27.477  1.00  0.00     0.200 A 
ATOM     84  F   UNL A   1      52.225  25.728  29.794  1.00  0.00    -0.200 F 
ATOM     85  F   UNL A   1      53.283  25.809  27.281  1.00  0.00    -0.200 F 
ENDBRANCH  51  75
BRANCH  63  86
ATOM     86  C   UNL A   1      45.838  32.611  29.431  1.00  0.00     0.064 A 
ATOM     87  C   UNL A   1      45.924  33.583  28.425  1.00  0.00     0.173 A 
ATOM     88  C   UNL A   1      46.121  33.000  30.749  1.00  0.00     0.173 A 
ATOM     89  F   UNL A   1      45.677  33.257  27.148  1.00  0.00    -0.203 F 
ATOM     90  C   UNL A   1      46.290  34.893  28.727  1.00  0.00     0.198 A 
ATOM     91  C   UNL A   1      46.459  34.316  31.051  1.00  0.00     0.198 A 
ATOM     92  F   UNL A   1      46.046  32.108  31.748  1.00  0.00    -0.203 F 
ATOM     93  F   UNL A   1      46.398  35.800  27.746  1.00  0.00    -0.200 F 
ATOM     94  C   UNL A   1      46.547  35.260  30.040  1.00  0.00     0.200 A 
ATOM     95  F   UNL A   1      46.694  34.671  32.322  1.00  0.00    -0.200 F 
ATOM     96  F   UNL A   1      46.884  36.525  30.330  1.00  0.00    -0.200 F 
ENDBRANCH  63  86
ENDBRANCH  37  38
ENDBRANCH  30  32
ENDBRANCH  29  30
ENDBRANCH  28  29
ENDBRANCH  27  28
ENDBRANCH  26  27
ENDBRANCH  25  26
ENDBRANCH   1  25
TORSDOF 19
ENDMDL
