MODEL 1
REMARK VINA RESULT:      -9.3      0.000      0.000
REMARK SMILES CCOc1cc(OCC)cc(-c2ccc([C@@H](C)C(=O)OCCOCCOC(=O)c3ccc(-c4c5nc(c(-c6c(F)c(F)c(F)c(F)c6F)c6ccc([nH]6)c(-c6c(F)c(F)c(F)c(F)c6F)c6nc(c(-c7c(F)c(F)c(F)c(F)c7F)c7ccc4[nH]7)C=C6)C=C5)cc3)cc2)c1
REMARK SMILES IDX 22 1 21 2 20 3 18 4 19 5 16 6 17 7 15 8 12 9 13 10 93 11
REMARK SMILES IDX 14 12 92 13 11 14 4 15 5 16 94 17 6 18 10 19 3 20 2 21 1 22
REMARK SMILES IDX 7 23 8 24 9 25 23 26 24 27 25 28 26 29 27 30 28 31 29 32
REMARK SMILES IDX 30 33 91 34 31 35 90 36 32 37 33 38 34 39 84 40 35 41 89 42
REMARK SMILES IDX 83 43 85 44 36 45 88 46 82 47 81 48 37 50 69 51 49 52 68 53
REMARK SMILES IDX 50 54 53 55 67 56 86 57 51 58 52 59 66 61 87 62 54 63 38 64
REMARK SMILES IDX 39 65 47 66 40 67 41 68 45 69 48 70 42 71 43 72 46 73 44 74
REMARK SMILES IDX 70 75 71 76 79 77 72 78 73 79 77 80 80 81 74 82 75 83 78 84
REMARK SMILES IDX 76 85 55 86 56 87 64 88 57 89 58 90 62 91 65 92 59 93 60 94
REMARK SMILES IDX 63 95 61 96
REMARK H PARENT 85 49 53 60
REMARK Flexibility Score: inf
ROOT
ATOM      1  C   UNL A   1      32.605  35.852  31.027  1.00  0.00     0.202 C 
ENDROOT
BRANCH   1   2
ATOM      2  C   UNL A   1      33.774  35.649  31.993  1.00  0.00     0.261 C 
BRANCH   2   3
ATOM      3  O   UNL A   1      33.588  34.464  32.787  1.00  0.00    -0.463 OA
BRANCH   3   4
ATOM      4  C   UNL A   1      34.358  33.396  32.455  1.00  0.00     0.313 C 
ATOM      5  O   UNL A   1      34.019  32.513  31.673  1.00  0.00    -0.252 OA
BRANCH   4   6
ATOM      6  C   UNL A   1      35.692  33.350  33.186  1.00  0.00     0.126 C 
ATOM      7  C   UNL A   1      35.555  34.061  34.530  1.00  0.00     0.025 C 
BRANCH   6   8
ATOM      8  C   UNL A   1      36.933  33.813  32.430  1.00  0.00    -0.034 A 
ATOM      9  C   UNL A   1      39.308  34.386  30.976  1.00  0.00    -0.018 A 
ATOM     10  C   UNL A   1      39.243  34.570  32.366  1.00  0.00     0.009 A 
ATOM     11  C   UNL A   1      38.144  33.970  30.317  1.00  0.00     0.009 A 
ATOM     12  C   UNL A   1      38.077  34.284  33.084  1.00  0.00     0.005 A 
ATOM     13  C   UNL A   1      36.975  33.688  31.032  1.00  0.00     0.005 A 
BRANCH   9  14
ATOM     14  C   UNL A   1      40.578  34.550  30.248  1.00  0.00    -0.011 A 
ATOM     15  C   UNL A   1      41.863  35.343  28.347  1.00  0.00     0.123 A 
ATOM     16  C   UNL A   1      43.022  34.777  28.875  1.00  0.00     0.092 A 
ATOM     17  C   UNL A   1      40.646  35.214  29.017  1.00  0.00     0.055 A 
ATOM     18  C   UNL A   1      42.975  34.085  30.086  1.00  0.00     0.123 A 
ATOM     19  C   UNL A   1      41.759  33.984  30.763  1.00  0.00     0.055 A 
BRANCH  15  20
ATOM     20  O   UNL A   1      41.930  35.896  27.097  1.00  0.00    -0.494 OA
BRANCH  20  21
ATOM     21  C   UNL A   1      43.178  35.670  26.433  1.00  0.00     0.226 C 
ATOM     22  C   UNL A   1      43.026  34.701  25.270  1.00  0.00     0.049 C 
ENDBRANCH  20  21
ENDBRANCH  15  20
BRANCH  18  23
ATOM     23  O   UNL A   1      44.165  33.566  30.518  1.00  0.00    -0.494 OA
BRANCH  23  24
ATOM     24  C   UNL A   1      44.540  32.271  30.039  1.00  0.00     0.226 C 
ATOM     25  C   UNL A   1      45.276  31.482  31.110  1.00  0.00     0.049 C 
ENDBRANCH  23  24
ENDBRANCH  18  23
ENDBRANCH   9  14
ENDBRANCH   6   8
ENDBRANCH   4   6
ENDBRANCH   3   4
ENDBRANCH   2   3
ENDBRANCH   1   2
BRANCH   1  26
ATOM     26  O   UNL A   1      32.584  34.997  29.885  1.00  0.00    -0.374 OA
BRANCH  26  27
ATOM     27  C   UNL A   1      33.771  34.933  29.093  1.00  0.00     0.202 C 
BRANCH  27  28
ATOM     28  C   UNL A   1      33.830  33.803  28.059  1.00  0.00     0.261 C 
BRANCH  28  29
ATOM     29  O   UNL A   1      34.899  32.879  28.328  1.00  0.00    -0.460 OA
BRANCH  29  30
ATOM     30  C   UNL A   1      34.601  31.578  28.127  1.00  0.00     0.338 C 
ATOM     31  O   UNL A   1      33.580  31.114  27.634  1.00  0.00    -0.246 OA
BRANCH  30  32
ATOM     32  C   UNL A   1      35.771  30.740  28.440  1.00  0.00     0.060 A 
ATOM     33  C   UNL A   1      35.703  29.922  29.577  1.00  0.00     0.016 A 
ATOM     34  C   UNL A   1      36.945  30.817  27.689  1.00  0.00     0.016 A 
ATOM     35  C   UNL A   1      36.830  29.221  30.003  1.00  0.00     0.010 A 
ATOM     36  C   UNL A   1      38.078  30.124  28.126  1.00  0.00     0.010 A 
ATOM     37  C   UNL A   1      38.036  29.359  29.307  1.00  0.00    -0.014 A 
BRANCH  37  38
ATOM     38  C   UNL A   1      39.301  28.871  29.906  1.00  0.00     0.031 A 
ATOM     39  C   UNL A   1      39.845  29.594  31.107  1.00  0.00     0.074 A 
ATOM     40  C   UNL A   1      39.958  27.817  29.395  1.00  0.00     0.049 A 
ATOM     41  N   UNL A   1      40.993  29.450  31.717  1.00  0.00    -0.248 NA
ATOM     42  C   UNL A   1      38.975  30.625  31.697  1.00  0.00     0.031 C 
ATOM     43  C   UNL A   1      39.498  26.996  28.277  1.00  0.00     0.029 A 
ATOM     44  N   UNL A   1      41.167  27.270  29.743  1.00  0.00    -0.354 N 
ATOM     45  C   UNL A   1      40.992  30.384  32.745  1.00  0.00     0.074 A 
ATOM     46  C   UNL A   1      39.737  31.099  32.671  1.00  0.00     0.031 C 
ATOM     47  C   UNL A   1      40.430  26.063  28.012  1.00  0.00     0.029 A 
ATOM     48  C   UNL A   1      41.567  26.251  28.914  1.00  0.00     0.049 A 
ATOM     49  H   UNL A   1      41.698  27.579  30.513  1.00  0.00     0.167 HD
ATOM     50  C   UNL A   1      41.954  30.622  33.667  1.00  0.00     0.037 A 
ATOM     51  C   UNL A   1      42.733  25.576  28.868  1.00  0.00     0.037 A 
ATOM     52  C   UNL A   1      43.196  29.902  33.742  1.00  0.00     0.049 A 
ATOM     53  C   UNL A   1      43.820  25.910  29.857  1.00  0.00     0.074 A 
ATOM     54  C   UNL A   1      44.233  30.061  34.644  1.00  0.00     0.029 A 
ATOM     55  N   UNL A   1      43.568  28.885  32.876  1.00  0.00    -0.354 N 
ATOM     56  N   UNL A   1      43.816  26.794  30.825  1.00  0.00    -0.248 NA
ATOM     57  C   UNL A   1      45.079  25.157  29.743  1.00  0.00     0.031 C 
ATOM     58  C   UNL A   1      45.253  29.171  34.295  1.00  0.00     0.029 A 
ATOM     59  C   UNL A   1      44.828  28.420  33.209  1.00  0.00     0.049 A 
ATOM     60  H   UNL A   1      43.018  28.544  32.134  1.00  0.00     0.167 HD
ATOM     61  C   UNL A   1      45.047  26.676  31.458  1.00  0.00     0.074 A 
ATOM     62  C   UNL A   1      45.777  25.638  30.762  1.00  0.00     0.031 C 
ATOM     63  C   UNL A   1      45.526  27.363  32.525  1.00  0.00     0.037 A 
BRANCH  50  64
ATOM     64  C   UNL A   1      41.714  31.730  34.650  1.00  0.00     0.064 A 
ATOM     65  C   UNL A   1      42.295  32.996  34.493  1.00  0.00     0.173 A 
ATOM     66  C   UNL A   1      40.864  31.528  35.747  1.00  0.00     0.173 A 
ATOM     67  F   UNL A   1      43.128  33.234  33.468  1.00  0.00    -0.203 F 
ATOM     68  C   UNL A   1      42.052  34.013  35.412  1.00  0.00     0.198 A 
ATOM     69  C   UNL A   1      40.600  32.556  36.648  1.00  0.00     0.198 A 
ATOM     70  F   UNL A   1      40.280  30.336  35.941  1.00  0.00    -0.203 F 
ATOM     71  F   UNL A   1      42.651  35.203  35.266  1.00  0.00    -0.200 F 
ATOM     72  C   UNL A   1      41.199  33.796  36.483  1.00  0.00     0.200 A 
ATOM     73  F   UNL A   1      39.767  32.347  37.677  1.00  0.00    -0.200 F 
ATOM     74  F   UNL A   1      40.959  34.778  37.362  1.00  0.00    -0.200 F 
ENDBRANCH  50  64
BRANCH  51  75
ATOM     75  C   UNL A   1      42.945  24.532  27.831  1.00  0.00     0.064 A 
ATOM     76  C   UNL A   1      42.622  23.192  28.079  1.00  0.00     0.173 A 
ATOM     77  C   UNL A   1      43.488  24.852  26.578  1.00  0.00     0.173 A 
ATOM     78  F   UNL A   1      42.123  22.833  29.271  1.00  0.00    -0.203 F 
ATOM     79  C   UNL A   1      42.847  22.207  27.118  1.00  0.00     0.198 A 
ATOM     80  C   UNL A   1      43.688  23.872  25.608  1.00  0.00     0.198 A 
ATOM     81  F   UNL A   1      43.817  26.120  26.291  1.00  0.00    -0.203 F 
ATOM     82  F   UNL A   1      42.571  20.927  27.396  1.00  0.00    -0.200 F 
ATOM     83  C   UNL A   1      43.375  22.549  25.881  1.00  0.00     0.200 A 
ATOM     84  F   UNL A   1      44.188  24.209  24.411  1.00  0.00    -0.200 F 
ATOM     85  F   UNL A   1      43.589  21.603  24.957  1.00  0.00    -0.200 F 
ENDBRANCH  51  75
BRANCH  63  86
ATOM     86  C   UNL A   1      46.876  26.979  33.056  1.00  0.00     0.064 A 
ATOM     87  C   UNL A   1      48.051  27.592  32.600  1.00  0.00     0.173 A 
ATOM     88  C   UNL A   1      46.979  26.048  34.102  1.00  0.00     0.173 A 
ATOM     89  F   UNL A   1      48.004  28.478  31.595  1.00  0.00    -0.203 F 
ATOM     90  C   UNL A   1      49.284  27.281  33.170  1.00  0.00     0.198 A 
ATOM     91  C   UNL A   1      48.209  25.759  34.684  1.00  0.00     0.198 A 
ATOM     92  F   UNL A   1      45.880  25.441  34.576  1.00  0.00    -0.203 F 
ATOM     93  F   UNL A   1      50.399  27.860  32.704  1.00  0.00    -0.200 F 
ATOM     94  C   UNL A   1      49.360  26.375  34.217  1.00  0.00     0.200 A 
ATOM     95  F   UNL A   1      48.278  24.894  35.706  1.00  0.00    -0.200 F 
ATOM     96  F   UNL A   1      50.545  26.092  34.777  1.00  0.00    -0.200 F 
ENDBRANCH  63  86
ENDBRANCH  37  38
ENDBRANCH  30  32
ENDBRANCH  29  30
ENDBRANCH  28  29
ENDBRANCH  27  28
ENDBRANCH  26  27
ENDBRANCH   1  26
TORSDOF 20
ENDMDL
MODEL 2
REMARK VINA RESULT:      -9.3      2.311      4.472
REMARK SMILES CCOc1cc(OCC)cc(-c2ccc([C@@H](C)C(=O)OCCOCCOC(=O)c3ccc(-c4c5nc(c(-c6c(F)c(F)c(F)c(F)c6F)c6ccc([nH]6)c(-c6c(F)c(F)c(F)c(F)c6F)c6nc(c(-c7c(F)c(F)c(F)c(F)c7F)c7ccc4[nH]7)C=C6)C=C5)cc3)cc2)c1
REMARK SMILES IDX 22 1 21 2 20 3 18 4 19 5 16 6 17 7 15 8 12 9 13 10 93 11
REMARK SMILES IDX 14 12 92 13 11 14 4 15 5 16 94 17 6 18 10 19 3 20 2 21 1 22
REMARK SMILES IDX 7 23 8 24 9 25 23 26 24 27 25 28 26 29 27 30 28 31 29 32
REMARK SMILES IDX 30 33 91 34 31 35 90 36 32 37 33 38 34 39 84 40 35 41 89 42
REMARK SMILES IDX 83 43 85 44 36 45 88 46 82 47 81 48 37 50 69 51 49 52 68 53
REMARK SMILES IDX 50 54 53 55 67 56 86 57 51 58 52 59 66 61 87 62 54 63 38 64
REMARK SMILES IDX 39 65 47 66 40 67 41 68 45 69 48 70 42 71 43 72 46 73 44 74
REMARK SMILES IDX 70 75 71 76 79 77 72 78 73 79 77 80 80 81 74 82 75 83 78 84
REMARK SMILES IDX 76 85 55 86 56 87 64 88 57 89 58 90 62 91 65 92 59 93 60 94
REMARK SMILES IDX 63 95 61 96
REMARK H PARENT 85 49 53 60
REMARK Flexibility Score: inf
ROOT
ATOM      1  C   UNL A   1      33.687  35.531  31.632  1.00  0.00     0.202 C 
ENDROOT
BRANCH   1   2
ATOM      2  C   UNL A   1      34.491  35.248  32.902  1.00  0.00     0.261 C 
BRANCH   2   3
ATOM      3  O   UNL A   1      34.714  33.837  33.067  1.00  0.00    -0.463 OA
BRANCH   3   4
ATOM      4  C   UNL A   1      35.784  33.487  33.827  1.00  0.00     0.313 C 
ATOM      5  O   UNL A   1      35.760  33.381  35.049  1.00  0.00    -0.252 OA
BRANCH   4   6
ATOM      6  C   UNL A   1      37.063  33.278  33.030  1.00  0.00     0.126 C 
ATOM      7  C   UNL A   1      36.715  33.115  31.553  1.00  0.00     0.025 C 
BRANCH   6   8
ATOM      8  C   UNL A   1      38.025  32.194  33.503  1.00  0.00    -0.034 A 
ATOM      9  C   UNL A   1      39.993  30.245  34.150  1.00  0.00    -0.018 A 
ATOM     10  C   UNL A   1      38.745  29.873  33.625  1.00  0.00     0.009 A 
ATOM     11  C   UNL A   1      40.216  31.605  34.403  1.00  0.00     0.009 A 
ATOM     12  C   UNL A   1      37.777  30.831  33.301  1.00  0.00     0.005 A 
ATOM     13  C   UNL A   1      39.248  32.564  34.086  1.00  0.00     0.005 A 
BRANCH   9  14
ATOM     14  C   UNL A   1      41.057  29.248  34.352  1.00  0.00    -0.011 A 
ATOM     15  C   UNL A   1      42.427  27.847  35.785  1.00  0.00     0.123 A 
ATOM     16  C   UNL A   1      43.142  27.388  34.680  1.00  0.00     0.092 A 
ATOM     17  C   UNL A   1      41.406  28.785  35.626  1.00  0.00     0.055 A 
ATOM     18  C   UNL A   1      42.833  27.857  33.403  1.00  0.00     0.123 A 
ATOM     19  C   UNL A   1      41.792  28.774  33.249  1.00  0.00     0.055 A 
BRANCH  15  20
ATOM     20  O   UNL A   1      42.850  27.463  37.029  1.00  0.00    -0.494 OA
BRANCH  20  21
ATOM     21  C   UNL A   1      44.211  27.814  37.309  1.00  0.00     0.226 C 
ATOM     22  C   UNL A   1      45.044  26.589  37.652  1.00  0.00     0.049 C 
ENDBRANCH  20  21
ENDBRANCH  15  20
BRANCH  18  23
ATOM     23  O   UNL A   1      43.593  27.347  32.385  1.00  0.00    -0.494 OA
BRANCH  23  24
ATOM     24  C   UNL A   1      44.579  26.366  32.717  1.00  0.00     0.226 C 
ATOM     25  C   UNL A   1      44.248  25.021  32.091  1.00  0.00     0.049 C 
ENDBRANCH  23  24
ENDBRANCH  18  23
ENDBRANCH   9  14
ENDBRANCH   6   8
ENDBRANCH   4   6
ENDBRANCH   3   4
ENDBRANCH   2   3
ENDBRANCH   1   2
BRANCH   1  26
ATOM     26  O   UNL A   1      33.529  34.432  30.737  1.00  0.00    -0.374 OA
BRANCH  26  27
ATOM     27  C   UNL A   1      33.897  34.639  29.372  1.00  0.00     0.202 C 
BRANCH  27  28
ATOM     28  C   UNL A   1      33.863  33.401  28.470  1.00  0.00     0.261 C 
BRANCH  28  29
ATOM     29  O   UNL A   1      34.726  32.356  28.952  1.00  0.00    -0.460 OA
BRANCH  29  30
ATOM     30  C   UNL A   1      34.610  31.171  28.315  1.00  0.00     0.338 C 
ATOM     31  O   UNL A   1      33.680  30.789  27.615  1.00  0.00    -0.246 OA
BRANCH  30  32
ATOM     32  C   UNL A   1      35.865  30.410  28.436  1.00  0.00     0.060 A 
ATOM     33  C   UNL A   1      36.201  29.900  29.698  1.00  0.00     0.016 A 
ATOM     34  C   UNL A   1      36.741  30.273  27.357  1.00  0.00     0.016 A 
ATOM     35  C   UNL A   1      37.443  29.301  29.902  1.00  0.00     0.010 A 
ATOM     36  C   UNL A   1      37.992  29.684  27.568  1.00  0.00     0.010 A 
ATOM     37  C   UNL A   1      38.362  29.235  28.849  1.00  0.00    -0.014 A 
BRANCH  37  38
ATOM     38  C   UNL A   1      39.776  28.882  29.118  1.00  0.00     0.031 A 
ATOM     39  C   UNL A   1      40.644  29.894  29.814  1.00  0.00     0.074 A 
ATOM     40  C   UNL A   1      40.285  27.695  28.747  1.00  0.00     0.049 A 
ATOM     41  N   UNL A   1      41.933  29.878  30.031  1.00  0.00    -0.248 NA
ATOM     42  C   UNL A   1      39.961  31.091  30.331  1.00  0.00     0.031 C 
ATOM     43  C   UNL A   1      39.530  26.609  28.126  1.00  0.00     0.029 A 
ATOM     44  N   UNL A   1      41.568  27.216  28.825  1.00  0.00    -0.354 N 
ATOM     45  C   UNL A   1      42.218  31.068  30.688  1.00  0.00     0.074 A 
ATOM     46  C   UNL A   1      40.972  31.790  30.824  1.00  0.00     0.031 C 
ATOM     47  C   UNL A   1      40.372  25.597  27.854  1.00  0.00     0.029 A 
ATOM     48  C   UNL A   1      41.729  25.983  28.242  1.00  0.00     0.049 A 
ATOM     49  H   UNL A   1      42.304  27.707  29.256  1.00  0.00     0.167 HD
ATOM     50  C   UNL A   1      43.414  31.517  31.137  1.00  0.00     0.037 A 
ATOM     51  C   UNL A   1      42.849  25.269  28.015  1.00  0.00     0.037 A 
ATOM     52  C   UNL A   1      44.649  30.790  31.008  1.00  0.00     0.049 A 
ATOM     53  C   UNL A   1      44.181  25.822  28.455  1.00  0.00     0.074 A 
ATOM     54  C   UNL A   1      45.913  31.154  31.436  1.00  0.00     0.029 A 
ATOM     55  N   UNL A   1      44.771  29.551  30.399  1.00  0.00    -0.354 N 
ATOM     56  N   UNL A   1      44.445  26.947  29.074  1.00  0.00    -0.248 NA
ATOM     57  C   UNL A   1      45.371  25.009  28.161  1.00  0.00     0.031 C 
ATOM     58  C   UNL A   1      46.808  30.154  31.046  1.00  0.00     0.029 A 
ATOM     59  C   UNL A   1      46.093  29.142  30.423  1.00  0.00     0.049 A 
ATOM     60  H   UNL A   1      44.028  29.037  30.008  1.00  0.00     0.167 HD
ATOM     61  C   UNL A   1      45.820  26.959  29.277  1.00  0.00     0.074 A 
ATOM     62  C   UNL A   1      46.337  25.731  28.713  1.00  0.00     0.031 C 
ATOM     63  C   UNL A   1      46.583  27.901  29.884  1.00  0.00     0.037 A 
BRANCH  50  64
ATOM     64  C   UNL A   1      43.451  32.871  31.780  1.00  0.00     0.064 A 
ATOM     65  C   UNL A   1      43.514  34.048  31.022  1.00  0.00     0.173 A 
ATOM     66  C   UNL A   1      43.388  32.990  33.177  1.00  0.00     0.173 A 
ATOM     67  F   UNL A   1      43.591  33.986  29.684  1.00  0.00    -0.203 F 
ATOM     68  C   UNL A   1      43.537  35.296  31.640  1.00  0.00     0.198 A 
ATOM     69  C   UNL A   1      43.382  34.240  33.790  1.00  0.00     0.198 A 
ATOM     70  F   UNL A   1      43.322  31.895  33.948  1.00  0.00    -0.203 F 
ATOM     71  F   UNL A   1      43.641  36.407  30.898  1.00  0.00    -0.200 F 
ATOM     72  C   UNL A   1      43.463  35.392  33.021  1.00  0.00     0.200 A 
ATOM     73  F   UNL A   1      43.298  34.331  35.124  1.00  0.00    -0.200 F 
ATOM     74  F   UNL A   1      43.477  36.593  33.613  1.00  0.00    -0.200 F 
ENDBRANCH  50  64
BRANCH  51  75
ATOM     75  C   UNL A   1      42.766  23.961  27.313  1.00  0.00     0.064 A 
ATOM     76  C   UNL A   1      42.338  22.807  27.983  1.00  0.00     0.173 A 
ATOM     77  C   UNL A   1      43.127  23.836  25.963  1.00  0.00     0.173 A 
ATOM     78  F   UNL A   1      42.007  22.871  29.281  1.00  0.00    -0.203 F 
ATOM     79  C   UNL A   1      42.288  21.575  27.334  1.00  0.00     0.198 A 
ATOM     80  C   UNL A   1      43.051  22.609  25.308  1.00  0.00     0.198 A 
ATOM     81  F   UNL A   1      43.546  24.910  25.277  1.00  0.00    -0.203 F 
ATOM     82  F   UNL A   1      41.917  20.480  28.009  1.00  0.00    -0.200 F 
ATOM     83  C   UNL A   1      42.639  21.478  25.995  1.00  0.00     0.200 A 
ATOM     84  F   UNL A   1      43.380  22.523  24.012  1.00  0.00    -0.200 F 
ATOM     85  F   UNL A   1      42.587  20.294  25.371  1.00  0.00    -0.200 F 
ENDBRANCH  51  75
BRANCH  63  86
ATOM     86  C   UNL A   1      48.050  27.623  30.034  1.00  0.00     0.064 A 
ATOM     87  C   UNL A   1      48.567  26.962  31.157  1.00  0.00     0.173 A 
ATOM     88  C   UNL A   1      48.935  27.946  28.992  1.00  0.00     0.173 A 
ATOM     89  F   UNL A   1      47.764  26.645  32.182  1.00  0.00    -0.203 F 
ATOM     90  C   UNL A   1      49.920  26.639  31.233  1.00  0.00     0.198 A 
ATOM     91  C   UNL A   1      50.280  27.599  29.062  1.00  0.00     0.198 A 
ATOM     92  F   UNL A   1      48.485  28.572  27.895  1.00  0.00    -0.203 F 
ATOM     93  F   UNL A   1      50.399  26.027  32.326  1.00  0.00    -0.200 F 
ATOM     94  C   UNL A   1      50.772  26.947  30.183  1.00  0.00     0.200 A 
ATOM     95  F   UNL A   1      51.098  27.884  28.040  1.00  0.00    -0.200 F 
ATOM     96  F   UNL A   1      52.069  26.616  30.251  1.00  0.00    -0.200 F 
ENDBRANCH  63  86
ENDBRANCH  37  38
ENDBRANCH  30  32
ENDBRANCH  29  30
ENDBRANCH  28  29
ENDBRANCH  27  28
ENDBRANCH  26  27
ENDBRANCH   1  26
TORSDOF 20
ENDMDL
MODEL 3
REMARK VINA RESULT:      -9.0      4.418     10.208
REMARK SMILES CCOc1cc(OCC)cc(-c2ccc([C@@H](C)C(=O)OCCOCCOC(=O)c3ccc(-c4c5nc(c(-c6c(F)c(F)c(F)c(F)c6F)c6ccc([nH]6)c(-c6c(F)c(F)c(F)c(F)c6F)c6nc(c(-c7c(F)c(F)c(F)c(F)c7F)c7ccc4[nH]7)C=C6)C=C5)cc3)cc2)c1
REMARK SMILES IDX 22 1 21 2 20 3 18 4 19 5 16 6 17 7 15 8 12 9 13 10 93 11
REMARK SMILES IDX 14 12 92 13 11 14 4 15 5 16 94 17 6 18 10 19 3 20 2 21 1 22
REMARK SMILES IDX 7 23 8 24 9 25 23 26 24 27 25 28 26 29 27 30 28 31 29 32
REMARK SMILES IDX 30 33 91 34 31 35 90 36 32 37 33 38 34 39 84 40 35 41 89 42
REMARK SMILES IDX 83 43 85 44 36 45 88 46 82 47 81 48 37 50 69 51 49 52 68 53
REMARK SMILES IDX 50 54 53 55 67 56 86 57 51 58 52 59 66 61 87 62 54 63 38 64
REMARK SMILES IDX 39 65 47 66 40 67 41 68 45 69 48 70 42 71 43 72 46 73 44 74
REMARK SMILES IDX 70 75 71 76 79 77 72 78 73 79 77 80 80 81 74 82 75 83 78 84
REMARK SMILES IDX 76 85 55 86 56 87 64 88 57 89 58 90 62 91 65 92 59 93 60 94
REMARK SMILES IDX 63 95 61 96
REMARK H PARENT 85 49 53 60
REMARK Flexibility Score: inf
ROOT
ATOM      1  C   UNL A   1      34.257  34.090  30.663  1.00  0.00     0.202 C 
ENDROOT
BRANCH   1   2
ATOM      2  C   UNL A   1      35.507  33.858  29.812  1.00  0.00     0.261 C 
BRANCH   2   3
ATOM      3  O   UNL A   1      35.177  33.180  28.587  1.00  0.00    -0.463 OA
BRANCH   3   4
ATOM      4  C   UNL A   1      35.912  32.075  28.299  1.00  0.00     0.313 C 
ATOM      5  O   UNL A   1      37.050  32.100  27.839  1.00  0.00    -0.252 OA
BRANCH   4   6
ATOM      6  C   UNL A   1      35.180  30.766  28.552  1.00  0.00     0.126 C 
ATOM      7  C   UNL A   1      36.184  29.701  28.983  1.00  0.00     0.025 C 
BRANCH   6   8
ATOM      8  C   UNL A   1      34.250  30.251  27.458  1.00  0.00    -0.034 A 
ATOM      9  C   UNL A   1      32.339  29.187  25.640  1.00  0.00    -0.018 A 
ATOM     10  C   UNL A   1      33.590  28.577  25.821  1.00  0.00     0.009 A 
ATOM     11  C   UNL A   1      32.085  30.375  26.339  1.00  0.00     0.009 A 
ATOM     12  C   UNL A   1      34.530  29.095  26.719  1.00  0.00     0.005 A 
ATOM     13  C   UNL A   1      33.025  30.899  27.233  1.00  0.00     0.005 A 
BRANCH   9  14
ATOM     14  C   UNL A   1      31.303  28.558  24.805  1.00  0.00    -0.011 A 
ATOM     15  C   UNL A   1      30.058  26.616  24.047  1.00  0.00     0.123 A 
ATOM     16  C   UNL A   1      29.354  27.403  23.138  1.00  0.00     0.092 A 
ATOM     17  C   UNL A   1      31.040  27.184  24.860  1.00  0.00     0.055 A 
ATOM     18  C   UNL A   1      29.618  28.769  23.042  1.00  0.00     0.123 A 
ATOM     19  C   UNL A   1      30.582  29.335  23.878  1.00  0.00     0.055 A 
BRANCH  15  20
ATOM     20  O   UNL A   1      29.861  25.262  24.014  1.00  0.00    -0.494 OA
BRANCH  20  21
ATOM     21  C   UNL A   1      31.069  24.507  23.860  1.00  0.00     0.226 C 
ATOM     22  C   UNL A   1      31.188  23.422  24.919  1.00  0.00     0.049 C 
ENDBRANCH  20  21
ENDBRANCH  15  20
BRANCH  18  23
ATOM     23  O   UNL A   1      28.874  29.453  22.119  1.00  0.00    -0.494 OA
BRANCH  23  24
ATOM     24  C   UNL A   1      27.665  30.074  22.565  1.00  0.00     0.226 C 
ATOM     25  C   UNL A   1      27.926  31.487  23.062  1.00  0.00     0.049 C 
ENDBRANCH  23  24
ENDBRANCH  18  23
ENDBRANCH   9  14
ENDBRANCH   6   8
ENDBRANCH   4   6
ENDBRANCH   3   4
ENDBRANCH   2   3
ENDBRANCH   1   2
BRANCH   1  26
ATOM     26  O   UNL A   1      34.134  33.271  31.825  1.00  0.00    -0.374 OA
BRANCH  26  27
ATOM     27  C   UNL A   1      34.316  33.902  33.094  1.00  0.00     0.202 C 
BRANCH  27  28
ATOM     28  C   UNL A   1      35.365  33.271  34.016  1.00  0.00     0.261 C 
BRANCH  28  29
ATOM     29  O   UNL A   1      36.614  33.044  33.338  1.00  0.00    -0.460 OA
BRANCH  29  30
ATOM     30  C   UNL A   1      37.401  32.093  33.884  1.00  0.00     0.338 C 
ATOM     31  O   UNL A   1      37.404  31.701  35.044  1.00  0.00    -0.246 OA
BRANCH  30  32
ATOM     32  C   UNL A   1      38.194  31.432  32.832  1.00  0.00     0.060 A 
ATOM     33  C   UNL A   1      39.208  30.552  33.234  1.00  0.00     0.016 A 
ATOM     34  C   UNL A   1      38.008  31.734  31.481  1.00  0.00     0.016 A 
ATOM     35  C   UNL A   1      40.082  30.015  32.291  1.00  0.00     0.010 A 
ATOM     36  C   UNL A   1      38.894  31.204  30.539  1.00  0.00     0.010 A 
ATOM     37  C   UNL A   1      39.958  30.378  30.945  1.00  0.00    -0.014 A 
BRANCH  37  38
ATOM     38  C   UNL A   1      41.044  30.062  29.987  1.00  0.00     0.031 A 
ATOM     39  C   UNL A   1      41.036  28.714  29.319  1.00  0.00     0.074 A 
ATOM     40  C   UNL A   1      42.020  30.945  29.718  1.00  0.00     0.049 A 
ATOM     41  N   UNL A   1      41.942  28.154  28.562  1.00  0.00    -0.248 NA
ATOM     42  C   UNL A   1      39.842  27.883  29.545  1.00  0.00     0.031 C 
ATOM     43  C   UNL A   1      42.100  32.304  30.249  1.00  0.00     0.029 A 
ATOM     44  N   UNL A   1      43.144  30.817  28.941  1.00  0.00    -0.354 N 
ATOM     45  C   UNL A   1      41.439  26.901  28.238  1.00  0.00     0.074 A 
ATOM     46  C   UNL A   1      40.155  26.774  28.892  1.00  0.00     0.031 C 
ATOM     47  C   UNL A   1      43.231  32.878  29.803  1.00  0.00     0.029 A 
ATOM     48  C   UNL A   1      43.972  31.911  28.991  1.00  0.00     0.049 A 
ATOM     49  H   UNL A   1      43.338  30.019  28.399  1.00  0.00     0.167 HD
ATOM     50  C   UNL A   1      42.001  25.942  27.466  1.00  0.00     0.037 A 
ATOM     51  C   UNL A   1      45.203  32.093  28.473  1.00  0.00     0.037 A 
ATOM     52  C   UNL A   1      43.275  26.076  26.811  1.00  0.00     0.049 A 
ATOM     53  C   UNL A   1      45.842  30.983  27.679  1.00  0.00     0.074 A 
ATOM     54  C   UNL A   1      43.928  25.166  26.000  1.00  0.00     0.029 A 
ATOM     55  N   UNL A   1      44.089  27.195  26.898  1.00  0.00    -0.354 N 
ATOM     56  N   UNL A   1      45.365  29.799  27.378  1.00  0.00    -0.248 NA
ATOM     57  C   UNL A   1      47.195  31.229  27.157  1.00  0.00     0.031 C 
ATOM     58  C   UNL A   1      45.160  25.717  25.632  1.00  0.00     0.029 A 
ATOM     59  C   UNL A   1      45.248  26.992  26.170  1.00  0.00     0.049 A 
ATOM     60  H   UNL A   1      43.874  28.013  27.402  1.00  0.00     0.167 HD
ATOM     61  C   UNL A   1      46.336  29.179  26.602  1.00  0.00     0.074 A 
ATOM     62  C   UNL A   1      47.434  30.114  26.481  1.00  0.00     0.031 C 
ATOM     63  C   UNL A   1      46.316  27.948  26.035  1.00  0.00     0.037 A 
BRANCH  50  64
ATOM     64  C   UNL A   1      41.257  24.648  27.314  1.00  0.00     0.064 A 
ATOM     65  C   UNL A   1      40.138  24.533  26.478  1.00  0.00     0.173 A 
ATOM     66  C   UNL A   1      41.694  23.499  27.991  1.00  0.00     0.173 A 
ATOM     67  F   UNL A   1      39.673  25.607  25.821  1.00  0.00    -0.203 F 
ATOM     68  C   UNL A   1      39.468  23.320  26.343  1.00  0.00     0.198 A 
ATOM     69  C   UNL A   1      41.039  22.281  27.832  1.00  0.00     0.198 A 
ATOM     70  F   UNL A   1      42.762  23.556  28.800  1.00  0.00    -0.203 F 
ATOM     71  F   UNL A   1      38.374  23.242  25.573  1.00  0.00    -0.200 F 
ATOM     72  C   UNL A   1      39.922  22.194  27.013  1.00  0.00     0.200 A 
ATOM     73  F   UNL A   1      41.486  21.192  28.471  1.00  0.00    -0.200 F 
ATOM     74  F   UNL A   1      39.281  21.026  26.877  1.00  0.00    -0.200 F 
ENDBRANCH  50  64
BRANCH  51  75
ATOM     75  C   UNL A   1      45.926  33.370  28.709  1.00  0.00     0.064 A 
ATOM     76  C   UNL A   1      45.747  34.469  27.859  1.00  0.00     0.173 A 
ATOM     77  C   UNL A   1      46.821  33.512  29.780  1.00  0.00     0.173 A 
ATOM     78  F   UNL A   1      44.921  34.375  26.807  1.00  0.00    -0.203 F 
ATOM     79  C   UNL A   1      46.447  35.658  28.063  1.00  0.00     0.198 A 
ATOM     80  C   UNL A   1      47.500  34.708  29.998  1.00  0.00     0.198 A 
ATOM     81  F   UNL A   1      47.031  32.488  30.621  1.00  0.00    -0.203 F 
ATOM     82  F   UNL A   1      46.291  36.679  27.210  1.00  0.00    -0.200 F 
ATOM     83  C   UNL A   1      47.318  35.778  29.135  1.00  0.00     0.200 A 
ATOM     84  F   UNL A   1      48.332  34.824  31.042  1.00  0.00    -0.200 F 
ATOM     85  F   UNL A   1      47.989  36.921  29.332  1.00  0.00    -0.200 F 
ENDBRANCH  51  75
BRANCH  63  86
ATOM     86  C   UNL A   1      47.482  27.553  25.176  1.00  0.00     0.064 A 
ATOM     87  C   UNL A   1      47.494  27.786  23.795  1.00  0.00     0.173 A 
ATOM     88  C   UNL A   1      48.637  27.016  25.767  1.00  0.00     0.173 A 
ATOM     89  F   UNL A   1      46.410  28.285  23.184  1.00  0.00    -0.203 F 
ATOM     90  C   UNL A   1      48.622  27.490  23.032  1.00  0.00     0.198 A 
ATOM     91  C   UNL A   1      49.770  26.745  25.006  1.00  0.00     0.198 A 
ATOM     92  F   UNL A   1      48.675  26.782  27.087  1.00  0.00    -0.203 F 
ATOM     93  F   UNL A   1      48.606  27.698  21.708  1.00  0.00    -0.200 F 
ATOM     94  C   UNL A   1      49.761  26.981  23.639  1.00  0.00     0.200 A 
ATOM     95  F   UNL A   1      50.874  26.268  25.597  1.00  0.00    -0.200 F 
ATOM     96  F   UNL A   1      50.852  26.716  22.907  1.00  0.00    -0.200 F 
ENDBRANCH  63  86
ENDBRANCH  37  38
ENDBRANCH  30  32
ENDBRANCH  29  30
ENDBRANCH  28  29
ENDBRANCH  27  28
ENDBRANCH  26  27
ENDBRANCH   1  26
TORSDOF 20
ENDMDL
