MODEL 1
REMARK VINA RESULT:      -9.3      0.000      0.000
REMARK SMILES C[C@@H](C[NH3+])S/C=C/C(=O)OCCOCCOC(=O)c1ccc(-c2c3nc(c(-c4c(F)c(F)c(F)c(F)c4F)c4ccc([nH]4)c(-c4c(F)c(F)c(F)c(F)c4F)c4nc(c(-c5c(F)c(F)c(F)c(F)c5F)c5ccc2[nH]5)C=C4)C=C3)cc1
REMARK SMILES IDX 12 1 11 2 10 3 8 4 9 5 7 6 6 7 5 8 2 9 1 10 3 11 4 12 13 16
REMARK SMILES IDX 14 17 15 18 16 19 17 20 18 21 19 22 20 23 81 24 21 25 80 26
REMARK SMILES IDX 22 27 23 28 24 29 74 30 25 31 79 32 73 33 75 34 26 35 78 36
REMARK SMILES IDX 72 37 71 38 27 40 59 41 39 42 58 43 40 44 43 45 57 46 76 47
REMARK SMILES IDX 41 48 42 49 56 51 77 52 44 53 28 54 29 55 37 56 30 57 31 58
REMARK SMILES IDX 35 59 38 60 32 61 33 62 36 63 34 64 60 65 61 66 69 67 62 68
REMARK SMILES IDX 63 69 67 70 70 71 64 72 65 73 68 74 66 75 45 76 46 77 54 78
REMARK SMILES IDX 47 79 48 80 52 81 55 82 49 83 50 84 53 85 51 86
REMARK H PARENT 4 13 4 14 4 15 75 39 43 50
REMARK Flexibility Score: inf
ROOT
ATOM      1  C   UNL A   1      46.195  19.941  24.964  1.00  0.00     0.202 C 
ENDROOT
BRANCH   1   2
ATOM      2  C   UNL A   1      44.769  19.699  24.464  1.00  0.00     0.261 C 
BRANCH   2   3
ATOM      3  O   UNL A   1      44.295  18.401  24.853  1.00  0.00    -0.460 OA
BRANCH   3   4
ATOM      4  C   UNL A   1      43.408  18.404  25.876  1.00  0.00     0.331 C 
ATOM      5  O   UNL A   1      43.374  17.616  26.810  1.00  0.00    -0.247 OA
BRANCH   4   6
ATOM      6  C   UNL A   1      42.468  19.539  25.817  1.00  0.00     0.100 C 
ATOM      7  C   UNL A   1      41.413  19.737  26.614  1.00  0.00     0.048 C 
BRANCH   7   8
ATOM      8  S   UNL A   1      40.360  21.105  26.564  1.00  0.00    -0.125 SA
BRANCH   8   9
ATOM      9  C   UNL A   1      41.286  22.608  27.069  1.00  0.00     0.103 C 
ATOM     10  C   UNL A   1      40.563  23.925  26.786  1.00  0.00     0.026 C 
BRANCH   9  11
ATOM     11  C   UNL A   1      41.959  22.554  28.460  1.00  0.00     0.273 C 
BRANCH  11  12
ATOM     12  N   UNL A   1      43.421  22.466  28.488  1.00  0.00    -0.357 N 
ATOM     13  H   UNL A   1      43.819  23.300  28.057  1.00  0.00     0.344 HD
ATOM     14  H   UNL A   1      43.722  21.640  27.972  1.00  0.00     0.344 HD
ATOM     15  H   UNL A   1      43.739  22.399  29.455  1.00  0.00     0.344 HD
ENDBRANCH  11  12
ENDBRANCH   9  11
ENDBRANCH   8   9
ENDBRANCH   7   8
ENDBRANCH   4   6
ENDBRANCH   3   4
ENDBRANCH   2   3
ENDBRANCH   1   2
BRANCH   1  16
ATOM     16  O   UNL A   1      46.660  21.286  24.894  1.00  0.00    -0.374 OA
BRANCH  16  17
ATOM     17  C   UNL A   1      45.709  22.279  24.494  1.00  0.00     0.202 C 
BRANCH  17  18
ATOM     18  C   UNL A   1      46.186  23.734  24.586  1.00  0.00     0.261 C 
BRANCH  18  19
ATOM     19  O   UNL A   1      45.126  24.613  25.012  1.00  0.00    -0.460 OA
BRANCH  19  20
ATOM     20  C   UNL A   1      45.477  25.907  25.180  1.00  0.00     0.338 C 
ATOM     21  O   UNL A   1      46.270  26.557  24.510  1.00  0.00    -0.246 OA
BRANCH  20  22
ATOM     22  C   UNL A   1      44.616  26.529  26.202  1.00  0.00     0.060 A 
ATOM     23  C   UNL A   1      44.745  27.908  26.409  1.00  0.00     0.016 A 
ATOM     24  C   UNL A   1      43.740  25.774  26.984  1.00  0.00     0.016 A 
ATOM     25  C   UNL A   1      44.029  28.533  27.428  1.00  0.00     0.010 A 
ATOM     26  C   UNL A   1      43.030  26.399  28.015  1.00  0.00     0.010 A 
ATOM     27  C   UNL A   1      43.196  27.775  28.261  1.00  0.00    -0.014 A 
BRANCH  27  28
ATOM     28  C   UNL A   1      42.607  28.398  29.471  1.00  0.00     0.031 A 
ATOM     29  C   UNL A   1      41.248  29.033  29.377  1.00  0.00     0.074 A 
ATOM     30  C   UNL A   1      43.262  28.376  30.645  1.00  0.00     0.049 A 
ATOM     31  N   UNL A   1      40.562  29.671  30.291  1.00  0.00    -0.248 NA
ATOM     32  C   UNL A   1      40.568  28.933  28.076  1.00  0.00     0.031 C 
ATOM     33  C   UNL A   1      44.568  27.762  30.870  1.00  0.00     0.029 A 
ATOM     34  N   UNL A   1      42.916  28.896  31.867  1.00  0.00    -0.354 N 
ATOM     35  C   UNL A   1      39.375  30.048  29.679  1.00  0.00     0.074 A 
ATOM     36  C   UNL A   1      39.443  29.595  28.306  1.00  0.00     0.031 C 
ATOM     37  C   UNL A   1      44.923  27.954  32.151  1.00  0.00     0.029 A 
ATOM     38  C   UNL A   1      43.883  28.729  32.827  1.00  0.00     0.049 A 
ATOM     39  H   UNL A   1      42.058  29.346  32.039  1.00  0.00     0.167 HD
ATOM     40  C   UNL A   1      38.320  30.704  30.216  1.00  0.00     0.037 A 
ATOM     41  C   UNL A   1      43.932  29.172  34.099  1.00  0.00     0.037 A 
ATOM     42  C   UNL A   1      38.254  31.156  31.580  1.00  0.00     0.049 A 
ATOM     43  C   UNL A   1      42.770  29.951  34.657  1.00  0.00     0.074 A 
ATOM     44  C   UNL A   1      37.226  31.830  32.217  1.00  0.00     0.029 A 
ATOM     45  N   UNL A   1      39.260  30.984  32.519  1.00  0.00    -0.354 N 
ATOM     46  N   UNL A   1      41.649  30.298  34.073  1.00  0.00    -0.248 NA
ATOM     47  C   UNL A   1      42.879  30.397  36.054  1.00  0.00     0.031 C 
ATOM     48  C   UNL A   1      37.628  32.102  33.529  1.00  0.00     0.029 A 
ATOM     49  C   UNL A   1      38.885  31.553  33.725  1.00  0.00     0.049 A 
ATOM     50  H   UNL A   1      40.115  30.525  32.352  1.00  0.00     0.167 HD
ATOM     51  C   UNL A   1      40.911  30.978  35.033  1.00  0.00     0.074 A 
ATOM     52  C   UNL A   1      41.705  30.984  36.243  1.00  0.00     0.031 C 
ATOM     53  C   UNL A   1      39.685  31.547  34.922  1.00  0.00     0.037 A 
BRANCH  40  54
ATOM     54  C   UNL A   1      37.150  30.985  29.321  1.00  0.00     0.064 A 
ATOM     55  C   UNL A   1      36.210  29.992  29.006  1.00  0.00     0.173 A 
ATOM     56  C   UNL A   1      36.939  32.274  28.810  1.00  0.00     0.173 A 
ATOM     57  F   UNL A   1      36.375  28.740  29.459  1.00  0.00    -0.203 F 
ATOM     58  C   UNL A   1      35.111  30.276  28.200  1.00  0.00     0.198 A 
ATOM     59  C   UNL A   1      35.825  32.561  28.025  1.00  0.00     0.198 A 
ATOM     60  F   UNL A   1      37.806  33.260  29.084  1.00  0.00    -0.203 F 
ATOM     61  F   UNL A   1      34.246  29.303  27.883  1.00  0.00    -0.200 F 
ATOM     62  C   UNL A   1      34.915  31.561  27.717  1.00  0.00     0.200 A 
ATOM     63  F   UNL A   1      35.632  33.806  27.569  1.00  0.00    -0.200 F 
ATOM     64  F   UNL A   1      33.851  31.835  26.950  1.00  0.00    -0.200 F 
ENDBRANCH  40  54
BRANCH  41  65
ATOM     65  C   UNL A   1      45.134  28.901  34.928  1.00  0.00     0.064 A 
ATOM     66  C   UNL A   1      46.247  29.752  34.892  1.00  0.00     0.173 A 
ATOM     67  C   UNL A   1      45.196  27.779  35.768  1.00  0.00     0.173 A 
ATOM     68  F   UNL A   1      46.246  30.822  34.085  1.00  0.00    -0.203 F 
ATOM     69  C   UNL A   1      47.382  29.484  35.657  1.00  0.00     0.198 A 
ATOM     70  C   UNL A   1      46.319  27.527  36.551  1.00  0.00     0.198 A 
ATOM     71  F   UNL A   1      44.158  26.933  35.834  1.00  0.00    -0.203 F 
ATOM     72  F   UNL A   1      48.448  30.290  35.573  1.00  0.00    -0.200 F 
ATOM     73  C   UNL A   1      47.414  28.375  36.491  1.00  0.00     0.200 A 
ATOM     74  F   UNL A   1      46.342  26.460  37.363  1.00  0.00    -0.200 F 
ATOM     75  F   UNL A   1      48.502  28.122  37.229  1.00  0.00    -0.200 F 
ENDBRANCH  41  65
BRANCH  53  76
ATOM     76  C   UNL A   1      39.110  32.198  36.147  1.00  0.00     0.064 A 
ATOM     77  C   UNL A   1      39.391  33.533  36.470  1.00  0.00     0.173 A 
ATOM     78  C   UNL A   1      38.227  31.491  36.977  1.00  0.00     0.173 A 
ATOM     79  F   UNL A   1      40.238  34.247  35.716  1.00  0.00    -0.203 F 
ATOM     80  C   UNL A   1      38.825  34.131  37.595  1.00  0.00     0.198 A 
ATOM     81  C   UNL A   1      37.641  32.099  38.083  1.00  0.00     0.198 A 
ATOM     82  F   UNL A   1      37.919  30.214  36.706  1.00  0.00    -0.203 F 
ATOM     83  F   UNL A   1      39.140  35.394  37.909  1.00  0.00    -0.200 F 
ATOM     84  C   UNL A   1      37.945  33.416  38.395  1.00  0.00     0.200 A 
ATOM     85  F   UNL A   1      36.781  31.412  38.848  1.00  0.00    -0.200 F 
ATOM     86  F   UNL A   1      37.394  33.995  39.471  1.00  0.00    -0.200 F 
ENDBRANCH  53  76
ENDBRANCH  27  28
ENDBRANCH  20  22
ENDBRANCH  19  20
ENDBRANCH  18  19
ENDBRANCH  17  18
ENDBRANCH  16  17
ENDBRANCH   1  16
TORSDOF 18
ENDMDL
MODEL 2
REMARK VINA RESULT:      -9.0      5.082      9.428
REMARK SMILES C[C@@H](C[NH3+])S/C=C/C(=O)OCCOCCOC(=O)c1ccc(-c2c3nc(c(-c4c(F)c(F)c(F)c(F)c4F)c4ccc([nH]4)c(-c4c(F)c(F)c(F)c(F)c4F)c4nc(c(-c5c(F)c(F)c(F)c(F)c5F)c5ccc2[nH]5)C=C4)C=C3)cc1
REMARK SMILES IDX 12 1 11 2 10 3 8 4 9 5 7 6 6 7 5 8 2 9 1 10 3 11 4 12 13 16
REMARK SMILES IDX 14 17 15 18 16 19 17 20 18 21 19 22 20 23 81 24 21 25 80 26
REMARK SMILES IDX 22 27 23 28 24 29 74 30 25 31 79 32 73 33 75 34 26 35 78 36
REMARK SMILES IDX 72 37 71 38 27 40 59 41 39 42 58 43 40 44 43 45 57 46 76 47
REMARK SMILES IDX 41 48 42 49 56 51 77 52 44 53 28 54 29 55 37 56 30 57 31 58
REMARK SMILES IDX 35 59 38 60 32 61 33 62 36 63 34 64 60 65 61 66 69 67 62 68
REMARK SMILES IDX 63 69 67 70 70 71 64 72 65 73 68 74 66 75 45 76 46 77 54 78
REMARK SMILES IDX 47 79 48 80 52 81 55 82 49 83 50 84 53 85 51 86
REMARK H PARENT 4 13 4 14 4 15 75 39 43 50
REMARK Flexibility Score: inf
ROOT
ATOM      1  C   UNL A   1      31.847  28.252  23.336  1.00  0.00     0.202 C 
ENDROOT
BRANCH   1   2
ATOM      2  C   UNL A   1      31.443  26.846  22.888  1.00  0.00     0.261 C 
BRANCH   2   3
ATOM      3  O   UNL A   1      32.307  25.850  23.458  1.00  0.00    -0.460 OA
BRANCH   3   4
ATOM      4  C   UNL A   1      33.242  25.359  22.611  1.00  0.00     0.331 C 
ATOM      5  O   UNL A   1      33.651  25.895  21.592  1.00  0.00    -0.247 OA
BRANCH   4   6
ATOM      6  C   UNL A   1      33.816  24.080  23.069  1.00  0.00     0.100 C 
ATOM      7  C   UNL A   1      33.565  23.469  24.231  1.00  0.00     0.048 C 
BRANCH   7   8
ATOM      8  S   UNL A   1      34.205  21.940  24.721  1.00  0.00    -0.125 SA
BRANCH   8   9
ATOM      9  C   UNL A   1      32.914  20.649  24.530  1.00  0.00     0.103 C 
ATOM     10  C   UNL A   1      32.172  20.685  23.193  1.00  0.00     0.026 C 
BRANCH   9  11
ATOM     11  C   UNL A   1      33.307  19.225  24.985  1.00  0.00     0.273 C 
BRANCH  11  12
ATOM     12  N   UNL A   1      32.904  18.823  26.335  1.00  0.00    -0.357 N 
ATOM     13  H   UNL A   1      32.039  19.301  26.587  1.00  0.00     0.344 HD
ATOM     14  H   UNL A   1      33.637  19.075  26.998  1.00  0.00     0.344 HD
ATOM     15  H   UNL A   1      32.755  17.815  26.359  1.00  0.00     0.344 HD
ENDBRANCH  11  12
ENDBRANCH   9  11
ENDBRANCH   8   9
ENDBRANCH   7   8
ENDBRANCH   4   6
ENDBRANCH   3   4
ENDBRANCH   2   3
ENDBRANCH   1   2
BRANCH   1  16
ATOM     16  O   UNL A   1      30.786  29.092  23.785  1.00  0.00    -0.374 OA
BRANCH  16  17
ATOM     17  C   UNL A   1      31.054  29.918  24.923  1.00  0.00     0.202 C 
BRANCH  17  18
ATOM     18  C   UNL A   1      32.509  29.934  25.407  1.00  0.00     0.261 C 
BRANCH  18  19
ATOM     19  O   UNL A   1      32.592  30.166  26.828  1.00  0.00    -0.460 OA
BRANCH  19  20
ATOM     20  C   UNL A   1      33.209  31.312  27.194  1.00  0.00     0.338 C 
ATOM     21  O   UNL A   1      32.731  32.439  27.222  1.00  0.00    -0.246 OA
BRANCH  20  22
ATOM     22  C   UNL A   1      34.537  31.005  27.757  1.00  0.00     0.060 A 
ATOM     23  C   UNL A   1      34.807  29.673  28.095  1.00  0.00     0.016 A 
ATOM     24  C   UNL A   1      35.480  32.005  28.004  1.00  0.00     0.016 A 
ATOM     25  C   UNL A   1      36.007  29.339  28.720  1.00  0.00     0.010 A 
ATOM     26  C   UNL A   1      36.678  31.671  28.644  1.00  0.00     0.010 A 
ATOM     27  C   UNL A   1      36.933  30.343  29.032  1.00  0.00    -0.014 A 
BRANCH  27  28
ATOM     28  C   UNL A   1      38.102  30.020  29.885  1.00  0.00     0.031 A 
ATOM     29  C   UNL A   1      39.151  29.080  29.361  1.00  0.00     0.074 A 
ATOM     30  C   UNL A   1      38.242  30.579  31.100  1.00  0.00     0.049 A 
ATOM     31  N   UNL A   1      40.229  28.625  29.948  1.00  0.00    -0.248 NA
ATOM     32  C   UNL A   1      38.959  28.585  27.989  1.00  0.00     0.031 C 
ATOM     33  C   UNL A   1      37.314  31.531  31.703  1.00  0.00     0.029 A 
ATOM     34  N   UNL A   1      39.222  30.414  32.048  1.00  0.00    -0.354 N 
ATOM     35  C   UNL A   1      40.841  27.794  29.020  1.00  0.00     0.074 A 
ATOM     36  C   UNL A   1      40.001  27.781  27.841  1.00  0.00     0.031 C 
ATOM     37  C   UNL A   1      37.758  31.855  32.928  1.00  0.00     0.029 A 
ATOM     38  C   UNL A   1      38.986  31.112  33.207  1.00  0.00     0.049 A 
ATOM     39  H   UNL A   1      40.016  29.850  31.911  1.00  0.00     0.167 HD
ATOM     40  C   UNL A   1      42.005  27.112  29.138  1.00  0.00     0.037 A 
ATOM     41  C   UNL A   1      39.673  31.130  34.366  1.00  0.00     0.037 A 
ATOM     42  C   UNL A   1      42.838  27.122  30.310  1.00  0.00     0.049 A 
ATOM     43  C   UNL A   1      40.933  30.315  34.493  1.00  0.00     0.074 A 
ATOM     44  C   UNL A   1      44.036  26.462  30.524  1.00  0.00     0.029 A 
ATOM     45  N   UNL A   1      42.558  27.828  31.471  1.00  0.00    -0.354 N 
ATOM     46  N   UNL A   1      41.509  29.537  33.609  1.00  0.00    -0.248 NA
ATOM     47  C   UNL A   1      41.643  30.385  35.780  1.00  0.00     0.031 C 
ATOM     48  C   UNL A   1      44.458  26.735  31.829  1.00  0.00     0.029 A 
ATOM     49  C   UNL A   1      43.551  27.606  32.411  1.00  0.00     0.049 A 
ATOM     50  H   UNL A   1      41.769  28.401  31.607  1.00  0.00     0.167 HD
ATOM     51  C   UNL A   1      42.656  29.046  34.220  1.00  0.00     0.074 A 
ATOM     52  C   UNL A   1      42.703  29.624  35.546  1.00  0.00     0.031 C 
ATOM     53  C   UNL A   1      43.586  28.192  33.725  1.00  0.00     0.037 A 
BRANCH  40  54
ATOM     54  C   UNL A   1      42.442  26.281  27.967  1.00  0.00     0.064 A 
ATOM     55  C   UNL A   1      41.934  24.991  27.752  1.00  0.00     0.173 A 
ATOM     56  C   UNL A   1      43.341  26.799  27.024  1.00  0.00     0.173 A 
ATOM     57  F   UNL A   1      41.083  24.446  28.633  1.00  0.00    -0.203 F 
ATOM     58  C   UNL A   1      42.324  24.244  26.644  1.00  0.00     0.198 A 
ATOM     59  C   UNL A   1      43.709  26.060  25.903  1.00  0.00     0.198 A 
ATOM     60  F   UNL A   1      43.854  28.029  27.182  1.00  0.00    -0.203 F 
ATOM     61  F   UNL A   1      41.853  23.000  26.478  1.00  0.00    -0.200 F 
ATOM     62  C   UNL A   1      43.204  24.782  25.716  1.00  0.00     0.200 A 
ATOM     63  F   UNL A   1      44.551  26.584  25.002  1.00  0.00    -0.200 F 
ATOM     64  F   UNL A   1      43.569  24.065  24.644  1.00  0.00    -0.200 F 
ENDBRANCH  40  54
BRANCH  41  65
ATOM     65  C   UNL A   1      39.170  31.937  35.507  1.00  0.00     0.064 A 
ATOM     66  C   UNL A   1      39.510  33.290  35.643  1.00  0.00     0.173 A 
ATOM     67  C   UNL A   1      38.345  31.368  36.488  1.00  0.00     0.173 A 
ATOM     68  F   UNL A   1      40.318  33.871  34.745  1.00  0.00    -0.203 F 
ATOM     69  C   UNL A   1      39.052  34.040  36.726  1.00  0.00     0.198 A 
ATOM     70  C   UNL A   1      37.866  32.125  37.554  1.00  0.00     0.198 A 
ATOM     71  F   UNL A   1      37.994  30.077  36.403  1.00  0.00    -0.203 F 
ATOM     72  F   UNL A   1      39.426  35.320  36.856  1.00  0.00    -0.200 F 
ATOM     73  C   UNL A   1      38.225  33.459  37.676  1.00  0.00     0.200 A 
ATOM     74  F   UNL A   1      37.060  31.562  38.464  1.00  0.00    -0.200 F 
ATOM     75  F   UNL A   1      37.782  34.182  38.713  1.00  0.00    -0.200 F 
ENDBRANCH  41  65
BRANCH  53  76
ATOM     76  C   UNL A   1      44.753  27.853  34.609  1.00  0.00     0.064 A 
ATOM     77  C   UNL A   1      45.915  28.636  34.625  1.00  0.00     0.173 A 
ATOM     78  C   UNL A   1      44.682  26.760  35.486  1.00  0.00     0.173 A 
ATOM     79  F   UNL A   1      46.035  29.683  33.796  1.00  0.00    -0.203 F 
ATOM     80  C   UNL A   1      46.976  28.324  35.472  1.00  0.00     0.198 A 
ATOM     81  C   UNL A   1      45.732  26.468  36.352  1.00  0.00     0.198 A 
ATOM     82  F   UNL A   1      43.589  25.985  35.516  1.00  0.00    -0.203 F 
ATOM     83  F   UNL A   1      48.094  29.060  35.441  1.00  0.00    -0.200 F 
ATOM     84  C   UNL A   1      46.881  27.245  36.340  1.00  0.00     0.200 A 
ATOM     85  F   UNL A   1      45.633  25.434  37.199  1.00  0.00    -0.200 F 
ATOM     86  F   UNL A   1      47.898  26.952  37.161  1.00  0.00    -0.200 F 
ENDBRANCH  53  76
ENDBRANCH  27  28
ENDBRANCH  20  22
ENDBRANCH  19  20
ENDBRANCH  18  19
ENDBRANCH  17  18
ENDBRANCH  16  17
ENDBRANCH   1  16
TORSDOF 18
ENDMDL
MODEL 3
REMARK VINA RESULT:      -9.0      5.587      9.877
REMARK SMILES C[C@@H](C[NH3+])S/C=C/C(=O)OCCOCCOC(=O)c1ccc(-c2c3nc(c(-c4c(F)c(F)c(F)c(F)c4F)c4ccc([nH]4)c(-c4c(F)c(F)c(F)c(F)c4F)c4nc(c(-c5c(F)c(F)c(F)c(F)c5F)c5ccc2[nH]5)C=C4)C=C3)cc1
REMARK SMILES IDX 12 1 11 2 10 3 8 4 9 5 7 6 6 7 5 8 2 9 1 10 3 11 4 12 13 16
REMARK SMILES IDX 14 17 15 18 16 19 17 20 18 21 19 22 20 23 81 24 21 25 80 26
REMARK SMILES IDX 22 27 23 28 24 29 74 30 25 31 79 32 73 33 75 34 26 35 78 36
REMARK SMILES IDX 72 37 71 38 27 40 59 41 39 42 58 43 40 44 43 45 57 46 76 47
REMARK SMILES IDX 41 48 42 49 56 51 77 52 44 53 28 54 29 55 37 56 30 57 31 58
REMARK SMILES IDX 35 59 38 60 32 61 33 62 36 63 34 64 60 65 61 66 69 67 62 68
REMARK SMILES IDX 63 69 67 70 70 71 64 72 65 73 68 74 66 75 45 76 46 77 54 78
REMARK SMILES IDX 47 79 48 80 52 81 55 82 49 83 50 84 53 85 51 86
REMARK H PARENT 4 13 4 14 4 15 75 39 43 50
REMARK Flexibility Score: inf
ROOT
ATOM      1  C   UNL A   1      35.526  22.882  26.042  1.00  0.00     0.202 C 
ENDROOT
BRANCH   1   2
ATOM      2  C   UNL A   1      35.129  24.134  25.256  1.00  0.00     0.261 C 
BRANCH   2   3
ATOM      3  O   UNL A   1      33.810  24.005  24.704  1.00  0.00    -0.460 OA
BRANCH   3   4
ATOM      4  C   UNL A   1      33.760  23.994  23.351  1.00  0.00     0.331 C 
ATOM      5  O   UNL A   1      34.224  24.839  22.600  1.00  0.00    -0.247 OA
BRANCH   4   6
ATOM      6  C   UNL A   1      33.123  22.778  22.811  1.00  0.00     0.100 C 
ATOM      7  C   UNL A   1      33.018  21.597  23.428  1.00  0.00     0.048 C 
BRANCH   7   8
ATOM      8  S   UNL A   1      32.214  20.203  22.797  1.00  0.00    -0.125 SA
BRANCH   8   9
ATOM      9  C   UNL A   1      32.436  18.795  23.954  1.00  0.00     0.103 C 
ATOM     10  C   UNL A   1      33.196  17.605  23.366  1.00  0.00     0.026 C 
BRANCH   9  11
ATOM     11  C   UNL A   1      32.869  19.161  25.392  1.00  0.00     0.273 C 
BRANCH  11  12
ATOM     12  N   UNL A   1      32.776  18.105  26.403  1.00  0.00    -0.357 N 
ATOM     13  H   UNL A   1      32.949  17.200  25.966  1.00  0.00     0.344 HD
ATOM     14  H   UNL A   1      31.843  18.110  26.815  1.00  0.00     0.344 HD
ATOM     15  H   UNL A   1      33.471  18.269  27.131  1.00  0.00     0.344 HD
ENDBRANCH  11  12
ENDBRANCH   9  11
ENDBRANCH   8   9
ENDBRANCH   7   8
ENDBRANCH   4   6
ENDBRANCH   3   4
ENDBRANCH   2   3
ENDBRANCH   1   2
BRANCH   1  16
ATOM     16  O   UNL A   1      36.816  22.349  25.754  1.00  0.00    -0.374 OA
BRANCH  16  17
ATOM     17  C   UNL A   1      36.859  21.073  25.106  1.00  0.00     0.202 C 
BRANCH  17  18
ATOM     18  C   UNL A   1      38.119  20.237  25.363  1.00  0.00     0.261 C 
BRANCH  18  19
ATOM     19  O   UNL A   1      39.294  21.066  25.458  1.00  0.00    -0.460 OA
BRANCH  19  20
ATOM     20  C   UNL A   1      39.996  20.949  26.607  1.00  0.00     0.338 C 
ATOM     21  O   UNL A   1      40.419  19.920  27.119  1.00  0.00    -0.246 OA
BRANCH  20  22
ATOM     22  C   UNL A   1      40.369  22.286  27.102  1.00  0.00     0.060 A 
ATOM     23  C   UNL A   1      39.725  23.393  26.533  1.00  0.00     0.016 A 
ATOM     24  C   UNL A   1      41.368  22.463  28.062  1.00  0.00     0.016 A 
ATOM     25  C   UNL A   1      40.106  24.684  26.891  1.00  0.00     0.010 A 
ATOM     26  C   UNL A   1      41.758  23.760  28.411  1.00  0.00     0.010 A 
ATOM     27  C   UNL A   1      41.151  24.875  27.805  1.00  0.00    -0.014 A 
BRANCH  27  28
ATOM     28  C   UNL A   1      41.696  26.237  28.019  1.00  0.00     0.031 A 
ATOM     29  C   UNL A   1      43.066  26.566  27.498  1.00  0.00     0.074 A 
ATOM     30  C   UNL A   1      40.969  27.178  28.647  1.00  0.00     0.049 A 
ATOM     31  N   UNL A   1      43.755  27.673  27.608  1.00  0.00    -0.248 NA
ATOM     32  C   UNL A   1      43.754  25.502  26.748  1.00  0.00     0.031 C 
ATOM     33  C   UNL A   1      39.616  26.992  29.166  1.00  0.00     0.029 A 
ATOM     34  N   UNL A   1      41.276  28.479  28.961  1.00  0.00    -0.354 N 
ATOM     35  C   UNL A   1      44.952  27.441  26.945  1.00  0.00     0.074 A 
ATOM     36  C   UNL A   1      44.912  26.078  26.460  1.00  0.00     0.031 C 
ATOM     37  C   UNL A   1      39.214  28.132  29.750  1.00  0.00     0.029 A 
ATOM     38  C   UNL A   1      40.291  29.119  29.672  1.00  0.00     0.049 A 
ATOM     39  H   UNL A   1      42.122  28.911  28.702  1.00  0.00     0.167 HD
ATOM     40  C   UNL A   1      45.988  28.292  26.750  1.00  0.00     0.037 A 
ATOM     41  C   UNL A   1      40.272  30.351  30.215  1.00  0.00     0.037 A 
ATOM     42  C   UNL A   1      46.029  29.645  27.235  1.00  0.00     0.049 A 
ATOM     43  C   UNL A   1      41.461  31.259  30.035  1.00  0.00     0.074 A 
ATOM     44  C   UNL A   1      47.036  30.584  27.087  1.00  0.00     0.029 A 
ATOM     45  N   UNL A   1      45.019  30.253  27.966  1.00  0.00    -0.354 N 
ATOM     46  N   UNL A   1      42.586  31.034  29.401  1.00  0.00    -0.248 NA
ATOM     47  C   UNL A   1      41.374  32.596  30.643  1.00  0.00     0.031 C 
ATOM     48  C   UNL A   1      46.652  31.746  27.764  1.00  0.00     0.029 A 
ATOM     49  C   UNL A   1      45.386  31.549  28.291  1.00  0.00     0.049 A 
ATOM     50  H   UNL A   1      44.168  29.827  28.216  1.00  0.00     0.167 HD
ATOM     51  C   UNL A   1      43.329  32.202  29.512  1.00  0.00     0.074 A 
ATOM     52  C   UNL A   1      42.521  33.140  30.262  1.00  0.00     0.031 C 
ATOM     53  C   UNL A   1      44.569  32.473  29.034  1.00  0.00     0.037 A 
BRANCH  40  54
ATOM     54  C   UNL A   1      47.173  27.777  25.987  1.00  0.00     0.064 A 
ATOM     55  C   UNL A   1      47.211  27.802  24.585  1.00  0.00     0.173 A 
ATOM     56  C   UNL A   1      48.302  27.298  26.667  1.00  0.00     0.173 A 
ATOM     57  F   UNL A   1      46.150  28.238  23.890  1.00  0.00    -0.203 F 
ATOM     58  C   UNL A   1      48.331  27.351  23.891  1.00  0.00     0.198 A 
ATOM     59  C   UNL A   1      49.430  26.872  25.971  1.00  0.00     0.198 A 
ATOM     60  F   UNL A   1      48.317  27.256  28.008  1.00  0.00    -0.203 F 
ATOM     61  F   UNL A   1      48.331  27.352  22.551  1.00  0.00    -0.200 F 
ATOM     62  C   UNL A   1      49.442  26.894  24.585  1.00  0.00     0.200 A 
ATOM     63  F   UNL A   1      50.507  26.441  26.642  1.00  0.00    -0.200 F 
ATOM     64  F   UNL A   1      50.523  26.471  23.915  1.00  0.00    -0.200 F 
ENDBRANCH  40  54
BRANCH  41  65
ATOM     65  C   UNL A   1      39.089  30.793  30.997  1.00  0.00     0.064 A 
ATOM     66  C   UNL A   1      38.993  30.543  32.372  1.00  0.00     0.173 A 
ATOM     67  C   UNL A   1      38.026  31.471  30.380  1.00  0.00     0.173 A 
ATOM     68  F   UNL A   1      39.972  29.875  33.001  1.00  0.00    -0.203 F 
ATOM     69  C   UNL A   1      37.872  30.942  33.099  1.00  0.00     0.198 A 
ATOM     70  C   UNL A   1      36.920  31.893  31.112  1.00  0.00     0.198 A 
ATOM     71  F   UNL A   1      38.070  31.731  29.066  1.00  0.00    -0.203 F 
ATOM     72  F   UNL A   1      37.787  30.653  34.405  1.00  0.00    -0.200 F 
ATOM     73  C   UNL A   1      36.840  31.623  32.470  1.00  0.00     0.200 A 
ATOM     74  F   UNL A   1      35.929  32.559  30.502  1.00  0.00    -0.200 F 
ATOM     75  F   UNL A   1      35.766  32.010  33.170  1.00  0.00    -0.200 F 
ENDBRANCH  41  65
BRANCH  53  76
ATOM     76  C   UNL A   1      45.120  33.848  29.280  1.00  0.00     0.064 A 
ATOM     77  C   UNL A   1      45.912  34.133  30.402  1.00  0.00     0.173 A 
ATOM     78  C   UNL A   1      44.896  34.878  28.354  1.00  0.00     0.173 A 
ATOM     79  F   UNL A   1      46.145  33.186  31.322  1.00  0.00    -0.203 F 
ATOM     80  C   UNL A   1      46.440  35.407  30.599  1.00  0.00     0.198 A 
ATOM     81  C   UNL A   1      45.448  36.141  28.539  1.00  0.00     0.198 A 
ATOM     82  F   UNL A   1      44.152  34.654  27.261  1.00  0.00    -0.203 F 
ATOM     83  F   UNL A   1      47.159  35.669  31.698  1.00  0.00    -0.200 F 
ATOM     84  C   UNL A   1      46.214  36.407  29.664  1.00  0.00     0.200 A 
ATOM     85  F   UNL A   1      45.241  37.103  27.628  1.00  0.00    -0.200 F 
ATOM     86  F   UNL A   1      46.732  37.630  29.851  1.00  0.00    -0.200 F 
ENDBRANCH  53  76
ENDBRANCH  27  28
ENDBRANCH  20  22
ENDBRANCH  19  20
ENDBRANCH  18  19
ENDBRANCH  17  18
ENDBRANCH  16  17
ENDBRANCH   1  16
TORSDOF 18
ENDMDL
