MODEL 1
REMARK VINA RESULT:     -10.1      0.000      0.000
REMARK SMILES N#C[C@@H]1CN(C(=O)NCCCC(=O)OCCOCCOC(=O)c2ccc(-c3c4nc(c(-c5c(F)c(F)c(F)c(F)c5F)c5ccc([nH]5)c(-c5c(F)c(F)c(F)c(F)c5F)c5nc(c(-c6c(F)c(F)c(F)c(F)c6F)c6ccc3[nH]6)C=C5)C=C4)cc2)CCO1
REMARK SMILES IDX 15 1 14 2 12 3 13 4 11 5 10 6 9 7 8 8 6 9 7 10 5 12 3 13
REMARK SMILES IDX 4 14 88 15 87 16 86 17 2 18 1 19 16 20 17 21 18 22 19 23
REMARK SMILES IDX 20 24 21 25 22 26 23 27 24 28 85 29 25 30 84 31 26 32 27 33
REMARK SMILES IDX 28 34 78 35 29 36 83 37 77 38 79 39 30 40 82 41 76 42 75 43
REMARK SMILES IDX 31 45 63 46 43 47 62 48 44 49 47 50 61 51 80 52 45 53 46 54
REMARK SMILES IDX 60 56 81 57 48 58 32 59 33 60 41 61 34 62 35 63 39 64 42 65
REMARK SMILES IDX 36 66 37 67 40 68 38 69 64 70 65 71 73 72 66 73 67 74 71 75
REMARK SMILES IDX 74 76 68 77 69 78 72 79 70 80 49 81 50 82 58 83 51 84 52 85
REMARK SMILES IDX 56 86 59 87 53 88 54 89 57 90 55 91
REMARK H PARENT 8 11 79 44 47 55
REMARK Flexibility Score: inf
ROOT
ATOM      1  C   UNL A   1      35.396  21.152  25.791  1.00  0.00     0.261 C 
ENDROOT
BRANCH   1   2
ATOM      2  O   UNL A   1      34.625  20.967  24.587  1.00  0.00    -0.463 OA
BRANCH   2   3
ATOM      3  C   UNL A   1      33.360  21.451  24.547  1.00  0.00     0.305 C 
ATOM      4  O   UNL A   1      32.683  21.573  23.538  1.00  0.00    -0.252 OA
BRANCH   3   5
ATOM      5  C   UNL A   1      32.881  21.841  25.935  1.00  0.00     0.124 C 
BRANCH   5   6
ATOM      6  C   UNL A   1      32.762  23.352  26.180  1.00  0.00     0.033 C 
BRANCH   6   7
ATOM      7  C   UNL A   1      31.343  23.905  26.013  1.00  0.00     0.118 C 
BRANCH   7   8
ATOM      8  N   UNL A   1      31.221  25.209  26.634  1.00  0.00    -0.338 N 
ATOM      9  C   UNL A   1      31.294  26.502  26.296  1.00  0.00     0.317 C 
ATOM     10  O   UNL A   1      31.172  27.285  27.243  1.00  0.00    -0.249 OA
ATOM     11  H   UNL A   1      31.026  25.115  27.595  1.00  0.00     0.165 HD
BRANCH   9  12
ATOM     12  N   UNL A   1      31.459  26.950  25.024  1.00  0.00    -0.319 N 
ATOM     13  C   UNL A   1      31.348  29.216  24.088  1.00  0.00     0.240 C 
ATOM     14  C   UNL A   1      30.640  27.865  24.234  1.00  0.00     0.169 C 
ATOM     15  O   UNL A   1      32.609  28.987  23.391  1.00  0.00    -0.360 OA
ATOM     16  C   UNL A   1      33.462  28.054  24.097  1.00  0.00     0.183 C 
ATOM     17  C   UNL A   1      32.759  26.714  24.375  1.00  0.00     0.150 C 
BRANCH  13  18
ATOM     18  C   UNL A   1      31.608  29.949  25.394  1.00  0.00     0.096 C 
ATOM     19  N   UNL A   1      31.823  30.557  26.477  1.00  0.00    -0.195 NA
ENDBRANCH  13  18
ENDBRANCH   9  12
ENDBRANCH   7   8
ENDBRANCH   6   7
ENDBRANCH   5   6
ENDBRANCH   3   5
ENDBRANCH   2   3
ENDBRANCH   1   2
BRANCH   1  20
ATOM     20  C   UNL A   1      36.773  21.730  25.446  1.00  0.00     0.202 C 
BRANCH  20  21
ATOM     21  O   UNL A   1      37.551  20.908  24.572  1.00  0.00    -0.374 OA
BRANCH  21  22
ATOM     22  C   UNL A   1      37.748  19.564  25.004  1.00  0.00     0.202 C 
BRANCH  22  23
ATOM     23  C   UNL A   1      39.107  19.297  25.658  1.00  0.00     0.261 C 
BRANCH  23  24
ATOM     24  O   UNL A   1      39.871  20.507  25.813  1.00  0.00    -0.460 OA
BRANCH  24  25
ATOM     25  C   UNL A   1      40.589  20.573  26.962  1.00  0.00     0.338 C 
ATOM     26  O   UNL A   1      41.055  19.641  27.604  1.00  0.00    -0.246 OA
BRANCH  25  27
ATOM     27  C   UNL A   1      40.854  21.978  27.305  1.00  0.00     0.060 A 
ATOM     28  C   UNL A   1      40.272  22.979  26.519  1.00  0.00     0.016 A 
ATOM     29  C   UNL A   1      41.717  22.313  28.345  1.00  0.00     0.016 A 
ATOM     30  C   UNL A   1      40.555  24.325  26.770  1.00  0.00     0.010 A 
ATOM     31  C   UNL A   1      42.003  23.660  28.585  1.00  0.00     0.010 A 
ATOM     32  C   UNL A   1      41.433  24.681  27.802  1.00  0.00    -0.014 A 
BRANCH  32  33
ATOM     33  C   UNL A   1      41.866  26.095  27.992  1.00  0.00     0.031 A 
ATOM     34  C   UNL A   1      43.197  26.528  27.435  1.00  0.00     0.074 A 
ATOM     35  C   UNL A   1      41.106  26.987  28.655  1.00  0.00     0.049 A 
ATOM     36  N   UNL A   1      43.806  27.685  27.523  1.00  0.00    -0.248 NA
ATOM     37  C   UNL A   1      43.959  25.508  26.696  1.00  0.00     0.031 C 
ATOM     38  C   UNL A   1      39.811  26.707  29.274  1.00  0.00     0.029 A 
ATOM     39  N   UNL A   1      41.322  28.320  28.924  1.00  0.00    -0.354 N 
ATOM     40  C   UNL A   1      45.025  27.518  26.881  1.00  0.00     0.074 A 
ATOM     41  C   UNL A   1      45.096  26.138  26.452  1.00  0.00     0.031 C 
ATOM     42  C   UNL A   1      39.338  27.835  29.833  1.00  0.00     0.029 A 
ATOM     43  C   UNL A   1      40.309  28.911  29.642  1.00  0.00     0.049 A 
ATOM     44  H   UNL A   1      42.126  28.805  28.630  1.00  0.00     0.167 HD
ATOM     45  C   UNL A   1      45.993  28.435  26.641  1.00  0.00     0.037 A 
ATOM     46  C   UNL A   1      40.187  30.174  30.102  1.00  0.00     0.037 A 
ATOM     47  C   UNL A   1      45.914  29.818  27.024  1.00  0.00     0.049 A 
ATOM     48  C   UNL A   1      41.280  31.176  29.829  1.00  0.00     0.074 A 
ATOM     49  C   UNL A   1      46.820  30.834  26.775  1.00  0.00     0.029 A 
ATOM     50  N   UNL A   1      44.867  30.379  27.737  1.00  0.00    -0.354 N 
ATOM     51  N   UNL A   1      42.405  31.023  29.173  1.00  0.00    -0.248 NA
ATOM     52  C   UNL A   1      41.084  32.535  30.361  1.00  0.00     0.031 C 
ATOM     53  C   UNL A   1      46.338  32.004  27.371  1.00  0.00     0.029 A 
ATOM     54  C   UNL A   1      45.110  31.726  27.951  1.00  0.00     0.049 A 
ATOM     55  H   UNL A   1      44.068  29.893  28.046  1.00  0.00     0.167 HD
ATOM     56  C   UNL A   1      43.031  32.262  29.187  1.00  0.00     0.074 A 
ATOM     57  C   UNL A   1      42.159  33.164  29.906  1.00  0.00     0.031 C 
ATOM     58  C   UNL A   1      44.225  32.619  28.653  1.00  0.00     0.037 A 
BRANCH  45  59
ATOM     59  C   UNL A   1      47.223  27.961  25.923  1.00  0.00     0.064 A 
ATOM     60  C   UNL A   1      47.267  27.861  24.524  1.00  0.00     0.173 A 
ATOM     61  C   UNL A   1      48.373  27.609  26.644  1.00  0.00     0.173 A 
ATOM     62  F   UNL A   1      46.186  28.169  23.790  1.00  0.00    -0.203 F 
ATOM     63  C   UNL A   1      48.403  27.387  23.876  1.00  0.00     0.198 A 
ATOM     64  C   UNL A   1      49.520  27.168  25.990  1.00  0.00     0.198 A 
ATOM     65  F   UNL A   1      48.386  27.691  27.983  1.00  0.00    -0.203 F 
ATOM     66  F   UNL A   1      48.400  27.239  22.544  1.00  0.00    -0.200 F 
ATOM     67  C   UNL A   1      49.531  27.047  24.608  1.00  0.00     0.200 A 
ATOM     68  F   UNL A   1      50.612  26.850  26.697  1.00  0.00    -0.200 F 
ATOM     69  F   UNL A   1      50.624  26.592  23.983  1.00  0.00    -0.200 F 
ENDBRANCH  45  59
BRANCH  46  70
ATOM     70  C   UNL A   1      38.973  30.580  30.858  1.00  0.00     0.064 A 
ATOM     71  C   UNL A   1      37.841  31.070  30.191  1.00  0.00     0.173 A 
ATOM     72  C   UNL A   1      38.928  30.523  32.258  1.00  0.00     0.173 A 
ATOM     73  F   UNL A   1      37.846  31.177  28.854  1.00  0.00    -0.203 F 
ATOM     74  C   UNL A   1      36.719  31.504  30.895  1.00  0.00     0.198 A 
ATOM     75  C   UNL A   1      37.796  30.932  32.960  1.00  0.00     0.198 A 
ATOM     76  F   UNL A   1      39.988  30.073  32.946  1.00  0.00    -0.203 F 
ATOM     77  F   UNL A   1      35.672  32.017  30.234  1.00  0.00    -0.200 F 
ATOM     78  C   UNL A   1      36.695  31.430  32.280  1.00  0.00     0.200 A 
ATOM     79  F   UNL A   1      37.774  30.855  34.298  1.00  0.00    -0.200 F 
ATOM     80  F   UNL A   1      35.618  31.850  32.957  1.00  0.00    -0.200 F 
ENDBRANCH  46  70
BRANCH  58  81
ATOM     81  C   UNL A   1      44.645  34.054  28.782  1.00  0.00     0.064 A 
ATOM     82  C   UNL A   1      44.267  35.022  27.840  1.00  0.00     0.173 A 
ATOM     83  C   UNL A   1      45.387  34.478  29.896  1.00  0.00     0.173 A 
ATOM     84  F   UNL A   1      43.567  34.666  26.752  1.00  0.00    -0.203 F 
ATOM     85  C   UNL A   1      44.633  36.356  27.998  1.00  0.00     0.198 A 
ATOM     86  C   UNL A   1      45.727  35.817  30.065  1.00  0.00     0.198 A 
ATOM     87  F   UNL A   1      45.766  33.594  30.832  1.00  0.00    -0.203 F 
ATOM     88  F   UNL A   1      44.295  37.257  27.064  1.00  0.00    -0.200 F 
ATOM     89  C   UNL A   1      45.356  36.754  29.113  1.00  0.00     0.200 A 
ATOM     90  F   UNL A   1      46.413  36.202  31.151  1.00  0.00    -0.200 F 
ATOM     91  F   UNL A   1      45.697  38.040  29.269  1.00  0.00    -0.200 F 
ENDBRANCH  58  81
ENDBRANCH  32  33
ENDBRANCH  25  27
ENDBRANCH  24  25
ENDBRANCH  23  24
ENDBRANCH  22  23
ENDBRANCH  21  22
ENDBRANCH  20  21
ENDBRANCH   1  20
TORSDOF 19
ENDMDL
MODEL 2
REMARK VINA RESULT:      -9.9      1.340      7.507
REMARK SMILES N#C[C@@H]1CN(C(=O)NCCCC(=O)OCCOCCOC(=O)c2ccc(-c3c4nc(c(-c5c(F)c(F)c(F)c(F)c5F)c5ccc([nH]5)c(-c5c(F)c(F)c(F)c(F)c5F)c5nc(c(-c6c(F)c(F)c(F)c(F)c6F)c6ccc3[nH]6)C=C5)C=C4)cc2)CCO1
REMARK SMILES IDX 15 1 14 2 12 3 13 4 11 5 10 6 9 7 8 8 6 9 7 10 5 12 3 13
REMARK SMILES IDX 4 14 88 15 87 16 86 17 2 18 1 19 16 20 17 21 18 22 19 23
REMARK SMILES IDX 20 24 21 25 22 26 23 27 24 28 85 29 25 30 84 31 26 32 27 33
REMARK SMILES IDX 28 34 78 35 29 36 83 37 77 38 79 39 30 40 82 41 76 42 75 43
REMARK SMILES IDX 31 45 63 46 43 47 62 48 44 49 47 50 61 51 80 52 45 53 46 54
REMARK SMILES IDX 60 56 81 57 48 58 32 59 33 60 41 61 34 62 35 63 39 64 42 65
REMARK SMILES IDX 36 66 37 67 40 68 38 69 64 70 65 71 73 72 66 73 67 74 71 75
REMARK SMILES IDX 74 76 68 77 69 78 72 79 70 80 49 81 50 82 58 83 51 84 52 85
REMARK SMILES IDX 56 86 59 87 53 88 54 89 57 90 55 91
REMARK H PARENT 8 11 79 44 47 55
REMARK Flexibility Score: inf
ROOT
ATOM      1  C   UNL A   1      34.040  23.381  26.567  1.00  0.00     0.261 C 
ENDROOT
BRANCH   1   2
ATOM      2  O   UNL A   1      33.000  24.350  26.325  1.00  0.00    -0.463 OA
BRANCH   2   3
ATOM      3  C   UNL A   1      31.709  23.944  26.391  1.00  0.00     0.305 C 
ATOM      4  O   UNL A   1      31.168  23.474  27.381  1.00  0.00    -0.252 OA
BRANCH   3   5
ATOM      5  C   UNL A   1      31.006  24.137  25.059  1.00  0.00     0.124 C 
BRANCH   5   6
ATOM      6  C   UNL A   1      31.940  24.315  23.853  1.00  0.00     0.033 C 
BRANCH   6   7
ATOM      7  C   UNL A   1      31.699  25.603  23.058  1.00  0.00     0.118 C 
BRANCH   7   8
ATOM      8  N   UNL A   1      32.739  26.576  23.326  1.00  0.00    -0.338 N 
ATOM      9  C   UNL A   1      32.950  27.644  24.105  1.00  0.00     0.317 C 
ATOM     10  O   UNL A   1      34.032  28.208  23.917  1.00  0.00    -0.249 OA
ATOM     11  H   UNL A   1      33.529  26.397  22.766  1.00  0.00     0.165 HD
BRANCH   9  12
ATOM     12  N   UNL A   1      32.079  28.082  25.052  1.00  0.00    -0.319 N 
ATOM     13  C   UNL A   1      32.427  28.684  27.406  1.00  0.00     0.240 C 
ATOM     14  C   UNL A   1      31.882  27.637  26.429  1.00  0.00     0.169 C 
ATOM     15  O   UNL A   1      31.682  29.921  27.196  1.00  0.00    -0.360 OA
ATOM     16  C   UNL A   1      31.796  30.404  25.836  1.00  0.00     0.183 C 
ATOM     17  C   UNL A   1      31.370  29.347  24.802  1.00  0.00     0.150 C 
BRANCH  13  18
ATOM     18  C   UNL A   1      33.918  28.956  27.289  1.00  0.00     0.096 C 
ATOM     19  N   UNL A   1      35.155  29.181  27.192  1.00  0.00    -0.195 NA
ENDBRANCH  13  18
ENDBRANCH   9  12
ENDBRANCH   7   8
ENDBRANCH   6   7
ENDBRANCH   5   6
ENDBRANCH   3   5
ENDBRANCH   2   3
ENDBRANCH   1   2
BRANCH   1  20
ATOM     20  C   UNL A   1      33.548  21.980  26.187  1.00  0.00     0.202 C 
BRANCH  20  21
ATOM     21  O   UNL A   1      34.560  20.971  26.237  1.00  0.00    -0.374 OA
BRANCH  21  22
ATOM     22  C   UNL A   1      35.103  20.581  24.979  1.00  0.00     0.202 C 
BRANCH  22  23
ATOM     23  C   UNL A   1      36.626  20.407  24.967  1.00  0.00     0.261 C 
BRANCH  23  24
ATOM     24  O   UNL A   1      37.285  21.437  25.726  1.00  0.00    -0.460 OA
BRANCH  24  25
ATOM     25  C   UNL A   1      38.597  21.199  25.971  1.00  0.00     0.338 C 
ATOM     26  O   UNL A   1      39.224  20.174  25.739  1.00  0.00    -0.246 OA
BRANCH  25  27
ATOM     27  C   UNL A   1      39.243  22.423  26.468  1.00  0.00     0.060 A 
ATOM     28  C   UNL A   1      38.698  23.660  26.105  1.00  0.00     0.016 A 
ATOM     29  C   UNL A   1      40.409  22.362  27.228  1.00  0.00     0.016 A 
ATOM     30  C   UNL A   1      39.323  24.847  26.500  1.00  0.00     0.010 A 
ATOM     31  C   UNL A   1      41.033  23.553  27.611  1.00  0.00     0.010 A 
ATOM     32  C   UNL A   1      40.505  24.807  27.251  1.00  0.00    -0.014 A 
BRANCH  32  33
ATOM     33  C   UNL A   1      41.267  26.051  27.555  1.00  0.00     0.031 A 
ATOM     34  C   UNL A   1      40.578  27.162  28.303  1.00  0.00     0.074 A 
ATOM     35  C   UNL A   1      42.548  26.211  27.169  1.00  0.00     0.049 A 
ATOM     36  N   UNL A   1      41.019  28.351  28.632  1.00  0.00    -0.248 NA
ATOM     37  C   UNL A   1      39.190  26.904  28.720  1.00  0.00     0.031 C 
ATOM     38  C   UNL A   1      43.336  25.238  26.414  1.00  0.00     0.029 A 
ATOM     39  N   UNL A   1      43.414  27.265  27.358  1.00  0.00    -0.354 N 
ATOM     40  C   UNL A   1      39.956  28.985  29.261  1.00  0.00     0.074 A 
ATOM     41  C   UNL A   1      38.834  28.074  29.225  1.00  0.00     0.031 C 
ATOM     42  C   UNL A   1      44.573  25.730  26.220  1.00  0.00     0.029 A 
ATOM     43  C   UNL A   1      44.658  27.066  26.808  1.00  0.00     0.049 A 
ATOM     44  H   UNL A   1      43.165  28.084  27.843  1.00  0.00     0.167 HD
ATOM     45  C   UNL A   1      39.920  30.207  29.844  1.00  0.00     0.037 A 
ATOM     46  C   UNL A   1      45.737  27.874  26.773  1.00  0.00     0.037 A 
ATOM     47  C   UNL A   1      41.041  31.103  29.923  1.00  0.00     0.049 A 
ATOM     48  C   UNL A   1      45.671  29.234  27.423  1.00  0.00     0.074 A 
ATOM     49  C   UNL A   1      41.115  32.338  30.543  1.00  0.00     0.029 A 
ATOM     50  N   UNL A   1      42.285  30.858  29.365  1.00  0.00    -0.354 N 
ATOM     51  N   UNL A   1      44.679  29.802  28.064  1.00  0.00    -0.248 NA
ATOM     52  C   UNL A   1      46.883  30.066  27.347  1.00  0.00     0.031 C 
ATOM     53  C   UNL A   1      42.396  32.859  30.327  1.00  0.00     0.029 A 
ATOM     54  C   UNL A   1      43.132  31.927  29.613  1.00  0.00     0.049 A 
ATOM     55  H   UNL A   1      42.532  30.045  28.867  1.00  0.00     0.167 HD
ATOM     56  C   UNL A   1      45.152  31.037  28.489  1.00  0.00     0.074 A 
ATOM     57  C   UNL A   1      46.526  31.134  28.046  1.00  0.00     0.031 C 
ATOM     58  C   UNL A   1      44.504  32.004  29.183  1.00  0.00     0.037 A 
BRANCH  45  59
ATOM     59  C   UNL A   1      38.615  30.640  30.446  1.00  0.00     0.064 A 
ATOM     60  C   UNL A   1      37.576  31.157  29.657  1.00  0.00     0.173 A 
ATOM     61  C   UNL A   1      38.400  30.532  31.828  1.00  0.00     0.173 A 
ATOM     62  F   UNL A   1      37.739  31.297  28.332  1.00  0.00    -0.203 F 
ATOM     63  C   UNL A   1      36.384  31.586  30.235  1.00  0.00     0.198 A 
ATOM     64  C   UNL A   1      37.195  30.931  32.397  1.00  0.00     0.198 A 
ATOM     65  F   UNL A   1      39.360  30.041  32.626  1.00  0.00    -0.203 F 
ATOM     66  F   UNL A   1      35.431  32.134  29.470  1.00  0.00    -0.200 F 
ATOM     67  C   UNL A   1      36.193  31.466  31.603  1.00  0.00     0.200 A 
ATOM     68  F   UNL A   1      37.006  30.805  33.718  1.00  0.00    -0.200 F 
ATOM     69  F   UNL A   1      35.045  31.880  32.157  1.00  0.00    -0.200 F 
ENDBRANCH  45  59
BRANCH  46  70
ATOM     70  C   UNL A   1      46.991  27.421  26.114  1.00  0.00     0.064 A 
ATOM     71  C   UNL A   1      47.197  27.628  24.742  1.00  0.00     0.173 A 
ATOM     72  C   UNL A   1      47.989  26.744  26.828  1.00  0.00     0.173 A 
ATOM     73  F   UNL A   1      46.257  28.241  24.009  1.00  0.00    -0.203 F 
ATOM     74  C   UNL A   1      48.345  27.158  24.107  1.00  0.00     0.198 A 
ATOM     75  C   UNL A   1      49.149  26.298  26.196  1.00  0.00     0.198 A 
ATOM     76  F   UNL A   1      47.837  26.510  28.139  1.00  0.00    -0.203 F 
ATOM     77  F   UNL A   1      48.492  27.324  22.785  1.00  0.00    -0.200 F 
ATOM     78  C   UNL A   1      49.323  26.498  24.835  1.00  0.00     0.200 A 
ATOM     79  F   UNL A   1      50.095  25.664  26.903  1.00  0.00    -0.200 F 
ATOM     80  F   UNL A   1      50.425  26.043  24.223  1.00  0.00    -0.200 F 
ENDBRANCH  46  70
BRANCH  58  81
ATOM     81  C   UNL A   1      45.279  33.236  29.550  1.00  0.00     0.064 A 
ATOM     82  C   UNL A   1      45.296  34.371  28.727  1.00  0.00     0.173 A 
ATOM     83  C   UNL A   1      45.968  33.302  30.772  1.00  0.00     0.173 A 
ATOM     84  F   UNL A   1      44.663  34.355  27.543  1.00  0.00    -0.203 F 
ATOM     85  C   UNL A   1      45.989  35.518  29.103  1.00  0.00     0.198 A 
ATOM     86  C   UNL A   1      46.636  34.460  31.158  1.00  0.00     0.198 A 
ATOM     87  F   UNL A   1      45.977  32.246  31.601  1.00  0.00    -0.203 F 
ATOM     88  F   UNL A   1      46.024  36.578  28.282  1.00  0.00    -0.200 F 
ATOM     89  C   UNL A   1      46.652  35.565  30.320  1.00  0.00     0.200 A 
ATOM     90  F   UNL A   1      47.264  34.508  32.341  1.00  0.00    -0.200 F 
ATOM     91  F   UNL A   1      47.309  36.675  30.686  1.00  0.00    -0.200 F 
ENDBRANCH  58  81
ENDBRANCH  32  33
ENDBRANCH  25  27
ENDBRANCH  24  25
ENDBRANCH  23  24
ENDBRANCH  22  23
ENDBRANCH  21  22
ENDBRANCH  20  21
ENDBRANCH   1  20
TORSDOF 19
ENDMDL
MODEL 3
REMARK VINA RESULT:      -9.9      1.346      7.713
REMARK SMILES N#C[C@@H]1CN(C(=O)NCCCC(=O)OCCOCCOC(=O)c2ccc(-c3c4nc(c(-c5c(F)c(F)c(F)c(F)c5F)c5ccc([nH]5)c(-c5c(F)c(F)c(F)c(F)c5F)c5nc(c(-c6c(F)c(F)c(F)c(F)c6F)c6ccc3[nH]6)C=C5)C=C4)cc2)CCO1
REMARK SMILES IDX 15 1 14 2 12 3 13 4 11 5 10 6 9 7 8 8 6 9 7 10 5 12 3 13
REMARK SMILES IDX 4 14 88 15 87 16 86 17 2 18 1 19 16 20 17 21 18 22 19 23
REMARK SMILES IDX 20 24 21 25 22 26 23 27 24 28 85 29 25 30 84 31 26 32 27 33
REMARK SMILES IDX 28 34 78 35 29 36 83 37 77 38 79 39 30 40 82 41 76 42 75 43
REMARK SMILES IDX 31 45 63 46 43 47 62 48 44 49 47 50 61 51 80 52 45 53 46 54
REMARK SMILES IDX 60 56 81 57 48 58 32 59 33 60 41 61 34 62 35 63 39 64 42 65
REMARK SMILES IDX 36 66 37 67 40 68 38 69 64 70 65 71 73 72 66 73 67 74 71 75
REMARK SMILES IDX 74 76 68 77 69 78 72 79 70 80 49 81 50 82 58 83 51 84 52 85
REMARK SMILES IDX 56 86 59 87 53 88 54 89 57 90 55 91
REMARK H PARENT 8 11 79 44 47 55
REMARK Flexibility Score: inf
ROOT
ATOM      1  C   UNL A   1      34.355  23.378  25.367  1.00  0.00     0.261 C 
ENDROOT
BRANCH   1   2
ATOM      2  O   UNL A   1      33.497  23.497  24.215  1.00  0.00    -0.463 OA
BRANCH   2   3
ATOM      3  C   UNL A   1      34.066  23.553  22.986  1.00  0.00     0.305 C 
ATOM      4  O   UNL A   1      35.234  23.299  22.739  1.00  0.00    -0.252 OA
BRANCH   3   5
ATOM      5  C   UNL A   1      33.058  23.989  21.938  1.00  0.00     0.124 C 
BRANCH   5   6
ATOM      6  C   UNL A   1      33.001  25.502  21.681  1.00  0.00     0.033 C 
BRANCH   6   7
ATOM      7  C   UNL A   1      31.585  26.087  21.687  1.00  0.00     0.118 C 
BRANCH   7   8
ATOM      8  N   UNL A   1      31.049  26.126  23.033  1.00  0.00    -0.338 N 
ATOM      9  C   UNL A   1      31.100  26.906  24.120  1.00  0.00     0.317 C 
ATOM     10  O   UNL A   1      30.489  26.460  25.097  1.00  0.00    -0.249 OA
ATOM     11  H   UNL A   1      30.474  25.344  23.197  1.00  0.00     0.165 HD
BRANCH   9  12
ATOM     12  N   UNL A   1      31.739  28.104  24.172  1.00  0.00    -0.319 N 
ATOM     13  C   UNL A   1      31.915  29.759  25.976  1.00  0.00     0.240 C 
ATOM     14  C   UNL A   1      31.264  29.405  24.634  1.00  0.00     0.169 C 
ATOM     15  O   UNL A   1      33.357  29.827  25.768  1.00  0.00    -0.360 OA
ATOM     16  C   UNL A   1      33.898  28.580  25.268  1.00  0.00     0.183 C 
ATOM     17  C   UNL A   1      33.198  28.115  23.979  1.00  0.00     0.150 C 
BRANCH  13  18
ATOM     18  C   UNL A   1      31.604  28.799  27.113  1.00  0.00     0.096 C 
ATOM     19  N   UNL A   1      31.346  28.003  28.056  1.00  0.00    -0.195 NA
ENDBRANCH  13  18
ENDBRANCH   9  12
ENDBRANCH   7   8
ENDBRANCH   6   7
ENDBRANCH   5   6
ENDBRANCH   3   5
ENDBRANCH   2   3
ENDBRANCH   1   2
BRANCH   1  20
ATOM     20  C   UNL A   1      33.883  22.220  26.253  1.00  0.00     0.202 C 
BRANCH  20  21
ATOM     21  O   UNL A   1      34.813  21.137  26.346  1.00  0.00    -0.374 OA
BRANCH  21  22
ATOM     22  C   UNL A   1      35.251  20.593  25.105  1.00  0.00     0.202 C 
BRANCH  22  23
ATOM     23  C   UNL A   1      36.772  20.474  24.960  1.00  0.00     0.261 C 
BRANCH  23  24
ATOM     24  O   UNL A   1      37.454  21.573  25.592  1.00  0.00    -0.460 OA
BRANCH  24  25
ATOM     25  C   UNL A   1      38.713  21.287  26.005  1.00  0.00     0.338 C 
ATOM     26  O   UNL A   1      39.300  20.216  25.921  1.00  0.00    -0.246 OA
BRANCH  25  27
ATOM     27  C   UNL A   1      39.370  22.510  26.490  1.00  0.00     0.060 A 
ATOM     28  C   UNL A   1      38.853  23.749  26.092  1.00  0.00     0.016 A 
ATOM     29  C   UNL A   1      40.520  22.446  27.274  1.00  0.00     0.016 A 
ATOM     30  C   UNL A   1      39.491  24.932  26.474  1.00  0.00     0.010 A 
ATOM     31  C   UNL A   1      41.157  23.634  27.645  1.00  0.00     0.010 A 
ATOM     32  C   UNL A   1      40.657  24.888  27.249  1.00  0.00    -0.014 A 
BRANCH  32  33
ATOM     33  C   UNL A   1      41.435  26.125  27.542  1.00  0.00     0.031 A 
ATOM     34  C   UNL A   1      40.776  27.229  28.328  1.00  0.00     0.074 A 
ATOM     35  C   UNL A   1      42.702  26.286  27.115  1.00  0.00     0.049 A 
ATOM     36  N   UNL A   1      41.233  28.412  28.657  1.00  0.00    -0.248 NA
ATOM     37  C   UNL A   1      39.402  26.971  28.789  1.00  0.00     0.031 C 
ATOM     38  C   UNL A   1      43.459  25.320  26.320  1.00  0.00     0.029 A 
ATOM     39  N   UNL A   1      43.578  27.334  27.287  1.00  0.00    -0.354 N 
ATOM     40  C   UNL A   1      40.195  29.042  29.330  1.00  0.00     0.074 A 
ATOM     41  C   UNL A   1      39.069  28.136  29.321  1.00  0.00     0.031 C 
ATOM     42  C   UNL A   1      44.691  25.809  26.090  1.00  0.00     0.029 A 
ATOM     43  C   UNL A   1      44.802  27.137  26.692  1.00  0.00     0.049 A 
ATOM     44  H   UNL A   1      43.350  28.148  27.791  1.00  0.00     0.167 HD
ATOM     45  C   UNL A   1      40.184  30.257  29.929  1.00  0.00     0.037 A 
ATOM     46  C   UNL A   1      45.882  27.942  26.631  1.00  0.00     0.037 A 
ATOM     47  C   UNL A   1      41.311  31.148  29.981  1.00  0.00     0.049 A 
ATOM     48  C   UNL A   1      45.845  29.293  27.300  1.00  0.00     0.074 A 
ATOM     49  C   UNL A   1      41.411  32.374  30.614  1.00  0.00     0.029 A 
ATOM     50  N   UNL A   1      42.534  30.905  29.378  1.00  0.00    -0.354 N 
ATOM     51  N   UNL A   1      44.877  29.858  27.981  1.00  0.00    -0.248 NA
ATOM     52  C   UNL A   1      47.057  30.122  27.192  1.00  0.00     0.031 C 
ATOM     53  C   UNL A   1      42.686  32.893  30.361  1.00  0.00     0.029 A 
ATOM     54  C   UNL A   1      43.394  31.968  29.610  1.00  0.00     0.049 A 
ATOM     55  H   UNL A   1      42.761  30.098  28.861  1.00  0.00     0.167 HD
ATOM     56  C   UNL A   1      45.370  31.085  28.405  1.00  0.00     0.074 A 
ATOM     57  C   UNL A   1      46.728  31.182  27.918  1.00  0.00     0.031 C 
ATOM     58  C   UNL A   1      44.750  32.046  29.134  1.00  0.00     0.037 A 
BRANCH  45  59
ATOM     59  C   UNL A   1      38.903  30.687  30.581  1.00  0.00     0.064 A 
ATOM     60  C   UNL A   1      38.662  30.472  31.947  1.00  0.00     0.173 A 
ATOM     61  C   UNL A   1      37.906  31.328  29.831  1.00  0.00     0.173 A 
ATOM     62  F   UNL A   1      39.578  29.847  32.704  1.00  0.00    -0.203 F 
ATOM     63  C   UNL A   1      37.454  30.846  32.529  1.00  0.00     0.198 A 
ATOM     64  C   UNL A   1      36.713  31.731  30.424  1.00  0.00     0.198 A 
ATOM     65  F   UNL A   1      38.087  31.562  28.523  1.00  0.00    -0.203 F 
ATOM     66  F   UNL A   1      37.222  30.573  33.820  1.00  0.00    -0.200 F 
ATOM     67  C   UNL A   1      36.484  31.481  31.769  1.00  0.00     0.200 A 
ATOM     68  F   UNL A   1      35.780  32.355  29.692  1.00  0.00    -0.200 F 
ATOM     69  F   UNL A   1      35.322  31.841  32.331  1.00  0.00    -0.200 F 
ENDBRANCH  45  59
BRANCH  46  70
ATOM     70  C   UNL A   1      47.111  27.493  25.923  1.00  0.00     0.064 A 
ATOM     71  C   UNL A   1      48.173  26.908  26.628  1.00  0.00     0.173 A 
ATOM     72  C   UNL A   1      47.266  27.669  24.541  1.00  0.00     0.173 A 
ATOM     73  F   UNL A   1      48.087  26.749  27.957  1.00  0.00    -0.203 F 
ATOM     74  C   UNL A   1      49.350  26.535  25.981  1.00  0.00     0.198 A 
ATOM     75  C   UNL A   1      48.433  27.270  23.891  1.00  0.00     0.198 A 
ATOM     76  F   UNL A   1      46.285  28.233  23.821  1.00  0.00    -0.203 F 
ATOM     77  F   UNL A   1      50.369  26.026  26.688  1.00  0.00    -0.200 F 
ATOM     78  C   UNL A   1      49.477  26.711  24.611  1.00  0.00     0.200 A 
ATOM     79  F   UNL A   1      48.551  27.437  22.566  1.00  0.00    -0.200 F 
ATOM     80  F   UNL A   1      50.609  26.354  23.990  1.00  0.00    -0.200 F 
ENDBRANCH  46  70
BRANCH  58  81
ATOM     81  C   UNL A   1      45.543  33.270  29.490  1.00  0.00     0.064 A 
ATOM     82  C   UNL A   1      46.376  33.307  30.617  1.00  0.00     0.173 A 
ATOM     83  C   UNL A   1      45.512  34.400  28.659  1.00  0.00     0.173 A 
ATOM     84  F   UNL A   1      46.432  32.257  31.451  1.00  0.00    -0.203 F 
ATOM     85  C   UNL A   1      47.133  34.439  30.910  1.00  0.00     0.198 A 
ATOM     86  C   UNL A   1      46.292  35.518  28.938  1.00  0.00     0.198 A 
ATOM     87  F   UNL A   1      44.738  34.412  27.562  1.00  0.00    -0.203 F 
ATOM     88  F   UNL A   1      47.892  34.468  32.014  1.00  0.00    -0.200 F 
ATOM     89  C   UNL A   1      47.096  35.540  30.067  1.00  0.00     0.200 A 
ATOM     90  F   UNL A   1      46.266  36.575  28.114  1.00  0.00    -0.200 F 
ATOM     91  F   UNL A   1      47.835  36.623  30.344  1.00  0.00    -0.200 F 
ENDBRANCH  58  81
ENDBRANCH  32  33
ENDBRANCH  25  27
ENDBRANCH  24  25
ENDBRANCH  23  24
ENDBRANCH  22  23
ENDBRANCH  21  22
ENDBRANCH  20  21
ENDBRANCH   1  20
TORSDOF 19
ENDMDL
