MODEL 1
REMARK VINA RESULT:     -12.3      0.000      0.000
REMARK SMILES O=C(OCCOCCOC(=O)c1nnn(-c2ccc(C(F)(F)F)cc2)c1-c1cccc(Cl)c1)c1ccc(-c2c3nc(c(-c4c(F)c(F)c(F)c(F)c4F)c4ccc([nH]4)c(-c4c(F)c(F)c(F)c(F)c4F)c4nc(c(-c5c(F)c(F)c(F)c(F)c5F)c5ccc2[nH]5)C=C4)C=C3)cc1
REMARK SMILES IDX 6 1 5 2 4 3 3 4 2 5 1 6 34 7 35 8 96 9 36 10 95 11 37 12
REMARK SMILES IDX 38 13 39 14 89 15 40 16 94 17 88 18 90 19 41 20 93 21 87 22
REMARK SMILES IDX 86 23 42 25 74 26 54 27 73 28 55 29 58 30 72 31 91 32 56 33
REMARK SMILES IDX 57 34 71 36 92 37 59 38 43 39 44 40 52 41 45 42 46 43 50 44
REMARK SMILES IDX 53 45 47 46 48 47 51 48 49 49 75 50 76 51 84 52 77 53 78 54
REMARK SMILES IDX 82 55 85 56 79 57 80 58 83 59 81 60 60 61 61 62 69 63 62 64
REMARK SMILES IDX 63 65 67 66 70 67 64 68 65 69 68 70 66 71 7 72 8 73 9 74
REMARK SMILES IDX 10 75 11 76 12 77 13 78 26 79 14 80 15 81 27 82 28 83 33 84
REMARK SMILES IDX 29 85 31 86 30 87 32 88 16 89 17 90 25 91 18 92 24 93 19 94
REMARK SMILES IDX 20 95 21 96 22 97 23 98
REMARK H PARENT 90 24 58 35
REMARK Flexibility Score: inf
ROOT
ATOM      1  O   UNL A   1      34.178  29.229  26.631  1.00  0.00    -0.374 OA
ENDROOT
BRANCH   1   2
ATOM      2  C   UNL A   1      34.977  30.078  27.458  1.00  0.00     0.202 C 
BRANCH   2   3
ATOM      3  C   UNL A   1      34.271  31.341  27.934  1.00  0.00     0.261 C 
BRANCH   3   4
ATOM      4  O   UNL A   1      35.097  32.266  28.676  1.00  0.00    -0.460 OA
BRANCH   4   5
ATOM      5  C   UNL A   1      35.281  32.116  30.010  1.00  0.00     0.338 C 
ATOM      6  O   UNL A   1      34.403  32.333  30.834  1.00  0.00    -0.246 OA
BRANCH   5   7
ATOM      7  C   UNL A   1      36.480  31.310  30.336  1.00  0.00     0.060 A 
ATOM      8  C   UNL A   1      37.771  31.787  30.123  1.00  0.00     0.016 A 
ATOM      9  C   UNL A   1      36.291  29.991  30.778  1.00  0.00     0.016 A 
ATOM     10  C   UNL A   1      38.842  30.921  30.164  1.00  0.00     0.010 A 
ATOM     11  C   UNL A   1      37.376  29.124  30.866  1.00  0.00     0.010 A 
ATOM     12  C   UNL A   1      38.638  29.578  30.490  1.00  0.00    -0.014 A 
BRANCH  12  13
ATOM     13  C   UNL A   1      39.825  28.738  30.429  1.00  0.00     0.031 A 
ATOM     14  C   UNL A   1      40.571  28.589  31.707  1.00  0.00     0.074 A 
ATOM     15  C   UNL A   1      40.277  28.152  29.307  1.00  0.00     0.049 A 
ATOM     16  N   UNL A   1      41.769  28.996  31.980  1.00  0.00    -0.248 NA
ATOM     17  C   UNL A   1      39.859  27.995  32.844  1.00  0.00     0.031 C 
ATOM     18  C   UNL A   1      39.594  27.971  28.028  1.00  0.00     0.029 A 
ATOM     19  N   UNL A   1      41.469  27.516  29.123  1.00  0.00    -0.354 N 
ATOM     20  C   UNL A   1      42.026  28.587  33.286  1.00  0.00     0.074 A 
ATOM     21  C   UNL A   1      40.787  28.059  33.800  1.00  0.00     0.031 C 
ATOM     22  C   UNL A   1      40.292  27.088  27.279  1.00  0.00     0.029 A 
ATOM     23  C   UNL A   1      41.530  26.758  27.968  1.00  0.00     0.049 A 
ATOM     24  H   UNL A   1      42.220  27.589  29.756  1.00  0.00     0.167 HD
ATOM     25  C   UNL A   1      43.288  28.554  33.793  1.00  0.00     0.037 A 
ATOM     26  C   UNL A   1      42.498  25.870  27.645  1.00  0.00     0.037 A 
ATOM     27  C   UNL A   1      44.186  29.402  33.057  1.00  0.00     0.049 A 
ATOM     28  C   UNL A   1      43.714  26.199  28.430  1.00  0.00     0.074 A 
ATOM     29  C   UNL A   1      44.236  30.755  32.780  1.00  0.00     0.029 A 
ATOM     30  N   UNL A   1      45.096  28.825  32.206  1.00  0.00    -0.354 N 
ATOM     31  N   UNL A   1      44.470  27.237  28.210  1.00  0.00    -0.248 NA
ATOM     32  C   UNL A   1      43.884  25.567  29.730  1.00  0.00     0.031 C 
ATOM     33  C   UNL A   1      44.782  30.846  31.466  1.00  0.00     0.029 A 
ATOM     34  C   UNL A   1      45.056  29.547  31.042  1.00  0.00     0.049 A 
ATOM     35  H   UNL A   1      45.665  28.043  32.395  1.00  0.00     0.167 HD
ATOM     36  C   UNL A   1      44.881  27.643  29.470  1.00  0.00     0.074 A 
ATOM     37  C   UNL A   1      44.590  26.517  30.349  1.00  0.00     0.031 C 
ATOM     38  C   UNL A   1      45.162  28.953  29.733  1.00  0.00     0.037 A 
BRANCH  25  39
ATOM     39  C   UNL A   1      43.775  27.510  34.763  1.00  0.00     0.064 A 
ATOM     40  C   UNL A   1      43.699  26.147  34.414  1.00  0.00     0.173 A 
ATOM     41  C   UNL A   1      44.020  27.780  36.126  1.00  0.00     0.173 A 
ATOM     42  F   UNL A   1      43.447  25.777  33.150  1.00  0.00    -0.203 F 
ATOM     43  C   UNL A   1      43.783  25.136  35.375  1.00  0.00     0.198 A 
ATOM     44  C   UNL A   1      44.157  26.767  37.073  1.00  0.00     0.198 A 
ATOM     45  F   UNL A   1      44.021  29.028  36.613  1.00  0.00    -0.203 F 
ATOM     46  F   UNL A   1      43.578  23.860  35.018  1.00  0.00    -0.200 F 
ATOM     47  C   UNL A   1      44.006  25.447  36.704  1.00  0.00     0.200 A 
ATOM     48  F   UNL A   1      44.354  27.090  38.359  1.00  0.00    -0.200 F 
ATOM     49  F   UNL A   1      44.023  24.485  37.636  1.00  0.00    -0.200 F 
ENDBRANCH  25  39
BRANCH  26  50
ATOM     50  C   UNL A   1      42.353  24.600  26.902  1.00  0.00     0.064 A 
ATOM     51  C   UNL A   1      43.038  24.383  25.696  1.00  0.00     0.173 A 
ATOM     52  C   UNL A   1      41.754  23.471  27.497  1.00  0.00     0.173 A 
ATOM     53  F   UNL A   1      43.675  25.396  25.091  1.00  0.00    -0.203 F 
ATOM     54  C   UNL A   1      43.139  23.109  25.132  1.00  0.00     0.198 A 
ATOM     55  C   UNL A   1      41.844  22.204  26.926  1.00  0.00     0.198 A 
ATOM     56  F   UNL A   1      41.152  23.559  28.692  1.00  0.00    -0.203 F 
ATOM     57  F   UNL A   1      43.857  22.929  24.016  1.00  0.00    -0.200 F 
ATOM     58  C   UNL A   1      42.549  22.019  25.751  1.00  0.00     0.200 A 
ATOM     59  F   UNL A   1      41.298  21.152  27.554  1.00  0.00    -0.200 F 
ATOM     60  F   UNL A   1      42.695  20.788  25.242  1.00  0.00    -0.200 F 
ENDBRANCH  26  50
BRANCH  38  61
ATOM     61  C   UNL A   1      45.320  29.886  28.568  1.00  0.00     0.064 A 
ATOM     62  C   UNL A   1      44.243  30.479  27.886  1.00  0.00     0.173 A 
ATOM     63  C   UNL A   1      46.614  30.286  28.206  1.00  0.00     0.173 A 
ATOM     64  F   UNL A   1      42.978  30.236  28.248  1.00  0.00    -0.203 F 
ATOM     65  C   UNL A   1      44.460  31.382  26.846  1.00  0.00     0.198 A 
ATOM     66  C   UNL A   1      46.826  31.220  27.197  1.00  0.00     0.198 A 
ATOM     67  F   UNL A   1      47.678  29.800  28.866  1.00  0.00    -0.203 F 
ATOM     68  F   UNL A   1      43.419  31.916  26.192  1.00  0.00    -0.200 F 
ATOM     69  C   UNL A   1      45.751  31.755  26.506  1.00  0.00     0.200 A 
ATOM     70  F   UNL A   1      48.072  31.617  26.906  1.00  0.00    -0.200 F 
ATOM     71  F   UNL A   1      45.958  32.651  25.531  1.00  0.00    -0.200 F 
ENDBRANCH  38  61
ENDBRANCH  12  13
ENDBRANCH   5   7
ENDBRANCH   4   5
ENDBRANCH   3   4
ENDBRANCH   2   3
ENDBRANCH   1   2
BRANCH   1  72
ATOM     72  C   UNL A   1      33.013  28.678  27.262  1.00  0.00     0.202 C 
BRANCH  72  73
ATOM     73  C   UNL A   1      32.002  27.940  26.374  1.00  0.00     0.261 C 
BRANCH  73  74
ATOM     74  O   UNL A   1      32.364  26.563  26.177  1.00  0.00    -0.458 OA
BRANCH  74  75
ATOM     75  C   UNL A   1      32.859  26.236  24.945  1.00  0.00     0.361 C 
ATOM     76  O   UNL A   1      33.650  26.911  24.313  1.00  0.00    -0.244 OA
BRANCH  75  77
ATOM     77  C   UNL A   1      32.408  24.921  24.518  1.00  0.00     0.198 A 
ATOM     78  N   UNL A   1      31.095  24.652  24.207  1.00  0.00    -0.122 NA
ATOM     79  C   UNL A   1      33.174  23.796  24.273  1.00  0.00     0.109 A 
ATOM     80  N   UNL A   1      31.019  23.395  23.786  1.00  0.00    -0.061 NA
ATOM     81  N   UNL A   1      32.219  22.819  24.018  1.00  0.00    -0.212 N 
BRANCH  79  82
ATOM     82  C   UNL A   1      34.620  23.590  24.275  1.00  0.00     0.004 A 
ATOM     83  C   UNL A   1      35.270  23.113  23.125  1.00  0.00     0.010 A 
ATOM     84  C   UNL A   1      35.375  23.885  25.414  1.00  0.00     0.031 A 
ATOM     85  C   UNL A   1      36.653  22.924  23.121  1.00  0.00     0.002 A 
ATOM     86  C   UNL A   1      36.757  23.703  25.399  1.00  0.00     0.041 A 
ATOM     87  C   UNL A   1      37.398  23.220  24.260  1.00  0.00     0.020 A 
ATOM     88  Cl  UNL A   1      37.674  24.079  26.804  1.00  0.00    -0.084 Cl
ENDBRANCH  79  82
BRANCH  81  89
ATOM     89  C   UNL A   1      32.370  21.418  24.113  1.00  0.00     0.067 A 
ATOM     90  C   UNL A   1      32.194  20.601  22.995  1.00  0.00     0.029 A 
ATOM     91  C   UNL A   1      32.706  20.862  25.355  1.00  0.00     0.029 A 
ATOM     92  C   UNL A   1      32.459  19.231  23.109  1.00  0.00     0.015 A 
ATOM     93  C   UNL A   1      32.932  19.495  25.469  1.00  0.00     0.015 A 
ATOM     94  C   UNL A   1      32.842  18.669  24.342  1.00  0.00     0.056 A 
BRANCH  94  95
ATOM     95  C   UNL A   1      33.181  17.202  24.450  1.00  0.00     0.416 C 
ATOM     96  F   UNL A   1      34.405  16.983  25.004  1.00  0.00    -0.166 F 
ATOM     97  F   UNL A   1      32.288  16.523  25.222  1.00  0.00    -0.166 F 
ATOM     98  F   UNL A   1      33.195  16.560  23.248  1.00  0.00    -0.166 F 
ENDBRANCH  94  95
ENDBRANCH  81  89
ENDBRANCH  75  77
ENDBRANCH  74  75
ENDBRANCH  73  74
ENDBRANCH  72  73
ENDBRANCH   1  72
TORSDOF 17
ENDMDL
MODEL 2
REMARK VINA RESULT:     -11.8      1.879      2.907
REMARK SMILES O=C(OCCOCCOC(=O)c1nnn(-c2ccc(C(F)(F)F)cc2)c1-c1cccc(Cl)c1)c1ccc(-c2c3nc(c(-c4c(F)c(F)c(F)c(F)c4F)c4ccc([nH]4)c(-c4c(F)c(F)c(F)c(F)c4F)c4nc(c(-c5c(F)c(F)c(F)c(F)c5F)c5ccc2[nH]5)C=C4)C=C3)cc1
REMARK SMILES IDX 6 1 5 2 4 3 3 4 2 5 1 6 34 7 35 8 96 9 36 10 95 11 37 12
REMARK SMILES IDX 38 13 39 14 89 15 40 16 94 17 88 18 90 19 41 20 93 21 87 22
REMARK SMILES IDX 86 23 42 25 74 26 54 27 73 28 55 29 58 30 72 31 91 32 56 33
REMARK SMILES IDX 57 34 71 36 92 37 59 38 43 39 44 40 52 41 45 42 46 43 50 44
REMARK SMILES IDX 53 45 47 46 48 47 51 48 49 49 75 50 76 51 84 52 77 53 78 54
REMARK SMILES IDX 82 55 85 56 79 57 80 58 83 59 81 60 60 61 61 62 69 63 62 64
REMARK SMILES IDX 63 65 67 66 70 67 64 68 65 69 68 70 66 71 7 72 8 73 9 74
REMARK SMILES IDX 10 75 11 76 12 77 13 78 26 79 14 80 15 81 27 82 28 83 33 84
REMARK SMILES IDX 29 85 31 86 30 87 32 88 16 89 17 90 25 91 18 92 24 93 19 94
REMARK SMILES IDX 20 95 21 96 22 97 23 98
REMARK H PARENT 90 24 58 35
REMARK Flexibility Score: inf
ROOT
ATOM      1  O   UNL A   1      31.712  33.298  27.043  1.00  0.00    -0.374 OA
ENDROOT
BRANCH   1   2
ATOM      2  C   UNL A   1      32.959  33.414  27.731  1.00  0.00     0.202 C 
BRANCH   2   3
ATOM      3  C   UNL A   1      33.678  32.092  27.962  1.00  0.00     0.261 C 
BRANCH   3   4
ATOM      4  O   UNL A   1      35.028  32.205  28.466  1.00  0.00    -0.460 OA
BRANCH   4   5
ATOM      5  C   UNL A   1      35.278  32.161  29.798  1.00  0.00     0.338 C 
ATOM      6  O   UNL A   1      34.459  32.496  30.642  1.00  0.00    -0.246 OA
BRANCH   5   7
ATOM      7  C   UNL A   1      36.452  31.323  30.133  1.00  0.00     0.060 A 
ATOM      8  C   UNL A   1      37.731  31.860  30.263  1.00  0.00     0.016 A 
ATOM      9  C   UNL A   1      36.270  29.934  30.220  1.00  0.00     0.016 A 
ATOM     10  C   UNL A   1      38.829  31.028  30.289  1.00  0.00     0.010 A 
ATOM     11  C   UNL A   1      37.375  29.090  30.295  1.00  0.00     0.010 A 
ATOM     12  C   UNL A   1      38.653  29.643  30.257  1.00  0.00    -0.014 A 
BRANCH  12  13
ATOM     13  C   UNL A   1      39.881  28.862  30.212  1.00  0.00     0.031 A 
ATOM     14  C   UNL A   1      40.598  28.721  31.507  1.00  0.00     0.074 A 
ATOM     15  C   UNL A   1      40.391  28.325  29.091  1.00  0.00     0.049 A 
ATOM     16  N   UNL A   1      41.767  29.178  31.823  1.00  0.00    -0.248 NA
ATOM     17  C   UNL A   1      39.885  28.067  32.610  1.00  0.00     0.031 C 
ATOM     18  C   UNL A   1      39.753  28.140  27.790  1.00  0.00     0.029 A 
ATOM     19  N   UNL A   1      41.617  27.751  28.928  1.00  0.00    -0.354 N 
ATOM     20  C   UNL A   1      42.007  28.753  33.126  1.00  0.00     0.074 A 
ATOM     21  C   UNL A   1      40.782  28.155  33.594  1.00  0.00     0.031 C 
ATOM     22  C   UNL A   1      40.514  27.309  27.042  1.00  0.00     0.029 A 
ATOM     23  C   UNL A   1      41.747  27.023  27.759  1.00  0.00     0.049 A 
ATOM     24  H   UNL A   1      42.346  27.846  29.583  1.00  0.00     0.167 HD
ATOM     25  C   UNL A   1      43.255  28.770  33.668  1.00  0.00     0.037 A 
ATOM     26  C   UNL A   1      42.765  26.191  27.444  1.00  0.00     0.037 A 
ATOM     27  C   UNL A   1      44.131  29.676  32.977  1.00  0.00     0.049 A 
ATOM     28  C   UNL A   1      43.942  26.560  28.271  1.00  0.00     0.074 A 
ATOM     29  C   UNL A   1      44.122  31.036  32.730  1.00  0.00     0.029 A 
ATOM     30  N   UNL A   1      45.090  29.163  32.140  1.00  0.00    -0.354 N 
ATOM     31  N   UNL A   1      44.652  27.639  28.094  1.00  0.00    -0.248 NA
ATOM     32  C   UNL A   1      44.107  25.908  29.561  1.00  0.00     0.031 C 
ATOM     33  C   UNL A   1      44.699  31.184  31.434  1.00  0.00     0.029 A 
ATOM     34  C   UNL A   1      45.047  29.909  30.990  1.00  0.00     0.049 A 
ATOM     35  H   UNL A   1      45.692  28.406  32.328  1.00  0.00     0.167 HD
ATOM     36  C   UNL A   1      45.009  28.035  29.374  1.00  0.00     0.074 A 
ATOM     37  C   UNL A   1      44.749  26.877  30.220  1.00  0.00     0.031 C 
ATOM     38  C   UNL A   1      45.218  29.351  29.672  1.00  0.00     0.037 A 
BRANCH  25  39
ATOM     39  C   UNL A   1      43.766  27.729  34.629  1.00  0.00     0.064 A 
ATOM     40  C   UNL A   1      43.755  26.371  34.254  1.00  0.00     0.173 A 
ATOM     41  C   UNL A   1      43.972  27.983  36.002  1.00  0.00     0.173 A 
ATOM     42  F   UNL A   1      43.544  26.014  32.978  1.00  0.00    -0.203 F 
ATOM     43  C   UNL A   1      43.862  25.345  35.198  1.00  0.00     0.198 A 
ATOM     44  C   UNL A   1      44.132  26.958  36.933  1.00  0.00     0.198 A 
ATOM     45  F   UNL A   1      43.910  29.220  36.512  1.00  0.00    -0.203 F 
ATOM     46  F   UNL A   1      43.718  24.069  34.814  1.00  0.00    -0.200 F 
ATOM     47  C   UNL A   1      44.044  25.641  36.537  1.00  0.00     0.200 A 
ATOM     48  F   UNL A   1      44.288  27.264  38.228  1.00  0.00    -0.200 F 
ATOM     49  F   UNL A   1      44.082  24.662  37.451  1.00  0.00    -0.200 F 
ENDBRANCH  25  39
BRANCH  26  50
ATOM     50  C   UNL A   1      42.704  24.932  26.670  1.00  0.00     0.064 A 
ATOM     51  C   UNL A   1      43.465  24.761  25.504  1.00  0.00     0.173 A 
ATOM     52  C   UNL A   1      42.104  23.775  27.207  1.00  0.00     0.173 A 
ATOM     53  F   UNL A   1      44.106  25.803  24.957  1.00  0.00    -0.203 F 
ATOM     54  C   UNL A   1      43.637  23.502  24.923  1.00  0.00     0.198 A 
ATOM     55  C   UNL A   1      42.266  22.523  26.619  1.00  0.00     0.198 A 
ATOM     56  F   UNL A   1      41.430  23.821  28.366  1.00  0.00    -0.203 F 
ATOM     57  F   UNL A   1      44.425  23.365  23.849  1.00  0.00    -0.200 F 
ATOM     58  C   UNL A   1      43.044  22.382  25.486  1.00  0.00     0.200 A 
ATOM     59  F   UNL A   1      41.716  21.443  27.194  1.00  0.00    -0.200 F 
ATOM     60  F   UNL A   1      43.257  21.167  24.964  1.00  0.00    -0.200 F 
ENDBRANCH  26  50
BRANCH  38  61
ATOM     61  C   UNL A   1      45.362  30.316  28.532  1.00  0.00     0.064 A 
ATOM     62  C   UNL A   1      44.277  30.856  27.820  1.00  0.00     0.173 A 
ATOM     63  C   UNL A   1      46.642  30.804  28.231  1.00  0.00     0.173 A 
ATOM     64  F   UNL A   1      43.016  30.528  28.127  1.00  0.00    -0.203 F 
ATOM     65  C   UNL A   1      44.477  31.793  26.807  1.00  0.00     0.198 A 
ATOM     66  C   UNL A   1      46.833  31.770  27.248  1.00  0.00     0.198 A 
ATOM     67  F   UNL A   1      47.708  30.370  28.922  1.00  0.00    -0.203 F 
ATOM     68  F   UNL A   1      43.431  32.276  26.123  1.00  0.00    -0.200 F 
ATOM     69  C   UNL A   1      45.754  32.253  26.526  1.00  0.00     0.200 A 
ATOM     70  F   UNL A   1      48.063  32.250  27.015  1.00  0.00    -0.200 F 
ATOM     71  F   UNL A   1      45.942  33.180  25.577  1.00  0.00    -0.200 F 
ENDBRANCH  38  61
ENDBRANCH  12  13
ENDBRANCH   5   7
ENDBRANCH   4   5
ENDBRANCH   3   4
ENDBRANCH   2   3
ENDBRANCH   1   2
BRANCH   1  72
ATOM     72  C   UNL A   1      31.389  31.979  26.577  1.00  0.00     0.202 C 
BRANCH  72  73
ATOM     73  C   UNL A   1      30.302  31.849  25.502  1.00  0.00     0.261 C 
BRANCH  73  74
ATOM     74  O   UNL A   1      30.732  31.032  24.400  1.00  0.00    -0.458 OA
BRANCH  74  75
ATOM     75  C   UNL A   1      29.763  30.291  23.780  1.00  0.00     0.361 C 
ATOM     76  O   UNL A   1      28.624  30.667  23.579  1.00  0.00    -0.244 OA
BRANCH  75  77
ATOM     77  C   UNL A   1      30.290  29.028  23.287  1.00  0.00     0.198 A 
ATOM     78  N   UNL A   1      30.090  28.594  21.997  1.00  0.00    -0.122 NA
ATOM     79  C   UNL A   1      31.112  28.132  23.947  1.00  0.00     0.109 A 
ATOM     80  N   UNL A   1      30.752  27.453  21.838  1.00  0.00    -0.061 NA
ATOM     81  N   UNL A   1      31.194  27.070  23.055  1.00  0.00    -0.212 N 
BRANCH  79  82
ATOM     82  C   UNL A   1      31.760  28.196  25.254  1.00  0.00     0.004 A 
ATOM     83  C   UNL A   1      31.056  27.835  26.414  1.00  0.00     0.010 A 
ATOM     84  C   UNL A   1      33.095  28.598  25.363  1.00  0.00     0.031 A 
ATOM     85  C   UNL A   1      31.675  27.887  27.664  1.00  0.00     0.002 A 
ATOM     86  C   UNL A   1      33.710  28.638  26.613  1.00  0.00     0.041 A 
ATOM     87  C   UNL A   1      33.006  28.289  27.764  1.00  0.00     0.020 A 
ATOM     88  Cl  UNL A   1      35.355  29.126  26.731  1.00  0.00    -0.084 Cl
ENDBRANCH  79  82
BRANCH  81  89
ATOM     89  C   UNL A   1      31.536  25.729  23.339  1.00  0.00     0.067 A 
ATOM     90  C   UNL A   1      30.621  24.870  23.950  1.00  0.00     0.029 A 
ATOM     91  C   UNL A   1      32.814  25.274  22.989  1.00  0.00     0.029 A 
ATOM     92  C   UNL A   1      30.963  23.523  24.114  1.00  0.00     0.015 A 
ATOM     93  C   UNL A   1      33.160  23.943  23.188  1.00  0.00     0.015 A 
ATOM     94  C   UNL A   1      32.229  23.045  23.723  1.00  0.00     0.056 A 
BRANCH  94  95
ATOM     95  C   UNL A   1      32.575  21.582  23.850  1.00  0.00     0.416 C 
ATOM     96  F   UNL A   1      31.880  20.958  24.839  1.00  0.00    -0.166 F 
ATOM     97  F   UNL A   1      32.311  20.890  22.707  1.00  0.00    -0.166 F 
ATOM     98  F   UNL A   1      33.892  21.359  24.121  1.00  0.00    -0.166 F 
ENDBRANCH  94  95
ENDBRANCH  81  89
ENDBRANCH  75  77
ENDBRANCH  74  75
ENDBRANCH  73  74
ENDBRANCH  72  73
ENDBRANCH   1  72
TORSDOF 17
ENDMDL
MODEL 3
REMARK VINA RESULT:     -11.7      1.808      2.816
REMARK SMILES O=C(OCCOCCOC(=O)c1nnn(-c2ccc(C(F)(F)F)cc2)c1-c1cccc(Cl)c1)c1ccc(-c2c3nc(c(-c4c(F)c(F)c(F)c(F)c4F)c4ccc([nH]4)c(-c4c(F)c(F)c(F)c(F)c4F)c4nc(c(-c5c(F)c(F)c(F)c(F)c5F)c5ccc2[nH]5)C=C4)C=C3)cc1
REMARK SMILES IDX 6 1 5 2 4 3 3 4 2 5 1 6 34 7 35 8 96 9 36 10 95 11 37 12
REMARK SMILES IDX 38 13 39 14 89 15 40 16 94 17 88 18 90 19 41 20 93 21 87 22
REMARK SMILES IDX 86 23 42 25 74 26 54 27 73 28 55 29 58 30 72 31 91 32 56 33
REMARK SMILES IDX 57 34 71 36 92 37 59 38 43 39 44 40 52 41 45 42 46 43 50 44
REMARK SMILES IDX 53 45 47 46 48 47 51 48 49 49 75 50 76 51 84 52 77 53 78 54
REMARK SMILES IDX 82 55 85 56 79 57 80 58 83 59 81 60 60 61 61 62 69 63 62 64
REMARK SMILES IDX 63 65 67 66 70 67 64 68 65 69 68 70 66 71 7 72 8 73 9 74
REMARK SMILES IDX 10 75 11 76 12 77 13 78 26 79 14 80 15 81 27 82 28 83 33 84
REMARK SMILES IDX 29 85 31 86 30 87 32 88 16 89 17 90 25 91 18 92 24 93 19 94
REMARK SMILES IDX 20 95 21 96 22 97 23 98
REMARK H PARENT 90 24 58 35
REMARK Flexibility Score: inf
ROOT
ATOM      1  O   UNL A   1      32.341  30.179  26.096  1.00  0.00    -0.374 OA
ENDROOT
BRANCH   1   2
ATOM      2  C   UNL A   1      33.654  30.042  26.643  1.00  0.00     0.202 C 
BRANCH   2   3
ATOM      3  C   UNL A   1      34.046  31.137  27.626  1.00  0.00     0.261 C 
BRANCH   3   4
ATOM      4  O   UNL A   1      35.451  31.474  27.645  1.00  0.00    -0.460 OA
BRANCH   4   5
ATOM      5  C   UNL A   1      36.025  31.997  28.756  1.00  0.00     0.338 C 
ATOM      6  O   UNL A   1      35.543  32.931  29.380  1.00  0.00    -0.246 OA
BRANCH   5   7
ATOM      7  C   UNL A   1      37.046  31.102  29.348  1.00  0.00     0.060 A 
ATOM      8  C   UNL A   1      38.327  31.548  29.664  1.00  0.00     0.016 A 
ATOM      9  C   UNL A   1      36.728  29.742  29.496  1.00  0.00     0.016 A 
ATOM     10  C   UNL A   1      39.325  30.639  29.939  1.00  0.00     0.010 A 
ATOM     11  C   UNL A   1      37.724  28.825  29.820  1.00  0.00     0.010 A 
ATOM     12  C   UNL A   1      39.034  29.274  29.971  1.00  0.00    -0.014 A 
BRANCH  12  13
ATOM     13  C   UNL A   1      40.177  28.400  30.195  1.00  0.00     0.031 A 
ATOM     14  C   UNL A   1      40.679  28.348  31.594  1.00  0.00     0.074 A 
ATOM     15  C   UNL A   1      40.795  27.704  29.226  1.00  0.00     0.049 A 
ATOM     16  N   UNL A   1      41.826  28.747  32.042  1.00  0.00    -0.248 NA
ATOM     17  C   UNL A   1      39.752  27.878  32.631  1.00  0.00     0.031 C 
ATOM     18  C   UNL A   1      40.341  27.426  27.865  1.00  0.00     0.029 A 
ATOM     19  N   UNL A   1      41.972  27.023  29.313  1.00  0.00    -0.354 N 
ATOM     20  C   UNL A   1      41.830  28.451  33.403  1.00  0.00     0.074 A 
ATOM     21  C   UNL A   1      40.499  28.005  33.729  1.00  0.00     0.031 C 
ATOM     22  C   UNL A   1      41.123  26.460  27.331  1.00  0.00     0.029 A 
ATOM     23  C   UNL A   1      42.204  26.162  28.256  1.00  0.00     0.049 A 
ATOM     24  H   UNL A   1      42.602  27.134  30.062  1.00  0.00     0.167 HD
ATOM     25  C   UNL A   1      42.981  28.432  34.129  1.00  0.00     0.037 A 
ATOM     26  C   UNL A   1      43.176  25.223  28.188  1.00  0.00     0.037 A 
ATOM     27  C   UNL A   1      44.030  29.185  33.498  1.00  0.00     0.049 A 
ATOM     28  C   UNL A   1      44.247  25.590  29.148  1.00  0.00     0.074 A 
ATOM     29  C   UNL A   1      44.184  30.506  33.121  1.00  0.00     0.029 A 
ATOM     30  N   UNL A   1      45.050  28.510  32.876  1.00  0.00    -0.354 N 
ATOM     31  N   UNL A   1      45.073  26.584  28.981  1.00  0.00    -0.248 NA
ATOM     32  C   UNL A   1      44.159  25.075  30.506  1.00  0.00     0.031 C 
ATOM     33  C   UNL A   1      44.957  30.464  31.923  1.00  0.00     0.029 A 
ATOM     34  C   UNL A   1      45.246  29.125  31.666  1.00  0.00     0.049 A 
ATOM     35  H   UNL A   1      45.543  27.734  33.229  1.00  0.00     0.167 HD
ATOM     36  C   UNL A   1      45.272  27.092  30.255  1.00  0.00     0.074 A 
ATOM     37  C   UNL A   1      44.783  26.058  31.159  1.00  0.00     0.031 C 
ATOM     38  C   UNL A   1      45.557  28.412  30.452  1.00  0.00     0.037 A 
BRANCH  25  39
ATOM     39  C   UNL A   1      43.245  27.467  35.255  1.00  0.00     0.064 A 
ATOM     40  C   UNL A   1      43.717  27.952  36.491  1.00  0.00     0.173 A 
ATOM     41  C   UNL A   1      43.348  26.072  35.066  1.00  0.00     0.173 A 
ATOM     42  F   UNL A   1      43.689  29.265  36.767  1.00  0.00    -0.203 F 
ATOM     43  C   UNL A   1      44.318  27.111  37.431  1.00  0.00     0.198 A 
ATOM     44  C   UNL A   1      43.899  25.229  36.029  1.00  0.00     0.198 A 
ATOM     45  F   UNL A   1      43.027  25.488  33.904  1.00  0.00    -0.203 F 
ATOM     46  F   UNL A   1      44.868  27.633  38.536  1.00  0.00    -0.200 F 
ATOM     47  C   UNL A   1      44.415  25.752  37.196  1.00  0.00     0.200 A 
ATOM     48  F   UNL A   1      44.001  23.917  35.774  1.00  0.00    -0.200 F 
ATOM     49  F   UNL A   1      45.048  24.953  38.066  1.00  0.00    -0.200 F 
ENDBRANCH  25  39
BRANCH  26  50
ATOM     50  C   UNL A   1      43.112  23.895  27.541  1.00  0.00     0.064 A 
ATOM     51  C   UNL A   1      42.391  22.841  28.120  1.00  0.00     0.173 A 
ATOM     52  C   UNL A   1      43.531  23.714  26.207  1.00  0.00     0.173 A 
ATOM     53  F   UNL A   1      41.916  22.953  29.368  1.00  0.00    -0.203 F 
ATOM     54  C   UNL A   1      42.086  21.682  27.400  1.00  0.00     0.198 A 
ATOM     55  C   UNL A   1      43.239  22.553  25.495  1.00  0.00     0.198 A 
ATOM     56  F   UNL A   1      44.151  24.698  25.538  1.00  0.00    -0.203 F 
ATOM     57  F   UNL A   1      41.339  20.724  27.964  1.00  0.00    -0.200 F 
ATOM     58  C   UNL A   1      42.503  21.543  26.086  1.00  0.00     0.200 A 
ATOM     59  F   UNL A   1      43.617  22.447  24.214  1.00  0.00    -0.200 F 
ATOM     60  F   UNL A   1      42.160  20.459  25.377  1.00  0.00    -0.200 F 
ENDBRANCH  26  50
BRANCH  38  61
ATOM     61  C   UNL A   1      45.957  29.231  29.260  1.00  0.00     0.064 A 
ATOM     62  C   UNL A   1      45.042  29.834  28.380  1.00  0.00     0.173 A 
ATOM     63  C   UNL A   1      47.318  29.514  29.073  1.00  0.00     0.173 A 
ATOM     64  F   UNL A   1      43.722  29.706  28.561  1.00  0.00    -0.203 F 
ATOM     65  C   UNL A   1      45.480  30.631  27.322  1.00  0.00     0.198 A 
ATOM     66  C   UNL A   1      47.748  30.343  28.042  1.00  0.00     0.198 A 
ATOM     67  F   UNL A   1      48.232  29.016  29.922  1.00  0.00    -0.203 F 
ATOM     68  F   UNL A   1      44.591  31.175  26.479  1.00  0.00    -0.200 F 
ATOM     69  C   UNL A   1      46.831  30.888  27.158  1.00  0.00     0.200 A 
ATOM     70  F   UNL A   1      49.051  30.632  27.918  1.00  0.00    -0.200 F 
ATOM     71  F   UNL A   1      47.249  31.683  26.163  1.00  0.00    -0.200 F 
ENDBRANCH  38  61
ENDBRANCH  12  13
ENDBRANCH   5   7
ENDBRANCH   4   5
ENDBRANCH   3   4
ENDBRANCH   2   3
ENDBRANCH   1   2
BRANCH   1  72
ATOM     72  C   UNL A   1      31.635  28.948  25.879  1.00  0.00     0.202 C 
BRANCH  72  73
ATOM     73  C   UNL A   1      31.880  27.801  26.870  1.00  0.00     0.261 C 
BRANCH  73  74
ATOM     74  O   UNL A   1      30.689  27.029  27.102  1.00  0.00    -0.458 OA
BRANCH  74  75
ATOM     75  C   UNL A   1      30.347  26.133  26.127  1.00  0.00     0.361 C 
ATOM     76  O   UNL A   1      29.531  26.340  25.249  1.00  0.00    -0.244 OA
BRANCH  75  77
ATOM     77  C   UNL A   1      31.160  24.929  26.198  1.00  0.00     0.198 A 
ATOM     78  N   UNL A   1      31.052  24.020  27.225  1.00  0.00    -0.122 NA
ATOM     79  C   UNL A   1      32.065  24.456  25.265  1.00  0.00     0.109 A 
ATOM     80  N   UNL A   1      31.866  23.004  26.966  1.00  0.00    -0.061 NA
ATOM     81  N   UNL A   1      32.623  23.355  25.904  1.00  0.00    -0.212 N 
BRANCH  79  82
ATOM     82  C   UNL A   1      32.420  24.935  23.932  1.00  0.00     0.004 A 
ATOM     83  C   UNL A   1      32.162  24.143  22.801  1.00  0.00     0.010 A 
ATOM     84  C   UNL A   1      33.002  26.195  23.764  1.00  0.00     0.031 A 
ATOM     85  C   UNL A   1      32.492  24.602  21.525  1.00  0.00     0.002 A 
ATOM     86  C   UNL A   1      33.320  26.650  22.486  1.00  0.00     0.041 A 
ATOM     87  C   UNL A   1      33.072  25.859  21.367  1.00  0.00     0.020 A 
ATOM     88  Cl  UNL A   1      34.027  28.206  22.295  1.00  0.00    -0.084 Cl
ENDBRANCH  79  82
BRANCH  81  89
ATOM     89  C   UNL A   1      33.863  22.736  25.631  1.00  0.00     0.067 A 
ATOM     90  C   UNL A   1      35.061  23.321  26.043  1.00  0.00     0.029 A 
ATOM     91  C   UNL A   1      33.867  21.516  24.940  1.00  0.00     0.029 A 
ATOM     92  C   UNL A   1      36.258  22.621  25.848  1.00  0.00     0.015 A 
ATOM     93  C   UNL A   1      35.063  20.844  24.718  1.00  0.00     0.015 A 
ATOM     94  C   UNL A   1      36.268  21.372  25.196  1.00  0.00     0.056 A 
BRANCH  94  95
ATOM     95  C   UNL A   1      37.551  20.594  25.036  1.00  0.00     0.416 C 
ATOM     96  F   UNL A   1      38.561  21.077  25.810  1.00  0.00    -0.166 F 
ATOM     97  F   UNL A   1      37.404  19.284  25.377  1.00  0.00    -0.166 F 
ATOM     98  F   UNL A   1      38.027  20.593  23.759  1.00  0.00    -0.166 F 
ENDBRANCH  94  95
ENDBRANCH  81  89
ENDBRANCH  75  77
ENDBRANCH  74  75
ENDBRANCH  73  74
ENDBRANCH  72  73
ENDBRANCH   1  72
TORSDOF 17
ENDMDL
