MODEL 1
REMARK VINA RESULT:     -11.6      0.000      0.000
REMARK SMILES Cn1ccc(NC(=O)[C@@H]2CCCC[C@@H]2C(=O)OCCOCCOC(=O)c2ccc(-c3c4nc(c(-c5c(F)c(F)c(F)c(F)c5F)c5ccc([nH]5)c(-c5c(F)c(F)c(F)c(F)c5F)c5nc(c(-c6c(F)c(F)c(F)c(F)c6F)c6ccc3[nH]6)C=C5)C=C4)cc2)n1
REMARK SMILES IDX 20 1 19 2 18 3 17 4 15 5 16 6 14 7 9 8 10 9 11 10 13 11
REMARK SMILES IDX 12 12 7 13 6 14 8 16 5 17 1 18 2 19 3 20 89 21 4 22 21 23
REMARK SMILES IDX 22 24 23 25 24 26 25 27 26 28 27 29 88 30 28 31 87 32 29 33
REMARK SMILES IDX 30 34 31 35 81 36 32 37 86 38 80 39 82 40 33 41 85 42 79 43
REMARK SMILES IDX 78 44 34 46 66 47 46 48 65 49 47 50 50 51 64 52 83 53 48 54
REMARK SMILES IDX 49 55 63 57 84 58 51 59 35 60 36 61 44 62 37 63 38 64 42 65
REMARK SMILES IDX 45 66 39 67 40 68 43 69 41 70 67 71 68 72 76 73 69 74 70 75
REMARK SMILES IDX 74 76 77 77 71 78 72 79 75 80 73 81 52 82 53 83 61 84 54 85
REMARK SMILES IDX 55 86 59 87 62 88 56 89 57 90 60 91 58 92
REMARK H PARENT 6 15 82 45 50 56
REMARK Flexibility Score: inf
ROOT
ATOM      1  O   UNL A   1      35.627  21.972  26.116  1.00  0.00    -0.374 OA
ENDROOT
BRANCH   1   2
ATOM      2  C   UNL A   1      35.370  23.324  25.735  1.00  0.00     0.202 C 
BRANCH   2   3
ATOM      3  C   UNL A   1      33.978  23.875  26.052  1.00  0.00     0.261 C 
BRANCH   3   4
ATOM      4  O   UNL A   1      32.928  23.155  25.381  1.00  0.00    -0.463 OA
BRANCH   4   5
ATOM      5  C   UNL A   1      32.010  23.926  24.744  1.00  0.00     0.309 C 
ATOM      6  O   UNL A   1      30.914  23.513  24.379  1.00  0.00    -0.252 OA
BRANCH   5   7
ATOM      7  C   UNL A   1      32.519  25.322  24.406  1.00  0.00     0.111 C 
ATOM      8  C   UNL A   1      31.694  26.583  24.801  1.00  0.00     0.093 C 
ATOM      9  C   UNL A   1      30.606  26.938  23.755  1.00  0.00     0.014 C 
ATOM     10  C   UNL A   1      31.086  26.902  22.311  1.00  0.00     0.001 C 
ATOM     11  C   UNL A   1      32.954  25.381  22.927  1.00  0.00     0.016 C 
ATOM     12  C   UNL A   1      31.778  25.590  21.988  1.00  0.00     0.001 C 
BRANCH   8  13
ATOM     13  C   UNL A   1      31.045  26.596  26.203  1.00  0.00     0.229 C 
ATOM     14  N   UNL A   1      31.414  27.470  27.180  1.00  0.00    -0.309 N 
ATOM     15  H   UNL A   1      30.953  27.358  28.042  1.00  0.00     0.171 HD
ATOM     16  O   UNL A   1      30.158  25.785  26.501  1.00  0.00    -0.274 OA
BRANCH  14  17
ATOM     17  C   UNL A   1      32.336  28.482  27.133  1.00  0.00     0.154 A 
ATOM     18  C   UNL A   1      35.466  29.704  27.961  1.00  0.00     0.173 C 
ATOM     19  N   UNL A   1      34.130  29.552  27.437  1.00  0.00    -0.274 N 
ATOM     20  C   UNL A   1      33.192  30.521  27.248  1.00  0.00     0.110 A 
ATOM     21  N   UNL A   1      33.650  28.316  27.249  1.00  0.00    -0.155 NA
ATOM     22  C   UNL A   1      32.013  29.853  27.004  1.00  0.00     0.068 A 
ENDBRANCH  14  17
ENDBRANCH   8  13
ENDBRANCH   5   7
ENDBRANCH   4   5
ENDBRANCH   3   4
ENDBRANCH   2   3
ENDBRANCH   1   2
BRANCH   1  23
ATOM     23  C   UNL A   1      35.942  21.065  25.061  1.00  0.00     0.202 C 
BRANCH  23  24
ATOM     24  C   UNL A   1      37.384  20.552  25.015  1.00  0.00     0.261 C 
BRANCH  24  25
ATOM     25  O   UNL A   1      38.330  21.616  25.208  1.00  0.00    -0.460 OA
BRANCH  25  26
ATOM     26  C   UNL A   1      39.330  21.331  26.072  1.00  0.00     0.338 C 
ATOM     27  O   UNL A   1      39.922  20.273  26.197  1.00  0.00    -0.246 OA
BRANCH  26  28
ATOM     28  C   UNL A   1      39.753  22.558  26.778  1.00  0.00     0.060 A 
ATOM     29  C   UNL A   1      39.080  23.740  26.446  1.00  0.00     0.016 A 
ATOM     30  C   UNL A   1      40.812  22.576  27.690  1.00  0.00     0.016 A 
ATOM     31  C   UNL A   1      39.515  24.957  26.959  1.00  0.00     0.010 A 
ATOM     32  C   UNL A   1      41.255  23.801  28.200  1.00  0.00     0.010 A 
ATOM     33  C   UNL A   1      40.637  24.997  27.797  1.00  0.00    -0.014 A 
BRANCH  33  34
ATOM     34  C   UNL A   1      41.257  26.310  28.090  1.00  0.00     0.031 A 
ATOM     35  C   UNL A   1      42.656  26.569  27.603  1.00  0.00     0.074 A 
ATOM     36  C   UNL A   1      40.560  27.271  28.719  1.00  0.00     0.049 A 
ATOM     37  N   UNL A   1      43.383  27.652  27.699  1.00  0.00    -0.248 NA
ATOM     38  C   UNL A   1      43.325  25.454  26.912  1.00  0.00     0.031 C 
ATOM     39  C   UNL A   1      39.188  27.138  29.202  1.00  0.00     0.029 A 
ATOM     40  N   UNL A   1      40.914  28.554  29.052  1.00  0.00    -0.354 N 
ATOM     41  C   UNL A   1      44.589  27.350  27.079  1.00  0.00     0.074 A 
ATOM     42  C   UNL A   1      44.512  25.974  26.643  1.00  0.00     0.031 C 
ATOM     43  C   UNL A   1      38.815  28.295  29.776  1.00  0.00     0.029 A 
ATOM     44  C   UNL A   1      39.928  29.241  29.715  1.00  0.00     0.049 A 
ATOM     45  H   UNL A   1      41.791  28.945  28.837  1.00  0.00     0.167 HD
ATOM     46  C   UNL A   1      45.659  28.157  26.881  1.00  0.00     0.037 A 
ATOM     47  C   UNL A   1      39.933  30.488  30.221  1.00  0.00     0.037 A 
ATOM     48  C   UNL A   1      45.727  29.524  27.320  1.00  0.00     0.049 A 
ATOM     49  C   UNL A   1      41.157  31.348  30.036  1.00  0.00     0.074 A 
ATOM     50  C   UNL A   1      46.756  30.435  27.158  1.00  0.00     0.029 A 
ATOM     51  N   UNL A   1      44.720  30.176  28.018  1.00  0.00    -0.354 N 
ATOM     52  N   UNL A   1      42.278  31.068  29.417  1.00  0.00    -0.248 NA
ATOM     53  C   UNL A   1      41.112  32.699  30.611  1.00  0.00     0.031 C 
ATOM     54  C   UNL A   1      46.390  31.623  27.799  1.00  0.00     0.029 A 
ATOM     55  C   UNL A   1      45.113  31.470  28.317  1.00  0.00     0.049 A 
ATOM     56  H   UNL A   1      43.854  29.777  28.265  1.00  0.00     0.167 HD
ATOM     57  C   UNL A   1      43.061  32.211  29.505  1.00  0.00     0.074 A 
ATOM     58  C   UNL A   1      42.279  33.195  30.227  1.00  0.00     0.031 C 
ATOM     59  C   UNL A   1      44.313  32.431  29.033  1.00  0.00     0.037 A 
BRANCH  46  60
ATOM     60  C   UNL A   1      46.846  27.569  26.176  1.00  0.00     0.064 A 
ATOM     61  C   UNL A   1      46.984  27.640  24.781  1.00  0.00     0.173 A 
ATOM     62  C   UNL A   1      47.869  26.947  26.906  1.00  0.00     0.173 A 
ATOM     63  F   UNL A   1      46.026  28.211  24.035  1.00  0.00    -0.203 F 
ATOM     64  C   UNL A   1      48.091  27.085  24.142  1.00  0.00     0.198 A 
ATOM     65  C   UNL A   1      48.987  26.418  26.266  1.00  0.00     0.198 A 
ATOM     66  F   UNL A   1      47.787  26.855  28.242  1.00  0.00    -0.203 F 
ATOM     67  F   UNL A   1      48.180  27.124  22.805  1.00  0.00    -0.200 F 
ATOM     68  C   UNL A   1      49.094  26.481  24.885  1.00  0.00     0.200 A 
ATOM     69  F   UNL A   1      49.961  25.843  26.986  1.00  0.00    -0.200 F 
ATOM     70  F   UNL A   1      50.161  25.953  24.269  1.00  0.00    -0.200 F 
ENDBRANCH  46  60
BRANCH  47  71
ATOM     71  C   UNL A   1      38.741  30.999  30.946  1.00  0.00     0.064 A 
ATOM     72  C   UNL A   1      37.696  31.639  30.265  1.00  0.00     0.173 A 
ATOM     73  C   UNL A   1      38.623  30.859  32.336  1.00  0.00     0.173 A 
ATOM     74  F   UNL A   1      37.772  31.817  28.938  1.00  0.00    -0.203 F 
ATOM     75  C   UNL A   1      36.586  32.132  30.949  1.00  0.00     0.198 A 
ATOM     76  C   UNL A   1      37.501  31.329  33.016  1.00  0.00     0.198 A 
ATOM     77  F   UNL A   1      39.594  30.253  33.036  1.00  0.00    -0.203 F 
ATOM     78  F   UNL A   1      35.620  32.774  30.279  1.00  0.00    -0.200 F 
ATOM     79  C   UNL A   1      36.486  31.971  32.323  1.00  0.00     0.200 A 
ATOM     80  F   UNL A   1      37.403  31.158  34.341  1.00  0.00    -0.200 F 
ATOM     81  F   UNL A   1      35.416  32.439  32.979  1.00  0.00    -0.200 F 
ENDBRANCH  47  71
BRANCH  59  82
ATOM     82  C   UNL A   1      44.903  33.791  29.258  1.00  0.00     0.064 A 
ATOM     83  C   UNL A   1      45.692  34.071  30.383  1.00  0.00     0.173 A 
ATOM     84  C   UNL A   1      44.715  34.812  28.313  1.00  0.00     0.173 A 
ATOM     85  F   UNL A   1      45.889  33.132  31.321  1.00  0.00    -0.203 F 
ATOM     86  C   UNL A   1      46.254  35.333  30.564  1.00  0.00     0.198 A 
ATOM     87  C   UNL A   1      45.300  36.062  28.485  1.00  0.00     0.198 A 
ATOM     88  F   UNL A   1      43.974  34.590  27.217  1.00  0.00    -0.203 F 
ATOM     89  F   UNL A   1      46.969  35.593  31.668  1.00  0.00    -0.200 F 
ATOM     90  C   UNL A   1      46.064  36.324  29.613  1.00  0.00     0.200 A 
ATOM     91  F   UNL A   1      45.127  37.014  27.558  1.00  0.00    -0.200 F 
ATOM     92  F   UNL A   1      46.611  37.534  29.786  1.00  0.00    -0.200 F 
ENDBRANCH  59  82
ENDBRANCH  33  34
ENDBRANCH  26  28
ENDBRANCH  25  26
ENDBRANCH  24  25
ENDBRANCH  23  24
ENDBRANCH   1  23
TORSDOF 16
ENDMDL
MODEL 2
REMARK VINA RESULT:     -11.5      4.362      7.449
REMARK SMILES Cn1ccc(NC(=O)[C@@H]2CCCC[C@@H]2C(=O)OCCOCCOC(=O)c2ccc(-c3c4nc(c(-c5c(F)c(F)c(F)c(F)c5F)c5ccc([nH]5)c(-c5c(F)c(F)c(F)c(F)c5F)c5nc(c(-c6c(F)c(F)c(F)c(F)c6F)c6ccc3[nH]6)C=C5)C=C4)cc2)n1
REMARK SMILES IDX 20 1 19 2 18 3 17 4 15 5 16 6 14 7 9 8 10 9 11 10 13 11
REMARK SMILES IDX 12 12 7 13 6 14 8 16 5 17 1 18 2 19 3 20 89 21 4 22 21 23
REMARK SMILES IDX 22 24 23 25 24 26 25 27 26 28 27 29 88 30 28 31 87 32 29 33
REMARK SMILES IDX 30 34 31 35 81 36 32 37 86 38 80 39 82 40 33 41 85 42 79 43
REMARK SMILES IDX 78 44 34 46 66 47 46 48 65 49 47 50 50 51 64 52 83 53 48 54
REMARK SMILES IDX 49 55 63 57 84 58 51 59 35 60 36 61 44 62 37 63 38 64 42 65
REMARK SMILES IDX 45 66 39 67 40 68 43 69 41 70 67 71 68 72 76 73 69 74 70 75
REMARK SMILES IDX 74 76 77 77 71 78 72 79 75 80 73 81 52 82 53 83 61 84 54 85
REMARK SMILES IDX 55 86 59 87 62 88 56 89 57 90 60 91 58 92
REMARK H PARENT 6 15 82 45 50 56
REMARK Flexibility Score: inf
ROOT
ATOM      1  O   UNL A   1      32.529  28.180  24.459  1.00  0.00    -0.374 OA
ENDROOT
BRANCH   1   2
ATOM      2  C   UNL A   1      33.559  27.219  24.228  1.00  0.00     0.202 C 
BRANCH   2   3
ATOM      3  C   UNL A   1      33.108  25.802  23.866  1.00  0.00     0.261 C 
BRANCH   3   4
ATOM      4  O   UNL A   1      34.163  24.832  23.994  1.00  0.00    -0.463 OA
BRANCH   4   5
ATOM      5  C   UNL A   1      34.075  23.764  23.162  1.00  0.00     0.309 C 
ATOM      6  O   UNL A   1      33.434  23.770  22.116  1.00  0.00    -0.252 OA
BRANCH   5   7
ATOM      7  C   UNL A   1      34.740  22.508  23.714  1.00  0.00     0.111 C 
ATOM      8  C   UNL A   1      34.396  21.991  25.143  1.00  0.00     0.093 C 
ATOM      9  C   UNL A   1      35.233  22.685  26.248  1.00  0.00     0.014 C 
ATOM     10  C   UNL A   1      36.719  22.791  25.937  1.00  0.00     0.001 C 
ATOM     11  C   UNL A   1      36.266  22.582  23.501  1.00  0.00     0.016 C 
ATOM     12  C   UNL A   1      36.958  23.410  24.571  1.00  0.00     0.001 C 
BRANCH   8  13
ATOM     13  C   UNL A   1      32.910  22.018  25.568  1.00  0.00     0.229 C 
ATOM     14  N   UNL A   1      32.076  20.954  25.405  1.00  0.00    -0.309 N 
ATOM     15  H   UNL A   1      31.143  21.103  25.682  1.00  0.00     0.171 HD
ATOM     16  O   UNL A   1      32.409  23.034  26.068  1.00  0.00    -0.274 OA
BRANCH  14  17
ATOM     17  C   UNL A   1      32.350  19.707  24.911  1.00  0.00     0.154 A 
ATOM     18  C   UNL A   1      33.698  16.552  25.362  1.00  0.00     0.173 C 
ATOM     19  N   UNL A   1      33.047  17.716  24.813  1.00  0.00    -0.274 N 
ATOM     20  C   UNL A   1      33.022  18.125  23.514  1.00  0.00     0.110 A 
ATOM     21  N   UNL A   1      32.528  18.619  25.656  1.00  0.00    -0.155 NA
ATOM     22  C   UNL A   1      32.529  19.411  23.540  1.00  0.00     0.068 A 
ENDBRANCH  14  17
ENDBRANCH   8  13
ENDBRANCH   5   7
ENDBRANCH   4   5
ENDBRANCH   3   4
ENDBRANCH   2   3
ENDBRANCH   1   2
BRANCH   1  23
ATOM     23  C   UNL A   1      32.952  29.467  24.906  1.00  0.00     0.202 C 
BRANCH  23  24
ATOM     24  C   UNL A   1      31.958  30.243  25.776  1.00  0.00     0.261 C 
BRANCH  24  25
ATOM     25  O   UNL A   1      32.445  30.409  27.117  1.00  0.00    -0.460 OA
BRANCH  25  26
ATOM     26  C   UNL A   1      33.183  31.525  27.314  1.00  0.00     0.338 C 
ATOM     27  O   UNL A   1      32.806  32.682  27.253  1.00  0.00    -0.246 OA
BRANCH  26  28
ATOM     28  C   UNL A   1      34.533  31.160  27.793  1.00  0.00     0.060 A 
ATOM     29  C   UNL A   1      34.752  29.810  28.094  1.00  0.00     0.016 A 
ATOM     30  C   UNL A   1      35.539  32.107  28.002  1.00  0.00     0.016 A 
ATOM     31  C   UNL A   1      35.946  29.413  28.684  1.00  0.00     0.010 A 
ATOM     32  C   UNL A   1      36.739  31.708  28.602  1.00  0.00     0.010 A 
ATOM     33  C   UNL A   1      36.924  30.369  28.987  1.00  0.00    -0.014 A 
BRANCH  33  34
ATOM     34  C   UNL A   1      38.047  29.980  29.871  1.00  0.00     0.031 A 
ATOM     35  C   UNL A   1      39.086  29.032  29.338  1.00  0.00     0.074 A 
ATOM     36  C   UNL A   1      38.169  30.513  31.098  1.00  0.00     0.049 A 
ATOM     37  N   UNL A   1      40.176  28.588  29.908  1.00  0.00    -0.248 NA
ATOM     38  C   UNL A   1      38.866  28.519  27.976  1.00  0.00     0.031 C 
ATOM     39  C   UNL A   1      37.238  31.465  31.699  1.00  0.00     0.029 A 
ATOM     40  N   UNL A   1      39.134  30.331  32.056  1.00  0.00    -0.354 N 
ATOM     41  C   UNL A   1      40.772  27.748  28.974  1.00  0.00     0.074 A 
ATOM     42  C   UNL A   1      39.906  27.715  27.817  1.00  0.00     0.031 C 
ATOM     43  C   UNL A   1      37.676  31.783  32.930  1.00  0.00     0.029 A 
ATOM     44  C   UNL A   1      38.905  31.042  33.207  1.00  0.00     0.049 A 
ATOM     45  H   UNL A   1      39.915  29.746  31.930  1.00  0.00     0.167 HD
ATOM     46  C   UNL A   1      41.943  27.076  29.072  1.00  0.00     0.037 A 
ATOM     47  C   UNL A   1      39.608  31.079  34.355  1.00  0.00     0.037 A 
ATOM     48  C   UNL A   1      42.797  27.114  30.229  1.00  0.00     0.049 A 
ATOM     49  C   UNL A   1      40.881  30.279  34.460  1.00  0.00     0.074 A 
ATOM     50  C   UNL A   1      44.013  26.484  30.427  1.00  0.00     0.029 A 
ATOM     51  N   UNL A   1      42.517  27.821  31.389  1.00  0.00    -0.354 N 
ATOM     52  N   UNL A   1      41.456  29.517  33.560  1.00  0.00    -0.248 NA
ATOM     53  C   UNL A   1      41.608  30.352  35.734  1.00  0.00     0.031 C 
ATOM     54  C   UNL A   1      44.444  26.773  31.727  1.00  0.00     0.029 A 
ATOM     55  C   UNL A   1      43.523  27.622  32.320  1.00  0.00     0.049 A 
ATOM     56  H   UNL A   1      41.718  28.380  31.532  1.00  0.00     0.167 HD
ATOM     57  C   UNL A   1      42.619  29.041  34.148  1.00  0.00     0.074 A 
ATOM     58  C   UNL A   1      42.677  29.612  35.478  1.00  0.00     0.031 C 
ATOM     59  C   UNL A   1      43.558  28.206  33.636  1.00  0.00     0.037 A 
BRANCH  46  60
ATOM     60  C   UNL A   1      42.354  26.229  27.904  1.00  0.00     0.064 A 
ATOM     61  C   UNL A   1      41.859  24.928  27.728  1.00  0.00     0.173 A 
ATOM     62  C   UNL A   1      43.236  26.733  26.937  1.00  0.00     0.173 A 
ATOM     63  F   UNL A   1      41.023  24.395  28.632  1.00  0.00    -0.203 F 
ATOM     64  C   UNL A   1      42.253  24.153  26.639  1.00  0.00     0.198 A 
ATOM     65  C   UNL A   1      43.607  25.965  25.836  1.00  0.00     0.198 A 
ATOM     66  F   UNL A   1      43.737  27.971  27.057  1.00  0.00    -0.203 F 
ATOM     67  F   UNL A   1      41.803  22.897  26.514  1.00  0.00    -0.200 F 
ATOM     68  C   UNL A   1      43.121  24.674  25.691  1.00  0.00     0.200 A 
ATOM     69  F   UNL A   1      44.439  26.473  24.916  1.00  0.00    -0.200 F 
ATOM     70  F   UNL A   1      43.496  23.929  24.642  1.00  0.00    -0.200 F 
ENDBRANCH  46  60
BRANCH  47  71
ATOM     71  C   UNL A   1      39.128  31.906  35.492  1.00  0.00     0.064 A 
ATOM     72  C   UNL A   1      38.311  31.362  36.492  1.00  0.00     0.173 A 
ATOM     73  C   UNL A   1      39.477  33.260  35.601  1.00  0.00     0.173 A 
ATOM     74  F   UNL A   1      37.931  30.077  36.421  1.00  0.00    -0.203 F 
ATOM     75  C   UNL A   1      37.848  32.143  37.549  1.00  0.00     0.198 A 
ATOM     76  C   UNL A   1      39.035  34.035  36.672  1.00  0.00     0.198 A 
ATOM     77  F   UNL A   1      40.258  33.830  34.672  1.00  0.00    -0.203 F 
ATOM     78  F   UNL A   1      37.036  31.609  38.470  1.00  0.00    -0.200 F 
ATOM     79  C   UNL A   1      38.216  33.478  37.642  1.00  0.00     0.200 A 
ATOM     80  F   UNL A   1      39.406  35.319  36.765  1.00  0.00    -0.200 F 
ATOM     81  F   UNL A   1      37.777  34.228  38.662  1.00  0.00    -0.200 F 
ENDBRANCH  47  71
BRANCH  59  82
ATOM     82  C   UNL A   1      44.737  27.883  34.505  1.00  0.00     0.064 A 
ATOM     83  C   UNL A   1      45.879  28.695  34.522  1.00  0.00     0.173 A 
ATOM     84  C   UNL A   1      44.702  26.774  35.365  1.00  0.00     0.173 A 
ATOM     85  F   UNL A   1      45.965  29.758  33.708  1.00  0.00    -0.203 F 
ATOM     86  C   UNL A   1      46.956  28.395  35.354  1.00  0.00     0.198 A 
ATOM     87  C   UNL A   1      45.769  26.494  36.213  1.00  0.00     0.198 A 
ATOM     88  F   UNL A   1      43.628  25.971  35.390  1.00  0.00    -0.203 F 
ATOM     89  F   UNL A   1      48.056  29.160  35.323  1.00  0.00    -0.200 F 
ATOM     90  C   UNL A   1      46.897  27.301  36.203  1.00  0.00     0.200 A 
ATOM     91  F   UNL A   1      45.704  25.443  37.043  1.00  0.00    -0.200 F 
ATOM     92  F   UNL A   1      47.931  27.018  37.007  1.00  0.00    -0.200 F 
ENDBRANCH  59  82
ENDBRANCH  33  34
ENDBRANCH  26  28
ENDBRANCH  25  26
ENDBRANCH  24  25
ENDBRANCH  23  24
ENDBRANCH   1  23
TORSDOF 16
ENDMDL
MODEL 3
REMARK VINA RESULT:     -11.5      4.359      9.920
REMARK SMILES Cn1ccc(NC(=O)[C@@H]2CCCC[C@@H]2C(=O)OCCOCCOC(=O)c2ccc(-c3c4nc(c(-c5c(F)c(F)c(F)c(F)c5F)c5ccc([nH]5)c(-c5c(F)c(F)c(F)c(F)c5F)c5nc(c(-c6c(F)c(F)c(F)c(F)c6F)c6ccc3[nH]6)C=C5)C=C4)cc2)n1
REMARK SMILES IDX 20 1 19 2 18 3 17 4 15 5 16 6 14 7 9 8 10 9 11 10 13 11
REMARK SMILES IDX 12 12 7 13 6 14 8 16 5 17 1 18 2 19 3 20 89 21 4 22 21 23
REMARK SMILES IDX 22 24 23 25 24 26 25 27 26 28 27 29 88 30 28 31 87 32 29 33
REMARK SMILES IDX 30 34 31 35 81 36 32 37 86 38 80 39 82 40 33 41 85 42 79 43
REMARK SMILES IDX 78 44 34 46 66 47 46 48 65 49 47 50 50 51 64 52 83 53 48 54
REMARK SMILES IDX 49 55 63 57 84 58 51 59 35 60 36 61 44 62 37 63 38 64 42 65
REMARK SMILES IDX 45 66 39 67 40 68 43 69 41 70 67 71 68 72 76 73 69 74 70 75
REMARK SMILES IDX 74 76 77 77 71 78 72 79 75 80 73 81 52 82 53 83 61 84 54 85
REMARK SMILES IDX 55 86 59 87 62 88 56 89 57 90 60 91 58 92
REMARK H PARENT 6 15 82 45 50 56
REMARK Flexibility Score: inf
ROOT
ATOM      1  O   UNL A   1      32.963  28.155  25.668  1.00  0.00    -0.374 OA
ENDROOT
BRANCH   1   2
ATOM      2  C   UNL A   1      33.673  27.223  24.852  1.00  0.00     0.202 C 
BRANCH   2   3
ATOM      3  C   UNL A   1      33.172  25.777  24.866  1.00  0.00     0.261 C 
BRANCH   3   4
ATOM      4  O   UNL A   1      34.207  24.827  24.556  1.00  0.00    -0.463 OA
BRANCH   4   5
ATOM      5  C   UNL A   1      33.905  23.939  23.575  1.00  0.00     0.309 C 
ATOM      6  O   UNL A   1      33.081  24.156  22.693  1.00  0.00    -0.252 OA
BRANCH   5   7
ATOM      7  C   UNL A   1      34.592  22.588  23.747  1.00  0.00     0.111 C 
ATOM      8  C   UNL A   1      34.429  21.779  25.068  1.00  0.00     0.093 C 
ATOM      9  C   UNL A   1      35.438  22.211  26.162  1.00  0.00     0.014 C 
ATOM     10  C   UNL A   1      36.870  22.370  25.670  1.00  0.00     0.001 C 
ATOM     11  C   UNL A   1      36.074  22.694  23.336  1.00  0.00     0.016 C 
ATOM     12  C   UNL A   1      36.940  23.267  24.446  1.00  0.00     0.001 C 
BRANCH   8  13
ATOM     13  C   UNL A   1      33.020  21.725  25.698  1.00  0.00     0.229 C 
ATOM     14  N   UNL A   1      32.126  20.735  25.426  1.00  0.00    -0.309 N 
ATOM     15  H   UNL A   1      31.247  20.827  25.861  1.00  0.00     0.171 HD
ATOM     16  O   UNL A   1      32.638  22.607  26.479  1.00  0.00    -0.274 OA
BRANCH  14  17
ATOM     17  C   UNL A   1      32.274  19.629  24.632  1.00  0.00     0.154 A 
ATOM     18  C   UNL A   1      33.645  16.494  24.113  1.00  0.00     0.173 C 
ATOM     19  N   UNL A   1      32.909  17.727  23.971  1.00  0.00    -0.274 N 
ATOM     20  C   UNL A   1      32.618  18.398  22.823  1.00  0.00     0.110 A 
ATOM     21  N   UNL A   1      32.589  18.415  25.075  1.00  0.00    -0.155 NA
ATOM     22  C   UNL A   1      32.159  19.634  23.223  1.00  0.00     0.068 A 
ENDBRANCH  14  17
ENDBRANCH   8  13
ENDBRANCH   5   7
ENDBRANCH   4   5
ENDBRANCH   3   4
ENDBRANCH   2   3
ENDBRANCH   1   2
BRANCH   1  23
ATOM     23  C   UNL A   1      32.687  29.427  25.084  1.00  0.00     0.202 C 
BRANCH  23  24
ATOM     24  C   UNL A   1      31.995  30.453  25.987  1.00  0.00     0.261 C 
BRANCH  24  25
ATOM     25  O   UNL A   1      32.605  30.511  27.285  1.00  0.00    -0.460 OA
BRANCH  25  26
ATOM     26  C   UNL A   1      33.350  31.617  27.509  1.00  0.00     0.338 C 
ATOM     27  O   UNL A   1      32.963  32.771  27.571  1.00  0.00    -0.246 OA
BRANCH  26  28
ATOM     28  C   UNL A   1      34.737  31.233  27.843  1.00  0.00     0.060 A 
ATOM     29  C   UNL A   1      34.980  29.871  28.058  1.00  0.00     0.016 A 
ATOM     30  C   UNL A   1      35.761  32.170  28.003  1.00  0.00     0.016 A 
ATOM     31  C   UNL A   1      36.222  29.448  28.515  1.00  0.00     0.010 A 
ATOM     32  C   UNL A   1      37.010  31.746  28.470  1.00  0.00     0.010 A 
ATOM     33  C   UNL A   1      37.227  30.391  28.772  1.00  0.00    -0.014 A 
BRANCH  33  34
ATOM     34  C   UNL A   1      38.425  29.962  29.529  1.00  0.00     0.031 A 
ATOM     35  C   UNL A   1      38.613  30.476  30.930  1.00  0.00     0.074 A 
ATOM     36  C   UNL A   1      39.291  29.082  29.000  1.00  0.00     0.049 A 
ATOM     37  N   UNL A   1      39.554  30.204  31.797  1.00  0.00    -0.248 NA
ATOM     38  C   UNL A   1      37.598  31.423  31.421  1.00  0.00     0.031 C 
ATOM     39  C   UNL A   1      39.186  28.497  27.665  1.00  0.00     0.029 A 
ATOM     40  N   UNL A   1      40.428  28.524  29.527  1.00  0.00    -0.354 N 
ATOM     41  C   UNL A   1      39.242  30.942  32.933  1.00  0.00     0.074 A 
ATOM     42  C   UNL A   1      38.049  31.701  32.634  1.00  0.00     0.031 C 
ATOM     43  C   UNL A   1      40.222  27.661  27.475  1.00  0.00     0.029 A 
ATOM     44  C   UNL A   1      41.069  27.669  28.666  1.00  0.00     0.049 A 
ATOM     45  H   UNL A   1      40.753  28.718  30.435  1.00  0.00     0.167 HD
ATOM     46  C   UNL A   1      39.890  30.971  34.121  1.00  0.00     0.037 A 
ATOM     47  C   UNL A   1      42.215  26.980  28.826  1.00  0.00     0.037 A 
ATOM     48  C   UNL A   1      41.079  30.214  34.408  1.00  0.00     0.049 A 
ATOM     49  C   UNL A   1      42.948  27.073  30.139  1.00  0.00     0.074 A 
ATOM     50  C   UNL A   1      41.806  30.159  35.583  1.00  0.00     0.029 A 
ATOM     51  N   UNL A   1      41.718  29.383  33.500  1.00  0.00    -0.354 N 
ATOM     52  N   UNL A   1      42.628  27.743  31.220  1.00  0.00    -0.248 NA
ATOM     53  C   UNL A   1      44.195  26.305  30.259  1.00  0.00     0.031 C 
ATOM     54  C   UNL A   1      42.913  29.329  35.371  1.00  0.00     0.029 A 
ATOM     55  C   UNL A   1      42.848  28.829  34.079  1.00  0.00     0.049 A 
ATOM     56  H   UNL A   1      41.415  29.213  32.578  1.00  0.00     0.167 HD
ATOM     57  C   UNL A   1      43.616  27.462  32.153  1.00  0.00     0.074 A 
ATOM     58  C   UNL A   1      44.541  26.546  31.516  1.00  0.00     0.031 C 
ATOM     59  C   UNL A   1      43.749  27.917  33.423  1.00  0.00     0.037 A 
BRANCH  46  60
ATOM     60  C   UNL A   1      39.335  31.868  35.189  1.00  0.00     0.064 A 
ATOM     61  C   UNL A   1      38.497  31.375  36.202  1.00  0.00     0.173 A 
ATOM     62  C   UNL A   1      39.662  33.231  35.212  1.00  0.00     0.173 A 
ATOM     63  F   UNL A   1      38.143  30.081  36.216  1.00  0.00    -0.203 F 
ATOM     64  C   UNL A   1      37.987  32.222  37.183  1.00  0.00     0.198 A 
ATOM     65  C   UNL A   1      39.171  34.069  36.211  1.00  0.00     0.198 A 
ATOM     66  F   UNL A   1      40.460  33.752  34.269  1.00  0.00    -0.203 F 
ATOM     67  F   UNL A   1      37.152  31.739  38.115  1.00  0.00    -0.200 F 
ATOM     68  C   UNL A   1      38.329  33.566  37.191  1.00  0.00     0.200 A 
ATOM     69  F   UNL A   1      39.510  35.366  36.223  1.00  0.00    -0.200 F 
ATOM     70  F   UNL A   1      37.841  34.378  38.139  1.00  0.00    -0.200 F 
ENDBRANCH  46  60
BRANCH  47  71
ATOM     71  C   UNL A   1      42.736  26.141  27.715  1.00  0.00     0.064 A 
ATOM     72  C   UNL A   1      42.303  24.821  27.537  1.00  0.00     0.173 A 
ATOM     73  C   UNL A   1      43.682  26.645  26.810  1.00  0.00     0.173 A 
ATOM     74  F   UNL A   1      41.416  24.287  28.391  1.00  0.00    -0.203 F 
ATOM     75  C   UNL A   1      42.805  24.030  26.505  1.00  0.00     0.198 A 
ATOM     76  C   UNL A   1      44.164  25.862  25.762  1.00  0.00     0.198 A 
ATOM     77  F   UNL A   1      44.129  27.903  26.935  1.00  0.00    -0.203 F 
ATOM     78  F   UNL A   1      42.403  22.759  26.380  1.00  0.00    -0.200 F 
ATOM     79  C   UNL A   1      43.730  24.554  25.614  1.00  0.00     0.200 A 
ATOM     80  F   UNL A   1      45.047  26.377  24.896  1.00  0.00    -0.200 F 
ATOM     81  F   UNL A   1      44.208  23.797  24.618  1.00  0.00    -0.200 F 
ENDBRANCH  47  71
BRANCH  59  82
ATOM     82  C   UNL A   1      44.920  27.412  34.215  1.00  0.00     0.064 A 
ATOM     83  C   UNL A   1      46.138  28.105  34.244  1.00  0.00     0.173 A 
ATOM     84  C   UNL A   1      44.803  26.247  34.989  1.00  0.00     0.173 A 
ATOM     85  F   UNL A   1      46.301  29.216  33.510  1.00  0.00    -0.203 F 
ATOM     86  C   UNL A   1      47.207  27.637  35.004  1.00  0.00     0.198 A 
ATOM     87  C   UNL A   1      45.865  25.798  35.768  1.00  0.00     0.198 A 
ATOM     88  F   UNL A   1      43.655  25.554  34.999  1.00  0.00    -0.203 F 
ATOM     89  F   UNL A   1      48.377  28.290  34.984  1.00  0.00    -0.200 F 
ATOM     90  C   UNL A   1      47.068  26.489  35.770  1.00  0.00     0.200 A 
ATOM     91  F   UNL A   1      45.724  24.696  36.518  1.00  0.00    -0.200 F 
ATOM     92  F   UNL A   1      48.095  26.044  36.506  1.00  0.00    -0.200 F 
ENDBRANCH  59  82
ENDBRANCH  33  34
ENDBRANCH  26  28
ENDBRANCH  25  26
ENDBRANCH  24  25
ENDBRANCH  23  24
ENDBRANCH   1  23
TORSDOF 16
ENDMDL
