MODEL 1
REMARK VINA RESULT:     -11.3      0.000      0.000
REMARK SMILES C[C@H](Cc1cccc2c1OC(C)(C)C2)C(=O)OCCOCCOC(=O)c1ccc(-c2c3nc(c(-c4c(F)c(F)c(F)c(F)c4F)c4ccc([nH]4)c(-c4c(F)c(F)c(F)c(F)c4F)c4nc(c(-c5c(F)c(F)c(F)c(F)c5F)c5ccc2[nH]5)C=C4)C=C3)cc1
REMARK SMILES IDX 20 1 19 2 18 3 17 4 15 5 16 6 2 7 1 8 3 9 4 10 5 11 9 12
REMARK SMILES IDX 6 13 8 14 10 15 7 16 14 17 11 18 12 19 13 20 21 21 22 22
REMARK SMILES IDX 23 23 24 24 25 25 26 26 27 27 88 28 28 29 87 30 29 31 30 32
REMARK SMILES IDX 31 33 81 34 32 35 86 36 80 37 82 38 33 39 85 40 79 41 78 42
REMARK SMILES IDX 34 44 66 45 46 46 65 47 47 48 50 49 64 50 83 51 48 52 49 53
REMARK SMILES IDX 63 55 84 56 51 57 35 58 36 59 44 60 37 61 38 62 42 63 45 64
REMARK SMILES IDX 39 65 40 66 43 67 41 68 67 69 68 70 76 71 69 72 70 73 74 74
REMARK SMILES IDX 77 75 71 76 72 77 75 78 73 79 52 80 53 81 61 82 54 83 55 84
REMARK SMILES IDX 59 85 62 86 56 87 57 88 60 89 58 90
REMARK H PARENT 82 43 50 54
REMARK Flexibility Score: inf
ROOT
ATOM      1  O   UNL A   1      34.732  36.407  32.866  1.00  0.00    -0.374 OA
ENDROOT
BRANCH   1   2
ATOM      2  C   UNL A   1      33.489  37.018  32.512  1.00  0.00     0.202 C 
BRANCH   2   3
ATOM      3  C   UNL A   1      32.482  36.076  31.851  1.00  0.00     0.261 C 
BRANCH   3   4
ATOM      4  O   UNL A   1      33.175  35.143  30.999  1.00  0.00    -0.463 OA
BRANCH   4   5
ATOM      5  C   UNL A   1      33.085  35.342  29.665  1.00  0.00     0.309 C 
ATOM      6  O   UNL A   1      32.272  36.085  29.126  1.00  0.00    -0.252 OA
BRANCH   5   7
ATOM      7  C   UNL A   1      34.076  34.511  28.865  1.00  0.00     0.100 C 
ATOM      8  C   UNL A   1      34.777  35.384  27.832  1.00  0.00     0.020 C 
BRANCH   7   9
ATOM      9  C   UNL A   1      33.616  33.131  28.342  1.00  0.00     0.054 C 
BRANCH   9  10
ATOM     10  C   UNL A   1      34.545  31.968  28.087  1.00  0.00    -0.005 A 
ATOM     11  C   UNL A   1      35.926  31.976  28.325  1.00  0.00     0.007 A 
ATOM     12  C   UNL A   1      34.014  30.775  27.592  1.00  0.00     0.126 A 
ATOM     13  C   UNL A   1      36.721  30.844  28.066  1.00  0.00     0.001 A 
ATOM     14  C   UNL A   1      34.792  29.656  27.340  1.00  0.00    -0.002 A 
ATOM     15  O   UNL A   1      32.679  30.578  27.322  1.00  0.00    -0.487 OA
ATOM     16  C   UNL A   1      36.155  29.671  27.574  1.00  0.00     0.008 A 
ATOM     17  C   UNL A   1      33.949  28.536  26.868  1.00  0.00     0.087 C 
ATOM     18  C   UNL A   1      32.577  29.238  26.758  1.00  0.00     0.108 C 
ATOM     19  C   UNL A   1      32.118  29.381  25.302  1.00  0.00     0.057 C 
ATOM     20  C   UNL A   1      31.515  28.470  27.548  1.00  0.00     0.057 C 
ENDBRANCH   9  10
ENDBRANCH   7   9
ENDBRANCH   5   7
ENDBRANCH   4   5
ENDBRANCH   3   4
ENDBRANCH   2   3
ENDBRANCH   1   2
BRANCH   1  21
ATOM     21  C   UNL A   1      34.652  35.139  33.516  1.00  0.00     0.202 C 
BRANCH  21  22
ATOM     22  C   UNL A   1      35.997  34.537  33.935  1.00  0.00     0.261 C 
BRANCH  22  23
ATOM     23  O   UNL A   1      36.288  33.320  33.225  1.00  0.00    -0.460 OA
BRANCH  23  24
ATOM     24  C   UNL A   1      37.086  32.445  33.874  1.00  0.00     0.338 C 
ATOM     25  O   UNL A   1      37.021  32.103  35.049  1.00  0.00    -0.246 OA
BRANCH  24  26
ATOM     26  C   UNL A   1      38.011  31.813  32.917  1.00  0.00     0.060 A 
ATOM     27  C   UNL A   1      38.933  30.881  33.402  1.00  0.00     0.016 A 
ATOM     28  C   UNL A   1      38.018  32.172  31.569  1.00  0.00     0.016 A 
ATOM     29  C   UNL A   1      39.877  30.320  32.541  1.00  0.00     0.010 A 
ATOM     30  C   UNL A   1      38.956  31.604  30.703  1.00  0.00     0.010 A 
ATOM     31  C   UNL A   1      39.909  30.694  31.190  1.00  0.00    -0.014 A 
BRANCH  31  32
ATOM     32  C   UNL A   1      41.006  30.223  30.309  1.00  0.00     0.031 A 
ATOM     33  C   UNL A   1      42.132  31.160  29.967  1.00  0.00     0.074 A 
ATOM     34  C   UNL A   1      41.002  28.968  29.823  1.00  0.00     0.049 A 
ATOM     35  N   UNL A   1      43.172  30.964  29.196  1.00  0.00    -0.248 NA
ATOM     36  C   UNL A   1      42.075  32.503  30.566  1.00  0.00     0.031 C 
ATOM     37  C   UNL A   1      39.971  27.964  30.080  1.00  0.00     0.029 A 
ATOM     38  N   UNL A   1      41.898  28.326  29.003  1.00  0.00    -0.354 N 
ATOM     39  C   UNL A   1      43.884  32.157  29.211  1.00  0.00     0.074 A 
ATOM     40  C   UNL A   1      43.142  33.084  30.037  1.00  0.00     0.031 C 
ATOM     41  C   UNL A   1      40.294  26.831  29.434  1.00  0.00     0.029 A 
ATOM     42  C   UNL A   1      41.537  27.038  28.693  1.00  0.00     0.049 A 
ATOM     43  H   UNL A   1      42.722  28.749  28.670  1.00  0.00     0.167 HD
ATOM     44  C   UNL A   1      45.059  32.445  28.604  1.00  0.00     0.037 A 
ATOM     45  C   UNL A   1      42.137  26.136  27.892  1.00  0.00     0.037 A 
ATOM     46  C   UNL A   1      45.813  31.517  27.805  1.00  0.00     0.049 A 
ATOM     47  C   UNL A   1      43.427  26.497  27.203  1.00  0.00     0.074 A 
ATOM     48  C   UNL A   1      47.041  31.704  27.194  1.00  0.00     0.029 A 
ATOM     49  N   UNL A   1      45.409  30.225  27.505  1.00  0.00    -0.354 N 
ATOM     50  N   UNL A   1      44.117  27.611  27.265  1.00  0.00    -0.248 NA
ATOM     51  C   UNL A   1      44.024  25.474  26.332  1.00  0.00     0.031 C 
ATOM     52  C   UNL A   1      47.359  30.540  26.486  1.00  0.00     0.029 A 
ATOM     53  C   UNL A   1      46.351  29.614  26.694  1.00  0.00     0.049 A 
ATOM     54  H   UNL A   1      44.576  29.806  27.821  1.00  0.00     0.167 HD
ATOM     55  C   UNL A   1      45.235  27.413  26.465  1.00  0.00     0.074 A 
ATOM     56  C   UNL A   1      45.143  26.067  25.942  1.00  0.00     0.031 C 
ATOM     57  C   UNL A   1      46.247  28.270  26.186  1.00  0.00     0.037 A 
BRANCH  44  58
ATOM     58  C   UNL A   1      45.609  33.830  28.775  1.00  0.00     0.064 A 
ATOM     59  C   UNL A   1      46.573  34.124  29.749  1.00  0.00     0.173 A 
ATOM     60  C   UNL A   1      45.211  34.862  27.911  1.00  0.00     0.173 A 
ATOM     61  F   UNL A   1      46.977  33.174  30.606  1.00  0.00    -0.203 F 
ATOM     62  C   UNL A   1      47.109  35.404  29.863  1.00  0.00     0.198 A 
ATOM     63  C   UNL A   1      45.767  36.134  28.011  1.00  0.00     0.198 A 
ATOM     64  F   UNL A   1      44.293  34.631  26.960  1.00  0.00    -0.203 F 
ATOM     65  F   UNL A   1      48.005  35.671  30.824  1.00  0.00    -0.200 F 
ATOM     66  C   UNL A   1      46.712  36.405  28.990  1.00  0.00     0.200 A 
ATOM     67  F   UNL A   1      45.391  37.098  27.159  1.00  0.00    -0.200 F 
ATOM     68  F   UNL A   1      47.238  37.634  29.092  1.00  0.00    -0.200 F 
ENDBRANCH  44  58
BRANCH  45  69
ATOM     69  C   UNL A   1      41.522  24.798  27.683  1.00  0.00     0.064 A 
ATOM     70  C   UNL A   1      42.084  23.646  28.251  1.00  0.00     0.173 A 
ATOM     71  C   UNL A   1      40.384  24.641  26.879  1.00  0.00     0.173 A 
ATOM     72  F   UNL A   1      43.188  23.742  29.006  1.00  0.00    -0.203 F 
ATOM     73  C   UNL A   1      41.545  22.385  28.002  1.00  0.00     0.198 A 
ATOM     74  C   UNL A   1      39.830  23.382  26.654  1.00  0.00     0.198 A 
ATOM     75  F   UNL A   1      39.809  25.711  26.311  1.00  0.00    -0.203 F 
ATOM     76  F   UNL A   1      42.134  21.295  28.512  1.00  0.00    -0.200 F 
ATOM     77  C   UNL A   1      40.417  22.255  27.206  1.00  0.00     0.200 A 
ATOM     78  F   UNL A   1      38.734  23.263  25.893  1.00  0.00    -0.200 F 
ATOM     79  F   UNL A   1      39.902  21.042  26.964  1.00  0.00    -0.200 F 
ENDBRANCH  45  69
BRANCH  57  80
ATOM     80  C   UNL A   1      47.349  27.773  25.296  1.00  0.00     0.064 A 
ATOM     81  C   UNL A   1      48.458  27.090  25.815  1.00  0.00     0.173 A 
ATOM     82  C   UNL A   1      47.273  27.945  23.906  1.00  0.00     0.173 A 
ATOM     83  F   UNL A   1      48.584  26.914  27.139  1.00  0.00    -0.203 F 
ATOM     84  C   UNL A   1      49.463  26.618  24.974  1.00  0.00     0.198 A 
ATOM     85  C   UNL A   1      48.265  27.446  23.066  1.00  0.00     0.198 A 
ATOM     86  F   UNL A   1      46.228  28.585  23.359  1.00  0.00    -0.203 F 
ATOM     87  F   UNL A   1      50.536  26.006  25.495  1.00  0.00    -0.200 F 
ATOM     88  C   UNL A   1      49.363  26.788  23.602  1.00  0.00     0.200 A 
ATOM     89  F   UNL A   1      48.159  27.600  21.739  1.00  0.00    -0.200 F 
ATOM     90  F   UNL A   1      50.327  26.326  22.795  1.00  0.00    -0.200 F 
ENDBRANCH  57  80
ENDBRANCH  31  32
ENDBRANCH  24  26
ENDBRANCH  23  24
ENDBRANCH  22  23
ENDBRANCH  21  22
ENDBRANCH   1  21
TORSDOF 16
ENDMDL
MODEL 2
REMARK VINA RESULT:     -11.2      5.289     10.520
REMARK SMILES C[C@H](Cc1cccc2c1OC(C)(C)C2)C(=O)OCCOCCOC(=O)c1ccc(-c2c3nc(c(-c4c(F)c(F)c(F)c(F)c4F)c4ccc([nH]4)c(-c4c(F)c(F)c(F)c(F)c4F)c4nc(c(-c5c(F)c(F)c(F)c(F)c5F)c5ccc2[nH]5)C=C4)C=C3)cc1
REMARK SMILES IDX 20 1 19 2 18 3 17 4 15 5 16 6 2 7 1 8 3 9 4 10 5 11 9 12
REMARK SMILES IDX 6 13 8 14 10 15 7 16 14 17 11 18 12 19 13 20 21 21 22 22
REMARK SMILES IDX 23 23 24 24 25 25 26 26 27 27 88 28 28 29 87 30 29 31 30 32
REMARK SMILES IDX 31 33 81 34 32 35 86 36 80 37 82 38 33 39 85 40 79 41 78 42
REMARK SMILES IDX 34 44 66 45 46 46 65 47 47 48 50 49 64 50 83 51 48 52 49 53
REMARK SMILES IDX 63 55 84 56 51 57 35 58 36 59 44 60 37 61 38 62 42 63 45 64
REMARK SMILES IDX 39 65 40 66 43 67 41 68 67 69 68 70 76 71 69 72 70 73 74 74
REMARK SMILES IDX 77 75 71 76 72 77 75 78 73 79 52 80 53 81 61 82 54 83 55 84
REMARK SMILES IDX 59 85 62 86 56 87 57 88 60 89 58 90
REMARK H PARENT 82 43 50 54
REMARK Flexibility Score: inf
ROOT
ATOM      1  O   UNL A   1      42.122  20.493  27.220  1.00  0.00    -0.374 OA
ENDROOT
BRANCH   1   2
ATOM      2  C   UNL A   1      40.786  20.981  27.356  1.00  0.00     0.202 C 
BRANCH   2   3
ATOM      3  C   UNL A   1      40.246  21.712  26.126  1.00  0.00     0.261 C 
BRANCH   3   4
ATOM      4  O   UNL A   1      38.855  22.034  26.323  1.00  0.00    -0.463 OA
BRANCH   4   5
ATOM      5  C   UNL A   1      37.962  21.435  25.504  1.00  0.00     0.309 C 
ATOM      6  O   UNL A   1      38.126  20.340  24.978  1.00  0.00    -0.252 OA
BRANCH   5   7
ATOM      7  C   UNL A   1      36.722  22.277  25.248  1.00  0.00     0.100 C 
ATOM      8  C   UNL A   1      36.947  23.702  25.742  1.00  0.00     0.020 C 
BRANCH   7   9
ATOM      9  C   UNL A   1      35.344  21.677  25.609  1.00  0.00     0.054 C 
BRANCH   9  10
ATOM     10  C   UNL A   1      34.214  21.496  24.624  1.00  0.00    -0.005 A 
ATOM     11  C   UNL A   1      33.600  22.531  23.906  1.00  0.00     0.007 A 
ATOM     12  C   UNL A   1      33.732  20.208  24.378  1.00  0.00     0.126 A 
ATOM     13  C   UNL A   1      32.555  22.275  23.000  1.00  0.00     0.001 A 
ATOM     14  C   UNL A   1      32.706  19.950  23.483  1.00  0.00    -0.002 A 
ATOM     15  O   UNL A   1      34.229  19.072  24.974  1.00  0.00    -0.487 OA
ATOM     16  C   UNL A   1      32.103  20.976  22.779  1.00  0.00     0.008 A 
ATOM     17  C   UNL A   1      32.446  18.497  23.400  1.00  0.00     0.087 C 
ATOM     18  C   UNL A   1      33.398  17.973  24.498  1.00  0.00     0.108 C 
ATOM     19  C   UNL A   1      32.635  17.410  25.702  1.00  0.00     0.057 C 
ATOM     20  C   UNL A   1      34.322  16.889  23.937  1.00  0.00     0.057 C 
ENDBRANCH   9  10
ENDBRANCH   7   9
ENDBRANCH   5   7
ENDBRANCH   4   5
ENDBRANCH   3   4
ENDBRANCH   2   3
ENDBRANCH   1   2
BRANCH   1  21
ATOM     21  C   UNL A   1      42.296  19.082  27.353  1.00  0.00     0.202 C 
BRANCH  21  22
ATOM     22  C   UNL A   1      42.755  18.362  26.080  1.00  0.00     0.261 C 
BRANCH  22  23
ATOM     23  O   UNL A   1      42.943  19.273  24.983  1.00  0.00    -0.460 OA
BRANCH  23  24
ATOM     24  C   UNL A   1      44.228  19.519  24.645  1.00  0.00     0.338 C 
ATOM     25  O   UNL A   1      45.009  18.766  24.075  1.00  0.00    -0.246 OA
BRANCH  24  26
ATOM     26  C   UNL A   1      44.557  20.924  24.941  1.00  0.00     0.060 A 
ATOM     27  C   UNL A   1      45.246  21.209  26.124  1.00  0.00     0.016 A 
ATOM     28  C   UNL A   1      44.146  21.959  24.100  1.00  0.00     0.016 A 
ATOM     29  C   UNL A   1      45.506  22.534  26.477  1.00  0.00     0.010 A 
ATOM     30  C   UNL A   1      44.416  23.285  24.447  1.00  0.00     0.010 A 
ATOM     31  C   UNL A   1      45.074  23.582  25.651  1.00  0.00    -0.014 A 
BRANCH  31  32
ATOM     32  C   UNL A   1      45.209  24.991  26.099  1.00  0.00     0.031 A 
ATOM     33  C   UNL A   1      46.550  25.667  26.010  1.00  0.00     0.074 A 
ATOM     34  C   UNL A   1      44.145  25.664  26.574  1.00  0.00     0.049 A 
ATOM     35  N   UNL A   1      46.896  26.877  26.371  1.00  0.00    -0.248 NA
ATOM     36  C   UNL A   1      47.653  24.871  25.450  1.00  0.00     0.031 C 
ATOM     37  C   UNL A   1      42.793  25.122  26.709  1.00  0.00     0.029 A 
ATOM     38  N   UNL A   1      44.038  26.952  27.037  1.00  0.00    -0.354 N 
ATOM     39  C   UNL A   1      48.252  26.982  26.090  1.00  0.00     0.074 A 
ATOM     40  C   UNL A   1      48.677  25.704  25.563  1.00  0.00     0.031 C 
ATOM     41  C   UNL A   1      41.991  26.073  27.218  1.00  0.00     0.029 A 
ATOM     42  C   UNL A   1      42.777  27.279  27.472  1.00  0.00     0.049 A 
ATOM     43  H   UNL A   1      44.793  27.583  27.054  1.00  0.00     0.167 HD
ATOM     44  C   UNL A   1      49.065  28.054  26.242  1.00  0.00     0.037 A 
ATOM     45  C   UNL A   1      42.316  28.418  28.026  1.00  0.00     0.037 A 
ATOM     46  C   UNL A   1      48.640  29.335  26.739  1.00  0.00     0.049 A 
ATOM     47  C   UNL A   1      43.253  29.583  28.214  1.00  0.00     0.074 A 
ATOM     48  C   UNL A   1      49.381  30.496  26.879  1.00  0.00     0.029 A 
ATOM     49  N   UNL A   1      47.358  29.623  27.182  1.00  0.00    -0.354 N 
ATOM     50  N   UNL A   1      44.521  29.687  27.897  1.00  0.00    -0.248 NA
ATOM     51  C   UNL A   1      42.692  30.792  28.836  1.00  0.00     0.031 C 
ATOM     52  C   UNL A   1      48.559  31.474  27.448  1.00  0.00     0.029 A 
ATOM     53  C   UNL A   1      47.295  30.936  27.620  1.00  0.00     0.049 A 
ATOM     54  H   UNL A   1      46.605  28.989  27.184  1.00  0.00     0.167 HD
ATOM     55  C   UNL A   1      44.901  30.974  28.257  1.00  0.00     0.074 A 
ATOM     56  C   UNL A   1      43.725  31.621  28.800  1.00  0.00     0.031 C 
ATOM     57  C   UNL A   1      46.115  31.567  28.151  1.00  0.00     0.037 A 
BRANCH  44  58
ATOM     58  C   UNL A   1      50.509  27.892  25.869  1.00  0.00     0.064 A 
ATOM     59  C   UNL A   1      50.943  28.009  24.541  1.00  0.00     0.173 A 
ATOM     60  C   UNL A   1      51.477  27.679  26.861  1.00  0.00     0.173 A 
ATOM     61  F   UNL A   1      50.054  28.201  23.555  1.00  0.00    -0.203 F 
ATOM     62  C   UNL A   1      52.293  27.903  24.217  1.00  0.00     0.198 A 
ATOM     63  C   UNL A   1      52.828  27.599  26.538  1.00  0.00     0.198 A 
ATOM     64  F   UNL A   1      51.113  27.563  28.148  1.00  0.00    -0.203 F 
ATOM     65  F   UNL A   1      52.683  27.985  22.937  1.00  0.00    -0.200 F 
ATOM     66  C   UNL A   1      53.235  27.706  25.217  1.00  0.00     0.200 A 
ATOM     67  F   UNL A   1      53.739  27.420  27.505  1.00  0.00    -0.200 F 
ATOM     68  F   UNL A   1      54.536  27.618  24.905  1.00  0.00    -0.200 F 
ENDBRANCH  44  58
BRANCH  45  69
ATOM     69  C   UNL A   1      40.897  28.517  28.457  1.00  0.00     0.064 A 
ATOM     70  C   UNL A   1      39.904  28.978  27.581  1.00  0.00     0.173 A 
ATOM     71  C   UNL A   1      40.511  28.190  29.765  1.00  0.00     0.173 A 
ATOM     72  F   UNL A   1      40.228  29.328  26.327  1.00  0.00    -0.203 F 
ATOM     73  C   UNL A   1      38.586  29.132  28.004  1.00  0.00     0.198 A 
ATOM     74  C   UNL A   1      39.187  28.318  30.179  1.00  0.00     0.198 A 
ATOM     75  F   UNL A   1      41.423  27.747  30.643  1.00  0.00    -0.203 F 
ATOM     76  F   UNL A   1      37.667  29.626  27.163  1.00  0.00    -0.200 F 
ATOM     77  C   UNL A   1      38.228  28.799  29.301  1.00  0.00     0.200 A 
ATOM     78  F   UNL A   1      38.844  27.986  31.431  1.00  0.00    -0.200 F 
ATOM     79  F   UNL A   1      36.961  28.951  29.709  1.00  0.00    -0.200 F 
ENDBRANCH  45  69
BRANCH  57  80
ATOM     80  C   UNL A   1      46.230  32.992  28.606  1.00  0.00     0.064 A 
ATOM     81  C   UNL A   1      46.591  33.315  29.923  1.00  0.00     0.173 A 
ATOM     82  C   UNL A   1      46.019  34.047  27.705  1.00  0.00     0.173 A 
ATOM     83  F   UNL A   1      46.789  32.343  30.825  1.00  0.00    -0.203 F 
ATOM     84  C   UNL A   1      46.713  34.642  30.325  1.00  0.00     0.198 A 
ATOM     85  C   UNL A   1      46.170  35.373  28.104  1.00  0.00     0.198 A 
ATOM     86  F   UNL A   1      45.679  33.792  26.432  1.00  0.00    -0.203 F 
ATOM     87  F   UNL A   1      47.016  34.928  31.599  1.00  0.00    -0.200 F 
ATOM     88  C   UNL A   1      46.510  35.669  29.416  1.00  0.00     0.200 A 
ATOM     89  F   UNL A   1      45.986  36.363  27.220  1.00  0.00    -0.200 F 
ATOM     90  F   UNL A   1      46.636  36.945  29.804  1.00  0.00    -0.200 F 
ENDBRANCH  57  80
ENDBRANCH  31  32
ENDBRANCH  24  26
ENDBRANCH  23  24
ENDBRANCH  22  23
ENDBRANCH  21  22
ENDBRANCH   1  21
TORSDOF 16
ENDMDL
MODEL 3
REMARK VINA RESULT:     -11.2      5.051      8.218
REMARK SMILES C[C@H](Cc1cccc2c1OC(C)(C)C2)C(=O)OCCOCCOC(=O)c1ccc(-c2c3nc(c(-c4c(F)c(F)c(F)c(F)c4F)c4ccc([nH]4)c(-c4c(F)c(F)c(F)c(F)c4F)c4nc(c(-c5c(F)c(F)c(F)c(F)c5F)c5ccc2[nH]5)C=C4)C=C3)cc1
REMARK SMILES IDX 20 1 19 2 18 3 17 4 15 5 16 6 2 7 1 8 3 9 4 10 5 11 9 12
REMARK SMILES IDX 6 13 8 14 10 15 7 16 14 17 11 18 12 19 13 20 21 21 22 22
REMARK SMILES IDX 23 23 24 24 25 25 26 26 27 27 88 28 28 29 87 30 29 31 30 32
REMARK SMILES IDX 31 33 81 34 32 35 86 36 80 37 82 38 33 39 85 40 79 41 78 42
REMARK SMILES IDX 34 44 66 45 46 46 65 47 47 48 50 49 64 50 83 51 48 52 49 53
REMARK SMILES IDX 63 55 84 56 51 57 35 58 36 59 44 60 37 61 38 62 42 63 45 64
REMARK SMILES IDX 39 65 40 66 43 67 41 68 67 69 68 70 76 71 69 72 70 73 74 74
REMARK SMILES IDX 77 75 71 76 72 77 75 78 73 79 52 80 53 81 61 82 54 83 55 84
REMARK SMILES IDX 59 85 62 86 56 87 57 88 60 89 58 90
REMARK H PARENT 82 43 50 54
REMARK Flexibility Score: inf
ROOT
ATOM      1  O   UNL A   1      34.709  34.195  27.953  1.00  0.00    -0.374 OA
ENDROOT
BRANCH   1   2
ATOM      2  C   UNL A   1      35.197  33.254  28.912  1.00  0.00     0.202 C 
BRANCH   2   3
ATOM      3  C   UNL A   1      34.468  31.910  28.914  1.00  0.00     0.261 C 
BRANCH   3   4
ATOM      4  O   UNL A   1      33.831  31.700  27.639  1.00  0.00    -0.463 OA
BRANCH   4   5
ATOM      5  C   UNL A   1      33.782  30.430  27.176  1.00  0.00     0.309 C 
ATOM      6  O   UNL A   1      34.739  29.664  27.145  1.00  0.00    -0.252 OA
BRANCH   5   7
ATOM      7  C   UNL A   1      32.413  30.036  26.644  1.00  0.00     0.100 C 
ATOM      8  C   UNL A   1      31.797  28.962  27.532  1.00  0.00     0.020 C 
BRANCH   7   9
ATOM      9  C   UNL A   1      32.263  29.787  25.127  1.00  0.00     0.054 C 
BRANCH   9  10
ATOM     10  C   UNL A   1      31.339  28.756  24.523  1.00  0.00    -0.005 A 
ATOM     11  C   UNL A   1      31.543  27.371  24.567  1.00  0.00     0.007 A 
ATOM     12  C   UNL A   1      30.176  29.186  23.880  1.00  0.00     0.126 A 
ATOM     13  C   UNL A   1      30.628  26.476  23.985  1.00  0.00     0.001 A 
ATOM     14  C   UNL A   1      29.268  28.308  23.309  1.00  0.00    -0.002 A 
ATOM     15  O   UNL A   1      29.802  30.504  23.761  1.00  0.00    -0.487 OA
ATOM     16  C   UNL A   1      29.477  26.942  23.353  1.00  0.00     0.008 A 
ATOM     17  C   UNL A   1      28.119  29.048  22.744  1.00  0.00     0.087 C 
ATOM     18  C   UNL A   1      28.583  30.505  22.963  1.00  0.00     0.108 C 
ATOM     19  C   UNL A   1      28.893  31.216  21.641  1.00  0.00     0.057 C 
ATOM     20  C   UNL A   1      27.519  31.300  23.724  1.00  0.00     0.057 C 
ENDBRANCH   9  10
ENDBRANCH   7   9
ENDBRANCH   5   7
ENDBRANCH   4   5
ENDBRANCH   3   4
ENDBRANCH   2   3
ENDBRANCH   1   2
BRANCH   1  21
ATOM     21  C   UNL A   1      34.241  35.440  28.471  1.00  0.00     0.202 C 
BRANCH  21  22
ATOM     22  C   UNL A   1      33.026  35.341  29.400  1.00  0.00     0.261 C 
BRANCH  22  23
ATOM     23  O   UNL A   1      33.183  36.148  30.581  1.00  0.00    -0.460 OA
BRANCH  23  24
ATOM     24  C   UNL A   1      32.875  35.539  31.747  1.00  0.00     0.338 C 
ATOM     25  O   UNL A   1      31.774  35.452  32.276  1.00  0.00    -0.246 OA
BRANCH  24  26
ATOM     26  C   UNL A   1      34.061  34.839  32.268  1.00  0.00     0.060 A 
ATOM     27  C   UNL A   1      35.304  35.470  32.161  1.00  0.00     0.016 A 
ATOM     28  C   UNL A   1      33.969  33.554  32.803  1.00  0.00     0.016 A 
ATOM     29  C   UNL A   1      36.461  34.805  32.572  1.00  0.00     0.010 A 
ATOM     30  C   UNL A   1      35.125  32.892  33.225  1.00  0.00     0.010 A 
ATOM     31  C   UNL A   1      36.382  33.503  33.087  1.00  0.00    -0.014 A 
BRANCH  31  32
ATOM     32  C   UNL A   1      37.619  32.737  33.376  1.00  0.00     0.031 A 
ATOM     33  C   UNL A   1      38.379  33.015  34.645  1.00  0.00     0.074 A 
ATOM     34  C   UNL A   1      38.059  31.797  32.520  1.00  0.00     0.049 A 
ATOM     35  N   UNL A   1      39.494  32.485  35.079  1.00  0.00    -0.248 NA
ATOM     36  C   UNL A   1      37.811  34.035  35.541  1.00  0.00     0.031 C 
ATOM     37  C   UNL A   1      37.414  31.433  31.259  1.00  0.00     0.029 A 
ATOM     38  N   UNL A   1      39.161  30.979  32.582  1.00  0.00    -0.354 N 
ATOM     39  C   UNL A   1      39.764  33.111  36.289  1.00  0.00     0.074 A 
ATOM     40  C   UNL A   1      38.719  34.087  36.505  1.00  0.00     0.031 C 
ATOM     41  C   UNL A   1      38.130  30.462  30.667  1.00  0.00     0.029 A 
ATOM     42  C   UNL A   1      39.299  30.157  31.491  1.00  0.00     0.049 A 
ATOM     43  H   UNL A   1      39.792  30.982  33.337  1.00  0.00     0.167 HD
ATOM     44  C   UNL A   1      40.784  32.880  37.150  1.00  0.00     0.037 A 
ATOM     45  C   UNL A   1      40.266  29.269  31.187  1.00  0.00     0.037 A 
ATOM     46  C   UNL A   1      41.810  31.892  36.951  1.00  0.00     0.049 A 
ATOM     47  C   UNL A   1      41.407  29.058  32.149  1.00  0.00     0.074 A 
ATOM     48  C   UNL A   1      42.853  31.550  37.794  1.00  0.00     0.029 A 
ATOM     49  N   UNL A   1      41.922  31.087  35.828  1.00  0.00    -0.354 N 
ATOM     50  N   UNL A   1      41.625  29.620  33.313  1.00  0.00    -0.248 NA
ATOM     51  C   UNL A   1      42.437  28.087  31.753  1.00  0.00     0.031 C 
ATOM     52  C   UNL A   1      43.624  30.569  37.160  1.00  0.00     0.029 A 
ATOM     53  C   UNL A   1      43.034  30.268  35.944  1.00  0.00     0.049 A 
ATOM     54  H   UNL A   1      41.304  31.096  35.062  1.00  0.00     0.167 HD
ATOM     55  C   UNL A   1      42.797  29.054  33.798  1.00  0.00     0.074 A 
ATOM     56  C   UNL A   1      43.237  28.091  32.810  1.00  0.00     0.031 C 
ATOM     57  C   UNL A   1      43.454  29.310  34.955  1.00  0.00     0.037 A 
BRANCH  44  58
ATOM     58  C   UNL A   1      40.849  33.716  38.393  1.00  0.00     0.064 A 
ATOM     59  C   UNL A   1      40.129  33.376  39.547  1.00  0.00     0.173 A 
ATOM     60  C   UNL A   1      41.690  34.838  38.450  1.00  0.00     0.173 A 
ATOM     61  F   UNL A   1      39.302  32.319  39.539  1.00  0.00    -0.203 F 
ATOM     62  C   UNL A   1      40.237  34.136  40.709  1.00  0.00     0.198 A 
ATOM     63  C   UNL A   1      41.815  35.581  39.620  1.00  0.00     0.198 A 
ATOM     64  F   UNL A   1      42.402  35.204  37.374  1.00  0.00    -0.203 F 
ATOM     65  F   UNL A   1      39.514  33.811  41.790  1.00  0.00    -0.200 F 
ATOM     66  C   UNL A   1      41.086  35.232  40.747  1.00  0.00     0.200 A 
ATOM     67  F   UNL A   1      42.645  36.633  39.660  1.00  0.00    -0.200 F 
ATOM     68  F   UNL A   1      41.199  35.955  41.870  1.00  0.00    -0.200 F 
ENDBRANCH  44  58
BRANCH  45  69
ATOM     69  C   UNL A   1      40.212  28.515  29.907  1.00  0.00     0.064 A 
ATOM     70  C   UNL A   1      39.538  27.288  29.818  1.00  0.00     0.173 A 
ATOM     71  C   UNL A   1      40.866  28.984  28.760  1.00  0.00     0.173 A 
ATOM     72  F   UNL A   1      38.920  26.784  30.896  1.00  0.00    -0.203 F 
ATOM     73  C   UNL A   1      39.542  26.549  28.637  1.00  0.00     0.198 A 
ATOM     74  C   UNL A   1      40.845  28.258  27.571  1.00  0.00     0.198 A 
ATOM     75  F   UNL A   1      41.526  30.151  28.792  1.00  0.00    -0.203 F 
ATOM     76  F   UNL A   1      38.937  25.354  28.595  1.00  0.00    -0.200 F 
ATOM     77  C   UNL A   1      40.192  27.036  27.513  1.00  0.00     0.200 A 
ATOM     78  F   UNL A   1      41.466  28.737  26.485  1.00  0.00    -0.200 F 
ATOM     79  F   UNL A   1      40.199  26.324  26.379  1.00  0.00    -0.200 F 
ENDBRANCH  45  69
BRANCH  57  80
ATOM     80  C   UNL A   1      44.702  28.523  35.231  1.00  0.00     0.064 A 
ATOM     81  C   UNL A   1      44.657  27.286  35.890  1.00  0.00     0.173 A 
ATOM     82  C   UNL A   1      45.950  28.991  34.794  1.00  0.00     0.173 A 
ATOM     83  F   UNL A   1      43.490  26.803  36.340  1.00  0.00    -0.203 F 
ATOM     84  C   UNL A   1      45.821  26.558  36.122  1.00  0.00     0.198 A 
ATOM     85  C   UNL A   1      47.108  28.246  35.002  1.00  0.00     0.198 A 
ATOM     86  F   UNL A   1      46.046  30.165  34.152  1.00  0.00    -0.203 F 
ATOM     87  F   UNL A   1      45.761  25.398  36.792  1.00  0.00    -0.200 F 
ATOM     88  C   UNL A   1      47.043  27.033  35.672  1.00  0.00     0.200 A 
ATOM     89  F   UNL A   1      48.287  28.702  34.554  1.00  0.00    -0.200 F 
ATOM     90  F   UNL A   1      48.161  26.327  35.889  1.00  0.00    -0.200 F 
ENDBRANCH  57  80
ENDBRANCH  31  32
ENDBRANCH  24  26
ENDBRANCH  23  24
ENDBRANCH  22  23
ENDBRANCH  21  22
ENDBRANCH   1  21
TORSDOF 16
ENDMDL
