MODEL 1
REMARK VINA RESULT:     -10.1      0.000      0.000
REMARK SMILES O=C(OCCOCCOC(=O)[C@]1([NH2+]C2CC2)CC[C@@H](SCCCO)C1)c1ccc(-c2c3nc(c(-c4c(F)c(F)c(F)c(F)c4F)c4ccc([nH]4)c(-c4c(F)c(F)c(F)c(F)c4F)c4nc(c(-c5c(F)c(F)c(F)c(F)c5F)c5ccc2[nH]5)C=C4)C=C3)cc1
REMARK SMILES IDX 7 1 6 2 5 3 4 4 3 5 2 6 1 7 26 8 27 9 88 10 28 11 87 12
REMARK SMILES IDX 29 13 30 14 31 15 81 16 32 17 86 18 80 19 82 20 33 21 85 22
REMARK SMILES IDX 79 23 78 24 34 26 66 27 46 28 65 29 47 30 50 31 64 32 83 33
REMARK SMILES IDX 48 34 49 35 63 37 84 38 51 39 35 40 36 41 44 42 37 43 38 44
REMARK SMILES IDX 42 45 45 46 39 47 40 48 43 49 41 50 67 51 68 52 76 53 69 54
REMARK SMILES IDX 70 55 74 56 77 57 71 58 72 59 75 60 73 61 52 62 53 63 61 64
REMARK SMILES IDX 54 65 55 66 59 67 62 68 56 69 57 70 60 71 58 72 8 73 9 74
REMARK SMILES IDX 10 75 11 76 12 77 17 78 25 79 18 80 19 81 13 82 14 85 15 86
REMARK SMILES IDX 16 87 20 88 21 89 22 90 23 91 24 92
REMARK H PARENT 82 25 50 36 13 83 13 84 24 93
REMARK Flexibility Score: inf
ROOT
ATOM      1  C   UNL A   1      34.314  23.832  24.626  1.00  0.00     0.202 C 
ENDROOT
BRANCH   1   2
ATOM      2  O   UNL A   1      34.837  22.750  23.851  1.00  0.00    -0.374 OA
BRANCH   2   3
ATOM      3  C   UNL A   1      35.447  21.678  24.571  1.00  0.00     0.202 C 
BRANCH   3   4
ATOM      4  C   UNL A   1      36.975  21.679  24.497  1.00  0.00     0.261 C 
BRANCH   4   5
ATOM      5  O   UNL A   1      37.546  21.397  25.781  1.00  0.00    -0.460 OA
BRANCH   5   6
ATOM      6  C   UNL A   1      38.845  21.534  26.134  1.00  0.00     0.338 C 
ATOM      7  O   UNL A   1      39.566  20.539  26.123  1.00  0.00    -0.246 OA
BRANCH   6   8
ATOM      8  C   UNL A   1      39.476  22.848  26.479  1.00  0.00     0.060 A 
ATOM      9  C   UNL A   1      39.047  24.105  26.043  1.00  0.00     0.016 A 
ATOM     10  C   UNL A   1      40.541  22.799  27.395  1.00  0.00     0.016 A 
ATOM     11  C   UNL A   1      39.632  25.271  26.490  1.00  0.00     0.010 A 
ATOM     12  C   UNL A   1      41.151  23.969  27.847  1.00  0.00     0.010 A 
ATOM     13  C   UNL A   1      40.690  25.204  27.382  1.00  0.00    -0.014 A 
BRANCH  13  14
ATOM     14  C   UNL A   1      41.395  26.461  27.637  1.00  0.00     0.031 A 
ATOM     15  C   UNL A   1      40.693  27.477  28.475  1.00  0.00     0.074 A 
ATOM     16  C   UNL A   1      42.689  26.566  27.294  1.00  0.00     0.049 A 
ATOM     17  N   UNL A   1      41.084  28.665  28.837  1.00  0.00    -0.248 NA
ATOM     18  C   UNL A   1      39.372  27.087  29.001  1.00  0.00     0.031 C 
ATOM     19  C   UNL A   1      43.474  25.517  26.639  1.00  0.00     0.029 A 
ATOM     20  N   UNL A   1      43.580  27.583  27.486  1.00  0.00    -0.354 N 
ATOM     21  C   UNL A   1      40.046  29.177  29.603  1.00  0.00     0.074 A 
ATOM     22  C   UNL A   1      39.009  28.175  29.660  1.00  0.00     0.031 C 
ATOM     23  C   UNL A   1      44.738  25.945  26.491  1.00  0.00     0.029 A 
ATOM     24  C   UNL A   1      44.825  27.318  26.974  1.00  0.00     0.049 A 
ATOM     25  H   UNL A   1      43.351  28.421  27.947  1.00  0.00     0.167 HD
ATOM     26  C   UNL A   1      39.979  30.392  30.189  1.00  0.00     0.037 A 
ATOM     27  C   UNL A   1      45.890  28.131  26.877  1.00  0.00     0.037 A 
ATOM     28  C   UNL A   1      41.041  31.355  30.093  1.00  0.00     0.049 A 
ATOM     29  C   UNL A   1      45.741  29.527  27.424  1.00  0.00     0.074 A 
ATOM     30  C   UNL A   1      41.083  32.653  30.558  1.00  0.00     0.029 A 
ATOM     31  N   UNL A   1      42.263  31.104  29.474  1.00  0.00    -0.354 N 
ATOM     32  N   UNL A   1      44.725  30.059  28.066  1.00  0.00    -0.248 NA
ATOM     33  C   UNL A   1      46.870  30.440  27.220  1.00  0.00     0.031 C 
ATOM     34  C   UNL A   1      42.309  33.206  30.171  1.00  0.00     0.029 A 
ATOM     35  C   UNL A   1      43.059  32.232  29.524  1.00  0.00     0.049 A 
ATOM     36  H   UNL A   1      42.521  30.248  29.061  1.00  0.00     0.167 HD
ATOM     37  C   UNL A   1      45.099  31.361  28.364  1.00  0.00     0.074 A 
ATOM     38  C   UNL A   1      46.445  31.527  27.847  1.00  0.00     0.031 C 
ATOM     39  C   UNL A   1      44.401  32.334  29.001  1.00  0.00     0.037 A 
BRANCH  26  40
ATOM     40  C   UNL A   1      38.692  30.749  30.870  1.00  0.00     0.064 A 
ATOM     41  C   UNL A   1      37.567  31.197  30.162  1.00  0.00     0.173 A 
ATOM     42  C   UNL A   1      38.609  30.706  32.270  1.00  0.00     0.173 A 
ATOM     43  F   UNL A   1      37.605  31.296  28.825  1.00  0.00    -0.203 F 
ATOM     44  C   UNL A   1      36.420  31.620  30.831  1.00  0.00     0.198 A 
ATOM     45  C   UNL A   1      37.451  31.099  32.935  1.00  0.00     0.198 A 
ATOM     46  F   UNL A   1      39.661  30.302  32.998  1.00  0.00    -0.203 F 
ATOM     47  F   UNL A   1      35.384  32.113  30.139  1.00  0.00    -0.200 F 
ATOM     48  C   UNL A   1      36.362  31.568  32.217  1.00  0.00     0.200 A 
ATOM     49  F   UNL A   1      37.398  31.048  34.273  1.00  0.00    -0.200 F 
ATOM     50  F   UNL A   1      35.263  31.987  32.860  1.00  0.00    -0.200 F 
ENDBRANCH  26  40
BRANCH  27  51
ATOM     51  C   UNL A   1      47.132  27.678  26.196  1.00  0.00     0.064 A 
ATOM     52  C   UNL A   1      47.278  27.770  24.805  1.00  0.00     0.173 A 
ATOM     53  C   UNL A   1      48.198  27.119  26.922  1.00  0.00     0.173 A 
ATOM     54  F   UNL A   1      46.286  28.277  24.060  1.00  0.00    -0.203 F 
ATOM     55  C   UNL A   1      48.427  27.301  24.167  1.00  0.00     0.198 A 
ATOM     56  C   UNL A   1      49.359  26.683  26.287  1.00  0.00     0.198 A 
ATOM     57  F   UNL A   1      48.115  27.002  28.255  1.00  0.00    -0.203 F 
ATOM     58  F   UNL A   1      48.516  27.352  22.831  1.00  0.00    -0.200 F 
ATOM     59  C   UNL A   1      49.468  26.763  24.909  1.00  0.00     0.200 A 
ATOM     60  F   UNL A   1      50.366  26.178  27.012  1.00  0.00    -0.200 F 
ATOM     61  F   UNL A   1      50.570  26.311  24.294  1.00  0.00    -0.200 F 
ENDBRANCH  27  51
BRANCH  39  62
ATOM     62  C   UNL A   1      45.108  33.639  29.210  1.00  0.00     0.064 A 
ATOM     63  C   UNL A   1      45.009  34.688  28.284  1.00  0.00     0.173 A 
ATOM     64  C   UNL A   1      45.855  33.853  30.378  1.00  0.00     0.173 A 
ATOM     65  F   UNL A   1      44.319  34.522  27.146  1.00  0.00    -0.203 F 
ATOM     66  C   UNL A   1      45.658  35.897  28.509  1.00  0.00     0.198 A 
ATOM     67  C   UNL A   1      46.470  35.077  30.617  1.00  0.00     0.198 A 
ATOM     68  F   UNL A   1      45.968  32.881  31.296  1.00  0.00    -0.203 F 
ATOM     69  F   UNL A   1      45.598  36.868  27.588  1.00  0.00    -0.200 F 
ATOM     70  C   UNL A   1      46.379  36.093  29.678  1.00  0.00     0.200 A 
ATOM     71  F   UNL A   1      47.148  35.270  31.755  1.00  0.00    -0.200 F 
ATOM     72  F   UNL A   1      46.993  37.263  29.899  1.00  0.00    -0.200 F 
ENDBRANCH  39  62
ENDBRANCH  13  14
ENDBRANCH   6   8
ENDBRANCH   5   6
ENDBRANCH   4   5
ENDBRANCH   3   4
ENDBRANCH   2   3
ENDBRANCH   1   2
BRANCH   1  73
ATOM     73  C   UNL A   1      33.602  24.815  23.705  1.00  0.00     0.261 C 
BRANCH  73  74
ATOM     74  O   UNL A   1      33.931  26.133  24.152  1.00  0.00    -0.459 OA
BRANCH  74  75
ATOM     75  C   UNL A   1      33.433  27.142  23.381  1.00  0.00     0.368 C 
ATOM     76  O   UNL A   1      33.650  27.260  22.175  1.00  0.00    -0.245 OA
BRANCH  75  77
ATOM     77  C   UNL A   1      32.681  28.172  24.253  1.00  0.00     0.195 C 
ATOM     78  C   UNL A   1      31.744  27.338  25.133  1.00  0.00     0.082 C 
ATOM     79  C   UNL A   1      31.720  29.118  23.484  1.00  0.00     0.095 C 
ATOM     80  C   UNL A   1      30.423  27.233  24.347  1.00  0.00     0.022 C 
ATOM     81  C   UNL A   1      30.438  28.328  23.275  1.00  0.00     0.053 C 
BRANCH  77  82
ATOM     82  N   UNL A   1      33.620  29.084  24.962  1.00  0.00    -0.330 N 
ATOM     83  H   UNL A   1      33.281  30.036  24.824  1.00  0.00     0.347 HD
ATOM     84  H   UNL A   1      34.533  28.877  24.556  1.00  0.00     0.347 HD
BRANCH  82  85
ATOM     85  C   UNL A   1      33.806  28.890  26.402  1.00  0.00     0.183 C 
ATOM     86  C   UNL A   1      35.079  29.330  27.070  1.00  0.00     0.071 C 
ATOM     87  C   UNL A   1      33.833  30.139  27.251  1.00  0.00     0.071 C 
ENDBRANCH  82  85
ENDBRANCH  77  82
BRANCH  81  88
ATOM     88  S   UNL A   1      28.876  29.260  23.044  1.00  0.00    -0.158 SA
BRANCH  88  89
ATOM     89  C   UNL A   1      29.141  30.389  21.623  1.00  0.00     0.072 C 
BRANCH  89  90
ATOM     90  C   UNL A   1      28.415  31.731  21.727  1.00  0.00     0.039 C 
BRANCH  90  91
ATOM     91  C   UNL A   1      28.023  32.304  20.381  1.00  0.00     0.157 C 
BRANCH  91  92
ATOM     92  O   UNL A   1      27.287  33.509  20.509  1.00  0.00    -0.396 OA
ATOM     93  H   UNL A   1      27.721  34.086  21.157  1.00  0.00     0.210 HD
ENDBRANCH  91  92
ENDBRANCH  90  91
ENDBRANCH  89  90
ENDBRANCH  88  89
ENDBRANCH  81  88
ENDBRANCH  75  77
ENDBRANCH  74  75
ENDBRANCH  73  74
ENDBRANCH   1  73
TORSDOF 21
ENDMDL
MODEL 2
REMARK VINA RESULT:     -10.0      3.232      9.123
REMARK SMILES O=C(OCCOCCOC(=O)[C@]1([NH2+]C2CC2)CC[C@@H](SCCCO)C1)c1ccc(-c2c3nc(c(-c4c(F)c(F)c(F)c(F)c4F)c4ccc([nH]4)c(-c4c(F)c(F)c(F)c(F)c4F)c4nc(c(-c5c(F)c(F)c(F)c(F)c5F)c5ccc2[nH]5)C=C4)C=C3)cc1
REMARK SMILES IDX 7 1 6 2 5 3 4 4 3 5 2 6 1 7 26 8 27 9 88 10 28 11 87 12
REMARK SMILES IDX 29 13 30 14 31 15 81 16 32 17 86 18 80 19 82 20 33 21 85 22
REMARK SMILES IDX 79 23 78 24 34 26 66 27 46 28 65 29 47 30 50 31 64 32 83 33
REMARK SMILES IDX 48 34 49 35 63 37 84 38 51 39 35 40 36 41 44 42 37 43 38 44
REMARK SMILES IDX 42 45 45 46 39 47 40 48 43 49 41 50 67 51 68 52 76 53 69 54
REMARK SMILES IDX 70 55 74 56 77 57 71 58 72 59 75 60 73 61 52 62 53 63 61 64
REMARK SMILES IDX 54 65 55 66 59 67 62 68 56 69 57 70 60 71 58 72 8 73 9 74
REMARK SMILES IDX 10 75 11 76 12 77 17 78 25 79 18 80 19 81 13 82 14 85 15 86
REMARK SMILES IDX 16 87 20 88 21 89 22 90 23 91 24 92
REMARK H PARENT 82 25 50 36 13 83 13 84 24 93
REMARK Flexibility Score: inf
ROOT
ATOM      1  C   UNL A   1      37.335  21.590  25.318  1.00  0.00     0.202 C 
ENDROOT
BRANCH   1   2
ATOM      2  O   UNL A   1      37.292  20.370  24.575  1.00  0.00    -0.374 OA
BRANCH   2   3
ATOM      3  C   UNL A   1      38.169  19.325  25.002  1.00  0.00     0.202 C 
BRANCH   3   4
ATOM      4  C   UNL A   1      39.325  19.813  25.876  1.00  0.00     0.261 C 
BRANCH   4   5
ATOM      5  O   UNL A   1      40.458  18.943  25.751  1.00  0.00    -0.460 OA
BRANCH   5   6
ATOM      6  C   UNL A   1      41.753  19.270  25.968  1.00  0.00     0.338 C 
ATOM      7  O   UNL A   1      42.613  18.409  25.799  1.00  0.00    -0.246 OA
BRANCH   6   8
ATOM      8  C   UNL A   1      42.209  20.646  26.345  1.00  0.00     0.060 A 
ATOM      9  C   UNL A   1      42.313  21.148  27.646  1.00  0.00     0.016 A 
ATOM     10  C   UNL A   1      42.649  21.462  25.289  1.00  0.00     0.016 A 
ATOM     11  C   UNL A   1      42.834  22.399  27.905  1.00  0.00     0.010 A 
ATOM     12  C   UNL A   1      43.166  22.733  25.535  1.00  0.00     0.010 A 
ATOM     13  C   UNL A   1      43.250  23.196  26.851  1.00  0.00    -0.014 A 
BRANCH  13  14
ATOM     14  C   UNL A   1      43.583  24.581  27.186  1.00  0.00     0.031 A 
ATOM     15  C   UNL A   1      44.957  25.052  26.843  1.00  0.00     0.074 A 
ATOM     16  C   UNL A   1      42.605  25.410  27.585  1.00  0.00     0.049 A 
ATOM     17  N   UNL A   1      45.506  26.216  27.041  1.00  0.00    -0.248 NA
ATOM     18  C   UNL A   1      45.826  24.080  26.156  1.00  0.00     0.031 C 
ATOM     19  C   UNL A   1      41.198  25.035  27.751  1.00  0.00     0.029 A 
ATOM     20  N   UNL A   1      42.635  26.743  27.879  1.00  0.00    -0.354 N 
ATOM     21  C   UNL A   1      46.794  26.106  26.535  1.00  0.00     0.074 A 
ATOM     22  C   UNL A   1      46.948  24.768  26.017  1.00  0.00     0.031 C 
ATOM     23  C   UNL A   1      40.497  26.121  28.112  1.00  0.00     0.029 A 
ATOM     24  C   UNL A   1      41.418  27.240  28.271  1.00  0.00     0.049 A 
ATOM     25  H   UNL A   1      43.449  27.292  27.817  1.00  0.00     0.167 HD
ATOM     26  C   UNL A   1      47.758  27.053  26.527  1.00  0.00     0.037 A 
ATOM     27  C   UNL A   1      41.115  28.461  28.744  1.00  0.00     0.037 A 
ATOM     28  C   UNL A   1      47.551  28.369  27.064  1.00  0.00     0.049 A 
ATOM     29  C   UNL A   1      42.241  29.456  28.847  1.00  0.00     0.074 A 
ATOM     30  C   UNL A   1      48.453  29.403  27.206  1.00  0.00     0.029 A 
ATOM     31  N   UNL A   1      46.330  28.824  27.557  1.00  0.00    -0.354 N 
ATOM     32  N   UNL A   1      43.491  29.333  28.462  1.00  0.00    -0.248 NA
ATOM     33  C   UNL A   1      41.925  30.749  29.462  1.00  0.00     0.031 C 
ATOM     34  C   UNL A   1      47.792  30.464  27.835  1.00  0.00     0.029 A 
ATOM     35  C   UNL A   1      46.461  30.117  28.025  1.00  0.00     0.049 A 
ATOM     36  H   UNL A   1      45.496  28.300  27.570  1.00  0.00     0.167 HD
ATOM     37  C   UNL A   1      44.108  30.538  28.766  1.00  0.00     0.074 A 
ATOM     38  C   UNL A   1      43.083  31.384  29.350  1.00  0.00     0.031 C 
ATOM     39  C   UNL A   1      45.398  30.916  28.586  1.00  0.00     0.037 A 
BRANCH  26  40
ATOM     40  C   UNL A   1      49.109  26.644  26.022  1.00  0.00     0.064 A 
ATOM     41  C   UNL A   1      50.059  26.017  26.842  1.00  0.00     0.173 A 
ATOM     42  C   UNL A   1      49.482  26.950  24.705  1.00  0.00     0.173 A 
ATOM     43  F   UNL A   1      49.768  25.738  28.122  1.00  0.00    -0.203 F 
ATOM     44  C   UNL A   1      51.343  25.744  26.373  1.00  0.00     0.198 A 
ATOM     45  C   UNL A   1      50.755  26.648  24.230  1.00  0.00     0.198 A 
ATOM     46  F   UNL A   1      48.619  27.565  23.882  1.00  0.00    -0.203 F 
ATOM     47  F   UNL A   1      52.257  25.213  27.196  1.00  0.00    -0.200 F 
ATOM     48  C   UNL A   1      51.688  26.057  25.066  1.00  0.00     0.200 A 
ATOM     49  F   UNL A   1      51.086  26.951  22.967  1.00  0.00    -0.200 F 
ATOM     50  F   UNL A   1      52.927  25.804  24.620  1.00  0.00    -0.200 F 
ENDBRANCH  26  40
BRANCH  27  51
ATOM     51  C   UNL A   1      39.737  28.776  29.207  1.00  0.00     0.064 A 
ATOM     52  C   UNL A   1      39.323  28.497  30.516  1.00  0.00     0.173 A 
ATOM     53  C   UNL A   1      38.790  29.346  28.338  1.00  0.00     0.173 A 
ATOM     54  F   UNL A   1      40.178  27.936  31.383  1.00  0.00    -0.203 F 
ATOM     55  C   UNL A   1      38.016  28.752  30.931  1.00  0.00     0.198 A 
ATOM     56  C   UNL A   1      37.495  29.632  28.763  1.00  0.00     0.198 A 
ATOM     57  F   UNL A   1      39.126  29.632  27.071  1.00  0.00    -0.203 F 
ATOM     58  F   UNL A   1      37.633  28.425  32.173  1.00  0.00    -0.200 F 
ATOM     59  C   UNL A   1      37.105  29.325  30.056  1.00  0.00     0.200 A 
ATOM     60  F   UNL A   1      36.625  30.198  27.916  1.00  0.00    -0.200 F 
ATOM     61  F   UNL A   1      35.848  29.568  30.454  1.00  0.00    -0.200 F 
ENDBRANCH  27  51
BRANCH  39  62
ATOM     62  C   UNL A   1      45.747  32.319  28.984  1.00  0.00     0.064 A 
ATOM     63  C   UNL A   1      46.247  32.620  30.259  1.00  0.00     0.173 A 
ATOM     64  C   UNL A   1      45.621  33.363  28.056  1.00  0.00     0.173 A 
ATOM     65  F   UNL A   1      46.369  31.656  31.183  1.00  0.00    -0.203 F 
ATOM     66  C   UNL A   1      46.583  33.926  30.599  1.00  0.00     0.198 A 
ATOM     67  C   UNL A   1      45.994  34.660  28.387  1.00  0.00     0.198 A 
ATOM     68  F   UNL A   1      45.156  33.118  26.821  1.00  0.00    -0.203 F 
ATOM     69  F   UNL A   1      47.008  34.206  31.838  1.00  0.00    -0.200 F 
ATOM     70  C   UNL A   1      46.465  34.942  29.660  1.00  0.00     0.200 A 
ATOM     71  F   UNL A   1      45.898  35.635  27.474  1.00  0.00    -0.200 F 
ATOM     72  F   UNL A   1      46.801  36.197  29.985  1.00  0.00    -0.200 F 
ENDBRANCH  39  62
ENDBRANCH  13  14
ENDBRANCH   6   8
ENDBRANCH   5   6
ENDBRANCH   4   5
ENDBRANCH   3   4
ENDBRANCH   2   3
ENDBRANCH   1   2
BRANCH   1  73
ATOM     73  C   UNL A   1      36.709  22.707  24.491  1.00  0.00     0.261 C 
BRANCH  73  74
ATOM     74  O   UNL A   1      35.342  22.822  24.894  1.00  0.00    -0.459 OA
BRANCH  74  75
ATOM     75  C   UNL A   1      34.435  22.714  23.882  1.00  0.00     0.368 C 
ATOM     76  O   UNL A   1      34.619  23.142  22.742  1.00  0.00    -0.245 OA
BRANCH  75  77
ATOM     77  C   UNL A   1      33.110  22.110  24.399  1.00  0.00     0.195 C 
ATOM     78  C   UNL A   1      33.475  21.431  25.723  1.00  0.00     0.082 C 
ATOM     79  C   UNL A   1      32.526  20.956  23.542  1.00  0.00     0.095 C 
ATOM     80  C   UNL A   1      33.843  19.981  25.356  1.00  0.00     0.022 C 
ATOM     81  C   UNL A   1      33.284  19.705  23.956  1.00  0.00     0.053 C 
BRANCH  77  82
ATOM     82  N   UNL A   1      32.024  23.127  24.453  1.00  0.00    -0.330 N 
ATOM     83  H   UNL A   1      31.164  22.669  24.149  1.00  0.00     0.347 HD
ATOM     84  H   UNL A   1      32.354  23.885  23.856  1.00  0.00     0.347 HD
BRANCH  82  85
ATOM     85  C   UNL A   1      31.748  23.766  25.742  1.00  0.00     0.183 C 
ATOM     86  C   UNL A   1      32.460  25.033  26.128  1.00  0.00     0.071 C 
ATOM     87  C   UNL A   1      31.029  25.093  25.693  1.00  0.00     0.071 C 
ENDBRANCH  82  85
ENDBRANCH  77  82
BRANCH  81  88
ATOM     88  S   UNL A   1      32.470  18.079  23.712  1.00  0.00    -0.158 SA
BRANCH  88  89
ATOM     89  C   UNL A   1      33.795  16.812  23.771  1.00  0.00     0.072 C 
BRANCH  89  90
ATOM     90  C   UNL A   1      33.847  16.000  25.065  1.00  0.00     0.039 C 
BRANCH  90  91
ATOM     91  C   UNL A   1      32.504  15.885  25.754  1.00  0.00     0.157 C 
BRANCH  91  92
ATOM     92  O   UNL A   1      31.808  14.710  25.374  1.00  0.00    -0.396 OA
ATOM     93  H   UNL A   1      31.683  14.143  26.151  1.00  0.00     0.210 HD
ENDBRANCH  91  92
ENDBRANCH  90  91
ENDBRANCH  89  90
ENDBRANCH  88  89
ENDBRANCH  81  88
ENDBRANCH  75  77
ENDBRANCH  74  75
ENDBRANCH  73  74
ENDBRANCH   1  73
TORSDOF 21
ENDMDL
MODEL 3
REMARK VINA RESULT:     -10.0      4.616      7.787
REMARK SMILES O=C(OCCOCCOC(=O)[C@]1([NH2+]C2CC2)CC[C@@H](SCCCO)C1)c1ccc(-c2c3nc(c(-c4c(F)c(F)c(F)c(F)c4F)c4ccc([nH]4)c(-c4c(F)c(F)c(F)c(F)c4F)c4nc(c(-c5c(F)c(F)c(F)c(F)c5F)c5ccc2[nH]5)C=C4)C=C3)cc1
REMARK SMILES IDX 7 1 6 2 5 3 4 4 3 5 2 6 1 7 26 8 27 9 88 10 28 11 87 12
REMARK SMILES IDX 29 13 30 14 31 15 81 16 32 17 86 18 80 19 82 20 33 21 85 22
REMARK SMILES IDX 79 23 78 24 34 26 66 27 46 28 65 29 47 30 50 31 64 32 83 33
REMARK SMILES IDX 48 34 49 35 63 37 84 38 51 39 35 40 36 41 44 42 37 43 38 44
REMARK SMILES IDX 42 45 45 46 39 47 40 48 43 49 41 50 67 51 68 52 76 53 69 54
REMARK SMILES IDX 70 55 74 56 77 57 71 58 72 59 75 60 73 61 52 62 53 63 61 64
REMARK SMILES IDX 54 65 55 66 59 67 62 68 56 69 57 70 60 71 58 72 8 73 9 74
REMARK SMILES IDX 10 75 11 76 12 77 17 78 25 79 18 80 19 81 13 82 14 85 15 86
REMARK SMILES IDX 16 87 20 88 21 89 22 90 23 91 24 92
REMARK H PARENT 82 25 50 36 13 83 13 84 24 93
REMARK Flexibility Score: inf
ROOT
ATOM      1  C   UNL A   1      33.469  26.848  24.717  1.00  0.00     0.202 C 
ENDROOT
BRANCH   1   2
ATOM      2  O   UNL A   1      32.320  27.699  24.720  1.00  0.00    -0.374 OA
BRANCH   2   3
ATOM      3  C   UNL A   1      32.180  28.588  25.830  1.00  0.00     0.202 C 
BRANCH   3   4
ATOM      4  C   UNL A   1      32.901  29.924  25.642  1.00  0.00     0.261 C 
BRANCH   4   5
ATOM      5  O   UNL A   1      32.637  30.802  26.744  1.00  0.00    -0.460 OA
BRANCH   5   6
ATOM      6  C   UNL A   1      33.538  31.581  27.388  1.00  0.00     0.338 C 
ATOM      7  O   UNL A   1      33.281  32.772  27.544  1.00  0.00    -0.246 OA
BRANCH   6   8
ATOM      8  C   UNL A   1      34.811  31.059  27.979  1.00  0.00     0.060 A 
ATOM      9  C   UNL A   1      35.049  29.743  28.386  1.00  0.00     0.016 A 
ATOM     10  C   UNL A   1      35.881  31.969  28.044  1.00  0.00     0.016 A 
ATOM     11  C   UNL A   1      36.287  29.329  28.833  1.00  0.00     0.010 A 
ATOM     12  C   UNL A   1      37.134  31.569  28.504  1.00  0.00     0.010 A 
ATOM     13  C   UNL A   1      37.326  30.243  28.903  1.00  0.00    -0.014 A 
BRANCH  13  14
ATOM     14  C   UNL A   1      38.537  29.788  29.588  1.00  0.00     0.031 A 
ATOM     15  C   UNL A   1      38.759  30.281  30.979  1.00  0.00     0.074 A 
ATOM     16  C   UNL A   1      39.272  28.811  29.033  1.00  0.00     0.049 A 
ATOM     17  N   UNL A   1      39.746  30.043  31.794  1.00  0.00    -0.248 NA
ATOM     18  C   UNL A   1      37.703  31.145  31.539  1.00  0.00     0.031 C 
ATOM     19  C   UNL A   1      38.982  28.161  27.752  1.00  0.00     0.029 A 
ATOM     20  N   UNL A   1      40.384  28.165  29.494  1.00  0.00    -0.354 N 
ATOM     21  C   UNL A   1      39.448  30.753  32.948  1.00  0.00     0.074 A 
ATOM     22  C   UNL A   1      38.190  31.427  32.736  1.00  0.00     0.031 C 
ATOM     23  C   UNL A   1      39.893  27.200  27.534  1.00  0.00     0.029 A 
ATOM     24  C   UNL A   1      40.864  27.222  28.621  1.00  0.00     0.049 A 
ATOM     25  H   UNL A   1      40.799  28.358  30.364  1.00  0.00     0.167 HD
ATOM     26  C   UNL A   1      40.187  30.833  34.077  1.00  0.00     0.037 A 
ATOM     27  C   UNL A   1      41.994  26.498  28.696  1.00  0.00     0.037 A 
ATOM     28  C   UNL A   1      41.438  30.145  34.231  1.00  0.00     0.049 A 
ATOM     29  C   UNL A   1      42.865  26.706  29.907  1.00  0.00     0.074 A 
ATOM     30  C   UNL A   1      42.337  30.197  35.275  1.00  0.00     0.029 A 
ATOM     31  N   UNL A   1      41.964  29.268  33.285  1.00  0.00    -0.354 N 
ATOM     32  N   UNL A   1      42.643  27.452  30.966  1.00  0.00    -0.248 NA
ATOM     33  C   UNL A   1      44.145  25.992  29.930  1.00  0.00     0.031 C 
ATOM     34  C   UNL A   1      43.433  29.396  34.937  1.00  0.00     0.029 A 
ATOM     35  C   UNL A   1      43.188  28.790  33.711  1.00  0.00     0.049 A 
ATOM     36  H   UNL A   1      41.527  29.026  32.436  1.00  0.00     0.167 HD
ATOM     37  C   UNL A   1      43.743  27.282  31.793  1.00  0.00     0.074 A 
ATOM     38  C   UNL A   1      44.621  26.344  31.116  1.00  0.00     0.031 C 
ATOM     39  C   UNL A   1      44.013  27.845  32.997  1.00  0.00     0.037 A 
BRANCH  26  40
ATOM     40  C   UNL A   1      39.698  31.764  35.145  1.00  0.00     0.064 A 
ATOM     41  C   UNL A   1      38.816  31.351  36.156  1.00  0.00     0.173 A 
ATOM     42  C   UNL A   1      40.068  33.117  35.114  1.00  0.00     0.173 A 
ATOM     43  F   UNL A   1      38.397  30.077  36.208  1.00  0.00    -0.203 F 
ATOM     44  C   UNL A   1      38.297  32.264  37.072  1.00  0.00     0.198 A 
ATOM     45  C   UNL A   1      39.573  34.020  36.050  1.00  0.00     0.198 A 
ATOM     46  F   UNL A   1      40.896  33.570  34.160  1.00  0.00    -0.203 F 
ATOM     47  F   UNL A   1      37.400  31.862  37.982  1.00  0.00    -0.200 F 
ATOM     48  C   UNL A   1      38.679  33.597  37.021  1.00  0.00     0.200 A 
ATOM     49  F   UNL A   1      39.944  35.307  35.998  1.00  0.00    -0.200 F 
ATOM     50  F   UNL A   1      38.170  34.476  37.895  1.00  0.00    -0.200 F 
ENDBRANCH  26  40
BRANCH  27  51
ATOM     51  C   UNL A   1      42.386  25.586  27.588  1.00  0.00     0.064 A 
ATOM     52  C   UNL A   1      41.859  24.291  27.486  1.00  0.00     0.173 A 
ATOM     53  C   UNL A   1      43.318  25.983  26.613  1.00  0.00     0.173 A 
ATOM     54  F   UNL A   1      40.980  23.852  28.398  1.00  0.00    -0.203 F 
ATOM     55  C   UNL A   1      42.264  23.424  26.471  1.00  0.00     0.198 A 
ATOM     56  C   UNL A   1      43.696  25.127  25.581  1.00  0.00     0.198 A 
ATOM     57  F   UNL A   1      43.859  27.209  26.661  1.00  0.00    -0.203 F 
ATOM     58  F   UNL A   1      41.785  22.173  26.430  1.00  0.00    -0.200 F 
ATOM     59  C   UNL A   1      43.178  23.845  25.517  1.00  0.00     0.200 A 
ATOM     60  F   UNL A   1      44.569  25.546  24.654  1.00  0.00    -0.200 F 
ATOM     61  F   UNL A   1      43.569  23.010  24.543  1.00  0.00    -0.200 F 
ENDBRANCH  27  51
BRANCH  39  62
ATOM     62  C   UNL A   1      45.284  27.418  33.668  1.00  0.00     0.064 A 
ATOM     63  C   UNL A   1      46.485  28.116  33.483  1.00  0.00     0.173 A 
ATOM     64  C   UNL A   1      45.280  26.322  34.544  1.00  0.00     0.173 A 
ATOM     65  F   UNL A   1      46.539  29.159  32.642  1.00  0.00    -0.203 F 
ATOM     66  C   UNL A   1      47.647  27.712  34.132  1.00  0.00     0.198 A 
ATOM     67  C   UNL A   1      46.434  25.946  35.220  1.00  0.00     0.198 A 
ATOM     68  F   UNL A   1      44.150  25.631  34.759  1.00  0.00    -0.203 F 
ATOM     69  F   UNL A   1      48.799  28.357  33.901  1.00  0.00    -0.200 F 
ATOM     70  C   UNL A   1      47.618  26.635  35.006  1.00  0.00     0.200 A 
ATOM     71  F   UNL A   1      46.399  24.918  36.078  1.00  0.00    -0.200 F 
ATOM     72  F   UNL A   1      48.736  26.256  35.640  1.00  0.00    -0.200 F 
ENDBRANCH  39  62
ENDBRANCH  13  14
ENDBRANCH   6   8
ENDBRANCH   5   6
ENDBRANCH   4   5
ENDBRANCH   3   4
ENDBRANCH   2   3
ENDBRANCH   1   2
BRANCH   1  73
ATOM     73  C   UNL A   1      33.428  25.940  25.940  1.00  0.00     0.261 C 
BRANCH  73  74
ATOM     74  O   UNL A   1      34.331  24.858  25.698  1.00  0.00    -0.459 OA
BRANCH  74  75
ATOM     75  C   UNL A   1      33.931  23.654  26.198  1.00  0.00     0.368 C 
ATOM     76  O   UNL A   1      33.120  23.523  27.115  1.00  0.00    -0.245 OA
BRANCH  75  77
ATOM     77  C   UNL A   1      34.731  22.502  25.550  1.00  0.00     0.195 C 
ATOM     78  C   UNL A   1      34.719  22.807  24.048  1.00  0.00     0.082 C 
ATOM     79  C   UNL A   1      34.074  21.100  25.647  1.00  0.00     0.095 C 
ATOM     80  C   UNL A   1      33.477  22.086  23.491  1.00  0.00     0.022 C 
ATOM     81  C   UNL A   1      33.046  21.044  24.528  1.00  0.00     0.053 C 
BRANCH  77  82
ATOM     82  N   UNL A   1      36.069  22.336  26.182  1.00  0.00    -0.330 N 
ATOM     83  H   UNL A   1      36.313  21.348  26.121  1.00  0.00     0.347 HD
ATOM     84  H   UNL A   1      35.953  22.705  27.126  1.00  0.00     0.347 HD
BRANCH  82  85
ATOM     85  C   UNL A   1      37.188  23.100  25.625  1.00  0.00     0.183 C 
ATOM     86  C   UNL A   1      37.958  24.059  26.490  1.00  0.00     0.071 C 
ATOM     87  C   UNL A   1      38.565  22.739  26.130  1.00  0.00     0.071 C 
ENDBRANCH  82  85
ENDBRANCH  77  82
BRANCH  81  88
ATOM     88  S   UNL A   1      32.566  19.398  23.876  1.00  0.00    -0.158 SA
BRANCH  88  89
ATOM     89  C   UNL A   1      32.814  18.198  25.240  1.00  0.00     0.072 C 
BRANCH  89  90
ATOM     90  C   UNL A   1      33.373  16.842  24.808  1.00  0.00     0.039 C 
BRANCH  90  91
ATOM     91  C   UNL A   1      33.006  15.716  25.751  1.00  0.00     0.157 C 
BRANCH  91  92
ATOM     92  O   UNL A   1      31.791  15.086  25.382  1.00  0.00    -0.396 OA
ATOM     93  H   UNL A   1      31.678  14.273  25.900  1.00  0.00     0.210 HD
ENDBRANCH  91  92
ENDBRANCH  90  91
ENDBRANCH  89  90
ENDBRANCH  88  89
ENDBRANCH  81  88
ENDBRANCH  75  77
ENDBRANCH  74  75
ENDBRANCH  73  74
ENDBRANCH   1  73
TORSDOF 21
ENDMDL
