MODEL 1
REMARK VINA RESULT:     -11.3      0.000      0.000
REMARK SMILES CCOc1cc(/C=C2/C(=O)N(c3cccc(C(=O)OCCOCCOC(=O)c4ccc(-c5c6nc(c(-c7c(F)c(F)c(F)c(F)c7F)c7ccc([nH]7)c(-c7c(F)c(F)c(F)c(F)c7F)c7nc(c(-c8c(F)c(F)c(F)c(F)c8F)c8ccc5[nH]8)C=C7)C=C6)cc4)c3)N=C2C)cc(Cl)c1OC
REMARK SMILES IDX 21 1 20 2 19 3 17 4 18 5 16 6 12 7 13 8 91 9 14 10 15 11
REMARK SMILES IDX 11 12 7 13 8 14 9 15 93 16 10 17 92 18 94 19 6 20 4 21 5 22
REMARK SMILES IDX 98 23 96 24 95 25 97 26 3 27 2 28 1 29 99 30 100 31 22 32
REMARK SMILES IDX 23 33 24 34 25 35 26 36 27 37 28 38 29 39 90 40 30 41 89 42
REMARK SMILES IDX 31 43 32 44 33 45 83 46 34 47 88 48 82 49 84 50 35 51 87 52
REMARK SMILES IDX 81 53 80 54 36 56 68 57 48 58 67 59 49 60 52 61 66 62 85 63
REMARK SMILES IDX 50 64 51 65 65 67 86 68 53 69 37 70 38 71 46 72 39 73 40 74
REMARK SMILES IDX 44 75 47 76 41 77 42 78 45 79 43 80 69 81 70 82 78 83 71 84
REMARK SMILES IDX 72 85 76 86 79 87 73 88 74 89 77 90 75 91 54 92 55 93 63 94
REMARK SMILES IDX 56 95 57 96 61 97 64 98 58 99 59 100 62 101 60 102
REMARK H PARENT 84 55 52 66
REMARK Flexibility Score: inf
ROOT
ATOM      1  C   UNL A   1      41.219  22.410  26.428  1.00  0.00     0.202 C 
ENDROOT
BRANCH   1   2
ATOM      2  C   UNL A   1      40.128  21.410  26.830  1.00  0.00     0.261 C 
BRANCH   2   3
ATOM      3  O   UNL A   1      39.080  21.335  25.852  1.00  0.00    -0.460 OA
BRANCH   3   4
ATOM      4  C   UNL A   1      38.793  20.085  25.405  1.00  0.00     0.338 C 
ATOM      5  O   UNL A   1      39.521  19.109  25.430  1.00  0.00    -0.246 OA
BRANCH   4   6
ATOM      6  C   UNL A   1      37.352  20.014  25.068  1.00  0.00     0.062 A 
ATOM      7  C   UNL A   1      35.187  21.054  24.749  1.00  0.00     0.070 A 
ATOM      8  C   UNL A   1      34.605  19.780  24.678  1.00  0.00     0.028 A 
ATOM      9  C   UNL A   1      36.568  21.163  24.956  1.00  0.00     0.044 A 
ATOM     10  C   UNL A   1      35.396  18.631  24.752  1.00  0.00     0.003 A 
ATOM     11  C   UNL A   1      36.771  18.747  24.941  1.00  0.00     0.016 A 
BRANCH   7  12
ATOM     12  N   UNL A   1      34.389  22.207  24.614  1.00  0.00    -0.196 N 
ATOM     13  C   UNL A   1      32.128  24.732  25.562  1.00  0.00     0.024 C 
ATOM     14  C   UNL A   1      32.952  23.910  24.902  1.00  0.00     0.065 C 
ATOM     15  C   UNL A   1      33.590  22.780  25.607  1.00  0.00     0.280 C 
ATOM     16  C   UNL A   1      33.469  23.824  23.523  1.00  0.00     0.071 C 
ATOM     17  O   UNL A   1      33.429  22.490  26.782  1.00  0.00    -0.267 OA
ATOM     18  N   UNL A   1      34.327  22.846  23.383  1.00  0.00    -0.169 NA
ATOM     19  C   UNL A   1      33.062  24.708  22.391  1.00  0.00     0.069 C 
BRANCH  13  20
ATOM     20  C   UNL A   1      31.423  25.872  24.995  1.00  0.00    -0.019 A 
ATOM     21  C   UNL A   1      31.444  28.137  24.168  1.00  0.00     0.163 A 
ATOM     22  C   UNL A   1      32.106  27.056  24.755  1.00  0.00     0.058 A 
ATOM     23  C   UNL A   1      30.065  28.081  23.855  1.00  0.00     0.179 A 
ATOM     24  C   UNL A   1      29.378  26.890  24.151  1.00  0.00     0.087 A 
ATOM     25  C   UNL A   1      30.058  25.807  24.729  1.00  0.00     0.032 A 
ATOM     26  Cl  UNL A   1      27.705  26.574  23.843  1.00  0.00    -0.080 Cl
BRANCH  21  27
ATOM     27  O   UNL A   1      32.129  29.323  24.030  1.00  0.00    -0.490 OA
BRANCH  27  28
ATOM     28  C   UNL A   1      32.800  29.749  25.223  1.00  0.00     0.226 C 
ATOM     29  C   UNL A   1      31.819  30.128  26.325  1.00  0.00     0.049 C 
ENDBRANCH  27  28
ENDBRANCH  21  27
BRANCH  23  30
ATOM     30  O   UNL A   1      29.595  29.228  23.273  1.00  0.00    -0.491 OA
ATOM     31  C   UNL A   1      28.314  29.259  22.669  1.00  0.00     0.278 C 
ENDBRANCH  23  30
ENDBRANCH  13  20
ENDBRANCH   7  12
ENDBRANCH   4   6
ENDBRANCH   3   4
ENDBRANCH   2   3
ENDBRANCH   1   2
BRANCH   1  32
ATOM     32  O   UNL A   1      42.101  22.037  25.371  1.00  0.00    -0.374 OA
BRANCH  32  33
ATOM     33  C   UNL A   1      43.487  22.335  25.530  1.00  0.00     0.202 C 
BRANCH  33  34
ATOM     34  C   UNL A   1      44.086  23.434  24.643  1.00  0.00     0.261 C 
BRANCH  34  35
ATOM     35  O   UNL A   1      43.667  24.754  25.027  1.00  0.00    -0.460 OA
BRANCH  35  36
ATOM     36  C   UNL A   1      44.678  25.585  25.379  1.00  0.00     0.338 C 
ATOM     37  O   UNL A   1      45.644  25.907  24.708  1.00  0.00    -0.246 OA
BRANCH  36  38
ATOM     38  C   UNL A   1      44.375  26.217  26.675  1.00  0.00     0.060 A 
ATOM     39  C   UNL A   1      43.628  25.477  27.600  1.00  0.00     0.016 A 
ATOM     40  C   UNL A   1      44.744  27.535  26.948  1.00  0.00     0.016 A 
ATOM     41  C   UNL A   1      43.206  26.070  28.788  1.00  0.00     0.010 A 
ATOM     42  C   UNL A   1      44.315  28.130  28.138  1.00  0.00     0.010 A 
ATOM     43  C   UNL A   1      43.515  27.412  29.048  1.00  0.00    -0.014 A 
BRANCH  43  44
ATOM     44  C   UNL A   1      42.897  28.098  30.208  1.00  0.00     0.031 A 
ATOM     45  C   UNL A   1      41.567  28.779  30.034  1.00  0.00     0.074 A 
ATOM     46  C   UNL A   1      43.503  28.096  31.408  1.00  0.00     0.049 A 
ATOM     47  N   UNL A   1      40.872  29.479  30.895  1.00  0.00    -0.248 NA
ATOM     48  C   UNL A   1      40.938  28.656  28.711  1.00  0.00     0.031 C 
ATOM     49  C   UNL A   1      44.771  27.435  31.710  1.00  0.00     0.029 A 
ATOM     50  N   UNL A   1      43.131  28.674  32.595  1.00  0.00    -0.354 N 
ATOM     51  C   UNL A   1      39.730  29.884  30.217  1.00  0.00     0.074 A 
ATOM     52  C   UNL A   1      39.843  29.386  28.863  1.00  0.00     0.031 C 
ATOM     53  C   UNL A   1      45.075  27.649  33.001  1.00  0.00     0.029 A 
ATOM     54  C   UNL A   1      44.045  28.493  33.603  1.00  0.00     0.049 A 
ATOM     55  H   UNL A   1      42.290  29.171  32.713  1.00  0.00     0.167 HD
ATOM     56  C   UNL A   1      38.677  30.596  30.686  1.00  0.00     0.037 A 
ATOM     57  C   UNL A   1      44.059  28.974  34.861  1.00  0.00     0.037 A 
ATOM     58  C   UNL A   1      38.571  31.091  32.033  1.00  0.00     0.049 A 
ATOM     59  C   UNL A   1      42.916  29.837  35.334  1.00  0.00     0.074 A 
ATOM     60  C   UNL A   1      37.540  31.814  32.610  1.00  0.00     0.029 A 
ATOM     61  N   UNL A   1      39.536  30.922  33.017  1.00  0.00    -0.354 N 
ATOM     62  N   UNL A   1      41.831  30.201  34.694  1.00  0.00    -0.248 NA
ATOM     63  C   UNL A   1      43.000  30.353  36.707  1.00  0.00     0.031 C 
ATOM     64  C   UNL A   1      37.909  32.134  33.920  1.00  0.00     0.029 A 
ATOM     65  C   UNL A   1      39.137  31.552  34.185  1.00  0.00     0.049 A 
ATOM     66  H   UNL A   1      40.379  30.427  32.901  1.00  0.00     0.167 HD
ATOM     67  C   UNL A   1      41.090  30.957  35.593  1.00  0.00     0.074 A 
ATOM     68  C   UNL A   1      41.843  30.987  36.830  1.00  0.00     0.031 C 
ATOM     69  C   UNL A   1      39.892  31.567  35.413  1.00  0.00     0.037 A 
BRANCH  56  70
ATOM     70  C   UNL A   1      37.563  30.906  29.725  1.00  0.00     0.064 A 
ATOM     71  C   UNL A   1      37.447  32.162  29.108  1.00  0.00     0.173 A 
ATOM     72  C   UNL A   1      36.621  29.922  29.389  1.00  0.00     0.173 A 
ATOM     73  F   UNL A   1      38.312  33.142  29.402  1.00  0.00    -0.203 F 
ATOM     74  C   UNL A   1      36.412  32.427  28.213  1.00  0.00     0.198 A 
ATOM     75  C   UNL A   1      35.609  30.180  28.468  1.00  0.00     0.198 A 
ATOM     76  F   UNL A   1      36.688  28.703  29.946  1.00  0.00    -0.203 F 
ATOM     77  F   UNL A   1      36.291  33.648  27.675  1.00  0.00    -0.200 F 
ATOM     78  C   UNL A   1      35.500  31.435  27.888  1.00  0.00     0.200 A 
ATOM     79  F   UNL A   1      34.738  29.215  28.144  1.00  0.00    -0.200 F 
ATOM     80  F   UNL A   1      34.512  31.688  27.020  1.00  0.00    -0.200 F 
ENDBRANCH  56  70
BRANCH  57  81
ATOM     81  C   UNL A   1      45.194  28.657  35.767  1.00  0.00     0.064 A 
ATOM     82  C   UNL A   1      45.149  27.547  36.622  1.00  0.00     0.173 A 
ATOM     83  C   UNL A   1      46.339  29.467  35.811  1.00  0.00     0.173 A 
ATOM     84  F   UNL A   1      44.067  26.757  36.636  1.00  0.00    -0.203 F 
ATOM     85  C   UNL A   1      46.196  27.272  37.500  1.00  0.00     0.198 A 
ATOM     86  C   UNL A   1      47.399  29.172  36.666  1.00  0.00     0.198 A 
ATOM     87  F   UNL A   1      46.433  30.543  35.016  1.00  0.00    -0.203 F 
ATOM     88  F   UNL A   1      46.103  26.234  38.343  1.00  0.00    -0.200 F 
ATOM     89  C   UNL A   1      47.322  28.080  37.516  1.00  0.00     0.200 A 
ATOM     90  F   UNL A   1      48.491  29.948  36.669  1.00  0.00    -0.200 F 
ATOM     91  F   UNL A   1      48.329  27.812  38.359  1.00  0.00    -0.200 F 
ENDBRANCH  57  81
BRANCH  69  92
ATOM     92  C   UNL A   1      39.294  32.283  36.593  1.00  0.00     0.064 A 
ATOM     93  C   UNL A   1      39.693  33.577  36.958  1.00  0.00     0.173 A 
ATOM     94  C   UNL A   1      38.278  31.675  37.348  1.00  0.00     0.173 A 
ATOM     95  F   UNL A   1      40.670  34.199  36.278  1.00  0.00    -0.203 F 
ATOM     96  C   UNL A   1      39.121  34.223  38.050  1.00  0.00     0.198 A 
ATOM     97  C   UNL A   1      37.681  32.340  38.417  1.00  0.00     0.198 A 
ATOM     98  F   UNL A   1      37.850  30.442  37.040  1.00  0.00    -0.203 F 
ATOM     99  F   UNL A   1      39.558  35.437  38.413  1.00  0.00    -0.200 F 
ATOM    100  C   UNL A   1      38.110  33.609  38.773  1.00  0.00     0.200 A 
ATOM    101  F   UNL A   1      36.692  31.749  39.103  1.00  0.00    -0.200 F 
ATOM    102  F   UNL A   1      37.555  34.235  39.819  1.00  0.00    -0.200 F 
ENDBRANCH  69  92
ENDBRANCH  43  44
ENDBRANCH  36  38
ENDBRANCH  35  36
ENDBRANCH  34  35
ENDBRANCH  33  34
ENDBRANCH  32  33
ENDBRANCH   1  32
TORSDOF 19
ENDMDL
MODEL 2
REMARK VINA RESULT:     -10.7      5.448     10.803
REMARK SMILES CCOc1cc(/C=C2/C(=O)N(c3cccc(C(=O)OCCOCCOC(=O)c4ccc(-c5c6nc(c(-c7c(F)c(F)c(F)c(F)c7F)c7ccc([nH]7)c(-c7c(F)c(F)c(F)c(F)c7F)c7nc(c(-c8c(F)c(F)c(F)c(F)c8F)c8ccc5[nH]8)C=C7)C=C6)cc4)c3)N=C2C)cc(Cl)c1OC
REMARK SMILES IDX 21 1 20 2 19 3 17 4 18 5 16 6 12 7 13 8 91 9 14 10 15 11
REMARK SMILES IDX 11 12 7 13 8 14 9 15 93 16 10 17 92 18 94 19 6 20 4 21 5 22
REMARK SMILES IDX 98 23 96 24 95 25 97 26 3 27 2 28 1 29 99 30 100 31 22 32
REMARK SMILES IDX 23 33 24 34 25 35 26 36 27 37 28 38 29 39 90 40 30 41 89 42
REMARK SMILES IDX 31 43 32 44 33 45 83 46 34 47 88 48 82 49 84 50 35 51 87 52
REMARK SMILES IDX 81 53 80 54 36 56 68 57 48 58 67 59 49 60 52 61 66 62 85 63
REMARK SMILES IDX 50 64 51 65 65 67 86 68 53 69 37 70 38 71 46 72 39 73 40 74
REMARK SMILES IDX 44 75 47 76 41 77 42 78 45 79 43 80 69 81 70 82 78 83 71 84
REMARK SMILES IDX 72 85 76 86 79 87 73 88 74 89 77 90 75 91 54 92 55 93 63 94
REMARK SMILES IDX 56 95 57 96 61 97 64 98 58 99 59 100 62 101 60 102
REMARK H PARENT 84 55 52 66
REMARK Flexibility Score: inf
ROOT
ATOM      1  C   UNL A   1      37.986  22.905  26.073  1.00  0.00     0.202 C 
ENDROOT
BRANCH   1   2
ATOM      2  C   UNL A   1      38.380  24.316  26.525  1.00  0.00     0.261 C 
BRANCH   2   3
ATOM      3  O   UNL A   1      39.726  24.366  27.022  1.00  0.00    -0.460 OA
BRANCH   3   4
ATOM      4  C   UNL A   1      40.464  25.423  26.593  1.00  0.00     0.338 C 
ATOM      5  O   UNL A   1      40.662  25.763  25.441  1.00  0.00    -0.246 OA
BRANCH   4   6
ATOM      6  C   UNL A   1      40.831  26.258  27.760  1.00  0.00     0.062 A 
ATOM      7  C   UNL A   1      40.373  28.053  29.322  1.00  0.00     0.070 A 
ATOM      8  C   UNL A   1      41.690  27.955  29.793  1.00  0.00     0.028 A 
ATOM      9  C   UNL A   1      39.952  27.202  28.292  1.00  0.00     0.044 A 
ATOM     10  C   UNL A   1      42.557  26.983  29.288  1.00  0.00     0.003 A 
ATOM     11  C   UNL A   1      42.126  26.130  28.275  1.00  0.00     0.016 A 
BRANCH   7  12
ATOM     12  N   UNL A   1      39.488  28.996  29.880  1.00  0.00    -0.196 N 
ATOM     13  C   UNL A   1      36.795  30.198  31.801  1.00  0.00     0.024 C 
ATOM     14  C   UNL A   1      37.829  30.056  30.964  1.00  0.00     0.065 C 
ATOM     15  C   UNL A   1      38.440  28.725  30.762  1.00  0.00     0.280 C 
ATOM     16  C   UNL A   1      38.626  30.960  30.112  1.00  0.00     0.071 C 
ATOM     17  O   UNL A   1      38.076  27.686  31.291  1.00  0.00    -0.267 OA
ATOM     18  N   UNL A   1      39.605  30.331  29.513  1.00  0.00    -0.169 NA
ATOM     19  C   UNL A   1      38.358  32.414  29.908  1.00  0.00     0.069 C 
BRANCH  13  20
ATOM     20  C   UNL A   1      36.091  31.439  32.085  1.00  0.00    -0.019 A 
ATOM     21  C   UNL A   1      34.605  33.203  31.380  1.00  0.00     0.163 A 
ATOM     22  C   UNL A   1      35.319  32.037  31.098  1.00  0.00     0.058 A 
ATOM     23  C   UNL A   1      34.685  33.834  32.644  1.00  0.00     0.179 A 
ATOM     24  C   UNL A   1      35.509  33.242  33.616  1.00  0.00     0.087 A 
ATOM     25  C   UNL A   1      36.213  32.063  33.324  1.00  0.00     0.032 A 
ATOM     26  Cl  UNL A   1      35.753  33.810  35.233  1.00  0.00    -0.080 Cl
BRANCH  21  27
ATOM     27  O   UNL A   1      33.927  33.817  30.351  1.00  0.00    -0.490 OA
BRANCH  27  28
ATOM     28  C   UNL A   1      34.183  33.244  29.062  1.00  0.00     0.226 C 
ATOM     29  C   UNL A   1      34.909  34.216  28.141  1.00  0.00     0.049 C 
ENDBRANCH  27  28
ENDBRANCH  21  27
BRANCH  23  30
ATOM     30  O   UNL A   1      33.905  34.956  32.739  1.00  0.00    -0.491 OA
ATOM     31  C   UNL A   1      34.491  36.246  32.738  1.00  0.00     0.278 C 
ENDBRANCH  23  30
ENDBRANCH  13  20
ENDBRANCH   7  12
ENDBRANCH   4   6
ENDBRANCH   3   4
ENDBRANCH   2   3
ENDBRANCH   1   2
BRANCH   1  32
ATOM     32  O   UNL A   1      39.037  21.978  25.809  1.00  0.00    -0.374 OA
BRANCH  32  33
ATOM     33  C   UNL A   1      38.672  20.634  25.501  1.00  0.00     0.202 C 
BRANCH  33  34
ATOM     34  C   UNL A   1      39.652  19.521  25.891  1.00  0.00     0.261 C 
BRANCH  34  35
ATOM     35  O   UNL A   1      40.855  19.533  25.104  1.00  0.00    -0.460 OA
BRANCH  35  36
ATOM     36  C   UNL A   1      41.984  19.249  25.798  1.00  0.00     0.338 C 
ATOM     37  O   UNL A   1      42.436  18.149  26.066  1.00  0.00    -0.246 OA
BRANCH  36  38
ATOM     38  C   UNL A   1      42.730  20.492  26.065  1.00  0.00     0.060 A 
ATOM     39  C   UNL A   1      44.080  20.532  25.695  1.00  0.00     0.016 A 
ATOM     40  C   UNL A   1      42.143  21.566  26.734  1.00  0.00     0.016 A 
ATOM     41  C   UNL A   1      44.863  21.632  26.036  1.00  0.00     0.010 A 
ATOM     42  C   UNL A   1      42.931  22.667  27.081  1.00  0.00     0.010 A 
ATOM     43  C   UNL A   1      44.303  22.691  26.764  1.00  0.00    -0.014 A 
BRANCH  43  44
ATOM     44  C   UNL A   1      45.179  23.760  27.301  1.00  0.00     0.031 A 
ATOM     45  C   UNL A   1      45.074  24.134  28.754  1.00  0.00     0.074 A 
ATOM     46  C   UNL A   1      46.075  24.375  26.509  1.00  0.00     0.049 A 
ATOM     47  N   UNL A   1      45.702  25.069  29.420  1.00  0.00    -0.248 NA
ATOM     48  C   UNL A   1      44.130  23.349  29.564  1.00  0.00     0.031 C 
ATOM     49  C   UNL A   1      46.299  24.070  25.097  1.00  0.00     0.029 A 
ATOM     50  N   UNL A   1      46.958  25.388  26.781  1.00  0.00    -0.354 N 
ATOM     51  C   UNL A   1      45.226  24.989  30.723  1.00  0.00     0.074 A 
ATOM     52  C   UNL A   1      44.228  23.943  30.745  1.00  0.00     0.031 C 
ATOM     53  C   UNL A   1      47.258  24.884  24.625  1.00  0.00     0.029 A 
ATOM     54  C   UNL A   1      47.685  25.791  25.688  1.00  0.00     0.049 A 
ATOM     55  H   UNL A   1      47.062  25.788  27.675  1.00  0.00     0.167 HD
ATOM     56  C   UNL A   1      45.598  25.717  31.804  1.00  0.00     0.037 A 
ATOM     57  C   UNL A   1      48.575  26.793  25.558  1.00  0.00     0.037 A 
ATOM     58  C   UNL A   1      46.590  26.760  31.775  1.00  0.00     0.049 A 
ATOM     59  C   UNL A   1      48.908  27.645  26.756  1.00  0.00     0.074 A 
ATOM     60  C   UNL A   1      47.045  27.548  32.818  1.00  0.00     0.029 A 
ATOM     61  N   UNL A   1      47.277  27.167  30.639  1.00  0.00    -0.354 N 
ATOM     62  N   UNL A   1      48.468  27.553  27.988  1.00  0.00    -0.248 NA
ATOM     63  C   UNL A   1      49.866  28.739  26.545  1.00  0.00     0.031 C 
ATOM     64  C   UNL A   1      47.960  28.471  32.303  1.00  0.00     0.029 A 
ATOM     65  C   UNL A   1      48.130  28.215  30.952  1.00  0.00     0.049 A 
ATOM     66  H   UNL A   1      47.174  26.770  29.745  1.00  0.00     0.167 HD
ATOM     67  C   UNL A   1      49.119  28.550  28.704  1.00  0.00     0.074 A 
ATOM     68  C   UNL A   1      49.996  29.227  27.770  1.00  0.00     0.031 C 
ATOM     69  C   UNL A   1      49.004  28.875  30.016  1.00  0.00     0.037 A 
BRANCH  56  70
ATOM     70  C   UNL A   1      44.909  25.427  33.108  1.00  0.00     0.064 A 
ATOM     71  C   UNL A   1      45.431  24.507  34.031  1.00  0.00     0.173 A 
ATOM     72  C   UNL A   1      43.731  26.105  33.454  1.00  0.00     0.173 A 
ATOM     73  F   UNL A   1      46.548  23.822  33.745  1.00  0.00    -0.203 F 
ATOM     74  C   UNL A   1      44.782  24.258  35.239  1.00  0.00     0.198 A 
ATOM     75  C   UNL A   1      43.105  25.879  34.677  1.00  0.00     0.198 A 
ATOM     76  F   UNL A   1      43.191  26.999  32.611  1.00  0.00    -0.203 F 
ATOM     77  F   UNL A   1      45.271  23.339  36.082  1.00  0.00    -0.200 F 
ATOM     78  C   UNL A   1      43.626  24.949  35.564  1.00  0.00     0.200 A 
ATOM     79  F   UNL A   1      41.995  26.559  34.996  1.00  0.00    -0.200 F 
ATOM     80  F   UNL A   1      43.008  24.715  36.730  1.00  0.00    -0.200 F 
ENDBRANCH  56  70
BRANCH  57  81
ATOM     81  C   UNL A   1      49.214  27.054  24.241  1.00  0.00     0.064 A 
ATOM     82  C   UNL A   1      48.493  27.644  23.192  1.00  0.00     0.173 A 
ATOM     83  C   UNL A   1      50.550  26.705  23.997  1.00  0.00     0.173 A 
ATOM     84  F   UNL A   1      47.206  27.973  23.367  1.00  0.00    -0.203 F 
ATOM     85  C   UNL A   1      49.079  27.852  21.945  1.00  0.00     0.198 A 
ATOM     86  C   UNL A   1      51.145  26.943  22.760  1.00  0.00     0.198 A 
ATOM     87  F   UNL A   1      51.283  26.136  24.966  1.00  0.00    -0.203 F 
ATOM     88  F   UNL A   1      48.352  28.368  20.945  1.00  0.00    -0.200 F 
ATOM     89  C   UNL A   1      50.405  27.508  21.732  1.00  0.00     0.200 A 
ATOM     90  F   UNL A   1      52.430  26.622  22.563  1.00  0.00    -0.200 F 
ATOM     91  F   UNL A   1      50.968  27.712  20.533  1.00  0.00    -0.200 F 
ENDBRANCH  57  81
BRANCH  69  92
ATOM     92  C   UNL A   1      49.881  29.981  30.536  1.00  0.00     0.064 A 
ATOM     93  C   UNL A   1      49.492  31.327  30.475  1.00  0.00     0.173 A 
ATOM     94  C   UNL A   1      51.113  29.682  31.140  1.00  0.00     0.173 A 
ATOM     95  F   UNL A   1      48.330  31.669  29.898  1.00  0.00    -0.203 F 
ATOM     96  C   UNL A   1      50.317  32.334  30.970  1.00  0.00     0.198 A 
ATOM     97  C   UNL A   1      51.918  30.689  31.667  1.00  0.00     0.198 A 
ATOM     98  F   UNL A   1      51.531  28.412  31.233  1.00  0.00    -0.203 F 
ATOM     99  F   UNL A   1      49.950  33.618  30.850  1.00  0.00    -0.200 F 
ATOM    100  C   UNL A   1      51.524  32.015  31.572  1.00  0.00     0.200 A 
ATOM    101  F   UNL A   1      53.076  30.375  32.264  1.00  0.00    -0.200 F 
ATOM    102  F   UNL A   1      52.312  32.985  32.055  1.00  0.00    -0.200 F 
ENDBRANCH  69  92
ENDBRANCH  43  44
ENDBRANCH  36  38
ENDBRANCH  35  36
ENDBRANCH  34  35
ENDBRANCH  33  34
ENDBRANCH  32  33
ENDBRANCH   1  32
TORSDOF 19
ENDMDL
MODEL 3
REMARK VINA RESULT:     -10.7      6.580     11.729
REMARK SMILES CCOc1cc(/C=C2/C(=O)N(c3cccc(C(=O)OCCOCCOC(=O)c4ccc(-c5c6nc(c(-c7c(F)c(F)c(F)c(F)c7F)c7ccc([nH]7)c(-c7c(F)c(F)c(F)c(F)c7F)c7nc(c(-c8c(F)c(F)c(F)c(F)c8F)c8ccc5[nH]8)C=C7)C=C6)cc4)c3)N=C2C)cc(Cl)c1OC
REMARK SMILES IDX 21 1 20 2 19 3 17 4 18 5 16 6 12 7 13 8 91 9 14 10 15 11
REMARK SMILES IDX 11 12 7 13 8 14 9 15 93 16 10 17 92 18 94 19 6 20 4 21 5 22
REMARK SMILES IDX 98 23 96 24 95 25 97 26 3 27 2 28 1 29 99 30 100 31 22 32
REMARK SMILES IDX 23 33 24 34 25 35 26 36 27 37 28 38 29 39 90 40 30 41 89 42
REMARK SMILES IDX 31 43 32 44 33 45 83 46 34 47 88 48 82 49 84 50 35 51 87 52
REMARK SMILES IDX 81 53 80 54 36 56 68 57 48 58 67 59 49 60 52 61 66 62 85 63
REMARK SMILES IDX 50 64 51 65 65 67 86 68 53 69 37 70 38 71 46 72 39 73 40 74
REMARK SMILES IDX 44 75 47 76 41 77 42 78 45 79 43 80 69 81 70 82 78 83 71 84
REMARK SMILES IDX 72 85 76 86 79 87 73 88 74 89 77 90 75 91 54 92 55 93 63 94
REMARK SMILES IDX 56 95 57 96 61 97 64 98 58 99 59 100 62 101 60 102
REMARK H PARENT 84 55 52 66
REMARK Flexibility Score: inf
ROOT
ATOM      1  C   UNL A   1      34.336  34.589  32.159  1.00  0.00     0.202 C 
ENDROOT
BRANCH   1   2
ATOM      2  C   UNL A   1      34.348  33.587  33.319  1.00  0.00     0.261 C 
BRANCH   2   3
ATOM      3  O   UNL A   1      35.583  32.858  33.388  1.00  0.00    -0.460 OA
BRANCH   3   4
ATOM      4  C   UNL A   1      36.291  33.024  34.536  1.00  0.00     0.338 C 
ATOM      5  O   UNL A   1      35.983  33.702  35.499  1.00  0.00    -0.246 OA
BRANCH   4   6
ATOM      6  C   UNL A   1      37.423  32.070  34.544  1.00  0.00     0.062 A 
ATOM      7  C   UNL A   1      38.766  30.350  33.489  1.00  0.00     0.070 A 
ATOM      8  C   UNL A   1      39.404  30.121  34.717  1.00  0.00     0.028 A 
ATOM      9  C   UNL A   1      37.763  31.325  33.413  1.00  0.00     0.044 A 
ATOM     10  C   UNL A   1      39.091  30.893  35.838  1.00  0.00     0.003 A 
ATOM     11  C   UNL A   1      38.105  31.872  35.751  1.00  0.00     0.016 A 
BRANCH   7  12
ATOM     12  N   UNL A   1      39.131  29.606  32.350  1.00  0.00    -0.196 N 
ATOM     13  C   UNL A   1      38.690  27.605  29.489  1.00  0.00     0.024 C 
ATOM     14  C   UNL A   1      39.179  28.305  30.519  1.00  0.00     0.065 C 
ATOM     15  C   UNL A   1      38.259  28.955  31.475  1.00  0.00     0.280 C 
ATOM     16  C   UNL A   1      40.526  28.661  31.004  1.00  0.00     0.071 C 
ATOM     17  O   UNL A   1      37.039  28.909  31.434  1.00  0.00    -0.267 OA
ATOM     18  N   UNL A   1      40.478  29.443  32.052  1.00  0.00    -0.169 NA
ATOM     19  C   UNL A   1      41.811  28.180  30.417  1.00  0.00     0.069 C 
BRANCH  13  20
ATOM     20  C   UNL A   1      39.474  26.905  28.483  1.00  0.00    -0.019 A 
ATOM     21  C   UNL A   1      40.865  26.957  26.513  1.00  0.00     0.163 A 
ATOM     22  C   UNL A   1      40.074  27.619  27.454  1.00  0.00     0.058 A 
ATOM     23  C   UNL A   1      41.035  25.552  26.544  1.00  0.00     0.179 A 
ATOM     24  C   UNL A   1      40.380  24.840  27.564  1.00  0.00     0.087 A 
ATOM     25  C   UNL A   1      39.598  25.519  28.511  1.00  0.00     0.032 A 
ATOM     26  Cl  UNL A   1      40.451  23.130  27.822  1.00  0.00    -0.080 Cl
BRANCH  21  27
ATOM     27  O   UNL A   1      41.366  27.683  25.457  1.00  0.00    -0.490 OA
BRANCH  27  28
ATOM     28  C   UNL A   1      42.121  28.836  25.849  1.00  0.00     0.226 C 
ATOM     29  C   UNL A   1      43.471  28.458  26.445  1.00  0.00     0.049 C 
ENDBRANCH  27  28
ENDBRANCH  21  27
BRANCH  23  30
ATOM     30  O   UNL A   1      41.856  25.085  25.552  1.00  0.00    -0.491 OA
ATOM     31  C   UNL A   1      43.124  24.535  25.863  1.00  0.00     0.278 C 
ENDBRANCH  23  30
ENDBRANCH  13  20
ENDBRANCH   7  12
ENDBRANCH   4   6
ENDBRANCH   3   4
ENDBRANCH   2   3
ENDBRANCH   1   2
BRANCH   1  32
ATOM     32  O   UNL A   1      33.618  34.227  30.981  1.00  0.00    -0.374 OA
BRANCH  32  33
ATOM     33  C   UNL A   1      34.370  34.002  29.790  1.00  0.00     0.202 C 
BRANCH  33  34
ATOM     34  C   UNL A   1      34.495  32.558  29.288  1.00  0.00     0.261 C 
BRANCH  34  35
ATOM     35  O   UNL A   1      35.668  31.892  29.786  1.00  0.00    -0.460 OA
BRANCH  35  36
ATOM     36  C   UNL A   1      36.623  31.661  28.852  1.00  0.00     0.338 C 
ATOM     37  O   UNL A   1      36.511  31.032  27.813  1.00  0.00    -0.246 OA
BRANCH  36  38
ATOM     38  C   UNL A   1      37.832  32.439  29.175  1.00  0.00     0.060 A 
ATOM     39  C   UNL A   1      38.954  31.736  29.633  1.00  0.00     0.016 A 
ATOM     40  C   UNL A   1      37.844  33.832  29.108  1.00  0.00     0.016 A 
ATOM     41  C   UNL A   1      40.080  32.430  30.071  1.00  0.00     0.010 A 
ATOM     42  C   UNL A   1      38.972  34.528  29.553  1.00  0.00     0.010 A 
ATOM     43  C   UNL A   1      40.082  33.831  30.068  1.00  0.00    -0.014 A 
BRANCH  43  44
ATOM     44  C   UNL A   1      41.192  34.567  30.721  1.00  0.00     0.031 A 
ATOM     45  C   UNL A   1      41.262  34.609  32.222  1.00  0.00     0.074 A 
ATOM     46  C   UNL A   1      42.140  35.171  29.983  1.00  0.00     0.049 A 
ATOM     47  N   UNL A   1      42.111  35.233  32.999  1.00  0.00    -0.248 NA
ATOM     48  C   UNL A   1      40.232  33.848  32.946  1.00  0.00     0.031 C 
ATOM     49  C   UNL A   1      42.204  35.164  28.524  1.00  0.00     0.029 A 
ATOM     50  N   UNL A   1      43.229  35.913  30.366  1.00  0.00    -0.354 N 
ATOM     51  C   UNL A   1      41.716  34.945  34.299  1.00  0.00     0.074 A 
ATOM     52  C   UNL A   1      40.528  34.124  34.207  1.00  0.00     0.031 C 
ATOM     53  C   UNL A   1      43.276  35.873  28.132  1.00  0.00     0.029 A 
ATOM     54  C   UNL A   1      43.949  36.416  29.311  1.00  0.00     0.049 A 
ATOM     55  H   UNL A   1      43.471  36.070  31.308  1.00  0.00     0.167 HD
ATOM     56  C   UNL A   1      42.300  35.322  35.462  1.00  0.00     0.037 A 
ATOM     57  C   UNL A   1      45.015  37.239  29.300  1.00  0.00     0.037 A 
ATOM     58  C   UNL A   1      43.480  36.141  35.547  1.00  0.00     0.049 A 
ATOM     59  C   UNL A   1      45.594  37.715  30.607  1.00  0.00     0.074 A 
ATOM     60  C   UNL A   1      44.155  36.569  36.678  1.00  0.00     0.029 A 
ATOM     61  N   UNL A   1      44.159  36.665  34.455  1.00  0.00    -0.354 N 
ATOM     62  N   UNL A   1      45.227  37.424  31.832  1.00  0.00    -0.248 NA
ATOM     63  C   UNL A   1      46.740  38.631  30.530  1.00  0.00     0.031 C 
ATOM     64  C   UNL A   1      45.203  37.402  36.273  1.00  0.00     0.029 A 
ATOM     65  C   UNL A   1      45.227  37.436  34.888  1.00  0.00     0.049 A 
ATOM     66  H   UNL A   1      43.918  36.511  33.514  1.00  0.00     0.167 HD
ATOM     67  C   UNL A   1      46.114  38.092  32.668  1.00  0.00     0.074 A 
ATOM     68  C   UNL A   1      47.047  38.792  31.809  1.00  0.00     0.031 C 
ATOM     69  C   UNL A   1      46.155  38.121  34.023  1.00  0.00     0.037 A 
BRANCH  56  70
ATOM     70  C   UNL A   1      41.653  34.872  36.742  1.00  0.00     0.064 A 
ATOM     71  C   UNL A   1      40.610  35.598  37.339  1.00  0.00     0.173 A 
ATOM     72  C   UNL A   1      42.057  33.679  37.361  1.00  0.00     0.173 A 
ATOM     73  F   UNL A   1      40.193  36.752  36.798  1.00  0.00    -0.203 F 
ATOM     74  C   UNL A   1      40.017  35.160  38.522  1.00  0.00     0.198 A 
ATOM     75  C   UNL A   1      41.438  33.227  38.523  1.00  0.00     0.198 A 
ATOM     76  F   UNL A   1      43.045  32.943  36.830  1.00  0.00    -0.203 F 
ATOM     77  F   UNL A   1      39.059  35.896  39.101  1.00  0.00    -0.200 F 
ATOM     78  C   UNL A   1      40.425  33.972  39.108  1.00  0.00     0.200 A 
ATOM     79  F   UNL A   1      41.824  32.070  39.079  1.00  0.00    -0.200 F 
ATOM     80  F   UNL A   1      39.848  33.547  40.239  1.00  0.00    -0.200 F 
ENDBRANCH  56  70
BRANCH  57  81
ATOM     81  C   UNL A   1      45.605  37.674  28.006  1.00  0.00     0.064 A 
ATOM     82  C   UNL A   1      46.634  36.940  27.398  1.00  0.00     0.173 A 
ATOM     83  C   UNL A   1      45.167  38.839  27.360  1.00  0.00     0.173 A 
ATOM     84  F   UNL A   1      47.105  35.833  27.989  1.00  0.00    -0.203 F 
ATOM     85  C   UNL A   1      47.216  37.368  26.207  1.00  0.00     0.198 A 
ATOM     86  C   UNL A   1      45.727  39.249  26.152  1.00  0.00     0.198 A 
ATOM     87  F   UNL A   1      44.187  39.579  27.900  1.00  0.00    -0.203 F 
ATOM     88  F   UNL A   1      48.234  36.676  25.676  1.00  0.00    -0.200 F 
ATOM     89  C   UNL A   1      46.757  38.517  25.581  1.00  0.00     0.200 A 
ATOM     90  F   UNL A   1      45.271  40.352  25.544  1.00  0.00    -0.200 F 
ATOM     91  F   UNL A   1      47.316  38.926  24.433  1.00  0.00    -0.200 F 
ENDBRANCH  57  81
BRANCH  69  92
ATOM     92  C   UNL A   1      47.271  38.895  34.667  1.00  0.00     0.064 A 
ATOM     93  C   UNL A   1      48.515  38.310  34.951  1.00  0.00     0.173 A 
ATOM     94  C   UNL A   1      47.105  40.257  34.968  1.00  0.00     0.173 A 
ATOM     95  F   UNL A   1      48.723  37.009  34.694  1.00  0.00    -0.203 F 
ATOM     96  C   UNL A   1      49.536  39.050  35.541  1.00  0.00     0.198 A 
ATOM     97  C   UNL A   1      48.143  41.002  35.524  1.00  0.00     0.198 A 
ATOM     98  F   UNL A   1      45.942  40.871  34.711  1.00  0.00    -0.203 F 
ATOM     99  F   UNL A   1      50.696  38.454  35.854  1.00  0.00    -0.200 F 
ATOM    100  C   UNL A   1      49.354  40.395  35.819  1.00  0.00     0.200 A 
ATOM    101  F   UNL A   1      47.968  42.307  35.776  1.00  0.00    -0.200 F 
ATOM    102  F   UNL A   1      50.342  41.106  36.379  1.00  0.00    -0.200 F 
ENDBRANCH  69  92
ENDBRANCH  43  44
ENDBRANCH  36  38
ENDBRANCH  35  36
ENDBRANCH  34  35
ENDBRANCH  33  34
ENDBRANCH  32  33
ENDBRANCH   1  32
TORSDOF 19
ENDMDL
