MODEL 1
REMARK VINA RESULT:     -11.6      0.000      0.000
REMARK SMILES COc1ccc(/C=N/Nc2cccc(C(=O)OCCOCCOC(=O)c3ccc(-c4c5nc(c(-c6c(F)c(F)c(F)c(F)c6F)c6ccc([nH]6)c(-c6c(F)c(F)c(F)c(F)c6F)c6nc(c(-c7c(F)c(F)c(F)c(F)c7F)c7ccc4[nH]7)C=C6)C=C5)cc3)c2)cc1O
REMARK SMILES IDX 19 1 18 2 17 3 15 4 16 5 14 6 10 7 11 8 89 9 12 10 13 11
REMARK SMILES IDX 9 12 8 14 7 15 6 16 3 17 4 18 91 19 5 20 90 21 2 22 1 23
REMARK SMILES IDX 92 24 20 26 21 27 22 28 23 29 24 30 25 31 26 32 27 33 88 34
REMARK SMILES IDX 28 35 87 36 29 37 30 38 31 39 81 40 32 41 86 42 80 43 82 44
REMARK SMILES IDX 33 45 85 46 79 47 78 48 34 50 66 51 46 52 65 53 47 54 50 55
REMARK SMILES IDX 64 56 83 57 48 58 49 59 63 61 84 62 51 63 35 64 36 65 44 66
REMARK SMILES IDX 37 67 38 68 42 69 45 70 39 71 40 72 43 73 41 74 67 75 68 76
REMARK SMILES IDX 76 77 69 78 70 79 74 80 77 81 71 82 72 83 75 84 73 85 52 86
REMARK SMILES IDX 53 87 61 88 54 89 55 90 59 91 62 92 56 93 57 94 60 95 58 96
REMARK H PARENT 9 13 92 25 82 49 50 60
REMARK Flexibility Score: inf
ROOT
ATOM      1  C   UNL A   1      40.440  20.652  26.532  1.00  0.00     0.202 C 
ENDROOT
BRANCH   1   2
ATOM      2  C   UNL A   1      39.576  21.843  26.105  1.00  0.00     0.261 C 
BRANCH   2   3
ATOM      3  O   UNL A   1      38.269  21.401  25.705  1.00  0.00    -0.460 OA
BRANCH   3   4
ATOM      4  C   UNL A   1      37.305  22.352  25.701  1.00  0.00     0.338 C 
ATOM      5  O   UNL A   1      37.468  23.557  25.836  1.00  0.00    -0.246 OA
BRANCH   4   6
ATOM      6  C   UNL A   1      35.997  21.749  25.353  1.00  0.00     0.062 A 
ATOM      7  C   UNL A   1      33.608  21.915  24.910  1.00  0.00     0.057 A 
ATOM      8  C   UNL A   1      33.591  20.535  24.656  1.00  0.00     0.028 A 
ATOM      9  C   UNL A   1      34.819  22.505  25.296  1.00  0.00     0.043 A 
ATOM     10  C   UNL A   1      34.752  19.766  24.761  1.00  0.00     0.003 A 
ATOM     11  C   UNL A   1      35.958  20.376  25.091  1.00  0.00     0.016 A 
BRANCH   7  12
ATOM     12  N   UNL A   1      32.441  22.660  24.636  1.00  0.00    -0.278 N 
ATOM     13  H   UNL A   1      31.677  22.175  24.247  1.00  0.00     0.190 HD
BRANCH  12  14
ATOM     14  N   UNL A   1      32.285  23.992  24.863  1.00  0.00    -0.183 NA
ATOM     15  C   UNL A   1      31.786  24.684  23.888  1.00  0.00     0.141 C 
BRANCH  15  16
ATOM     16  C   UNL A   1      31.553  26.129  23.993  1.00  0.00    -0.002 A 
ATOM     17  C   UNL A   1      30.903  28.847  24.175  1.00  0.00     0.160 A 
ATOM     18  C   UNL A   1      31.327  28.130  25.304  1.00  0.00     0.051 A 
ATOM     19  C   UNL A   1      30.854  28.186  22.944  1.00  0.00     0.158 A 
ATOM     20  C   UNL A   1      31.658  26.776  25.220  1.00  0.00     0.014 A 
ATOM     21  C   UNL A   1      31.168  26.829  22.848  1.00  0.00     0.060 A 
BRANCH  17  22
ATOM     22  O   UNL A   1      30.612  30.150  24.458  1.00  0.00    -0.493 OA
ATOM     23  C   UNL A   1      31.283  30.782  25.535  1.00  0.00     0.278 C 
ENDBRANCH  17  22
BRANCH  19  24
ATOM     24  O   UNL A   1      30.525  28.794  21.766  1.00  0.00    -0.504 OA
ATOM     25  H   UNL A   1      31.199  29.086  21.185  1.00  0.00     0.293 HD
ENDBRANCH  19  24
ENDBRANCH  15  16
ENDBRANCH  12  14
ENDBRANCH   7  12
ENDBRANCH   4   6
ENDBRANCH   3   4
ENDBRANCH   2   3
ENDBRANCH   1   2
BRANCH   1  26
ATOM     26  O   UNL A   1      41.599  20.401  25.736  1.00  0.00    -0.374 OA
BRANCH  26  27
ATOM     27  C   UNL A   1      42.856  20.828  26.262  1.00  0.00     0.202 C 
BRANCH  27  28
ATOM     28  C   UNL A   1      43.724  21.691  25.339  1.00  0.00     0.261 C 
BRANCH  28  29
ATOM     29  O   UNL A   1      43.014  22.842  24.851  1.00  0.00    -0.460 OA
BRANCH  29  30
ATOM     30  C   UNL A   1      43.696  24.007  24.938  1.00  0.00     0.338 C 
ATOM     31  O   UNL A   1      44.670  24.348  24.282  1.00  0.00    -0.246 OA
BRANCH  30  32
ATOM     32  C   UNL A   1      42.999  24.933  25.848  1.00  0.00     0.060 A 
ATOM     33  C   UNL A   1      43.509  26.233  25.963  1.00  0.00     0.016 A 
ATOM     34  C   UNL A   1      41.916  24.525  26.630  1.00  0.00     0.016 A 
ATOM     35  C   UNL A   1      42.974  27.113  26.899  1.00  0.00     0.010 A 
ATOM     36  C   UNL A   1      41.384  25.408  27.576  1.00  0.00     0.010 A 
ATOM     37  C   UNL A   1      41.934  26.693  27.740  1.00  0.00    -0.014 A 
BRANCH  37  38
ATOM     38  C   UNL A   1      41.525  27.548  28.881  1.00  0.00     0.031 A 
ATOM     39  C   UNL A   1      42.310  27.479  30.163  1.00  0.00     0.074 A 
ATOM     40  C   UNL A   1      40.490  28.397  28.768  1.00  0.00     0.049 A 
ATOM     41  N   UNL A   1      42.109  28.103  31.296  1.00  0.00    -0.248 NA
ATOM     42  C   UNL A   1      43.475  26.581  30.170  1.00  0.00     0.031 C 
ATOM     43  C   UNL A   1      39.670  28.582  27.571  1.00  0.00     0.029 A 
ATOM     44  N   UNL A   1      39.945  29.261  29.686  1.00  0.00    -0.354 N 
ATOM     45  C   UNL A   1      43.114  27.668  32.150  1.00  0.00     0.074 A 
ATOM     46  C   UNL A   1      43.908  26.707  31.416  1.00  0.00     0.031 C 
ATOM     47  C   UNL A   1      38.720  29.497  27.831  1.00  0.00     0.029 A 
ATOM     48  C   UNL A   1      38.848  29.939  29.217  1.00  0.00     0.049 A 
ATOM     49  H   UNL A   1      40.309  29.382  30.593  1.00  0.00     0.167 HD
ATOM     50  C   UNL A   1      43.356  28.042  33.430  1.00  0.00     0.037 A 
ATOM     51  C   UNL A   1      38.030  30.801  29.849  1.00  0.00     0.037 A 
ATOM     52  C   UNL A   1      42.571  29.004  34.158  1.00  0.00     0.049 A 
ATOM     53  C   UNL A   1      38.281  31.147  31.293  1.00  0.00     0.074 A 
ATOM     54  C   UNL A   1      42.753  29.468  35.449  1.00  0.00     0.029 A 
ATOM     55  N   UNL A   1      41.446  29.643  33.660  1.00  0.00    -0.354 N 
ATOM     56  N   UNL A   1      39.243  30.747  32.087  1.00  0.00    -0.248 NA
ATOM     57  C   UNL A   1      37.325  32.066  31.926  1.00  0.00     0.031 C 
ATOM     58  C   UNL A   1      41.710  30.348  35.751  1.00  0.00     0.029 A 
ATOM     59  C   UNL A   1      40.910  30.478  34.628  1.00  0.00     0.049 A 
ATOM     60  H   UNL A   1      41.081  29.523  32.753  1.00  0.00     0.167 HD
ATOM     61  C   UNL A   1      39.025  31.386  33.301  1.00  0.00     0.074 A 
ATOM     62  C   UNL A   1      37.845  32.207  33.137  1.00  0.00     0.031 C 
ATOM     63  C   UNL A   1      39.740  31.299  34.450  1.00  0.00     0.037 A 
BRANCH  50  64
ATOM     64  C   UNL A   1      44.509  27.393  34.139  1.00  0.00     0.064 A 
ATOM     65  C   UNL A   1      45.793  27.955  34.126  1.00  0.00     0.173 A 
ATOM     66  C   UNL A   1      44.311  26.221  34.886  1.00  0.00     0.173 A 
ATOM     67  F   UNL A   1      46.037  29.068  33.419  1.00  0.00    -0.203 F 
ATOM     68  C   UNL A   1      46.844  27.355  34.818  1.00  0.00     0.198 A 
ATOM     69  C   UNL A   1      45.356  25.642  35.598  1.00  0.00     0.198 A 
ATOM     70  F   UNL A   1      43.100  25.647  34.935  1.00  0.00    -0.203 F 
ATOM     71  F   UNL A   1      48.072  27.888  34.760  1.00  0.00    -0.200 F 
ATOM     72  C   UNL A   1      46.622  26.205  35.560  1.00  0.00     0.200 A 
ATOM     73  F   UNL A   1      45.136  24.537  36.327  1.00  0.00    -0.200 F 
ATOM     74  F   UNL A   1      47.630  25.637  36.236  1.00  0.00    -0.200 F 
ENDBRANCH  50  64
BRANCH  51  75
ATOM     75  C   UNL A   1      36.867  31.388  29.137  1.00  0.00     0.064 A 
ATOM     76  C   UNL A   1      36.831  32.752  28.815  1.00  0.00     0.173 A 
ATOM     77  C   UNL A   1      35.744  30.610  28.827  1.00  0.00     0.173 A 
ATOM     78  F   UNL A   1      37.867  33.543  29.131  1.00  0.00    -0.203 F 
ATOM     79  C   UNL A   1      35.704  33.320  28.226  1.00  0.00     0.198 A 
ATOM     80  C   UNL A   1      34.625  31.178  28.226  1.00  0.00     0.198 A 
ATOM     81  F   UNL A   1      35.728  29.302  29.125  1.00  0.00    -0.203 F 
ATOM     82  F   UNL A   1      35.671  34.637  27.977  1.00  0.00    -0.200 F 
ATOM     83  C   UNL A   1      34.603  32.532  27.929  1.00  0.00     0.200 A 
ATOM     84  F   UNL A   1      33.555  30.420  27.955  1.00  0.00    -0.200 F 
ATOM     85  F   UNL A   1      33.514  33.078  27.372  1.00  0.00    -0.200 F 
ENDBRANCH  51  75
BRANCH  63  86
ATOM     86  C   UNL A   1      39.298  32.150  35.605  1.00  0.00     0.064 A 
ATOM     87  C   UNL A   1      38.420  31.667  36.585  1.00  0.00     0.173 A 
ATOM     88  C   UNL A   1      39.790  33.456  35.748  1.00  0.00     0.173 A 
ATOM     89  F   UNL A   1      37.907  30.431  36.484  1.00  0.00    -0.203 F 
ATOM     90  C   UNL A   1      38.031  32.470  37.655  1.00  0.00     0.198 A 
ATOM     91  C   UNL A   1      39.424  34.245  36.836  1.00  0.00     0.198 A 
ATOM     92  F   UNL A   1      40.637  33.964  34.841  1.00  0.00    -0.203 F 
ATOM     93  F   UNL A   1      37.153  32.005  38.555  1.00  0.00    -0.200 F 
ATOM     94  C   UNL A   1      38.539  33.754  37.783  1.00  0.00     0.200 A 
ATOM     95  F   UNL A   1      39.927  35.480  36.965  1.00  0.00    -0.200 F 
ATOM     96  F   UNL A   1      38.170  34.522  38.817  1.00  0.00    -0.200 F 
ENDBRANCH  63  86
ENDBRANCH  37  38
ENDBRANCH  30  32
ENDBRANCH  29  30
ENDBRANCH  28  29
ENDBRANCH  27  28
ENDBRANCH  26  27
ENDBRANCH   1  26
TORSDOF 19
ENDMDL
MODEL 2
REMARK VINA RESULT:     -11.3      1.760      2.997
REMARK SMILES COc1ccc(/C=N/Nc2cccc(C(=O)OCCOCCOC(=O)c3ccc(-c4c5nc(c(-c6c(F)c(F)c(F)c(F)c6F)c6ccc([nH]6)c(-c6c(F)c(F)c(F)c(F)c6F)c6nc(c(-c7c(F)c(F)c(F)c(F)c7F)c7ccc4[nH]7)C=C6)C=C5)cc3)c2)cc1O
REMARK SMILES IDX 19 1 18 2 17 3 15 4 16 5 14 6 10 7 11 8 89 9 12 10 13 11
REMARK SMILES IDX 9 12 8 14 7 15 6 16 3 17 4 18 91 19 5 20 90 21 2 22 1 23
REMARK SMILES IDX 92 24 20 26 21 27 22 28 23 29 24 30 25 31 26 32 27 33 88 34
REMARK SMILES IDX 28 35 87 36 29 37 30 38 31 39 81 40 32 41 86 42 80 43 82 44
REMARK SMILES IDX 33 45 85 46 79 47 78 48 34 50 66 51 46 52 65 53 47 54 50 55
REMARK SMILES IDX 64 56 83 57 48 58 49 59 63 61 84 62 51 63 35 64 36 65 44 66
REMARK SMILES IDX 37 67 38 68 42 69 45 70 39 71 40 72 43 73 41 74 67 75 68 76
REMARK SMILES IDX 76 77 69 78 70 79 74 80 77 81 71 82 72 83 75 84 73 85 52 86
REMARK SMILES IDX 53 87 61 88 54 89 55 90 59 91 62 92 56 93 57 94 60 95 58 96
REMARK H PARENT 9 13 92 25 82 49 50 60
REMARK Flexibility Score: inf
ROOT
ATOM      1  C   UNL A   1      45.249  19.339  25.100  1.00  0.00     0.202 C 
ENDROOT
BRANCH   1   2
ATOM      2  C   UNL A   1      43.930  18.561  25.061  1.00  0.00     0.261 C 
BRANCH   2   3
ATOM      3  O   UNL A   1      42.812  19.459  25.140  1.00  0.00    -0.460 OA
BRANCH   3   4
ATOM      4  C   UNL A   1      42.061  19.362  26.262  1.00  0.00     0.338 C 
ATOM      5  O   UNL A   1      42.355  18.763  27.288  1.00  0.00    -0.246 OA
BRANCH   4   6
ATOM      6  C   UNL A   1      40.860  20.221  26.148  1.00  0.00     0.062 A 
ATOM      7  C   UNL A   1      38.549  20.602  25.479  1.00  0.00     0.057 A 
ATOM      8  C   UNL A   1      38.641  21.896  26.013  1.00  0.00     0.028 A 
ATOM      9  C   UNL A   1      39.686  19.783  25.522  1.00  0.00     0.043 A 
ATOM     10  C   UNL A   1      39.824  22.358  26.594  1.00  0.00     0.003 A 
ATOM     11  C   UNL A   1      40.928  21.513  26.678  1.00  0.00     0.016 A 
BRANCH   7  12
ATOM     12  N   UNL A   1      37.285  20.143  25.050  1.00  0.00    -0.278 N 
ATOM     13  H   UNL A   1      37.142  19.169  25.026  1.00  0.00     0.190 HD
BRANCH  12  14
ATOM     14  N   UNL A   1      36.248  20.936  24.667  1.00  0.00    -0.183 NA
ATOM     15  C   UNL A   1      35.072  20.578  25.076  1.00  0.00     0.141 C 
BRANCH  15  16
ATOM     16  C   UNL A   1      33.863  21.342  24.749  1.00  0.00    -0.002 A 
ATOM     17  C   UNL A   1      31.601  22.927  24.286  1.00  0.00     0.160 A 
ATOM     18  C   UNL A   1      32.717  22.997  23.437  1.00  0.00     0.051 A 
ATOM     19  C   UNL A   1      31.624  22.013  25.345  1.00  0.00     0.158 A 
ATOM     20  C   UNL A   1      33.846  22.207  23.659  1.00  0.00     0.014 A 
ATOM     21  C   UNL A   1      32.753  21.228  25.586  1.00  0.00     0.060 A 
BRANCH  17  22
ATOM     22  O   UNL A   1      30.604  23.783  23.916  1.00  0.00    -0.493 OA
ATOM     23  C   UNL A   1      30.896  25.165  23.804  1.00  0.00     0.278 C 
ENDBRANCH  17  22
BRANCH  19  24
ATOM     24  O   UNL A   1      30.575  21.806  26.193  1.00  0.00    -0.504 OA
ATOM     25  H   UNL A   1      30.217  20.946  26.295  1.00  0.00     0.293 HD
ENDBRANCH  19  24
ENDBRANCH  15  16
ENDBRANCH  12  14
ENDBRANCH   7  12
ENDBRANCH   4   6
ENDBRANCH   3   4
ENDBRANCH   2   3
ENDBRANCH   1   2
BRANCH   1  26
ATOM     26  O   UNL A   1      45.223  20.647  24.528  1.00  0.00    -0.374 OA
BRANCH  26  27
ATOM     27  C   UNL A   1      45.964  21.667  25.199  1.00  0.00     0.202 C 
BRANCH  27  28
ATOM     28  C   UNL A   1      45.186  22.527  26.201  1.00  0.00     0.261 C 
BRANCH  28  29
ATOM     29  O   UNL A   1      44.029  23.138  25.605  1.00  0.00    -0.460 OA
BRANCH  29  30
ATOM     30  C   UNL A   1      44.188  24.437  25.260  1.00  0.00     0.338 C 
ATOM     31  O   UNL A   1      44.757  24.879  24.272  1.00  0.00    -0.246 OA
BRANCH  30  32
ATOM     32  C   UNL A   1      43.417  25.299  26.173  1.00  0.00     0.060 A 
ATOM     33  C   UNL A   1      43.860  26.617  26.345  1.00  0.00     0.016 A 
ATOM     34  C   UNL A   1      42.331  24.816  26.905  1.00  0.00     0.016 A 
ATOM     35  C   UNL A   1      43.254  27.441  27.288  1.00  0.00     0.010 A 
ATOM     36  C   UNL A   1      41.726  25.642  27.859  1.00  0.00     0.010 A 
ATOM     37  C   UNL A   1      42.208  26.946  28.080  1.00  0.00    -0.014 A 
BRANCH  37  38
ATOM     38  C   UNL A   1      41.722  27.744  29.232  1.00  0.00     0.031 A 
ATOM     39  C   UNL A   1      42.436  27.632  30.551  1.00  0.00     0.074 A 
ATOM     40  C   UNL A   1      40.678  28.579  29.099  1.00  0.00     0.049 A 
ATOM     41  N   UNL A   1      42.162  28.203  31.698  1.00  0.00    -0.248 NA
ATOM     42  C   UNL A   1      43.616  26.754  30.585  1.00  0.00     0.031 C 
ATOM     43  C   UNL A   1      39.922  28.803  27.867  1.00  0.00     0.029 A 
ATOM     44  N   UNL A   1      40.068  29.394  30.020  1.00  0.00    -0.354 N 
ATOM     45  C   UNL A   1      43.127  27.748  32.587  1.00  0.00     0.074 A 
ATOM     46  C   UNL A   1      43.978  26.833  31.858  1.00  0.00     0.031 C 
ATOM     47  C   UNL A   1      38.942  29.689  28.112  1.00  0.00     0.029 A 
ATOM     48  C   UNL A   1      38.986  30.073  29.521  1.00  0.00     0.049 A 
ATOM     49  H   UNL A   1      40.379  29.482  30.950  1.00  0.00     0.167 HD
ATOM     50  C   UNL A   1      43.292  28.070  33.892  1.00  0.00     0.037 A 
ATOM     51  C   UNL A   1      38.118  30.893  30.142  1.00  0.00     0.037 A 
ATOM     52  C   UNL A   1      42.450  28.986  34.616  1.00  0.00     0.049 A 
ATOM     53  C   UNL A   1      38.284  31.181  31.612  1.00  0.00     0.074 A 
ATOM     54  C   UNL A   1      42.553  29.397  35.934  1.00  0.00     0.029 A 
ATOM     55  N   UNL A   1      41.342  29.628  34.084  1.00  0.00    -0.354 N 
ATOM     56  N   UNL A   1      39.208  30.763  32.440  1.00  0.00    -0.248 NA
ATOM     57  C   UNL A   1      37.277  32.056  32.229  1.00  0.00     0.031 C 
ATOM     58  C   UNL A   1      41.478  30.246  36.214  1.00  0.00     0.029 A 
ATOM     59  C   UNL A   1      40.738  30.412  35.055  1.00  0.00     0.049 A 
ATOM     60  H   UNL A   1      41.030  29.541  33.154  1.00  0.00     0.167 HD
ATOM     61  C   UNL A   1      38.912  31.345  33.666  1.00  0.00     0.074 A 
ATOM     62  C   UNL A   1      37.728  32.153  33.472  1.00  0.00     0.031 C 
ATOM     63  C   UNL A   1      39.565  31.220  34.847  1.00  0.00     0.037 A 
BRANCH  50  64
ATOM     64  C   UNL A   1      44.416  27.410  34.636  1.00  0.00     0.064 A 
ATOM     65  C   UNL A   1      45.681  28.006  34.740  1.00  0.00     0.173 A 
ATOM     66  C   UNL A   1      44.206  26.190  35.299  1.00  0.00     0.173 A 
ATOM     67  F   UNL A   1      45.936  29.165  34.117  1.00  0.00    -0.203 F 
ATOM     68  C   UNL A   1      46.703  27.393  35.463  1.00  0.00     0.198 A 
ATOM     69  C   UNL A   1      45.221  25.597  36.043  1.00  0.00     0.198 A 
ATOM     70  F   UNL A   1      43.013  25.583  35.235  1.00  0.00    -0.203 F 
ATOM     71  F   UNL A   1      47.916  27.960  35.517  1.00  0.00    -0.200 F 
ATOM     72  C   UNL A   1      46.469  26.195  36.120  1.00  0.00     0.200 A 
ATOM     73  F   UNL A   1      44.989  24.445  36.689  1.00  0.00    -0.200 F 
ATOM     74  F   UNL A   1      47.449  25.613  36.826  1.00  0.00    -0.200 F 
ENDBRANCH  50  64
BRANCH  51  75
ATOM     75  C   UNL A   1      36.985  31.492  29.393  1.00  0.00     0.064 A 
ATOM     76  C   UNL A   1      36.937  32.869  29.134  1.00  0.00     0.173 A 
ATOM     77  C   UNL A   1      35.899  30.708  28.982  1.00  0.00     0.173 A 
ATOM     78  F   UNL A   1      37.936  33.663  29.546  1.00  0.00    -0.203 F 
ATOM     79  C   UNL A   1      35.833  33.443  28.507  1.00  0.00     0.198 A 
ATOM     80  C   UNL A   1      34.804  31.283  28.344  1.00  0.00     0.198 A 
ATOM     81  F   UNL A   1      35.895  29.388  29.216  1.00  0.00    -0.203 F 
ATOM     82  F   UNL A   1      35.785  34.769  28.319  1.00  0.00    -0.200 F 
ATOM     83  C   UNL A   1      34.769  32.649  28.111  1.00  0.00     0.200 A 
ATOM     84  F   UNL A   1      33.768  30.518  27.976  1.00  0.00    -0.200 F 
ATOM     85  F   UNL A   1      33.701  33.200  27.518  1.00  0.00    -0.200 F 
ENDBRANCH  51  75
BRANCH  63  86
ATOM     86  C   UNL A   1      39.044  32.012  36.011  1.00  0.00     0.064 A 
ATOM     87  C   UNL A   1      38.161  31.458  36.948  1.00  0.00     0.173 A 
ATOM     88  C   UNL A   1      39.466  33.337  36.209  1.00  0.00     0.173 A 
ATOM     89  F   UNL A   1      37.714  30.202  36.794  1.00  0.00    -0.203 F 
ATOM     90  C   UNL A   1      37.698  32.208  38.027  1.00  0.00     0.198 A 
ATOM     91  C   UNL A   1      39.027  34.073  37.306  1.00  0.00     0.198 A 
ATOM     92  F   UNL A   1      40.315  33.913  35.345  1.00  0.00    -0.203 F 
ATOM     93  F   UNL A   1      36.816  31.673  38.883  1.00  0.00    -0.200 F 
ATOM     94  C   UNL A   1      38.137  33.511  38.209  1.00  0.00     0.200 A 
ATOM     95  F   UNL A   1      39.463  35.327  37.487  1.00  0.00    -0.200 F 
ATOM     96  F   UNL A   1      37.698  34.228  39.252  1.00  0.00    -0.200 F 
ENDBRANCH  63  86
ENDBRANCH  37  38
ENDBRANCH  30  32
ENDBRANCH  29  30
ENDBRANCH  28  29
ENDBRANCH  27  28
ENDBRANCH  26  27
ENDBRANCH   1  26
TORSDOF 19
ENDMDL
MODEL 3
REMARK VINA RESULT:     -11.1      1.374      7.427
REMARK SMILES COc1ccc(/C=N/Nc2cccc(C(=O)OCCOCCOC(=O)c3ccc(-c4c5nc(c(-c6c(F)c(F)c(F)c(F)c6F)c6ccc([nH]6)c(-c6c(F)c(F)c(F)c(F)c6F)c6nc(c(-c7c(F)c(F)c(F)c(F)c7F)c7ccc4[nH]7)C=C6)C=C5)cc3)c2)cc1O
REMARK SMILES IDX 19 1 18 2 17 3 15 4 16 5 14 6 10 7 11 8 89 9 12 10 13 11
REMARK SMILES IDX 9 12 8 14 7 15 6 16 3 17 4 18 91 19 5 20 90 21 2 22 1 23
REMARK SMILES IDX 92 24 20 26 21 27 22 28 23 29 24 30 25 31 26 32 27 33 88 34
REMARK SMILES IDX 28 35 87 36 29 37 30 38 31 39 81 40 32 41 86 42 80 43 82 44
REMARK SMILES IDX 33 45 85 46 79 47 78 48 34 50 66 51 46 52 65 53 47 54 50 55
REMARK SMILES IDX 64 56 83 57 48 58 49 59 63 61 84 62 51 63 35 64 36 65 44 66
REMARK SMILES IDX 37 67 38 68 42 69 45 70 39 71 40 72 43 73 41 74 67 75 68 76
REMARK SMILES IDX 76 77 69 78 70 79 74 80 77 81 71 82 72 83 75 84 73 85 52 86
REMARK SMILES IDX 53 87 61 88 54 89 55 90 59 91 62 92 56 93 57 94 60 95 58 96
REMARK H PARENT 9 13 92 25 82 49 50 60
REMARK Flexibility Score: inf
ROOT
ATOM      1  C   UNL A   1      43.224  19.416  25.439  1.00  0.00     0.202 C 
ENDROOT
BRANCH   1   2
ATOM      2  C   UNL A   1      42.554  20.130  26.617  1.00  0.00     0.261 C 
BRANCH   2   3
ATOM      3  O   UNL A   1      41.557  21.051  26.149  1.00  0.00    -0.460 OA
BRANCH   3   4
ATOM      4  C   UNL A   1      40.300  20.558  26.059  1.00  0.00     0.338 C 
ATOM      5  O   UNL A   1      39.972  19.380  26.113  1.00  0.00    -0.246 OA
BRANCH   4   6
ATOM      6  C   UNL A   1      39.318  21.667  26.032  1.00  0.00     0.062 A 
ATOM      7  C   UNL A   1      37.157  22.605  25.416  1.00  0.00     0.057 A 
ATOM      8  C   UNL A   1      37.522  23.793  26.069  1.00  0.00     0.028 A 
ATOM      9  C   UNL A   1      38.086  21.557  25.375  1.00  0.00     0.043 A 
ATOM     10  C   UNL A   1      38.769  23.927  26.683  1.00  0.00     0.003 A 
ATOM     11  C   UNL A   1      39.659  22.858  26.681  1.00  0.00     0.016 A 
BRANCH   7  12
ATOM     12  N   UNL A   1      35.829  22.477  24.953  1.00  0.00    -0.278 N 
ATOM     13  H   UNL A   1      35.538  21.583  24.660  1.00  0.00     0.190 HD
BRANCH  12  14
ATOM     14  N   UNL A   1      34.921  23.486  24.878  1.00  0.00    -0.183 NA
ATOM     15  C   UNL A   1      34.818  24.079  23.731  1.00  0.00     0.141 C 
BRANCH  15  16
ATOM     16  C   UNL A   1      33.873  25.178  23.500  1.00  0.00    -0.002 A 
ATOM     17  C   UNL A   1      32.235  27.407  23.066  1.00  0.00     0.160 A 
ATOM     18  C   UNL A   1      32.521  26.510  22.026  1.00  0.00     0.051 A 
ATOM     19  C   UNL A   1      32.750  27.140  24.339  1.00  0.00     0.158 A 
ATOM     20  C   UNL A   1      33.333  25.394  22.236  1.00  0.00     0.014 A 
ATOM     21  C   UNL A   1      33.574  26.036  24.559  1.00  0.00     0.060 A 
BRANCH  17  22
ATOM     22  O   UNL A   1      31.438  28.441  22.665  1.00  0.00    -0.493 OA
ATOM     23  C   UNL A   1      30.034  28.317  22.810  1.00  0.00     0.278 C 
ENDBRANCH  17  22
BRANCH  19  24
ATOM     24  O   UNL A   1      32.483  27.901  25.442  1.00  0.00    -0.504 OA
ATOM     25  H   UNL A   1      32.555  27.527  26.298  1.00  0.00     0.293 HD
ENDBRANCH  19  24
ENDBRANCH  15  16
ENDBRANCH  12  14
ENDBRANCH   7  12
ENDBRANCH   4   6
ENDBRANCH   3   4
ENDBRANCH   2   3
ENDBRANCH   1   2
BRANCH   1  26
ATOM     26  O   UNL A   1      44.043  20.228  24.596  1.00  0.00    -0.374 OA
BRANCH  26  27
ATOM     27  C   UNL A   1      44.465  21.488  25.117  1.00  0.00     0.202 C 
BRANCH  27  28
ATOM     28  C   UNL A   1      44.402  22.680  24.155  1.00  0.00     0.261 C 
BRANCH  28  29
ATOM     29  O   UNL A   1      43.599  23.753  24.676  1.00  0.00    -0.460 OA
BRANCH  29  30
ATOM     30  C   UNL A   1      44.298  24.834  25.091  1.00  0.00     0.338 C 
ATOM     31  O   UNL A   1      45.361  25.246  24.649  1.00  0.00    -0.246 OA
BRANCH  30  32
ATOM     32  C   UNL A   1      43.514  25.593  26.082  1.00  0.00     0.060 A 
ATOM     33  C   UNL A   1      43.827  26.947  26.255  1.00  0.00     0.016 A 
ATOM     34  C   UNL A   1      42.543  24.982  26.880  1.00  0.00     0.016 A 
ATOM     35  C   UNL A   1      43.211  27.684  27.262  1.00  0.00     0.010 A 
ATOM     36  C   UNL A   1      41.930  25.721  27.897  1.00  0.00     0.010 A 
ATOM     37  C   UNL A   1      42.288  27.065  28.116  1.00  0.00    -0.014 A 
BRANCH  37  38
ATOM     38  C   UNL A   1      41.810  27.785  29.322  1.00  0.00     0.031 A 
ATOM     39  C   UNL A   1      40.534  28.577  29.242  1.00  0.00     0.074 A 
ATOM     40  C   UNL A   1      42.486  27.710  30.481  1.00  0.00     0.049 A 
ATOM     41  N   UNL A   1      39.952  29.314  30.156  1.00  0.00    -0.248 NA
ATOM     42  C   UNL A   1      39.819  28.539  27.957  1.00  0.00     0.031 C 
ATOM     43  C   UNL A   1      43.716  26.950  30.698  1.00  0.00     0.029 A 
ATOM     44  N   UNL A   1      42.230  28.292  31.698  1.00  0.00    -0.354 N 
ATOM     45  C   UNL A   1      38.812  29.831  29.555  1.00  0.00     0.074 A 
ATOM     46  C   UNL A   1      38.795  29.348  28.191  1.00  0.00     0.031 C 
ATOM     47  C   UNL A   1      44.115  27.120  31.970  1.00  0.00     0.029 A 
ATOM     48  C   UNL A   1      43.184  28.021  32.647  1.00  0.00     0.049 A 
ATOM     49  H   UNL A   1      41.438  28.850  31.872  1.00  0.00     0.167 HD
ATOM     50  C   UNL A   1      37.861  30.630  30.094  1.00  0.00     0.037 A 
ATOM     51  C   UNL A   1      43.299  28.471  33.909  1.00  0.00     0.037 A 
ATOM     52  C   UNL A   1      37.873  31.105  31.453  1.00  0.00     0.049 A 
ATOM     53  C   UNL A   1      42.264  29.414  34.463  1.00  0.00     0.074 A 
ATOM     54  C   UNL A   1      36.940  31.897  32.100  1.00  0.00     0.029 A 
ATOM     55  N   UNL A   1      38.874  30.836  32.373  1.00  0.00    -0.354 N 
ATOM     56  N   UNL A   1      41.180  29.883  33.896  1.00  0.00    -0.248 NA
ATOM     57  C   UNL A   1      42.476  29.892  35.838  1.00  0.00     0.031 C 
ATOM     58  C   UNL A   1      37.403  32.151  33.394  1.00  0.00     0.029 A 
ATOM     59  C   UNL A   1      38.594  31.469  33.575  1.00  0.00     0.049 A 
ATOM     60  H   UNL A   1      39.667  30.278  32.201  1.00  0.00     0.167 HD
ATOM     61  C   UNL A   1      40.568  30.686  34.851  1.00  0.00     0.074 A 
ATOM     62  C   UNL A   1      41.395  30.633  36.037  1.00  0.00     0.031 C 
ATOM     63  C   UNL A   1      39.421  31.402  34.752  1.00  0.00     0.037 A 
BRANCH  50  64
ATOM     64  C   UNL A   1      36.731  31.066  29.207  1.00  0.00     0.064 A 
ATOM     65  C   UNL A   1      35.692  30.193  28.853  1.00  0.00     0.173 A 
ATOM     66  C   UNL A   1      36.661  32.392  28.750  1.00  0.00     0.173 A 
ATOM     67  F   UNL A   1      35.718  28.914  29.254  1.00  0.00    -0.203 F 
ATOM     68  C   UNL A   1      34.635  30.626  28.055  1.00  0.00     0.198 A 
ATOM     69  C   UNL A   1      35.589  32.827  27.977  1.00  0.00     0.198 A 
ATOM     70  F   UNL A   1      37.627  33.267  29.065  1.00  0.00    -0.203 F 
ATOM     71  F   UNL A   1      33.673  29.765  27.696  1.00  0.00    -0.200 F 
ATOM     72  C   UNL A   1      34.580  31.943  27.626  1.00  0.00     0.200 A 
ATOM     73  F   UNL A   1      35.530  34.105  27.575  1.00  0.00    -0.200 F 
ATOM     74  F   UNL A   1      33.555  32.361  26.870  1.00  0.00    -0.200 F 
ENDBRANCH  50  64
BRANCH  51  75
ATOM     75  C   UNL A   1      44.455  28.063  34.748  1.00  0.00     0.064 A 
ATOM     76  C   UNL A   1      45.617  28.843  34.805  1.00  0.00     0.173 A 
ATOM     77  C   UNL A   1      44.441  26.852  35.453  1.00  0.00     0.173 A 
ATOM     78  F   UNL A   1      45.689  29.990  34.112  1.00  0.00    -0.203 F 
ATOM     79  C   UNL A   1      46.733  28.417  35.522  1.00  0.00     0.198 A 
ATOM     80  C   UNL A   1      45.552  26.436  36.180  1.00  0.00     0.198 A 
ATOM     81  F   UNL A   1      43.354  26.066  35.421  1.00  0.00    -0.203 F 
ATOM     82  F   UNL A   1      47.852  29.154  35.518  1.00  0.00    -0.200 F 
ATOM     83  C   UNL A   1      46.698  27.215  36.211  1.00  0.00     0.200 A 
ATOM     84  F   UNL A   1      45.525  25.267  36.831  1.00  0.00    -0.200 F 
ATOM     85  F   UNL A   1      47.773  26.798  36.893  1.00  0.00    -0.200 F 
ENDBRANCH  51  75
BRANCH  63  86
ATOM     86  C   UNL A   1      38.965  32.147  35.972  1.00  0.00     0.064 A 
ATOM     87  C   UNL A   1      38.198  31.531  36.971  1.00  0.00     0.173 A 
ATOM     88  C   UNL A   1      39.332  33.489  36.159  1.00  0.00     0.173 A 
ATOM     89  F   UNL A   1      37.806  30.255  36.832  1.00  0.00    -0.203 F 
ATOM     90  C   UNL A   1      37.794  32.238  38.101  1.00  0.00     0.198 A 
ATOM     91  C   UNL A   1      38.953  34.183  37.304  1.00  0.00     0.198 A 
ATOM     92  F   UNL A   1      40.070  34.123  35.236  1.00  0.00    -0.203 F 
ATOM     93  F   UNL A   1      37.020  31.643  39.020  1.00  0.00    -0.200 F 
ATOM     94  C   UNL A   1      38.178  33.560  38.270  1.00  0.00     0.200 A 
ATOM     95  F   UNL A   1      39.337  35.456  37.472  1.00  0.00    -0.200 F 
ATOM     96  F   UNL A   1      37.795  34.236  39.362  1.00  0.00    -0.200 F 
ENDBRANCH  63  86
ENDBRANCH  37  38
ENDBRANCH  30  32
ENDBRANCH  29  30
ENDBRANCH  28  29
ENDBRANCH  27  28
ENDBRANCH  26  27
ENDBRANCH   1  26
TORSDOF 19
ENDMDL
