MODEL 1
REMARK VINA RESULT:     -10.4      0.000      0.000
REMARK SMILES C[C@H](NC(=O)c1cc(S(=O)(=O)N(C)C)cs1)C(=O)OCCOCCOC(=O)c1ccc(-c2c3nc(c(-c4c(F)c(F)c(F)c(F)c4F)c4ccc([nH]4)c(-c4c(F)c(F)c(F)c(F)c4F)c4nc(c(-c5c(F)c(F)c(F)c(F)c5F)c5ccc2[nH]5)C=C4)C=C3)cc1
REMARK SMILES IDX 21 1 20 2 19 3 17 4 18 5 2 6 1 7 3 8 4 9 5 11 6 12 7 13
REMARK SMILES IDX 16 14 8 15 15 16 9 17 10 18 11 19 12 20 13 21 14 22 22 23
REMARK SMILES IDX 23 24 24 25 25 26 26 27 27 28 28 29 29 30 90 31 30 32 89 33
REMARK SMILES IDX 31 34 32 35 33 36 83 37 34 38 88 39 82 40 84 41 35 42 87 43
REMARK SMILES IDX 81 44 80 45 36 47 68 48 48 49 67 50 49 51 52 52 66 53 85 54
REMARK SMILES IDX 50 55 51 56 65 58 86 59 53 60 37 61 38 62 46 63 39 64 40 65
REMARK SMILES IDX 44 66 47 67 41 68 42 69 45 70 43 71 69 72 70 73 78 74 71 75
REMARK SMILES IDX 72 76 76 77 79 78 73 79 74 80 77 81 75 82 54 83 55 84 63 85
REMARK SMILES IDX 56 86 57 87 61 88 64 89 58 90 59 91 62 92 60 93
REMARK H PARENT 3 10 84 46 52 57
REMARK Flexibility Score: inf
ROOT
ATOM      1  C   UNL A   1      34.733  30.310  27.340  1.00  0.00     0.202 C 
ENDROOT
BRANCH   1   2
ATOM      2  C   UNL A   1      33.852  29.504  26.391  1.00  0.00     0.261 C 
BRANCH   2   3
ATOM      3  O   UNL A   1      33.611  28.182  26.901  1.00  0.00    -0.462 OA
BRANCH   3   4
ATOM      4  C   UNL A   1      32.300  27.822  26.995  1.00  0.00     0.328 C 
ATOM      5  O   UNL A   1      31.497  28.275  27.802  1.00  0.00    -0.250 OA
BRANCH   4   6
ATOM      6  C   UNL A   1      31.958  26.666  26.047  1.00  0.00     0.189 C 
ATOM      7  C   UNL A   1      31.220  27.271  24.850  1.00  0.00     0.043 C 
BRANCH   6   8
ATOM      8  N   UNL A   1      31.210  25.579  26.696  1.00  0.00    -0.338 N 
ATOM      9  C   UNL A   1      31.403  24.217  26.671  1.00  0.00     0.262 C 
ATOM     10  H   UNL A   1      30.444  25.876  27.240  1.00  0.00     0.164 HD
ATOM     11  O   UNL A   1      30.640  23.527  27.347  1.00  0.00    -0.268 OA
BRANCH   9  12
ATOM     12  C   UNL A   1      32.435  23.673  25.808  1.00  0.00     0.093 A 
ATOM     13  C   UNL A   1      33.769  23.415  26.058  1.00  0.00     0.047 A 
ATOM     14  S   UNL A   1      32.032  23.314  24.177  1.00  0.00    -0.137 S 
ATOM     15  C   UNL A   1      34.495  23.165  24.855  1.00  0.00     0.094 A 
ATOM     16  C   UNL A   1      33.672  23.066  23.756  1.00  0.00     0.087 A 
BRANCH  15  17
ATOM     17  S   UNL A   1      36.226  23.133  24.757  1.00  0.00     0.243 S 
ATOM     18  O   UNL A   1      36.514  23.076  23.349  1.00  0.00    -0.207 OA
ATOM     19  O   UNL A   1      36.604  24.268  25.584  1.00  0.00    -0.207 OA
BRANCH  17  20
ATOM     20  N   UNL A   1      36.799  21.710  25.506  1.00  0.00    -0.204 NA
ATOM     21  C   UNL A   1      36.083  20.478  25.106  1.00  0.00     0.124 C 
ATOM     22  C   UNL A   1      38.267  21.546  25.402  1.00  0.00     0.124 C 
ENDBRANCH  17  20
ENDBRANCH  15  17
ENDBRANCH   9  12
ENDBRANCH   6   8
ENDBRANCH   4   6
ENDBRANCH   3   4
ENDBRANCH   2   3
ENDBRANCH   1   2
BRANCH   1  23
ATOM     23  O   UNL A   1      34.047  31.326  28.069  1.00  0.00    -0.374 OA
BRANCH  23  24
ATOM     24  C   UNL A   1      32.793  31.774  27.546  1.00  0.00     0.202 C 
BRANCH  24  25
ATOM     25  C   UNL A   1      32.694  33.281  27.292  1.00  0.00     0.261 C 
BRANCH  25  26
ATOM     26  O   UNL A   1      32.251  33.976  28.476  1.00  0.00    -0.460 OA
BRANCH  26  27
ATOM     27  C   UNL A   1      33.027  35.022  28.851  1.00  0.00     0.338 C 
ATOM     28  O   UNL A   1      32.784  36.210  28.719  1.00  0.00    -0.246 OA
BRANCH  27  29
ATOM     29  C   UNL A   1      34.182  34.540  29.631  1.00  0.00     0.060 A 
ATOM     30  C   UNL A   1      35.447  34.619  29.033  1.00  0.00     0.016 A 
ATOM     31  C   UNL A   1      34.024  33.935  30.879  1.00  0.00     0.016 A 
ATOM     32  C   UNL A   1      36.554  34.050  29.661  1.00  0.00     0.010 A 
ATOM     33  C   UNL A   1      35.133  33.351  31.501  1.00  0.00     0.010 A 
ATOM     34  C   UNL A   1      36.395  33.377  30.880  1.00  0.00    -0.014 A 
BRANCH  34  35
ATOM     35  C   UNL A   1      37.520  32.583  31.429  1.00  0.00     0.031 A 
ATOM     36  C   UNL A   1      38.084  32.947  32.775  1.00  0.00     0.074 A 
ATOM     37  C   UNL A   1      38.023  31.540  30.747  1.00  0.00     0.049 A 
ATOM     38  N   UNL A   1      39.081  32.409  33.430  1.00  0.00    -0.248 NA
ATOM     39  C   UNL A   1      37.433  34.064  33.477  1.00  0.00     0.031 C 
ATOM     40  C   UNL A   1      37.542  31.068  29.451  1.00  0.00     0.029 A 
ATOM     41  N   UNL A   1      39.064  30.698  31.051  1.00  0.00    -0.354 N 
ATOM     42  C   UNL A   1      39.178  33.120  34.618  1.00  0.00     0.074 A 
ATOM     43  C   UNL A   1      38.152  34.141  34.587  1.00  0.00     0.031 C 
ATOM     44  C   UNL A   1      38.300  30.029  29.059  1.00  0.00     0.029 A 
ATOM     45  C   UNL A   1      39.332  29.782  30.065  1.00  0.00     0.049 A 
ATOM     46  H   UNL A   1      39.568  30.746  31.895  1.00  0.00     0.167 HD
ATOM     47  C   UNL A   1      40.042  32.936  35.643  1.00  0.00     0.037 A 
ATOM     48  C   UNL A   1      40.316  28.865  29.976  1.00  0.00     0.037 A 
ATOM     49  C   UNL A   1      41.063  31.924  35.678  1.00  0.00     0.049 A 
ATOM     50  C   UNL A   1      41.313  28.731  31.097  1.00  0.00     0.074 A 
ATOM     51  C   UNL A   1      41.958  31.633  36.693  1.00  0.00     0.029 A 
ATOM     52  N   UNL A   1      41.331  31.041  34.643  1.00  0.00    -0.354 N 
ATOM     53  N   UNL A   1      41.373  29.382  32.233  1.00  0.00    -0.248 NA
ATOM     54  C   UNL A   1      42.382  27.736  30.919  1.00  0.00     0.031 C 
ATOM     55  C   UNL A   1      42.796  30.602  36.254  1.00  0.00     0.029 A 
ATOM     56  C   UNL A   1      42.399  30.228  34.981  1.00  0.00     0.049 A 
ATOM     57  H   UNL A   1      40.836  31.000  33.793  1.00  0.00     0.167 HD
ATOM     58  C   UNL A   1      42.469  28.867  32.910  1.00  0.00     0.074 A 
ATOM     59  C   UNL A   1      43.042  27.841  32.065  1.00  0.00     0.031 C 
ATOM     60  C   UNL A   1      42.958  29.212  34.127  1.00  0.00     0.037 A 
BRANCH  47  61
ATOM     61  C   UNL A   1      39.934  33.866  36.812  1.00  0.00     0.064 A 
ATOM     62  C   UNL A   1      40.648  35.072  36.857  1.00  0.00     0.173 A 
ATOM     63  C   UNL A   1      39.077  33.566  37.880  1.00  0.00     0.173 A 
ATOM     64  F   UNL A   1      41.491  35.394  35.863  1.00  0.00    -0.203 F 
ATOM     65  C   UNL A   1      40.519  35.938  37.938  1.00  0.00     0.198 A 
ATOM     66  C   UNL A   1      38.934  34.444  38.951  1.00  0.00     0.198 A 
ATOM     67  F   UNL A   1      38.371  32.425  37.881  1.00  0.00    -0.203 F 
ATOM     68  F   UNL A   1      41.232  37.072  37.976  1.00  0.00    -0.200 F 
ATOM     69  C   UNL A   1      39.657  35.628  38.981  1.00  0.00     0.200 A 
ATOM     70  F   UNL A   1      38.098  34.145  39.955  1.00  0.00    -0.200 F 
ATOM     71  F   UNL A   1      39.530  36.466  40.018  1.00  0.00    -0.200 F 
ENDBRANCH  47  61
BRANCH  48  72
ATOM     72  C   UNL A   1      40.425  28.016  28.764  1.00  0.00     0.064 A 
ATOM     73  C   UNL A   1      39.796  26.766  28.698  1.00  0.00     0.173 A 
ATOM     74  C   UNL A   1      41.173  28.433  27.654  1.00  0.00     0.173 A 
ATOM     75  F   UNL A   1      39.093  26.315  29.746  1.00  0.00    -0.203 F 
ATOM     76  C   UNL A   1      39.920  25.959  27.569  1.00  0.00     0.198 A 
ATOM     77  C   UNL A   1      41.279  27.635  26.518  1.00  0.00     0.198 A 
ATOM     78  F   UNL A   1      41.798  29.619  27.674  1.00  0.00    -0.203 F 
ATOM     79  F   UNL A   1      39.339  24.752  27.543  1.00  0.00    -0.200 F 
ATOM     80  C   UNL A   1      40.656  26.397  26.477  1.00  0.00     0.200 A 
ATOM     81  F   UNL A   1      41.987  28.064  25.464  1.00  0.00    -0.200 F 
ATOM     82  F   UNL A   1      40.774  25.621  25.392  1.00  0.00    -0.200 F 
ENDBRANCH  48  72
BRANCH  60  83
ATOM     83  C   UNL A   1      44.159  28.469  34.624  1.00  0.00     0.064 A 
ATOM     84  C   UNL A   1      45.456  28.972  34.441  1.00  0.00     0.173 A 
ATOM     85  C   UNL A   1      44.011  27.269  35.335  1.00  0.00     0.173 A 
ATOM     86  F   UNL A   1      45.647  30.106  33.754  1.00  0.00    -0.203 F 
ATOM     87  C   UNL A   1      46.562  28.292  34.943  1.00  0.00     0.198 A 
ATOM     88  C   UNL A   1      45.118  26.604  35.854  1.00  0.00     0.198 A 
ATOM     89  F   UNL A   1      42.791  26.751  35.540  1.00  0.00    -0.203 F 
ATOM     90  F   UNL A   1      47.795  28.774  34.731  1.00  0.00    -0.200 F 
ATOM     91  C   UNL A   1      46.393  27.113  35.655  1.00  0.00     0.200 A 
ATOM     92  F   UNL A   1      44.953  25.469  36.549  1.00  0.00    -0.200 F 
ATOM     93  F   UNL A   1      47.459  26.465  36.144  1.00  0.00    -0.200 F 
ENDBRANCH  60  83
ENDBRANCH  34  35
ENDBRANCH  27  29
ENDBRANCH  26  27
ENDBRANCH  25  26
ENDBRANCH  24  25
ENDBRANCH  23  24
ENDBRANCH   1  23
TORSDOF 18
ENDMDL
MODEL 2
REMARK VINA RESULT:     -10.3      2.194      8.108
REMARK SMILES C[C@H](NC(=O)c1cc(S(=O)(=O)N(C)C)cs1)C(=O)OCCOCCOC(=O)c1ccc(-c2c3nc(c(-c4c(F)c(F)c(F)c(F)c4F)c4ccc([nH]4)c(-c4c(F)c(F)c(F)c(F)c4F)c4nc(c(-c5c(F)c(F)c(F)c(F)c5F)c5ccc2[nH]5)C=C4)C=C3)cc1
REMARK SMILES IDX 21 1 20 2 19 3 17 4 18 5 2 6 1 7 3 8 4 9 5 11 6 12 7 13
REMARK SMILES IDX 16 14 8 15 15 16 9 17 10 18 11 19 12 20 13 21 14 22 22 23
REMARK SMILES IDX 23 24 24 25 25 26 26 27 27 28 28 29 29 30 90 31 30 32 89 33
REMARK SMILES IDX 31 34 32 35 33 36 83 37 34 38 88 39 82 40 84 41 35 42 87 43
REMARK SMILES IDX 81 44 80 45 36 47 68 48 48 49 67 50 49 51 52 52 66 53 85 54
REMARK SMILES IDX 50 55 51 56 65 58 86 59 53 60 37 61 38 62 46 63 39 64 40 65
REMARK SMILES IDX 44 66 47 67 41 68 42 69 45 70 43 71 69 72 70 73 78 74 71 75
REMARK SMILES IDX 72 76 76 77 79 78 73 79 74 80 77 81 75 82 54 83 55 84 63 85
REMARK SMILES IDX 56 86 57 87 61 88 64 89 58 90 59 91 62 92 60 93
REMARK H PARENT 3 10 84 46 52 57
REMARK Flexibility Score: inf
ROOT
ATOM      1  C   UNL A   1      34.713  30.285  27.940  1.00  0.00     0.202 C 
ENDROOT
BRANCH   1   2
ATOM      2  C   UNL A   1      35.243  29.167  27.047  1.00  0.00     0.261 C 
BRANCH   2   3
ATOM      3  O   UNL A   1      34.278  28.796  26.049  1.00  0.00    -0.462 OA
BRANCH   3   4
ATOM      4  C   UNL A   1      33.698  27.576  26.224  1.00  0.00     0.328 C 
ATOM      5  O   UNL A   1      34.292  26.504  26.231  1.00  0.00    -0.250 OA
BRANCH   4   6
ATOM      6  C   UNL A   1      32.169  27.675  26.280  1.00  0.00     0.189 C 
ATOM      7  C   UNL A   1      31.790  27.929  27.741  1.00  0.00     0.043 C 
BRANCH   6   8
ATOM      8  N   UNL A   1      31.485  26.509  25.701  1.00  0.00    -0.338 N 
ATOM      9  C   UNL A   1      30.722  26.390  24.562  1.00  0.00     0.262 C 
ATOM     10  H   UNL A   1      31.593  25.675  26.213  1.00  0.00     0.164 HD
ATOM     11  O   UNL A   1      30.294  25.270  24.286  1.00  0.00    -0.268 OA
BRANCH   9  12
ATOM     12  C   UNL A   1      30.411  27.585  23.801  1.00  0.00     0.093 A 
ATOM     13  C   UNL A   1      29.265  28.356  23.771  1.00  0.00     0.047 A 
ATOM     14  S   UNL A   1      31.582  28.176  22.692  1.00  0.00    -0.137 S 
ATOM     15  C   UNL A   1      29.265  29.264  22.670  1.00  0.00     0.094 A 
ATOM     16  C   UNL A   1      30.471  29.283  22.006  1.00  0.00     0.087 A 
BRANCH  15  17
ATOM     17  S   UNL A   1      27.868  30.139  22.134  1.00  0.00     0.243 S 
ATOM     18  O   UNL A   1      27.951  30.124  20.699  1.00  0.00    -0.207 OA
ATOM     19  O   UNL A   1      26.794  29.480  22.860  1.00  0.00    -0.207 OA
BRANCH  17  20
ATOM     20  N   UNL A   1      27.976  31.751  22.686  1.00  0.00    -0.204 NA
ATOM     21  C   UNL A   1      28.870  31.940  23.850  1.00  0.00     0.124 C 
ATOM     22  C   UNL A   1      28.273  32.720  21.607  1.00  0.00     0.124 C 
ENDBRANCH  17  20
ENDBRANCH  15  17
ENDBRANCH   9  12
ENDBRANCH   6   8
ENDBRANCH   4   6
ENDBRANCH   3   4
ENDBRANCH   2   3
ENDBRANCH   1   2
BRANCH   1  23
ATOM     23  O   UNL A   1      34.108  31.369  27.239  1.00  0.00    -0.374 OA
BRANCH  23  24
ATOM     24  C   UNL A   1      32.714  31.596  27.461  1.00  0.00     0.202 C 
BRANCH  24  25
ATOM     25  C   UNL A   1      32.241  33.033  27.219  1.00  0.00     0.261 C 
BRANCH  25  26
ATOM     26  O   UNL A   1      33.323  33.971  27.399  1.00  0.00    -0.460 OA
BRANCH  26  27
ATOM     27  C   UNL A   1      33.271  34.694  28.544  1.00  0.00     0.338 C 
ATOM     28  O   UNL A   1      32.374  35.432  28.915  1.00  0.00    -0.246 OA
BRANCH  27  29
ATOM     29  C   UNL A   1      34.405  34.339  29.417  1.00  0.00     0.060 A 
ATOM     30  C   UNL A   1      35.694  34.436  28.878  1.00  0.00     0.016 A 
ATOM     31  C   UNL A   1      34.211  33.828  30.702  1.00  0.00     0.016 A 
ATOM     32  C   UNL A   1      36.793  33.980  29.605  1.00  0.00     0.010 A 
ATOM     33  C   UNL A   1      35.312  33.356  31.424  1.00  0.00     0.010 A 
ATOM     34  C   UNL A   1      36.602  33.399  30.866  1.00  0.00    -0.014 A 
BRANCH  34  35
ATOM     35  C   UNL A   1      37.734  32.714  31.535  1.00  0.00     0.031 A 
ATOM     36  C   UNL A   1      38.371  31.529  30.863  1.00  0.00     0.074 A 
ATOM     37  C   UNL A   1      38.201  33.149  32.717  1.00  0.00     0.049 A 
ATOM     38  N   UNL A   1      39.349  30.765  31.280  1.00  0.00    -0.248 NA
ATOM     39  C   UNL A   1      37.835  31.158  29.544  1.00  0.00     0.031 C 
ATOM     40  C   UNL A   1      37.691  34.305  33.452  1.00  0.00     0.029 A 
ATOM     41  N   UNL A   1      39.205  32.657  33.513  1.00  0.00    -0.354 N 
ATOM     42  C   UNL A   1      39.546  29.825  30.278  1.00  0.00     0.074 A 
ATOM     43  C   UNL A   1      38.574  30.100  29.240  1.00  0.00     0.031 C 
ATOM     44  C   UNL A   1      38.374  34.424  34.603  1.00  0.00     0.029 A 
ATOM     45  C   UNL A   1      39.350  33.337  34.696  1.00  0.00     0.049 A 
ATOM     46  H   UNL A   1      39.768  31.891  33.259  1.00  0.00     0.167 HD
ATOM     47  C   UNL A   1      40.457  28.826  30.225  1.00  0.00     0.037 A 
ATOM     48  C   UNL A   1      40.160  33.094  35.744  1.00  0.00     0.037 A 
ATOM     49  C   UNL A   1      41.424  28.550  31.252  1.00  0.00     0.049 A 
ATOM     50  C   UNL A   1      41.114  31.929  35.694  1.00  0.00     0.074 A 
ATOM     51  C   UNL A   1      42.416  27.584  31.269  1.00  0.00     0.029 A 
ATOM     52  N   UNL A   1      41.512  29.234  32.455  1.00  0.00    -0.354 N 
ATOM     53  N   UNL A   1      41.319  31.069  34.726  1.00  0.00    -0.248 NA
ATOM     54  C   UNL A   1      41.944  31.698  36.886  1.00  0.00     0.031 C 
ATOM     55  C   UNL A   1      43.077  27.658  32.500  1.00  0.00     0.029 A 
ATOM     56  C   UNL A   1      42.520  28.691  33.234  1.00  0.00     0.049 A 
ATOM     57  H   UNL A   1      40.942  29.993  32.716  1.00  0.00     0.167 HD
ATOM     58  C   UNL A   1      42.309  30.211  35.182  1.00  0.00     0.074 A 
ATOM     59  C   UNL A   1      42.674  30.656  36.510  1.00  0.00     0.031 C 
ATOM     60  C   UNL A   1      42.869  29.147  34.555  1.00  0.00     0.037 A 
BRANCH  47  61
ATOM     61  C   UNL A   1      40.440  27.940  29.018  1.00  0.00     0.064 A 
ATOM     62  C   UNL A   1      41.217  28.229  27.887  1.00  0.00     0.173 A 
ATOM     63  C   UNL A   1      39.670  26.768  29.008  1.00  0.00     0.173 A 
ATOM     64  F   UNL A   1      41.959  29.346  27.846  1.00  0.00    -0.203 F 
ATOM     65  C   UNL A   1      41.211  27.383  26.781  1.00  0.00     0.198 A 
ATOM     66  C   UNL A   1      39.682  25.914  27.910  1.00  0.00     0.198 A 
ATOM     67  F   UNL A   1      38.914  26.448  30.069  1.00  0.00    -0.203 F 
ATOM     68  F   UNL A   1      41.937  27.692  25.698  1.00  0.00    -0.200 F 
ATOM     69  C   UNL A   1      40.449  26.223  26.796  1.00  0.00     0.200 A 
ATOM     70  F   UNL A   1      38.950  24.791  27.927  1.00  0.00    -0.200 F 
ATOM     71  F   UNL A   1      40.449  25.407  25.733  1.00  0.00    -0.200 F 
ENDBRANCH  47  61
BRANCH  48  72
ATOM     72  C   UNL A   1      40.089  33.958  36.948  1.00  0.00     0.064 A 
ATOM     73  C   UNL A   1      39.216  33.657  38.003  1.00  0.00     0.173 A 
ATOM     74  C   UNL A   1      40.882  35.109  37.061  1.00  0.00     0.173 A 
ATOM     75  F   UNL A   1      38.420  32.582  37.927  1.00  0.00    -0.203 F 
ATOM     76  C   UNL A   1      39.133  34.483  39.122  1.00  0.00     0.198 A 
ATOM     77  C   UNL A   1      40.813  35.921  38.190  1.00  0.00     0.198 A 
ATOM     78  F   UNL A   1      41.727  35.440  36.074  1.00  0.00    -0.203 F 
ATOM     79  F   UNL A   1      38.266  34.195  40.102  1.00  0.00    -0.200 F 
ATOM     80  C   UNL A   1      39.936  35.611  39.217  1.00  0.00     0.200 A 
ATOM     81  F   UNL A   1      41.594  37.006  38.279  1.00  0.00    -0.200 F 
ATOM     82  F   UNL A   1      39.855  36.404  40.294  1.00  0.00    -0.200 F 
ENDBRANCH  48  72
BRANCH  60  83
ATOM     83  C   UNL A   1      43.942  28.401  35.287  1.00  0.00     0.064 A 
ATOM     84  C   UNL A   1      45.296  28.725  35.125  1.00  0.00     0.173 A 
ATOM     85  C   UNL A   1      43.610  27.387  36.199  1.00  0.00     0.173 A 
ATOM     86  F   UNL A   1      45.662  29.675  34.253  1.00  0.00    -0.203 F 
ATOM     87  C   UNL A   1      46.282  28.051  35.841  1.00  0.00     0.198 A 
ATOM     88  C   UNL A   1      44.597  26.731  36.929  1.00  0.00     0.198 A 
ATOM     89  F   UNL A   1      42.327  27.045  36.392  1.00  0.00    -0.203 F 
ATOM     90  F   UNL A   1      47.573  28.355  35.649  1.00  0.00    -0.200 F 
ATOM     91  C   UNL A   1      45.932  27.061  36.747  1.00  0.00     0.200 A 
ATOM     92  F   UNL A   1      44.257  25.780  37.810  1.00  0.00    -0.200 F 
ATOM     93  F   UNL A   1      46.882  26.419  37.441  1.00  0.00    -0.200 F 
ENDBRANCH  60  83
ENDBRANCH  34  35
ENDBRANCH  27  29
ENDBRANCH  26  27
ENDBRANCH  25  26
ENDBRANCH  24  25
ENDBRANCH  23  24
ENDBRANCH   1  23
TORSDOF 18
ENDMDL
MODEL 3
REMARK VINA RESULT:     -10.3      2.277      4.202
REMARK SMILES C[C@H](NC(=O)c1cc(S(=O)(=O)N(C)C)cs1)C(=O)OCCOCCOC(=O)c1ccc(-c2c3nc(c(-c4c(F)c(F)c(F)c(F)c4F)c4ccc([nH]4)c(-c4c(F)c(F)c(F)c(F)c4F)c4nc(c(-c5c(F)c(F)c(F)c(F)c5F)c5ccc2[nH]5)C=C4)C=C3)cc1
REMARK SMILES IDX 21 1 20 2 19 3 17 4 18 5 2 6 1 7 3 8 4 9 5 11 6 12 7 13
REMARK SMILES IDX 16 14 8 15 15 16 9 17 10 18 11 19 12 20 13 21 14 22 22 23
REMARK SMILES IDX 23 24 24 25 25 26 26 27 27 28 28 29 29 30 90 31 30 32 89 33
REMARK SMILES IDX 31 34 32 35 33 36 83 37 34 38 88 39 82 40 84 41 35 42 87 43
REMARK SMILES IDX 81 44 80 45 36 47 68 48 48 49 67 50 49 51 52 52 66 53 85 54
REMARK SMILES IDX 50 55 51 56 65 58 86 59 53 60 37 61 38 62 46 63 39 64 40 65
REMARK SMILES IDX 44 66 47 67 41 68 42 69 45 70 43 71 69 72 70 73 78 74 71 75
REMARK SMILES IDX 72 76 76 77 79 78 73 79 74 80 77 81 75 82 54 83 55 84 63 85
REMARK SMILES IDX 56 86 57 87 61 88 64 89 58 90 59 91 62 92 60 93
REMARK H PARENT 3 10 84 46 52 57
REMARK Flexibility Score: inf
ROOT
ATOM      1  C   UNL A   1      34.649  30.681  27.612  1.00  0.00     0.202 C 
ENDROOT
BRANCH   1   2
ATOM      2  C   UNL A   1      34.987  29.242  27.234  1.00  0.00     0.261 C 
BRANCH   2   3
ATOM      3  O   UNL A   1      34.232  28.814  26.089  1.00  0.00    -0.462 OA
BRANCH   3   4
ATOM      4  C   UNL A   1      33.578  27.627  26.231  1.00  0.00     0.328 C 
ATOM      5  O   UNL A   1      34.107  26.522  26.231  1.00  0.00    -0.250 OA
BRANCH   4   6
ATOM      6  C   UNL A   1      32.056  27.815  26.262  1.00  0.00     0.189 C 
ATOM      7  C   UNL A   1      31.665  28.062  27.721  1.00  0.00     0.043 C 
BRANCH   6   8
ATOM      8  N   UNL A   1      31.317  26.704  25.647  1.00  0.00    -0.338 N 
ATOM      9  C   UNL A   1      30.587  26.646  24.481  1.00  0.00     0.262 C 
ATOM     10  H   UNL A   1      31.350  25.859  26.153  1.00  0.00     0.164 HD
ATOM     11  O   UNL A   1      30.095  25.560  24.177  1.00  0.00    -0.268 OA
BRANCH   9  12
ATOM     12  C   UNL A   1      30.384  27.867  23.724  1.00  0.00     0.093 A 
ATOM     13  C   UNL A   1      29.280  28.694  23.634  1.00  0.00     0.047 A 
ATOM     14  S   UNL A   1      31.651  28.416  22.702  1.00  0.00    -0.137 S 
ATOM     15  C   UNL A   1      29.396  29.617  22.553  1.00  0.00     0.094 A 
ATOM     16  C   UNL A   1      30.642  29.586  21.967  1.00  0.00     0.087 A 
BRANCH  15  17
ATOM     17  S   UNL A   1      28.079  30.567  21.945  1.00  0.00     0.243 S 
ATOM     18  O   UNL A   1      27.751  29.974  20.676  1.00  0.00    -0.207 OA
ATOM     19  O   UNL A   1      27.155  30.569  23.067  1.00  0.00    -0.207 OA
BRANCH  17  20
ATOM     20  N   UNL A   1      28.619  32.168  21.693  1.00  0.00    -0.204 NA
ATOM     21  C   UNL A   1      27.853  32.917  20.673  1.00  0.00     0.124 C 
ATOM     22  C   UNL A   1      28.758  32.942  22.948  1.00  0.00     0.124 C 
ENDBRANCH  17  20
ENDBRANCH  15  17
ENDBRANCH   9  12
ENDBRANCH   6   8
ENDBRANCH   4   6
ENDBRANCH   3   4
ENDBRANCH   2   3
ENDBRANCH   1   2
BRANCH   1  23
ATOM     23  O   UNL A   1      33.667  31.298  26.783  1.00  0.00    -0.374 OA
BRANCH  23  24
ATOM     24  C   UNL A   1      32.463  31.743  27.413  1.00  0.00     0.202 C 
BRANCH  24  25
ATOM     25  C   UNL A   1      32.094  33.207  27.153  1.00  0.00     0.261 C 
BRANCH  25  26
ATOM     26  O   UNL A   1      33.229  34.073  27.366  1.00  0.00    -0.460 OA
BRANCH  26  27
ATOM     27  C   UNL A   1      33.243  34.715  28.559  1.00  0.00     0.338 C 
ATOM     28  O   UNL A   1      32.400  35.478  29.000  1.00  0.00    -0.246 OA
BRANCH  27  29
ATOM     29  C   UNL A   1      34.369  34.231  29.380  1.00  0.00     0.060 A 
ATOM     30  C   UNL A   1      35.664  34.422  28.881  1.00  0.00     0.016 A 
ATOM     31  C   UNL A   1      34.162  33.521  30.564  1.00  0.00     0.016 A 
ATOM     32  C   UNL A   1      36.757  33.861  29.541  1.00  0.00     0.010 A 
ATOM     33  C   UNL A   1      35.258  32.945  31.216  1.00  0.00     0.010 A 
ATOM     34  C   UNL A   1      36.555  33.085  30.690  1.00  0.00    -0.014 A 
BRANCH  34  35
ATOM     35  C   UNL A   1      37.683  32.308  31.256  1.00  0.00     0.031 A 
ATOM     36  C   UNL A   1      38.195  32.652  32.627  1.00  0.00     0.074 A 
ATOM     37  C   UNL A   1      38.236  31.296  30.565  1.00  0.00     0.049 A 
ATOM     38  N   UNL A   1      39.186  32.125  33.300  1.00  0.00    -0.248 NA
ATOM     39  C   UNL A   1      37.493  33.734  33.335  1.00  0.00     0.031 C 
ATOM     40  C   UNL A   1      37.808  30.844  29.244  1.00  0.00     0.029 A 
ATOM     41  N   UNL A   1      39.289  30.474  30.881  1.00  0.00    -0.354 N 
ATOM     42  C   UNL A   1      39.227  32.809  34.507  1.00  0.00     0.074 A 
ATOM     43  C   UNL A   1      38.175  33.803  34.469  1.00  0.00     0.031 C 
ATOM     44  C   UNL A   1      38.605  29.835  28.851  1.00  0.00     0.029 A 
ATOM     45  C   UNL A   1      39.613  29.590  29.883  1.00  0.00     0.049 A 
ATOM     46  H   UNL A   1      39.765  30.514  31.742  1.00  0.00     0.167 HD
ATOM     47  C   UNL A   1      40.064  32.622  35.555  1.00  0.00     0.037 A 
ATOM     48  C   UNL A   1      40.623  28.702  29.802  1.00  0.00     0.037 A 
ATOM     49  C   UNL A   1      41.109  31.636  35.597  1.00  0.00     0.049 A 
ATOM     50  C   UNL A   1      41.588  28.566  30.951  1.00  0.00     0.074 A 
ATOM     51  C   UNL A   1      41.981  31.344  36.633  1.00  0.00     0.029 A 
ATOM     52  N   UNL A   1      41.434  30.787  34.550  1.00  0.00    -0.354 N 
ATOM     53  N   UNL A   1      41.595  29.190  32.103  1.00  0.00    -0.248 NA
ATOM     54  C   UNL A   1      42.689  27.605  30.783  1.00  0.00     0.031 C 
ATOM     55  C   UNL A   1      42.859  30.347  36.196  1.00  0.00     0.029 A 
ATOM     56  C   UNL A   1      42.512  29.994  34.903  1.00  0.00     0.049 A 
ATOM     57  H   UNL A   1      40.966  30.754  33.684  1.00  0.00     0.167 HD
ATOM     58  C   UNL A   1      42.684  28.687  32.803  1.00  0.00     0.074 A 
ATOM     59  C   UNL A   1      43.310  27.698  31.952  1.00  0.00     0.031 C 
ATOM     60  C   UNL A   1      43.125  29.015  34.042  1.00  0.00     0.037 A 
BRANCH  47  61
ATOM     61  C   UNL A   1      39.894  33.519  36.742  1.00  0.00     0.064 A 
ATOM     62  C   UNL A   1      40.556  34.753  36.828  1.00  0.00     0.173 A 
ATOM     63  C   UNL A   1      39.029  33.160  37.785  1.00  0.00     0.173 A 
ATOM     64  F   UNL A   1      41.404  35.132  35.859  1.00  0.00    -0.203 F 
ATOM     65  C   UNL A   1      40.370  35.587  37.926  1.00  0.00     0.198 A 
ATOM     66  C   UNL A   1      38.829  34.006  38.872  1.00  0.00     0.198 A 
ATOM     67  F   UNL A   1      38.372  31.991  37.746  1.00  0.00    -0.203 F 
ATOM     68  F   UNL A   1      41.034  36.749  38.003  1.00  0.00    -0.200 F 
ATOM     69  C   UNL A   1      39.502  35.217  38.943  1.00  0.00     0.200 A 
ATOM     70  F   UNL A   1      37.987  33.649  39.852  1.00  0.00    -0.200 F 
ATOM     71  F   UNL A   1      39.319  36.025  39.996  1.00  0.00    -0.200 F 
ENDBRANCH  47  61
BRANCH  48  72
ATOM     72  C   UNL A   1      40.793  27.887  28.575  1.00  0.00     0.064 A 
ATOM     73  C   UNL A   1      41.551  28.356  27.494  1.00  0.00     0.173 A 
ATOM     74  C   UNL A   1      40.189  26.627  28.454  1.00  0.00     0.173 A 
ATOM     75  F   UNL A   1      42.124  29.566  27.554  1.00  0.00    -0.203 F 
ATOM     76  C   UNL A   1      41.689  27.599  26.332  1.00  0.00     0.198 A 
ATOM     77  C   UNL A   1      40.345  25.862  27.301  1.00  0.00     0.198 A 
ATOM     78  F   UNL A   1      39.449  26.139  29.461  1.00  0.00    -0.203 F 
ATOM     79  F   UNL A   1      42.388  28.085  25.298  1.00  0.00    -0.200 F 
ATOM     80  C   UNL A   1      41.091  26.350  26.239  1.00  0.00     0.200 A 
ATOM     81  F   UNL A   1      39.770  24.655  27.218  1.00  0.00    -0.200 F 
ATOM     82  F   UNL A   1      41.225  25.623  25.122  1.00  0.00    -0.200 F 
ENDBRANCH  48  72
BRANCH  60  83
ATOM     83  C   UNL A   1      44.330  28.292  34.559  1.00  0.00     0.064 A 
ATOM     84  C   UNL A   1      44.213  27.066  35.232  1.00  0.00     0.173 A 
ATOM     85  C   UNL A   1      45.618  28.801  34.334  1.00  0.00     0.173 A 
ATOM     86  F   UNL A   1      43.002  26.549  35.483  1.00  0.00    -0.203 F 
ATOM     87  C   UNL A   1      45.342  26.383  35.672  1.00  0.00     0.198 A 
ATOM     88  C   UNL A   1      46.746  28.104  34.757  1.00  0.00     0.198 A 
ATOM     89  F   UNL A   1      45.781  29.966  33.691  1.00  0.00    -0.203 F 
ATOM     90  F   UNL A   1      45.207  25.229  36.340  1.00  0.00    -0.200 F 
ATOM     91  C   UNL A   1      46.608  26.898  35.429  1.00  0.00     0.200 A 
ATOM     92  F   UNL A   1      47.968  28.597  34.515  1.00  0.00    -0.200 F 
ATOM     93  F   UNL A   1      47.695  26.234  35.847  1.00  0.00    -0.200 F 
ENDBRANCH  60  83
ENDBRANCH  34  35
ENDBRANCH  27  29
ENDBRANCH  26  27
ENDBRANCH  25  26
ENDBRANCH  24  25
ENDBRANCH  23  24
ENDBRANCH   1  23
TORSDOF 18
ENDMDL
