MODEL 1
REMARK VINA RESULT:     -10.8      0.000      0.000
REMARK SMILES COc1cccc(C(=O)Nc2ccc(NC(=O)[C@@H]3[C@@H](C(=O)OCCOCCOC(=O)c4ccc(-c5c6nc(c(-c7c(F)c(F)c(F)c(F)c7F)c7ccc([nH]7)c(-c7c(F)c(F)c(F)c(F)c7F)c7nc(c(-c8c(F)c(F)c(F)c(F)c8F)c8ccc5[nH]8)C=C7)C=C6)cc4)[C@@H]4C=C[C@H]3C4)cc2)c1
REMARK SMILES IDX 23 1 22 2 20 3 21 4 19 5 18 6 97 7 94 8 96 9 98 10 95 11
REMARK SMILES IDX 16 12 15 13 17 15 14 16 11 17 12 18 100 19 13 20 99 21 10 22
REMARK SMILES IDX 8 23 9 24 7 26 3 27 4 28 101 29 5 30 6 31 2 32 1 33 24 34
REMARK SMILES IDX 25 35 26 36 27 37 28 38 29 39 30 40 31 41 32 42 93 43 33 44
REMARK SMILES IDX 92 45 34 46 35 47 36 48 86 49 37 50 91 51 85 52 87 53 38 54
REMARK SMILES IDX 90 55 84 56 83 57 39 59 71 60 51 61 70 62 52 63 55 64 69 65
REMARK SMILES IDX 88 66 53 67 54 68 68 70 89 71 56 72 40 73 41 74 49 75 42 76
REMARK SMILES IDX 43 77 47 78 50 79 44 80 45 81 48 82 46 83 72 84 73 85 81 86
REMARK SMILES IDX 74 87 75 88 79 89 82 90 76 91 77 92 80 93 78 94 57 95 58 96
REMARK SMILES IDX 66 97 59 98 60 99 64 100 67 101 61 102 62 103 65 104 63 105
REMARK H PARENT 15 14 10 25 87 58 55 69
REMARK Flexibility Score: inf
ROOT
ATOM      1  C   UNL A   1      44.107  20.635  25.149  1.00  0.00     0.261 C 
ENDROOT
BRANCH   1   2
ATOM      2  O   UNL A   1      43.552  21.556  26.115  1.00  0.00    -0.463 OA
BRANCH   2   3
ATOM      3  C   UNL A   1      42.803  22.559  25.587  1.00  0.00     0.310 C 
ATOM      4  O   UNL A   1      42.875  22.941  24.424  1.00  0.00    -0.252 OA
BRANCH   3   5
ATOM      5  C   UNL A   1      41.869  23.209  26.574  1.00  0.00     0.119 C 
ATOM      6  C   UNL A   1      40.413  23.382  26.064  1.00  0.00     0.100 C 
ATOM      7  C   UNL A   1      40.038  24.783  26.617  1.00  0.00     0.025 C 
ATOM      8  C   UNL A   1      42.231  24.639  27.051  1.00  0.00     0.027 C 
ATOM      9  C   UNL A   1      40.210  24.885  28.115  1.00  0.00    -0.027 C 
ATOM     10  C   UNL A   1      41.317  25.534  26.203  1.00  0.00     0.017 C 
ATOM     11  C   UNL A   1      41.524  24.824  28.376  1.00  0.00    -0.027 C 
BRANCH   6  12
ATOM     12  C   UNL A   1      39.587  22.197  26.501  1.00  0.00     0.228 C 
ATOM     13  N   UNL A   1      38.335  21.976  25.995  1.00  0.00    -0.326 N 
ATOM     14  H   UNL A   1      38.066  21.030  26.062  1.00  0.00     0.169 HD
ATOM     15  O   UNL A   1      40.034  21.350  27.277  1.00  0.00    -0.274 OA
BRANCH  13  16
ATOM     16  C   UNL A   1      37.334  22.776  25.401  1.00  0.00     0.041 A 
ATOM     17  C   UNL A   1      34.955  23.702  24.232  1.00  0.00     0.041 A 
ATOM     18  C   UNL A   1      35.364  24.204  25.456  1.00  0.00     0.028 A 
ATOM     19  C   UNL A   1      35.827  22.913  23.487  1.00  0.00     0.028 A 
ATOM     20  C   UNL A   1      36.526  23.708  26.048  1.00  0.00     0.028 A 
ATOM     21  C   UNL A   1      37.023  22.472  24.066  1.00  0.00     0.028 A 
BRANCH  17  22
ATOM     22  N   UNL A   1      33.618  23.910  23.895  1.00  0.00    -0.322 N 
ATOM     23  C   UNL A   1      32.576  23.007  23.849  1.00  0.00     0.255 C 
ATOM     24  O   UNL A   1      31.470  23.423  23.500  1.00  0.00    -0.269 OA
ATOM     25  H   UNL A   1      33.384  24.835  23.656  1.00  0.00     0.170 HD
BRANCH  23  26
ATOM     26  C   UNL A   1      32.703  21.580  24.278  1.00  0.00     0.043 A 
ATOM     27  C   UNL A   1      32.671  19.173  23.899  1.00  0.00     0.119 A 
ATOM     28  C   UNL A   1      32.899  18.975  25.263  1.00  0.00     0.046 A 
ATOM     29  C   UNL A   1      32.641  20.479  23.402  1.00  0.00     0.060 A 
ATOM     30  C   UNL A   1      33.075  20.057  26.124  1.00  0.00     0.005 A 
ATOM     31  C   UNL A   1      32.966  21.355  25.635  1.00  0.00     0.014 A 
BRANCH  27  32
ATOM     32  O   UNL A   1      32.505  18.014  23.198  1.00  0.00    -0.497 OA
ATOM     33  C   UNL A   1      33.291  16.873  23.502  1.00  0.00     0.278 C 
ENDBRANCH  27  32
ENDBRANCH  23  26
ENDBRANCH  17  22
ENDBRANCH  13  16
ENDBRANCH   6  12
ENDBRANCH   3   5
ENDBRANCH   2   3
ENDBRANCH   1   2
BRANCH   1  34
ATOM     34  C   UNL A   1      45.486  21.080  24.660  1.00  0.00     0.202 C 
BRANCH  34  35
ATOM     35  O   UNL A   1      46.221  21.970  25.500  1.00  0.00    -0.374 OA
BRANCH  35  36
ATOM     36  C   UNL A   1      46.425  23.298  25.031  1.00  0.00     0.202 C 
BRANCH  36  37
ATOM     37  C   UNL A   1      45.843  24.442  25.874  1.00  0.00     0.261 C 
BRANCH  37  38
ATOM     38  O   UNL A   1      46.375  24.494  27.206  1.00  0.00    -0.460 OA
BRANCH  38  39
ATOM     39  C   UNL A   1      45.544  23.975  28.141  1.00  0.00     0.338 C 
ATOM     40  O   UNL A   1      45.107  22.831  28.190  1.00  0.00    -0.246 OA
BRANCH  39  41
ATOM     41  C   UNL A   1      45.323  24.933  29.239  1.00  0.00     0.060 A 
ATOM     42  C   UNL A   1      44.553  24.490  30.321  1.00  0.00     0.016 A 
ATOM     43  C   UNL A   1      45.769  26.255  29.177  1.00  0.00     0.016 A 
ATOM     44  C   UNL A   1      44.151  25.387  31.305  1.00  0.00     0.010 A 
ATOM     45  C   UNL A   1      45.362  27.159  30.166  1.00  0.00     0.010 A 
ATOM     46  C   UNL A   1      44.507  26.738  31.201  1.00  0.00    -0.014 A 
BRANCH  46  47
ATOM     47  C   UNL A   1      43.815  27.727  32.063  1.00  0.00     0.031 A 
ATOM     48  C   UNL A   1      44.407  28.047  33.409  1.00  0.00     0.074 A 
ATOM     49  C   UNL A   1      42.725  28.382  31.625  1.00  0.00     0.049 A 
ATOM     50  N   UNL A   1      43.985  28.875  34.329  1.00  0.00    -0.248 NA
ATOM     51  C   UNL A   1      45.649  27.339  33.762  1.00  0.00     0.031 C 
ATOM     52  C   UNL A   1      42.099  28.199  30.319  1.00  0.00     0.029 A 
ATOM     53  N   UNL A   1      41.959  29.341  32.237  1.00  0.00    -0.354 N 
ATOM     54  C   UNL A   1      44.906  28.787  35.366  1.00  0.00     0.074 A 
ATOM     55  C   UNL A   1      45.889  27.800  34.980  1.00  0.00     0.031 C 
ATOM     56  C   UNL A   1      41.038  29.019  30.226  1.00  0.00     0.029 A 
ATOM     57  C   UNL A   1      40.895  29.762  31.477  1.00  0.00     0.049 A 
ATOM     58  H   UNL A   1      42.152  29.694  33.136  1.00  0.00     0.167 HD
ATOM     59  C   UNL A   1      44.938  29.481  36.528  1.00  0.00     0.037 A 
ATOM     60  C   UNL A   1      39.914  30.637  31.770  1.00  0.00     0.037 A 
ATOM     61  C   UNL A   1      43.957  30.463  36.909  1.00  0.00     0.049 A 
ATOM     62  C   UNL A   1      39.924  31.332  33.107  1.00  0.00     0.074 A 
ATOM     63  C   UNL A   1      43.890  31.213  38.069  1.00  0.00     0.029 A 
ATOM     64  N   UNL A   1      42.870  30.829  36.131  1.00  0.00    -0.354 N 
ATOM     65  N   UNL A   1      40.801  31.246  34.080  1.00  0.00    -0.248 NA
ATOM     66  C   UNL A   1      38.810  32.248  33.387  1.00  0.00     0.031 C 
ATOM     67  C   UNL A   1      42.737  32.003  38.011  1.00  0.00     0.029 A 
ATOM     68  C   UNL A   1      42.115  31.782  36.793  1.00  0.00     0.049 A 
ATOM     69  H   UNL A   1      42.665  30.466  35.238  1.00  0.00     0.167 HD
ATOM     70  C   UNL A   1      40.364  32.120  35.067  1.00  0.00     0.074 A 
ATOM     71  C   UNL A   1      39.148  32.732  34.573  1.00  0.00     0.031 C 
ATOM     72  C   UNL A   1      40.918  32.393  36.273  1.00  0.00     0.037 A 
BRANCH  59  73
ATOM     73  C   UNL A   1      46.059  29.186  37.482  1.00  0.00     0.064 A 
ATOM     74  C   UNL A   1      47.258  29.917  37.457  1.00  0.00     0.173 A 
ATOM     75  C   UNL A   1      45.925  28.180  38.449  1.00  0.00     0.173 A 
ATOM     76  F   UNL A   1      47.443  30.878  36.539  1.00  0.00    -0.203 F 
ATOM     77  C   UNL A   1      48.287  29.636  38.352  1.00  0.00     0.198 A 
ATOM     78  C   UNL A   1      46.945  27.921  39.361  1.00  0.00     0.198 A 
ATOM     79  F   UNL A   1      44.799  27.453  38.517  1.00  0.00    -0.203 F 
ATOM     80  F   UNL A   1      49.438  30.317  38.280  1.00  0.00    -0.200 F 
ATOM     81  C   UNL A   1      48.127  28.644  39.307  1.00  0.00     0.200 A 
ATOM     82  F   UNL A   1      46.785  26.968  40.290  1.00  0.00    -0.200 F 
ATOM     83  F   UNL A   1      49.116  28.379  40.172  1.00  0.00    -0.200 F 
ENDBRANCH  59  73
BRANCH  60  84
ATOM     84  C   UNL A   1      38.831  30.901  30.786  1.00  0.00     0.064 A 
ATOM     85  C   UNL A   1      38.830  32.066  30.006  1.00  0.00     0.173 A 
ATOM     86  C   UNL A   1      37.760  30.009  30.627  1.00  0.00     0.173 A 
ATOM     87  F   UNL A   1      39.818  32.962  30.140  1.00  0.00    -0.203 F 
ATOM     88  C   UNL A   1      37.786  32.339  29.122  1.00  0.00     0.198 A 
ATOM     89  C   UNL A   1      36.733  30.269  29.724  1.00  0.00     0.198 A 
ATOM     90  F   UNL A   1      37.713  28.881  31.352  1.00  0.00    -0.203 F 
ATOM     91  F   UNL A   1      37.783  33.485  28.428  1.00  0.00    -0.200 F 
ATOM     92  C   UNL A   1      36.741  31.438  28.978  1.00  0.00     0.200 A 
ATOM     93  F   UNL A   1      35.729  29.393  29.584  1.00  0.00    -0.200 F 
ATOM     94  F   UNL A   1      35.737  31.705  28.132  1.00  0.00    -0.200 F 
ENDBRANCH  60  84
BRANCH  72  95
ATOM     95  C   UNL A   1      40.245  33.432  37.123  1.00  0.00     0.064 A 
ATOM     96  C   UNL A   1      39.163  33.116  37.956  1.00  0.00     0.173 A 
ATOM     97  C   UNL A   1      40.725  34.751  37.139  1.00  0.00     0.173 A 
ATOM     98  F   UNL A   1      38.660  31.871  37.966  1.00  0.00    -0.203 F 
ATOM     99  C   UNL A   1      38.568  34.089  38.755  1.00  0.00     0.198 A 
ATOM    100  C   UNL A   1      40.147  35.713  37.961  1.00  0.00     0.198 A 
ATOM    101  F   UNL A   1      41.765  35.101  36.367  1.00  0.00    -0.203 F 
ATOM    102  F   UNL A   1      37.506  33.775  39.510  1.00  0.00    -0.200 F 
ATOM    103  C   UNL A   1      39.065  35.383  38.764  1.00  0.00     0.200 A 
ATOM    104  F   UNL A   1      40.639  36.961  37.978  1.00  0.00    -0.200 F 
ATOM    105  F   UNL A   1      38.498  36.316  39.539  1.00  0.00    -0.200 F 
ENDBRANCH  72  95
ENDBRANCH  46  47
ENDBRANCH  39  41
ENDBRANCH  38  39
ENDBRANCH  37  38
ENDBRANCH  36  37
ENDBRANCH  35  36
ENDBRANCH  34  35
ENDBRANCH   1  34
TORSDOF 19
ENDMDL
MODEL 2
REMARK VINA RESULT:     -10.5      0.747      6.920
REMARK SMILES COc1cccc(C(=O)Nc2ccc(NC(=O)[C@@H]3[C@@H](C(=O)OCCOCCOC(=O)c4ccc(-c5c6nc(c(-c7c(F)c(F)c(F)c(F)c7F)c7ccc([nH]7)c(-c7c(F)c(F)c(F)c(F)c7F)c7nc(c(-c8c(F)c(F)c(F)c(F)c8F)c8ccc5[nH]8)C=C7)C=C6)cc4)[C@@H]4C=C[C@H]3C4)cc2)c1
REMARK SMILES IDX 23 1 22 2 20 3 21 4 19 5 18 6 97 7 94 8 96 9 98 10 95 11
REMARK SMILES IDX 16 12 15 13 17 15 14 16 11 17 12 18 100 19 13 20 99 21 10 22
REMARK SMILES IDX 8 23 9 24 7 26 3 27 4 28 101 29 5 30 6 31 2 32 1 33 24 34
REMARK SMILES IDX 25 35 26 36 27 37 28 38 29 39 30 40 31 41 32 42 93 43 33 44
REMARK SMILES IDX 92 45 34 46 35 47 36 48 86 49 37 50 91 51 85 52 87 53 38 54
REMARK SMILES IDX 90 55 84 56 83 57 39 59 71 60 51 61 70 62 52 63 55 64 69 65
REMARK SMILES IDX 88 66 53 67 54 68 68 70 89 71 56 72 40 73 41 74 49 75 42 76
REMARK SMILES IDX 43 77 47 78 50 79 44 80 45 81 48 82 46 83 72 84 73 85 81 86
REMARK SMILES IDX 74 87 75 88 79 89 82 90 76 91 77 92 80 93 78 94 57 95 58 96
REMARK SMILES IDX 66 97 59 98 60 99 64 100 67 101 61 102 62 103 65 104 63 105
REMARK H PARENT 15 14 10 25 87 58 55 69
REMARK Flexibility Score: inf
ROOT
ATOM      1  C   UNL A   1      44.039  20.634  25.343  1.00  0.00     0.261 C 
ENDROOT
BRANCH   1   2
ATOM      2  O   UNL A   1      43.328  21.491  26.265  1.00  0.00    -0.463 OA
BRANCH   2   3
ATOM      3  C   UNL A   1      42.581  22.465  25.683  1.00  0.00     0.310 C 
ATOM      4  O   UNL A   1      42.707  22.837  24.522  1.00  0.00    -0.252 OA
BRANCH   3   5
ATOM      5  C   UNL A   1      41.573  23.097  26.608  1.00  0.00     0.119 C 
ATOM      6  C   UNL A   1      40.161  23.284  25.990  1.00  0.00     0.100 C 
ATOM      7  C   UNL A   1      39.745  24.673  26.541  1.00  0.00     0.025 C 
ATOM      8  C   UNL A   1      41.897  24.515  27.142  1.00  0.00     0.027 C 
ATOM      9  C   UNL A   1      39.800  24.744  28.050  1.00  0.00    -0.027 C 
ATOM     10  C   UNL A   1      41.053  25.430  26.244  1.00  0.00     0.017 C 
ATOM     11  C   UNL A   1      41.090  24.674  28.412  1.00  0.00    -0.027 C 
BRANCH   6  12
ATOM     12  C   UNL A   1      39.303  22.092  26.335  1.00  0.00     0.228 C 
ATOM     13  N   UNL A   1      38.049  21.940  25.808  1.00  0.00    -0.326 N 
ATOM     14  H   UNL A   1      37.756  20.999  25.805  1.00  0.00     0.169 HD
ATOM     15  O   UNL A   1      39.723  21.180  27.051  1.00  0.00    -0.274 OA
BRANCH  13  16
ATOM     16  C   UNL A   1      37.073  22.806  25.269  1.00  0.00     0.041 A 
ATOM     17  C   UNL A   1      34.673  23.925  24.335  1.00  0.00     0.041 A 
ATOM     18  C   UNL A   1      35.315  24.482  25.429  1.00  0.00     0.028 A 
ATOM     19  C   UNL A   1      35.325  22.960  23.573  1.00  0.00     0.028 A 
ATOM     20  C   UNL A   1      36.485  23.894  25.911  1.00  0.00     0.028 A 
ATOM     21  C   UNL A   1      36.533  22.421  24.031  1.00  0.00     0.028 A 
BRANCH  17  22
ATOM     22  N   UNL A   1      33.335  24.276  24.161  1.00  0.00    -0.322 N 
ATOM     23  C   UNL A   1      32.241  23.469  23.921  1.00  0.00     0.255 C 
ATOM     24  O   UNL A   1      31.145  24.013  23.780  1.00  0.00    -0.269 OA
ATOM     25  H   UNL A   1      33.142  25.239  24.218  1.00  0.00     0.170 HD
BRANCH  23  26
ATOM     26  C   UNL A   1      32.309  21.975  23.905  1.00  0.00     0.043 A 
ATOM     27  C   UNL A   1      32.515  19.785  24.953  1.00  0.00     0.119 A 
ATOM     28  C   UNL A   1      32.495  19.199  23.685  1.00  0.00     0.046 A 
ATOM     29  C   UNL A   1      32.354  21.169  25.059  1.00  0.00     0.060 A 
ATOM     30  C   UNL A   1      32.337  19.975  22.539  1.00  0.00     0.005 A 
ATOM     31  C   UNL A   1      32.256  21.360  22.648  1.00  0.00     0.014 A 
BRANCH  27  32
ATOM     32  O   UNL A   1      32.693  18.890  25.967  1.00  0.00    -0.497 OA
ATOM     33  C   UNL A   1      32.818  17.505  25.689  1.00  0.00     0.278 C 
ENDBRANCH  27  32
ENDBRANCH  23  26
ENDBRANCH  17  22
ENDBRANCH  13  16
ENDBRANCH   6  12
ENDBRANCH   3   5
ENDBRANCH   2   3
ENDBRANCH   1   2
BRANCH   1  34
ATOM     34  C   UNL A   1      45.459  21.136  25.075  1.00  0.00     0.202 C 
BRANCH  34  35
ATOM     35  O   UNL A   1      46.027  22.031  26.030  1.00  0.00    -0.374 OA
BRANCH  35  36
ATOM     36  C   UNL A   1      46.200  23.388  25.638  1.00  0.00     0.202 C 
BRANCH  36  37
ATOM     37  C   UNL A   1      45.626  24.470  26.564  1.00  0.00     0.261 C 
BRANCH  37  38
ATOM     38  O   UNL A   1      46.122  24.389  27.908  1.00  0.00    -0.460 OA
BRANCH  38  39
ATOM     39  C   UNL A   1      45.177  24.043  28.815  1.00  0.00     0.338 C 
ATOM     40  O   UNL A   1      44.542  22.996  28.858  1.00  0.00    -0.246 OA
BRANCH  39  41
ATOM     41  C   UNL A   1      45.089  25.045  29.891  1.00  0.00     0.060 A 
ATOM     42  C   UNL A   1      44.428  24.658  31.064  1.00  0.00     0.016 A 
ATOM     43  C   UNL A   1      45.549  26.354  29.733  1.00  0.00     0.016 A 
ATOM     44  C   UNL A   1      44.147  25.599  32.049  1.00  0.00     0.010 A 
ATOM     45  C   UNL A   1      45.263  27.301  30.723  1.00  0.00     0.010 A 
ATOM     46  C   UNL A   1      44.514  26.937  31.857  1.00  0.00    -0.014 A 
BRANCH  46  47
ATOM     47  C   UNL A   1      43.932  27.971  32.747  1.00  0.00     0.031 A 
ATOM     48  C   UNL A   1      42.688  28.689  32.296  1.00  0.00     0.074 A 
ATOM     49  C   UNL A   1      44.456  28.212  33.961  1.00  0.00     0.049 A 
ATOM     50  N   UNL A   1      42.001  29.624  32.901  1.00  0.00    -0.248 NA
ATOM     51  C   UNL A   1      42.142  28.294  30.988  1.00  0.00     0.031 C 
ATOM     52  C   UNL A   1      45.621  27.538  34.527  1.00  0.00     0.029 A 
ATOM     53  N   UNL A   1      44.065  29.091  34.940  1.00  0.00    -0.354 N 
ATOM     54  C   UNL A   1      40.946  29.926  32.048  1.00  0.00     0.074 A 
ATOM     55  C   UNL A   1      41.102  29.105  30.869  1.00  0.00     0.031 C 
ATOM     56  C   UNL A   1      45.855  28.029  35.756  1.00  0.00     0.029 A 
ATOM     57  C   UNL A   1      44.874  29.073  36.049  1.00  0.00     0.049 A 
ATOM     58  H   UNL A   1      43.280  29.679  34.854  1.00  0.00     0.167 HD
ATOM     59  C   UNL A   1      39.929  30.799  32.240  1.00  0.00     0.037 A 
ATOM     60  C   UNL A   1      44.830  29.826  37.165  1.00  0.00     0.037 A 
ATOM     61  C   UNL A   1      39.777  31.615  33.416  1.00  0.00     0.049 A 
ATOM     62  C   UNL A   1      43.736  30.852  37.316  1.00  0.00     0.074 A 
ATOM     63  C   UNL A   1      38.790  32.540  33.704  1.00  0.00     0.029 A 
ATOM     64  N   UNL A   1      40.642  31.600  34.499  1.00  0.00    -0.354 N 
ATOM     65  N   UNL A   1      42.741  31.129  36.508  1.00  0.00    -0.248 NA
ATOM     66  C   UNL A   1      43.759  31.670  38.537  1.00  0.00     0.031 C 
ATOM     67  C   UNL A   1      39.082  33.116  34.945  1.00  0.00     0.029 A 
ATOM     68  C   UNL A   1      40.222  32.513  35.452  1.00  0.00     0.049 A 
ATOM     69  H   UNL A   1      41.437  31.023  34.580  1.00  0.00     0.167 HD
ATOM     70  C   UNL A   1      42.002  32.123  37.136  1.00  0.00     0.074 A 
ATOM     71  C   UNL A   1      42.659  32.396  38.397  1.00  0.00     0.031 C 
ATOM     72  C   UNL A   1      40.881  32.754  36.710  1.00  0.00     0.037 A 
BRANCH  59  73
ATOM     73  C   UNL A   1      38.912  30.931  31.144  1.00  0.00     0.064 A 
ATOM     74  C   UNL A   1      37.893  29.981  30.968  1.00  0.00     0.173 A 
ATOM     75  C   UNL A   1      38.938  32.033  30.277  1.00  0.00     0.173 A 
ATOM     76  F   UNL A   1      37.834  28.900  31.760  1.00  0.00    -0.203 F 
ATOM     77  C   UNL A   1      36.953  30.121  29.950  1.00  0.00     0.198 A 
ATOM     78  C   UNL A   1      37.980  32.183  29.279  1.00  0.00     0.198 A 
ATOM     79  F   UNL A   1      39.890  32.970  30.404  1.00  0.00    -0.203 F 
ATOM     80  F   UNL A   1      36.016  29.179  29.773  1.00  0.00    -0.200 F 
ATOM     81  C   UNL A   1      36.992  31.224  29.112  1.00  0.00     0.200 A 
ATOM     82  F   UNL A   1      38.013  33.256  28.476  1.00  0.00    -0.200 F 
ATOM     83  F   UNL A   1      36.083  31.359  28.136  1.00  0.00    -0.200 F 
ENDBRANCH  59  73
BRANCH  60  84
ATOM     84  C   UNL A   1      45.856  29.649  38.227  1.00  0.00     0.064 A 
ATOM     85  C   UNL A   1      46.966  30.501  38.311  1.00  0.00     0.173 A 
ATOM     86  C   UNL A   1      45.762  28.607  39.161  1.00  0.00     0.173 A 
ATOM     87  F   UNL A   1      47.114  31.497  37.424  1.00  0.00    -0.203 F 
ATOM     88  C   UNL A   1      47.955  30.302  39.273  1.00  0.00     0.198 A 
ATOM     89  C   UNL A   1      46.736  28.425  40.139  1.00  0.00     0.198 A 
ATOM     90  F   UNL A   1      44.720  27.763  39.122  1.00  0.00    -0.203 F 
ATOM     91  F   UNL A   1      49.032  31.098  39.297  1.00  0.00    -0.200 F 
ATOM     92  C   UNL A   1      47.837  29.267  40.189  1.00  0.00     0.200 A 
ATOM     93  F   UNL A   1      46.614  27.429  41.026  1.00  0.00    -0.200 F 
ATOM     94  F   UNL A   1      48.791  29.074  41.110  1.00  0.00    -0.200 F 
ENDBRANCH  60  84
BRANCH  72  95
ATOM     95  C   UNL A   1      40.264  33.764  37.633  1.00  0.00     0.064 A 
ATOM     96  C   UNL A   1      39.251  33.416  38.538  1.00  0.00     0.173 A 
ATOM     97  C   UNL A   1      40.730  35.088  37.643  1.00  0.00     0.173 A 
ATOM     98  F   UNL A   1      38.763  32.166  38.556  1.00  0.00    -0.203 F 
ATOM     99  C   UNL A   1      38.709  34.363  39.403  1.00  0.00     0.198 A 
ATOM    100  C   UNL A   1      40.206  36.025  38.530  1.00  0.00     0.198 A 
ATOM    101  F   UNL A   1      41.704  35.469  36.803  1.00  0.00    -0.203 F 
ATOM    102  F   UNL A   1      37.711  34.019  40.228  1.00  0.00    -0.200 F 
ATOM    103  C   UNL A   1      39.192  35.663  39.404  1.00  0.00     0.200 A 
ATOM    104  F   UNL A   1      40.684  37.277  38.540  1.00  0.00    -0.200 F 
ATOM    105  F   UNL A   1      38.675  36.571  40.243  1.00  0.00    -0.200 F 
ENDBRANCH  72  95
ENDBRANCH  46  47
ENDBRANCH  39  41
ENDBRANCH  38  39
ENDBRANCH  37  38
ENDBRANCH  36  37
ENDBRANCH  35  36
ENDBRANCH  34  35
ENDBRANCH   1  34
TORSDOF 19
ENDMDL
MODEL 3
REMARK VINA RESULT:     -10.1      3.710      6.931
REMARK SMILES COc1cccc(C(=O)Nc2ccc(NC(=O)[C@@H]3[C@@H](C(=O)OCCOCCOC(=O)c4ccc(-c5c6nc(c(-c7c(F)c(F)c(F)c(F)c7F)c7ccc([nH]7)c(-c7c(F)c(F)c(F)c(F)c7F)c7nc(c(-c8c(F)c(F)c(F)c(F)c8F)c8ccc5[nH]8)C=C7)C=C6)cc4)[C@@H]4C=C[C@H]3C4)cc2)c1
REMARK SMILES IDX 23 1 22 2 20 3 21 4 19 5 18 6 97 7 94 8 96 9 98 10 95 11
REMARK SMILES IDX 16 12 15 13 17 15 14 16 11 17 12 18 100 19 13 20 99 21 10 22
REMARK SMILES IDX 8 23 9 24 7 26 3 27 4 28 101 29 5 30 6 31 2 32 1 33 24 34
REMARK SMILES IDX 25 35 26 36 27 37 28 38 29 39 30 40 31 41 32 42 93 43 33 44
REMARK SMILES IDX 92 45 34 46 35 47 36 48 86 49 37 50 91 51 85 52 87 53 38 54
REMARK SMILES IDX 90 55 84 56 83 57 39 59 71 60 51 61 70 62 52 63 55 64 69 65
REMARK SMILES IDX 88 66 53 67 54 68 68 70 89 71 56 72 40 73 41 74 49 75 42 76
REMARK SMILES IDX 43 77 47 78 50 79 44 80 45 81 48 82 46 83 72 84 73 85 81 86
REMARK SMILES IDX 74 87 75 88 79 89 82 90 76 91 77 92 80 93 78 94 57 95 58 96
REMARK SMILES IDX 66 97 59 98 60 99 64 100 67 101 61 102 62 103 65 104 63 105
REMARK H PARENT 15 14 10 25 87 58 55 69
REMARK Flexibility Score: inf
ROOT
ATOM      1  C   UNL A   1      43.325  22.939  25.190  1.00  0.00     0.261 C 
ENDROOT
BRANCH   1   2
ATOM      2  O   UNL A   1      43.572  24.138  25.957  1.00  0.00    -0.463 OA
BRANCH   2   3
ATOM      3  C   UNL A   1      42.643  25.119  25.804  1.00  0.00     0.310 C 
ATOM      4  O   UNL A   1      42.515  25.803  24.795  1.00  0.00    -0.252 OA
BRANCH   3   5
ATOM      5  C   UNL A   1      41.773  25.331  27.016  1.00  0.00     0.119 C 
ATOM      6  C   UNL A   1      40.333  24.766  26.880  1.00  0.00     0.100 C 
ATOM      7  C   UNL A   1      39.485  25.868  27.570  1.00  0.00     0.025 C 
ATOM      8  C   UNL A   1      41.520  26.795  27.456  1.00  0.00     0.027 C 
ATOM      9  C   UNL A   1      39.933  26.150  28.985  1.00  0.00    -0.027 C 
ATOM     10  C   UNL A   1      40.124  27.095  26.894  1.00  0.00     0.017 C 
ATOM     11  C   UNL A   1      41.141  26.728  28.919  1.00  0.00    -0.027 C 
BRANCH   6  12
ATOM     12  C   UNL A   1      40.288  23.370  27.449  1.00  0.00     0.228 C 
ATOM     13  N   UNL A   1      39.459  22.414  26.928  1.00  0.00    -0.326 N 
ATOM     14  H   UNL A   1      39.774  21.500  27.120  1.00  0.00     0.169 HD
ATOM     15  O   UNL A   1      41.043  23.019  28.359  1.00  0.00    -0.274 OA
BRANCH  13  16
ATOM     16  C   UNL A   1      38.260  22.421  26.182  1.00  0.00     0.041 A 
ATOM     17  C   UNL A   1      36.249  22.983  24.305  1.00  0.00     0.041 A 
ATOM     18  C   UNL A   1      36.834  21.727  24.335  1.00  0.00     0.028 A 
ATOM     19  C   UNL A   1      36.497  23.881  25.338  1.00  0.00     0.028 A 
ATOM     20  C   UNL A   1      37.862  21.471  25.244  1.00  0.00     0.028 A 
ATOM     21  C   UNL A   1      37.485  23.588  26.285  1.00  0.00     0.028 A 
BRANCH  17  22
ATOM     22  N   UNL A   1      35.552  23.311  23.143  1.00  0.00    -0.322 N 
ATOM     23  C   UNL A   1      34.191  23.390  22.929  1.00  0.00     0.255 C 
ATOM     24  O   UNL A   1      33.802  23.684  21.798  1.00  0.00    -0.269 OA
ATOM     25  H   UNL A   1      36.113  23.516  22.361  1.00  0.00     0.170 HD
BRANCH  23  26
ATOM     26  C   UNL A   1      33.177  23.218  24.015  1.00  0.00     0.043 A 
ATOM     27  C   UNL A   1      31.725  24.027  25.796  1.00  0.00     0.119 A 
ATOM     28  C   UNL A   1      31.342  22.709  26.056  1.00  0.00     0.046 A 
ATOM     29  C   UNL A   1      32.591  24.281  24.731  1.00  0.00     0.060 A 
ATOM     30  C   UNL A   1      31.826  21.656  25.281  1.00  0.00     0.005 A 
ATOM     31  C   UNL A   1      32.750  21.909  24.272  1.00  0.00     0.014 A 
BRANCH  27  32
ATOM     32  O   UNL A   1      31.174  24.935  26.653  1.00  0.00    -0.497 OA
ATOM     33  C   UNL A   1      31.260  26.324  26.379  1.00  0.00     0.278 C 
ENDBRANCH  27  32
ENDBRANCH  23  26
ENDBRANCH  17  22
ENDBRANCH  13  16
ENDBRANCH   6  12
ENDBRANCH   3   5
ENDBRANCH   2   3
ENDBRANCH   1   2
BRANCH   1  34
ATOM     34  C   UNL A   1      44.235  22.846  23.964  1.00  0.00     0.202 C 
BRANCH  34  35
ATOM     35  O   UNL A   1      45.496  22.200  24.134  1.00  0.00    -0.374 OA
BRANCH  35  36
ATOM     36  C   UNL A   1      46.660  23.020  24.136  1.00  0.00     0.202 C 
BRANCH  36  37
ATOM     37  C   UNL A   1      46.670  24.230  25.081  1.00  0.00     0.261 C 
BRANCH  37  38
ATOM     38  O   UNL A   1      46.344  25.465  24.427  1.00  0.00    -0.460 OA
BRANCH  38  39
ATOM     39  C   UNL A   1      47.236  26.456  24.664  1.00  0.00     0.338 C 
ATOM     40  O   UNL A   1      48.347  26.586  24.164  1.00  0.00    -0.246 OA
BRANCH  39  41
ATOM     41  C   UNL A   1      46.646  27.501  25.519  1.00  0.00     0.060 A 
ATOM     42  C   UNL A   1      47.532  28.260  26.294  1.00  0.00     0.016 A 
ATOM     43  C   UNL A   1      45.266  27.677  25.640  1.00  0.00     0.016 A 
ATOM     44  C   UNL A   1      47.042  29.137  27.256  1.00  0.00     0.010 A 
ATOM     45  C   UNL A   1      44.773  28.557  26.610  1.00  0.00     0.010 A 
ATOM     46  C   UNL A   1      45.660  29.248  27.456  1.00  0.00    -0.014 A 
BRANCH  46  47
ATOM     47  C   UNL A   1      45.168  29.927  28.679  1.00  0.00     0.031 A 
ATOM     48  C   UNL A   1      44.911  31.409  28.625  1.00  0.00     0.074 A 
ATOM     49  C   UNL A   1      44.885  29.227  29.792  1.00  0.00     0.049 A 
ATOM     50  N   UNL A   1      44.479  32.215  29.560  1.00  0.00    -0.248 NA
ATOM     51  C   UNL A   1      45.171  32.071  27.335  1.00  0.00     0.031 C 
ATOM     52  C   UNL A   1      45.037  27.783  29.942  1.00  0.00     0.029 A 
ATOM     53  N   UNL A   1      44.401  29.644  31.006  1.00  0.00    -0.354 N 
ATOM     54  C   UNL A   1      44.416  33.473  28.974  1.00  0.00     0.074 A 
ATOM     55  C   UNL A   1      44.889  33.334  27.615  1.00  0.00     0.031 C 
ATOM     56  C   UNL A   1      44.656  27.431  31.182  1.00  0.00     0.029 A 
ATOM     57  C   UNL A   1      44.262  28.630  31.920  1.00  0.00     0.049 A 
ATOM     58  H   UNL A   1      44.175  30.583  31.203  1.00  0.00     0.167 HD
ATOM     59  C   UNL A   1      43.987  34.637  29.517  1.00  0.00     0.037 A 
ATOM     60  C   UNL A   1      43.874  28.673  33.209  1.00  0.00     0.037 A 
ATOM     61  C   UNL A   1      43.517  34.771  30.870  1.00  0.00     0.049 A 
ATOM     62  C   UNL A   1      43.484  29.997  33.815  1.00  0.00     0.074 A 
ATOM     63  C   UNL A   1      43.072  35.907  31.522  1.00  0.00     0.029 A 
ATOM     64  N   UNL A   1      43.433  33.728  31.779  1.00  0.00    -0.354 N 
ATOM     65  N   UNL A   1      43.424  31.181  33.254  1.00  0.00    -0.248 NA
ATOM     66  C   UNL A   1      43.104  29.989  35.235  1.00  0.00     0.031 C 
ATOM     67  C   UNL A   1      42.758  35.559  32.840  1.00  0.00     0.029 A 
ATOM     68  C   UNL A   1      42.960  34.196  32.994  1.00  0.00     0.049 A 
ATOM     69  H   UNL A   1      43.673  32.792  31.589  1.00  0.00     0.167 HD
ATOM     70  C   UNL A   1      42.967  32.049  34.237  1.00  0.00     0.074 A 
ATOM     71  C   UNL A   1      42.759  31.254  35.430  1.00  0.00     0.031 C 
ATOM     72  C   UNL A   1      42.741  33.383  34.162  1.00  0.00     0.037 A 
BRANCH  59  73
ATOM     73  C   UNL A   1      44.025  35.862  28.650  1.00  0.00     0.064 A 
ATOM     74  C   UNL A   1      42.895  36.296  27.939  1.00  0.00     0.173 A 
ATOM     75  C   UNL A   1      45.197  36.627  28.550  1.00  0.00     0.173 A 
ATOM     76  F   UNL A   1      41.755  35.591  27.987  1.00  0.00    -0.203 F 
ATOM     77  C   UNL A   1      42.945  37.439  27.144  1.00  0.00     0.198 A 
ATOM     78  C   UNL A   1      45.235  37.784  27.777  1.00  0.00     0.198 A 
ATOM     79  F   UNL A   1      46.305  36.256  29.211  1.00  0.00    -0.203 F 
ATOM     80  F   UNL A   1      41.867  37.809  26.440  1.00  0.00    -0.200 F 
ATOM     81  C   UNL A   1      44.111  38.185  27.070  1.00  0.00     0.200 A 
ATOM     82  F   UNL A   1      46.360  38.510  27.713  1.00  0.00    -0.200 F 
ATOM     83  F   UNL A   1      44.155  39.288  26.308  1.00  0.00    -0.200 F 
ENDBRANCH  59  73
BRANCH  60  84
ATOM     84  C   UNL A   1      43.844  27.428  34.022  1.00  0.00     0.064 A 
ATOM     85  C   UNL A   1      45.019  26.884  34.559  1.00  0.00     0.173 A 
ATOM     86  C   UNL A   1      42.642  26.742  34.255  1.00  0.00     0.173 A 
ATOM     87  F   UNL A   1      46.196  27.490  34.343  1.00  0.00    -0.203 F 
ATOM     88  C   UNL A   1      44.996  25.689  35.276  1.00  0.00     0.198 A 
ATOM     89  C   UNL A   1      42.617  25.562  34.994  1.00  0.00     0.198 A 
ATOM     90  F   UNL A   1      41.491  27.220  33.761  1.00  0.00    -0.203 F 
ATOM     91  F   UNL A   1      46.142  25.163  35.732  1.00  0.00    -0.200 F 
ATOM     92  C   UNL A   1      43.795  25.032  35.497  1.00  0.00     0.200 A 
ATOM     93  F   UNL A   1      41.454  24.935  35.211  1.00  0.00    -0.200 F 
ATOM     94  F   UNL A   1      43.776  23.880  36.182  1.00  0.00    -0.200 F 
ENDBRANCH  60  84
BRANCH  72  95
ATOM     95  C   UNL A   1      42.195  34.060  35.385  1.00  0.00     0.064 A 
ATOM     96  C   UNL A   1      40.818  34.129  35.638  1.00  0.00     0.173 A 
ATOM     97  C   UNL A   1      43.068  34.604  36.341  1.00  0.00     0.173 A 
ATOM     98  F   UNL A   1      39.943  33.636  34.747  1.00  0.00    -0.203 F 
ATOM     99  C   UNL A   1      40.332  34.741  36.791  1.00  0.00     0.198 A 
ATOM    100  C   UNL A   1      42.580  35.188  37.506  1.00  0.00     0.198 A 
ATOM    101  F   UNL A   1      44.394  34.555  36.150  1.00  0.00    -0.203 F 
ATOM    102  F   UNL A   1      39.010  34.835  36.990  1.00  0.00    -0.200 F 
ATOM    103  C   UNL A   1      41.212  35.261  37.727  1.00  0.00     0.200 A 
ATOM    104  F   UNL A   1      43.433  35.678  38.416  1.00  0.00    -0.200 F 
ATOM    105  F   UNL A   1      40.744  35.842  38.840  1.00  0.00    -0.200 F 
ENDBRANCH  72  95
ENDBRANCH  46  47
ENDBRANCH  39  41
ENDBRANCH  38  39
ENDBRANCH  37  38
ENDBRANCH  36  37
ENDBRANCH  35  36
ENDBRANCH  34  35
ENDBRANCH   1  34
TORSDOF 19
ENDMDL
