MODEL 1
REMARK VINA RESULT:     -12.5      0.000      0.000
REMARK SMILES O=C(OCCOCCOC(=O)[C@@H]1[C@H](C(=O)Nc2ccccc2Cc2ccccc2)[C@H]2C=C[C@@H]1O2)c1ccc(-c2c3nc(c(-c4c(F)c(F)c(F)c(F)c4F)c4ccc([nH]4)c(-c4c(F)c(F)c(F)c(F)c4F)c4nc(c(-c5c(F)c(F)c(F)c(F)c5F)c5ccc2[nH]5)C=C4)C=C3)cc1
REMARK SMILES IDX 7 1 6 2 5 3 4 4 3 5 2 6 1 7 35 8 36 9 97 10 37 11 96 12
REMARK SMILES IDX 38 13 39 14 40 15 90 16 41 17 95 18 89 19 91 20 42 21 94 22
REMARK SMILES IDX 88 23 87 24 43 26 75 27 55 28 74 29 56 30 59 31 73 32 92 33
REMARK SMILES IDX 57 34 58 35 72 37 93 38 60 39 44 40 45 41 53 42 46 43 47 44
REMARK SMILES IDX 51 45 54 46 48 47 49 48 52 49 50 50 76 51 77 52 85 53 78 54
REMARK SMILES IDX 79 55 83 56 86 57 80 58 81 59 84 60 82 61 61 62 62 63 70 64
REMARK SMILES IDX 63 65 64 66 68 67 71 68 65 69 66 70 69 71 67 72 8 73 9 74
REMARK SMILES IDX 10 75 11 76 12 77 13 78 33 79 30 80 32 81 34 82 31 83 14 84
REMARK SMILES IDX 15 85 16 86 17 88 18 89 22 90 19 91 21 92 20 93 23 94 24 95
REMARK SMILES IDX 25 96 29 97 26 98 28 99 27 100
REMARK H PARENT 91 25 59 36 16 87
REMARK Flexibility Score: inf
ROOT
ATOM      1  C   UNL A   1      33.652  27.432  26.219  1.00  0.00     0.202 C 
ENDROOT
BRANCH   1   2
ATOM      2  O   UNL A   1      32.953  28.064  27.298  1.00  0.00    -0.374 OA
BRANCH   2   3
ATOM      3  C   UNL A   1      31.776  28.800  26.953  1.00  0.00     0.202 C 
BRANCH   3   4
ATOM      4  C   UNL A   1      31.947  30.267  26.524  1.00  0.00     0.261 C 
BRANCH   4   5
ATOM      5  O   UNL A   1      33.320  30.748  26.524  1.00  0.00    -0.460 OA
BRANCH   5   6
ATOM      6  C   UNL A   1      33.869  31.611  27.416  1.00  0.00     0.338 C 
ATOM      7  O   UNL A   1      33.281  32.603  27.820  1.00  0.00    -0.246 OA
BRANCH   6   8
ATOM      8  C   UNL A   1      35.219  31.290  27.896  1.00  0.00     0.060 A 
ATOM      9  C   UNL A   1      35.490  29.991  28.274  1.00  0.00     0.016 A 
ATOM     10  C   UNL A   1      36.196  32.272  28.039  1.00  0.00     0.016 A 
ATOM     11  C   UNL A   1      36.540  29.752  29.137  1.00  0.00     0.010 A 
ATOM     12  C   UNL A   1      37.401  31.941  28.668  1.00  0.00     0.010 A 
ATOM     13  C   UNL A   1      37.561  30.687  29.290  1.00  0.00    -0.014 A 
BRANCH  13  14
ATOM     14  C   UNL A   1      38.768  30.341  30.092  1.00  0.00     0.031 A 
ATOM     15  C   UNL A   1      39.847  29.491  29.480  1.00  0.00     0.074 A 
ATOM     16  C   UNL A   1      38.914  30.800  31.354  1.00  0.00     0.049 A 
ATOM     17  N   UNL A   1      40.766  28.771  30.066  1.00  0.00    -0.248 NA
ATOM     18  C   UNL A   1      39.872  29.409  28.011  1.00  0.00     0.031 C 
ATOM     19  C   UNL A   1      38.000  31.713  32.051  1.00  0.00     0.029 A 
ATOM     20  N   UNL A   1      39.903  30.583  32.282  1.00  0.00    -0.354 N 
ATOM     21  C   UNL A   1      41.390  28.056  29.051  1.00  0.00     0.074 A 
ATOM     22  C   UNL A   1      40.774  28.460  27.806  1.00  0.00     0.031 C 
ATOM     23  C   UNL A   1      38.520  32.064  33.231  1.00  0.00     0.029 A 
ATOM     24  C   UNL A   1      39.688  31.239  33.471  1.00  0.00     0.049 A 
ATOM     25  H   UNL A   1      40.688  30.014  32.112  1.00  0.00     0.167 HD
ATOM     26  C   UNL A   1      42.363  27.121  29.177  1.00  0.00     0.037 A 
ATOM     27  C   UNL A   1      40.294  31.114  34.665  1.00  0.00     0.037 A 
ATOM     28  C   UNL A   1      43.000  26.819  30.434  1.00  0.00     0.049 A 
ATOM     29  C   UNL A   1      41.352  30.061  34.791  1.00  0.00     0.074 A 
ATOM     30  C   UNL A   1      43.981  25.886  30.716  1.00  0.00     0.029 A 
ATOM     31  N   UNL A   1      42.726  27.485  31.625  1.00  0.00    -0.354 N 
ATOM     32  N   UNL A   1      41.835  29.264  33.869  1.00  0.00    -0.248 NA
ATOM     33  C   UNL A   1      41.912  29.854  36.129  1.00  0.00     0.031 C 
ATOM     34  C   UNL A   1      44.275  25.967  32.083  1.00  0.00     0.029 A 
ATOM     35  C   UNL A   1      43.518  26.984  32.644  1.00  0.00     0.049 A 
ATOM     36  H   UNL A   1      42.066  28.208  31.728  1.00  0.00     0.167 HD
ATOM     37  C   UNL A   1      42.767  28.464  34.509  1.00  0.00     0.074 A 
ATOM     38  C   UNL A   1      42.794  28.893  35.896  1.00  0.00     0.031 C 
ATOM     39  C   UNL A   1      43.524  27.458  34.006  1.00  0.00     0.037 A 
BRANCH  26  40
ATOM     40  C   UNL A   1      42.715  26.313  27.958  1.00  0.00     0.064 A 
ATOM     41  C   UNL A   1      43.715  26.699  27.052  1.00  0.00     0.173 A 
ATOM     42  C   UNL A   1      42.004  25.135  27.674  1.00  0.00     0.173 A 
ATOM     43  F   UNL A   1      44.415  27.824  27.259  1.00  0.00    -0.203 F 
ATOM     44  C   UNL A   1      43.954  25.966  25.888  1.00  0.00     0.198 A 
ATOM     45  C   UNL A   1      42.267  24.386  26.528  1.00  0.00     0.198 A 
ATOM     46  F   UNL A   1      41.039  24.712  28.504  1.00  0.00    -0.203 F 
ATOM     47  F   UNL A   1      44.862  26.398  25.002  1.00  0.00    -0.200 F 
ATOM     48  C   UNL A   1      43.233  24.810  25.629  1.00  0.00     0.200 A 
ATOM     49  F   UNL A   1      41.575  23.264  26.287  1.00  0.00    -0.200 F 
ATOM     50  F   UNL A   1      43.455  24.116  24.505  1.00  0.00    -0.200 F 
ENDBRANCH  26  40
BRANCH  27  51
ATOM     51  C   UNL A   1      39.844  31.929  35.829  1.00  0.00     0.064 A 
ATOM     52  C   UNL A   1      40.511  33.110  36.176  1.00  0.00     0.173 A 
ATOM     53  C   UNL A   1      38.724  31.567  36.598  1.00  0.00     0.173 A 
ATOM     54  F   UNL A   1      41.599  33.490  35.490  1.00  0.00    -0.203 F 
ATOM     55  C   UNL A   1      40.079  33.896  37.244  1.00  0.00     0.198 A 
ATOM     56  C   UNL A   1      38.269  32.374  37.639  1.00  0.00     0.198 A 
ATOM     57  F   UNL A   1      38.044  30.447  36.314  1.00  0.00    -0.203 F 
ATOM     58  F   UNL A   1      40.760  35.001  37.577  1.00  0.00    -0.200 F 
ATOM     59  C   UNL A   1      38.952  33.534  37.967  1.00  0.00     0.200 A 
ATOM     60  F   UNL A   1      37.164  32.032  38.316  1.00  0.00    -0.200 F 
ATOM     61  F   UNL A   1      38.527  34.301  38.980  1.00  0.00    -0.200 F 
ENDBRANCH  27  51
BRANCH  39  62
ATOM     62  C   UNL A   1      44.484  26.815  34.956  1.00  0.00     0.064 A 
ATOM     63  C   UNL A   1      45.791  27.294  35.122  1.00  0.00     0.173 A 
ATOM     64  C   UNL A   1      44.080  25.709  35.716  1.00  0.00     0.173 A 
ATOM     65  F   UNL A   1      46.227  28.335  34.395  1.00  0.00    -0.203 F 
ATOM     66  C   UNL A   1      46.672  26.666  35.996  1.00  0.00     0.198 A 
ATOM     67  C   UNL A   1      44.953  25.103  36.613  1.00  0.00     0.198 A 
ATOM     68  F   UNL A   1      42.838  25.219  35.589  1.00  0.00    -0.203 F 
ATOM     69  F   UNL A   1      47.935  27.100  36.098  1.00  0.00    -0.200 F 
ATOM     70  C   UNL A   1      46.249  25.576  36.745  1.00  0.00     0.200 A 
ATOM     71  F   UNL A   1      44.540  24.058  37.342  1.00  0.00    -0.200 F 
ATOM     72  F   UNL A   1      47.099  24.974  37.589  1.00  0.00    -0.200 F 
ENDBRANCH  39  62
ENDBRANCH  13  14
ENDBRANCH   6   8
ENDBRANCH   5   6
ENDBRANCH   4   5
ENDBRANCH   3   4
ENDBRANCH   2   3
ENDBRANCH   1   2
BRANCH   1  73
ATOM     73  C   UNL A   1      33.366  25.918  26.126  1.00  0.00     0.261 C 
BRANCH  73  74
ATOM     74  O   UNL A   1      31.950  25.554  26.106  1.00  0.00    -0.463 OA
BRANCH  74  75
ATOM     75  C   UNL A   1      31.699  24.237  26.260  1.00  0.00     0.312 C 
ATOM     76  O   UNL A   1      30.685  23.833  26.791  1.00  0.00    -0.252 OA
BRANCH  75  77
ATOM     77  C   UNL A   1      32.719  23.301  25.699  1.00  0.00     0.147 C 
ATOM     78  C   UNL A   1      32.616  23.181  24.163  1.00  0.00     0.129 C 
ATOM     79  C   UNL A   1      32.541  21.818  26.088  1.00  0.00     0.157 C 
ATOM     80  C   UNL A   1      32.601  21.685  23.911  1.00  0.00     0.155 C 
ATOM     81  C   UNL A   1      33.809  21.087  25.751  1.00  0.00     0.004 C 
ATOM     82  O   UNL A   1      31.743  21.280  24.991  1.00  0.00    -0.365 OA
ATOM     83  C   UNL A   1      33.867  21.043  24.409  1.00  0.00     0.004 C 
BRANCH  78  84
ATOM     84  C   UNL A   1      31.503  23.912  23.450  1.00  0.00     0.231 C 
ATOM     85  O   UNL A   1      30.533  23.192  23.126  1.00  0.00    -0.274 OA
ATOM     86  N   UNL A   1      31.290  25.205  23.155  1.00  0.00    -0.325 N 
ATOM     87  H   UNL A   1      30.325  25.254  22.967  1.00  0.00     0.169 HD
BRANCH  86  88
ATOM     88  C   UNL A   1      31.751  26.544  22.977  1.00  0.00     0.044 A 
ATOM     89  C   UNL A   1      33.125  26.470  22.573  1.00  0.00     0.026 A 
ATOM     90  C   UNL A   1      31.230  27.851  23.203  1.00  0.00    -0.020 A 
ATOM     91  C   UNL A   1      33.951  27.571  22.373  1.00  0.00     0.002 A 
ATOM     92  C   UNL A   1      32.091  28.953  22.906  1.00  0.00     0.006 A 
ATOM     93  C   UNL A   1      33.426  28.828  22.535  1.00  0.00     0.000 A 
BRANCH  90  94
ATOM     94  C   UNL A   1      29.868  28.333  23.713  1.00  0.00     0.073 C 
BRANCH  94  95
ATOM     95  C   UNL A   1      29.207  29.638  23.213  1.00  0.00    -0.044 A 
ATOM     96  C   UNL A   1      28.626  29.667  21.927  1.00  0.00     0.004 A 
ATOM     97  C   UNL A   1      29.271  30.872  23.875  1.00  0.00     0.004 A 
ATOM     98  C   UNL A   1      28.046  30.817  21.378  1.00  0.00     0.000 A 
ATOM     99  C   UNL A   1      28.728  32.041  23.313  1.00  0.00     0.000 A 
ATOM    100  C   UNL A   1      28.096  32.011  22.075  1.00  0.00     0.000 A 
ENDBRANCH  94  95
ENDBRANCH  90  94
ENDBRANCH  86  88
ENDBRANCH  78  84
ENDBRANCH  75  77
ENDBRANCH  74  75
ENDBRANCH  73  74
ENDBRANCH   1  73
TORSDOF 18
ENDMDL
MODEL 2
REMARK VINA RESULT:     -12.1      4.233      9.271
REMARK SMILES O=C(OCCOCCOC(=O)[C@@H]1[C@H](C(=O)Nc2ccccc2Cc2ccccc2)[C@H]2C=C[C@@H]1O2)c1ccc(-c2c3nc(c(-c4c(F)c(F)c(F)c(F)c4F)c4ccc([nH]4)c(-c4c(F)c(F)c(F)c(F)c4F)c4nc(c(-c5c(F)c(F)c(F)c(F)c5F)c5ccc2[nH]5)C=C4)C=C3)cc1
REMARK SMILES IDX 7 1 6 2 5 3 4 4 3 5 2 6 1 7 35 8 36 9 97 10 37 11 96 12
REMARK SMILES IDX 38 13 39 14 40 15 90 16 41 17 95 18 89 19 91 20 42 21 94 22
REMARK SMILES IDX 88 23 87 24 43 26 75 27 55 28 74 29 56 30 59 31 73 32 92 33
REMARK SMILES IDX 57 34 58 35 72 37 93 38 60 39 44 40 45 41 53 42 46 43 47 44
REMARK SMILES IDX 51 45 54 46 48 47 49 48 52 49 50 50 76 51 77 52 85 53 78 54
REMARK SMILES IDX 79 55 83 56 86 57 80 58 81 59 84 60 82 61 61 62 62 63 70 64
REMARK SMILES IDX 63 65 64 66 68 67 71 68 65 69 66 70 69 71 67 72 8 73 9 74
REMARK SMILES IDX 10 75 11 76 12 77 13 78 33 79 30 80 32 81 34 82 31 83 14 84
REMARK SMILES IDX 15 85 16 86 17 88 18 89 22 90 19 91 21 92 20 93 23 94 24 95
REMARK SMILES IDX 25 96 29 97 26 98 28 99 27 100
REMARK H PARENT 91 25 59 36 16 87
REMARK Flexibility Score: inf
ROOT
ATOM      1  C   UNL A   1      35.142  24.423  24.464  1.00  0.00     0.202 C 
ENDROOT
BRANCH   1   2
ATOM      2  O   UNL A   1      36.422  23.918  24.063  1.00  0.00    -0.374 OA
BRANCH   2   3
ATOM      3  C   UNL A   1      36.439  22.620  23.463  1.00  0.00     0.202 C 
BRANCH   3   4
ATOM      4  C   UNL A   1      37.109  21.477  24.245  1.00  0.00     0.261 C 
BRANCH   4   5
ATOM      5  O   UNL A   1      37.615  21.849  25.557  1.00  0.00    -0.460 OA
BRANCH   5   6
ATOM      6  C   UNL A   1      38.882  21.671  26.010  1.00  0.00     0.338 C 
ATOM      7  O   UNL A   1      39.505  20.635  25.835  1.00  0.00    -0.246 OA
BRANCH   6   8
ATOM      8  C   UNL A   1      39.491  22.804  26.719  1.00  0.00     0.060 A 
ATOM      9  C   UNL A   1      39.020  24.074  26.454  1.00  0.00     0.016 A 
ATOM     10  C   UNL A   1      40.564  22.630  27.587  1.00  0.00     0.016 A 
ATOM     11  C   UNL A   1      39.834  25.157  26.717  1.00  0.00     0.010 A 
ATOM     12  C   UNL A   1      41.216  23.761  28.093  1.00  0.00     0.010 A 
ATOM     13  C   UNL A   1      40.901  25.044  27.606  1.00  0.00    -0.014 A 
BRANCH  13  14
ATOM     14  C   UNL A   1      41.662  26.261  28.007  1.00  0.00     0.031 A 
ATOM     15  C   UNL A   1      41.021  27.269  28.919  1.00  0.00     0.074 A 
ATOM     16  C   UNL A   1      42.929  26.456  27.578  1.00  0.00     0.049 A 
ATOM     17  N   UNL A   1      41.316  28.530  29.097  1.00  0.00    -0.248 NA
ATOM     18  C   UNL A   1      39.869  26.809  29.711  1.00  0.00     0.031 C 
ATOM     19  C   UNL A   1      43.718  25.522  26.768  1.00  0.00     0.029 A 
ATOM     20  N   UNL A   1      43.795  27.502  27.780  1.00  0.00    -0.354 N 
ATOM     21  C   UNL A   1      40.315  29.040  29.914  1.00  0.00     0.074 A 
ATOM     22  C   UNL A   1      39.427  27.944  30.233  1.00  0.00     0.031 C 
ATOM     23  C   UNL A   1      44.969  25.974  26.642  1.00  0.00     0.029 A 
ATOM     24  C   UNL A   1      45.015  27.325  27.169  1.00  0.00     0.049 A 
ATOM     25  H   UNL A   1      43.566  28.299  28.310  1.00  0.00     0.167 HD
ATOM     26  C   UNL A   1      40.152  30.323  30.318  1.00  0.00     0.037 A 
ATOM     27  C   UNL A   1      46.024  28.186  26.956  1.00  0.00     0.037 A 
ATOM     28  C   UNL A   1      41.116  31.359  30.040  1.00  0.00     0.049 A 
ATOM     29  C   UNL A   1      45.817  29.606  27.389  1.00  0.00     0.074 A 
ATOM     30  C   UNL A   1      41.074  32.702  30.365  1.00  0.00     0.029 A 
ATOM     31  N   UNL A   1      42.324  31.143  29.385  1.00  0.00    -0.354 N 
ATOM     32  N   UNL A   1      44.797  30.134  28.021  1.00  0.00    -0.248 NA
ATOM     33  C   UNL A   1      46.875  30.557  27.037  1.00  0.00     0.031 C 
ATOM     34  C   UNL A   1      42.242  33.302  29.879  1.00  0.00     0.029 A 
ATOM     35  C   UNL A   1      43.036  32.326  29.297  1.00  0.00     0.049 A 
ATOM     36  H   UNL A   1      42.629  30.274  29.037  1.00  0.00     0.167 HD
ATOM     37  C   UNL A   1      45.090  31.481  28.154  1.00  0.00     0.074 A 
ATOM     38  C   UNL A   1      46.398  31.679  27.556  1.00  0.00     0.031 C 
ATOM     39  C   UNL A   1      44.345  32.469  28.709  1.00  0.00     0.037 A 
BRANCH  26  40
ATOM     40  C   UNL A   1      38.862  30.680  31.005  1.00  0.00     0.064 A 
ATOM     41  C   UNL A   1      37.690  31.000  30.304  1.00  0.00     0.173 A 
ATOM     42  C   UNL A   1      38.812  30.735  32.408  1.00  0.00     0.173 A 
ATOM     43  F   UNL A   1      37.680  30.983  28.962  1.00  0.00    -0.203 F 
ATOM     44  C   UNL A   1      36.537  31.407  30.977  1.00  0.00     0.198 A 
ATOM     45  C   UNL A   1      37.650  31.109  33.079  1.00  0.00     0.198 A 
ATOM     46  F   UNL A   1      39.900  30.436  33.135  1.00  0.00    -0.203 F 
ATOM     47  F   UNL A   1      35.454  31.780  30.281  1.00  0.00    -0.200 F 
ATOM     48  C   UNL A   1      36.517  31.459  32.362  1.00  0.00     0.200 A 
ATOM     49  F   UNL A   1      37.632  31.149  34.419  1.00  0.00    -0.200 F 
ATOM     50  F   UNL A   1      35.413  31.862  33.005  1.00  0.00    -0.200 F 
ENDBRANCH  26  40
BRANCH  27  51
ATOM     51  C   UNL A   1      47.247  27.751  26.225  1.00  0.00     0.064 A 
ATOM     52  C   UNL A   1      48.379  27.312  26.922  1.00  0.00     0.173 A 
ATOM     53  C   UNL A   1      47.304  27.733  24.820  1.00  0.00     0.173 A 
ATOM     54  F   UNL A   1      48.388  27.330  28.263  1.00  0.00    -0.203 F 
ATOM     55  C   UNL A   1      49.518  26.874  26.246  1.00  0.00     0.198 A 
ATOM     56  C   UNL A   1      48.426  27.256  24.147  1.00  0.00     0.198 A 
ATOM     57  F   UNL A   1      46.250  28.142  24.097  1.00  0.00    -0.203 F 
ATOM     58  F   UNL A   1      50.600  26.495  26.940  1.00  0.00    -0.200 F 
ATOM     59  C   UNL A   1      49.536  26.834  24.860  1.00  0.00     0.200 A 
ATOM     60  F   UNL A   1      48.427  27.196  22.808  1.00  0.00    -0.200 F 
ATOM     61  F   UNL A   1      50.624  26.394  24.213  1.00  0.00    -0.200 F 
ENDBRANCH  27  51
BRANCH  39  62
ATOM     62  C   UNL A   1      44.973  33.827  28.745  1.00  0.00     0.064 A 
ATOM     63  C   UNL A   1      45.836  34.215  29.779  1.00  0.00     0.173 A 
ATOM     64  C   UNL A   1      44.709  34.746  27.720  1.00  0.00     0.173 A 
ATOM     65  F   UNL A   1      46.096  33.375  30.793  1.00  0.00    -0.203 F 
ATOM     66  C   UNL A   1      46.390  35.490  29.802  1.00  0.00     0.198 A 
ATOM     67  C   UNL A   1      45.290  36.009  27.728  1.00  0.00     0.198 A 
ATOM     68  F   UNL A   1      43.889  34.417  26.710  1.00  0.00    -0.203 F 
ATOM     69  F   UNL A   1      47.166  35.864  30.828  1.00  0.00    -0.200 F 
ATOM     70  C   UNL A   1      46.122  36.383  28.772  1.00  0.00     0.200 A 
ATOM     71  F   UNL A   1      45.038  36.867  26.730  1.00  0.00    -0.200 F 
ATOM     72  F   UNL A   1      46.659  37.611  28.794  1.00  0.00    -0.200 F 
ENDBRANCH  39  62
ENDBRANCH  13  14
ENDBRANCH   6   8
ENDBRANCH   5   6
ENDBRANCH   4   5
ENDBRANCH   3   4
ENDBRANCH   2   3
ENDBRANCH   1   2
BRANCH   1  73
ATOM     73  C   UNL A   1      34.968  24.465  25.997  1.00  0.00     0.261 C 
BRANCH  73  74
ATOM     74  O   UNL A   1      33.694  23.947  26.491  1.00  0.00    -0.463 OA
BRANCH  74  75
ATOM     75  C   UNL A   1      33.679  22.621  26.746  1.00  0.00     0.312 C 
ATOM     76  O   UNL A   1      33.618  22.184  27.876  1.00  0.00    -0.252 OA
BRANCH  75  77
ATOM     77  C   UNL A   1      33.694  21.720  25.555  1.00  0.00     0.147 C 
ATOM     78  C   UNL A   1      32.400  21.835  24.721  1.00  0.00     0.129 C 
ATOM     79  C   UNL A   1      33.669  20.209  25.868  1.00  0.00     0.157 C 
ATOM     80  C   UNL A   1      31.962  20.396  24.523  1.00  0.00     0.155 C 
ATOM     81  C   UNL A   1      34.041  19.462  24.619  1.00  0.00     0.004 C 
ATOM     82  O   UNL A   1      32.246  19.887  25.837  1.00  0.00    -0.365 OA
ATOM     83  C   UNL A   1      33.007  19.614  23.774  1.00  0.00     0.004 C 
BRANCH  78  84
ATOM     84  C   UNL A   1      31.290  22.727  25.223  1.00  0.00     0.231 C 
ATOM     85  O   UNL A   1      30.478  22.164  25.990  1.00  0.00    -0.274 OA
ATOM     86  N   UNL A   1      31.026  24.037  25.086  1.00  0.00    -0.325 N 
ATOM     87  H   UNL A   1      30.392  24.234  25.813  1.00  0.00     0.169 HD
BRANCH  86  88
ATOM     88  C   UNL A   1      31.200  25.289  24.423  1.00  0.00     0.044 A 
ATOM     89  C   UNL A   1      31.348  25.012  23.024  1.00  0.00     0.026 A 
ATOM     90  C   UNL A   1      31.362  26.649  24.817  1.00  0.00    -0.020 A 
ATOM     91  C   UNL A   1      31.613  25.971  22.051  1.00  0.00     0.002 A 
ATOM     92  C   UNL A   1      31.552  27.608  23.774  1.00  0.00     0.006 A 
ATOM     93  C   UNL A   1      31.710  27.285  22.430  1.00  0.00     0.000 A 
BRANCH  90  94
ATOM     94  C   UNL A   1      31.363  27.319  26.195  1.00  0.00     0.073 C 
BRANCH  94  95
ATOM     95  C   UNL A   1      32.347  28.454  26.567  1.00  0.00    -0.044 A 
ATOM     96  C   UNL A   1      33.701  28.139  26.807  1.00  0.00     0.004 A 
ATOM     97  C   UNL A   1      31.974  29.775  26.848  1.00  0.00     0.004 A 
ATOM     98  C   UNL A   1      34.650  29.094  27.191  1.00  0.00     0.000 A 
ATOM     99  C   UNL A   1      32.912  30.733  27.274  1.00  0.00     0.000 A 
ATOM    100  C   UNL A   1      34.254  30.399  27.425  1.00  0.00     0.000 A 
ENDBRANCH  94  95
ENDBRANCH  90  94
ENDBRANCH  86  88
ENDBRANCH  78  84
ENDBRANCH  75  77
ENDBRANCH  74  75
ENDBRANCH  73  74
ENDBRANCH   1  73
TORSDOF 18
ENDMDL
MODEL 3
REMARK VINA RESULT:     -11.9      4.358     10.285
REMARK SMILES O=C(OCCOCCOC(=O)[C@@H]1[C@H](C(=O)Nc2ccccc2Cc2ccccc2)[C@H]2C=C[C@@H]1O2)c1ccc(-c2c3nc(c(-c4c(F)c(F)c(F)c(F)c4F)c4ccc([nH]4)c(-c4c(F)c(F)c(F)c(F)c4F)c4nc(c(-c5c(F)c(F)c(F)c(F)c5F)c5ccc2[nH]5)C=C4)C=C3)cc1
REMARK SMILES IDX 7 1 6 2 5 3 4 4 3 5 2 6 1 7 35 8 36 9 97 10 37 11 96 12
REMARK SMILES IDX 38 13 39 14 40 15 90 16 41 17 95 18 89 19 91 20 42 21 94 22
REMARK SMILES IDX 88 23 87 24 43 26 75 27 55 28 74 29 56 30 59 31 73 32 92 33
REMARK SMILES IDX 57 34 58 35 72 37 93 38 60 39 44 40 45 41 53 42 46 43 47 44
REMARK SMILES IDX 51 45 54 46 48 47 49 48 52 49 50 50 76 51 77 52 85 53 78 54
REMARK SMILES IDX 79 55 83 56 86 57 80 58 81 59 84 60 82 61 61 62 62 63 70 64
REMARK SMILES IDX 63 65 64 66 68 67 71 68 65 69 66 70 69 71 67 72 8 73 9 74
REMARK SMILES IDX 10 75 11 76 12 77 13 78 33 79 30 80 32 81 34 82 31 83 14 84
REMARK SMILES IDX 15 85 16 86 17 88 18 89 22 90 19 91 21 92 20 93 23 94 24 95
REMARK SMILES IDX 25 96 29 97 26 98 28 99 27 100
REMARK H PARENT 91 25 59 36 16 87
REMARK Flexibility Score: inf
ROOT
ATOM      1  C   UNL A   1      36.014  22.977  23.297  1.00  0.00     0.202 C 
ENDROOT
BRANCH   1   2
ATOM      2  O   UNL A   1      36.342  23.689  24.496  1.00  0.00    -0.374 OA
BRANCH   2   3
ATOM      3  C   UNL A   1      36.332  22.935  25.711  1.00  0.00     0.202 C 
BRANCH   3   4
ATOM      4  C   UNL A   1      37.067  21.584  25.724  1.00  0.00     0.261 C 
BRANCH   4   5
ATOM      5  O   UNL A   1      38.477  21.653  25.372  1.00  0.00    -0.460 OA
BRANCH   5   6
ATOM      6  C   UNL A   1      39.525  21.458  26.211  1.00  0.00     0.338 C 
ATOM      7  O   UNL A   1      40.007  20.355  26.420  1.00  0.00    -0.246 OA
BRANCH   6   8
ATOM      8  C   UNL A   1      40.078  22.654  26.860  1.00  0.00     0.060 A 
ATOM      9  C   UNL A   1      39.617  23.891  26.458  1.00  0.00     0.016 A 
ATOM     10  C   UNL A   1      41.092  22.567  27.809  1.00  0.00     0.016 A 
ATOM     11  C   UNL A   1      40.404  25.002  26.681  1.00  0.00     0.010 A 
ATOM     12  C   UNL A   1      41.701  23.744  28.259  1.00  0.00     0.010 A 
ATOM     13  C   UNL A   1      41.410  24.978  27.645  1.00  0.00    -0.014 A 
BRANCH  13  14
ATOM     14  C   UNL A   1      42.135  26.233  27.991  1.00  0.00     0.031 A 
ATOM     15  C   UNL A   1      41.495  27.227  28.919  1.00  0.00     0.074 A 
ATOM     16  C   UNL A   1      43.369  26.477  27.497  1.00  0.00     0.049 A 
ATOM     17  N   UNL A   1      41.741  28.502  29.064  1.00  0.00    -0.248 NA
ATOM     18  C   UNL A   1      40.404  26.730  29.773  1.00  0.00     0.031 C 
ATOM     19  C   UNL A   1      44.160  25.565  26.662  1.00  0.00     0.029 A 
ATOM     20  N   UNL A   1      44.197  27.563  27.642  1.00  0.00    -0.354 N 
ATOM     21  C   UNL A   1      40.759  28.982  29.922  1.00  0.00     0.074 A 
ATOM     22  C   UNL A   1      39.937  27.853  30.300  1.00  0.00     0.031 C 
ATOM     23  C   UNL A   1      45.381  26.070  26.469  1.00  0.00     0.029 A 
ATOM     24  C   UNL A   1      45.392  27.430  26.974  1.00  0.00     0.049 A 
ATOM     25  H   UNL A   1      43.958  28.358  28.171  1.00  0.00     0.167 HD
ATOM     26  C   UNL A   1      40.558  30.263  30.315  1.00  0.00     0.037 A 
ATOM     27  C   UNL A   1      46.350  28.331  26.700  1.00  0.00     0.037 A 
ATOM     28  C   UNL A   1      41.460  31.335  29.975  1.00  0.00     0.049 A 
ATOM     29  C   UNL A   1      46.101  29.747  27.122  1.00  0.00     0.074 A 
ATOM     30  C   UNL A   1      41.374  32.681  30.283  1.00  0.00     0.029 A 
ATOM     31  N   UNL A   1      42.644  31.162  29.265  1.00  0.00    -0.354 N 
ATOM     32  N   UNL A   1      45.091  30.241  27.795  1.00  0.00    -0.248 NA
ATOM     33  C   UNL A   1      47.097  30.739  26.705  1.00  0.00     0.031 C 
ATOM     34  C   UNL A   1      42.489  33.323  29.731  1.00  0.00     0.029 A 
ATOM     35  C   UNL A   1      43.297  32.374  29.125  1.00  0.00     0.049 A 
ATOM     36  H   UNL A   1      42.970  30.301  28.915  1.00  0.00     0.167 HD
ATOM     37  C   UNL A   1      45.329  31.601  27.895  1.00  0.00     0.074 A 
ATOM     38  C   UNL A   1      46.596  31.847  27.230  1.00  0.00     0.031 C 
ATOM     39  C   UNL A   1      44.569  32.565  28.471  1.00  0.00     0.037 A 
BRANCH  26  40
ATOM     40  C   UNL A   1      39.289  30.574  31.060  1.00  0.00     0.064 A 
ATOM     41  C   UNL A   1      38.105  30.963  30.415  1.00  0.00     0.173 A 
ATOM     42  C   UNL A   1      39.271  30.510  32.463  1.00  0.00     0.173 A 
ATOM     43  F   UNL A   1      38.065  31.060  29.078  1.00  0.00    -0.203 F 
ATOM     44  C   UNL A   1      36.972  31.325  31.147  1.00  0.00     0.198 A 
ATOM     45  C   UNL A   1      38.129  30.839  33.190  1.00  0.00     0.198 A 
ATOM     46  F   UNL A   1      40.371  30.141  33.137  1.00  0.00    -0.203 F 
ATOM     47  F   UNL A   1      35.879  31.766  30.510  1.00  0.00    -0.200 F 
ATOM     48  C   UNL A   1      36.984  31.260  32.531  1.00  0.00     0.200 A 
ATOM     49  F   UNL A   1      38.141  30.766  34.528  1.00  0.00    -0.200 F 
ATOM     50  F   UNL A   1      35.900  31.619  33.232  1.00  0.00    -0.200 F 
ENDBRANCH  26  40
BRANCH  27  51
ATOM     51  C   UNL A   1      47.554  27.939  25.915  1.00  0.00     0.064 A 
ATOM     52  C   UNL A   1      48.749  27.598  26.561  1.00  0.00     0.173 A 
ATOM     53  C   UNL A   1      47.533  27.862  24.511  1.00  0.00     0.173 A 
ATOM     54  F   UNL A   1      48.833  27.674  27.898  1.00  0.00    -0.203 F 
ATOM     55  C   UNL A   1      49.873  27.199  25.838  1.00  0.00     0.198 A 
ATOM     56  C   UNL A   1      48.643  27.424  23.792  1.00  0.00     0.198 A 
ATOM     57  F   UNL A   1      46.417  28.177  23.836  1.00  0.00    -0.203 F 
ATOM     58  F   UNL A   1      51.014  26.916  26.480  1.00  0.00    -0.200 F 
ATOM     59  C   UNL A   1      49.815  27.101  24.455  1.00  0.00     0.200 A 
ATOM     60  F   UNL A   1      48.572  27.307  22.459  1.00  0.00    -0.200 F 
ATOM     61  F   UNL A   1      50.890  26.698  23.763  1.00  0.00    -0.200 F 
ENDBRANCH  27  51
BRANCH  39  62
ATOM     62  C   UNL A   1      45.136  33.949  28.457  1.00  0.00     0.064 A 
ATOM     63  C   UNL A   1      44.771  34.887  27.481  1.00  0.00     0.173 A 
ATOM     64  C   UNL A   1      46.053  34.339  29.443  1.00  0.00     0.173 A 
ATOM     65  F   UNL A   1      43.916  34.548  26.503  1.00  0.00    -0.203 F 
ATOM     66  C   UNL A   1      45.329  36.161  27.476  1.00  0.00     0.198 A 
ATOM     67  C   UNL A   1      46.584  35.623  29.455  1.00  0.00     0.198 A 
ATOM     68  F   UNL A   1      46.429  33.473  30.396  1.00  0.00    -0.203 F 
ATOM     69  F   UNL A   1      45.013  37.026  26.502  1.00  0.00    -0.200 F 
ATOM     70  C   UNL A   1      46.229  36.530  28.467  1.00  0.00     0.200 A 
ATOM     71  F   UNL A   1      47.445  35.981  30.417  1.00  0.00    -0.200 F 
ATOM     72  F   UNL A   1      46.763  37.759  28.463  1.00  0.00    -0.200 F 
ENDBRANCH  39  62
ENDBRANCH  13  14
ENDBRANCH   6   8
ENDBRANCH   5   6
ENDBRANCH   4   5
ENDBRANCH   3   4
ENDBRANCH   2   3
ENDBRANCH   1   2
BRANCH   1  73
ATOM     73  C   UNL A   1      34.615  23.337  22.752  1.00  0.00     0.261 C 
BRANCH  73  74
ATOM     74  O   UNL A   1      33.890  24.346  23.522  1.00  0.00    -0.463 OA
BRANCH  74  75
ATOM     75  C   UNL A   1      33.318  25.322  22.785  1.00  0.00     0.312 C 
ATOM     76  O   UNL A   1      33.314  25.294  21.572  1.00  0.00    -0.252 OA
BRANCH  75  77
ATOM     77  C   UNL A   1      32.648  26.417  23.548  1.00  0.00     0.147 C 
ATOM     78  C   UNL A   1      31.334  25.948  24.207  1.00  0.00     0.129 C 
ATOM     79  C   UNL A   1      32.108  27.584  22.693  1.00  0.00     0.157 C 
ATOM     80  C   UNL A   1      30.322  27.004  23.802  1.00  0.00     0.155 C 
ATOM     81  C   UNL A   1      31.796  28.734  23.608  1.00  0.00     0.004 C 
ATOM     82  O   UNL A   1      30.726  27.196  22.436  1.00  0.00    -0.365 OA
ATOM     83  C   UNL A   1      30.722  28.359  24.322  1.00  0.00     0.004 C 
BRANCH  78  84
ATOM     84  C   UNL A   1      30.853  24.540  23.949  1.00  0.00     0.231 C 
ATOM     85  O   UNL A   1      29.919  24.454  23.121  1.00  0.00    -0.274 OA
ATOM     86  N   UNL A   1      31.273  23.332  24.360  1.00  0.00    -0.325 N 
ATOM     87  H   UNL A   1      30.870  22.704  23.719  1.00  0.00     0.169 HD
BRANCH  86  88
ATOM     88  C   UNL A   1      32.007  22.497  25.256  1.00  0.00     0.044 A 
ATOM     89  C   UNL A   1      32.276  23.270  26.433  1.00  0.00     0.026 A 
ATOM     90  C   UNL A   1      32.593  21.198  25.206  1.00  0.00    -0.020 A 
ATOM     91  C   UNL A   1      33.038  22.830  27.511  1.00  0.00     0.002 A 
ATOM     92  C   UNL A   1      33.297  20.760  26.369  1.00  0.00     0.006 A 
ATOM     93  C   UNL A   1      33.549  21.557  27.482  1.00  0.00     0.000 A 
BRANCH  90  94
ATOM     94  C   UNL A   1      32.609  20.128  24.110  1.00  0.00     0.073 C 
BRANCH  94  95
ATOM     95  C   UNL A   1      32.975  18.653  24.394  1.00  0.00    -0.044 A 
ATOM     96  C   UNL A   1      33.675  17.916  23.415  1.00  0.00     0.004 A 
ATOM     97  C   UNL A   1      32.528  17.916  25.499  1.00  0.00     0.004 A 
ATOM     98  C   UNL A   1      34.008  16.565  23.569  1.00  0.00     0.000 A 
ATOM     99  C   UNL A   1      32.823  16.548  25.644  1.00  0.00     0.000 A 
ATOM    100  C   UNL A   1      33.580  15.877  24.691  1.00  0.00     0.000 A 
ENDBRANCH  94  95
ENDBRANCH  90  94
ENDBRANCH  86  88
ENDBRANCH  78  84
ENDBRANCH  75  77
ENDBRANCH  74  75
ENDBRANCH  73  74
ENDBRANCH   1  73
TORSDOF 18
ENDMDL
