MODEL 1
REMARK VINA RESULT:     -11.0      0.000      0.000
REMARK SMILES C[C@@H]1CC[N@@H+]1CC1(CC(=O)OCCOCCOC(=O)c2ccc(-c3c4nc(c(-c5c(F)c(F)c(F)c(F)c5F)c5ccc([nH]5)c(-c5c(F)c(F)c(F)c(F)c5F)c5nc(c(-c6c(F)c(F)c(F)c(F)c6F)c6ccc3[nH]6)C=C5)C=C4)cc2)CCCCC1
REMARK SMILES IDX 13 1 12 2 11 3 9 4 10 5 8 6 7 7 83 8 87 9 84 10 86 11 85 12
REMARK SMILES IDX 6 13 5 14 1 15 2 16 3 17 4 18 14 20 15 21 16 22 17 23 18 24
REMARK SMILES IDX 19 25 20 26 21 27 82 28 22 29 81 30 23 31 24 32 25 33 75 34
REMARK SMILES IDX 26 35 80 36 74 37 76 38 27 39 79 40 73 41 72 42 28 44 60 45
REMARK SMILES IDX 40 46 59 47 41 48 44 49 58 50 77 51 42 52 43 53 57 55 78 56
REMARK SMILES IDX 45 57 29 58 30 59 38 60 31 61 32 62 36 63 39 64 33 65 34 66
REMARK SMILES IDX 37 67 35 68 61 69 62 70 70 71 63 72 64 73 68 74 71 75 65 76
REMARK SMILES IDX 66 77 69 78 67 79 46 80 47 81 55 82 48 83 49 84 53 85 56 86
REMARK SMILES IDX 50 87 51 88 54 89 52 90
REMARK H PARENT 5 19 76 43 44 54
REMARK Flexibility Score: inf
ROOT
ATOM      1  C   UNL A   1      34.248  21.341  25.468  1.00  0.00     0.202 C 
ENDROOT
BRANCH   1   2
ATOM      2  C   UNL A   1      33.886  22.779  25.841  1.00  0.00     0.261 C 
BRANCH   2   3
ATOM      3  O   UNL A   1      32.936  22.847  26.927  1.00  0.00    -0.463 OA
BRANCH   3   4
ATOM      4  C   UNL A   1      32.158  23.952  26.950  1.00  0.00     0.306 C 
ATOM      5  O   UNL A   1      30.959  23.947  27.215  1.00  0.00    -0.252 OA
BRANCH   4   6
ATOM      6  C   UNL A   1      32.840  25.236  26.519  1.00  0.00     0.135 C 
BRANCH   6   7
ATOM      7  C   UNL A   1      32.208  26.360  25.606  1.00  0.00     0.030 C 
ATOM      8  C   UNL A   1      33.416  27.259  25.206  1.00  0.00     0.013 C 
ATOM      9  C   UNL A   1      31.191  27.235  26.372  1.00  0.00     0.013 C 
ATOM     10  C   UNL A   1      34.004  28.102  26.343  1.00  0.00     0.001 C 
ATOM     11  C   UNL A   1      31.794  27.993  27.552  1.00  0.00     0.001 C 
ATOM     12  C   UNL A   1      32.932  28.892  27.079  1.00  0.00     0.000 C 
BRANCH   7  13
ATOM     13  C   UNL A   1      31.570  25.641  24.341  1.00  0.00     0.269 C 
BRANCH  13  14
ATOM     14  N   UNL A   1      30.872  26.144  23.145  1.00  0.00    -0.332 N 
ATOM     15  C   UNL A   1      32.967  26.254  21.640  1.00  0.00     0.075 C 
ATOM     16  C   UNL A   1      31.595  26.764  22.013  1.00  0.00     0.186 C 
ATOM     17  C   UNL A   1      31.260  28.151  22.616  1.00  0.00     0.126 C 
ATOM     18  C   UNL A   1      30.105  27.392  23.313  1.00  0.00     0.268 C 
ATOM     19  H   UNL A   1      30.437  25.235  22.987  1.00  0.00     0.348 HD
ENDBRANCH  13  14
ENDBRANCH   7  13
ENDBRANCH   6   7
ENDBRANCH   4   6
ENDBRANCH   3   4
ENDBRANCH   2   3
ENDBRANCH   1   2
BRANCH   1  20
ATOM     20  O   UNL A   1      35.583  20.932  25.756  1.00  0.00    -0.374 OA
BRANCH  20  21
ATOM     21  C   UNL A   1      36.258  20.162  24.762  1.00  0.00     0.202 C 
BRANCH  21  22
ATOM     22  C   UNL A   1      37.790  20.174  24.839  1.00  0.00     0.261 C 
BRANCH  22  23
ATOM     23  O   UNL A   1      38.284  21.355  25.502  1.00  0.00    -0.460 OA
BRANCH  23  24
ATOM     24  C   UNL A   1      39.465  21.189  26.146  1.00  0.00     0.338 C 
ATOM     25  O   UNL A   1      40.204  20.222  26.104  1.00  0.00    -0.246 OA
BRANCH  24  26
ATOM     26  C   UNL A   1      39.867  22.444  26.813  1.00  0.00     0.060 A 
ATOM     27  C   UNL A   1      39.097  23.584  26.548  1.00  0.00     0.016 A 
ATOM     28  C   UNL A   1      41.024  22.536  27.587  1.00  0.00     0.016 A 
ATOM     29  C   UNL A   1      39.517  24.833  27.000  1.00  0.00     0.010 A 
ATOM     30  C   UNL A   1      41.449  23.794  28.035  1.00  0.00     0.010 A 
ATOM     31  C   UNL A   1      40.722  24.953  27.704  1.00  0.00    -0.014 A 
BRANCH  31  32
ATOM     32  C   UNL A   1      41.303  26.301  27.925  1.00  0.00     0.031 A 
ATOM     33  C   UNL A   1      42.690  26.587  27.411  1.00  0.00     0.074 A 
ATOM     34  C   UNL A   1      40.598  27.277  28.528  1.00  0.00     0.049 A 
ATOM     35  N   UNL A   1      43.411  27.674  27.523  1.00  0.00    -0.248 NA
ATOM     36  C   UNL A   1      43.350  25.500  26.669  1.00  0.00     0.031 C 
ATOM     37  C   UNL A   1      39.228  27.149  29.019  1.00  0.00     0.029 A 
ATOM     38  N   UNL A   1      40.946  28.571  28.830  1.00  0.00    -0.354 N 
ATOM     39  C   UNL A   1      44.610  27.397  26.877  1.00  0.00     0.074 A 
ATOM     40  C   UNL A   1      44.530  26.037  26.393  1.00  0.00     0.031 C 
ATOM     41  C   UNL A   1      38.856  28.315  29.576  1.00  0.00     0.029 A 
ATOM     42  C   UNL A   1      39.970  29.259  29.509  1.00  0.00     0.049 A 
ATOM     43  H   UNL A   1      41.812  28.967  28.582  1.00  0.00     0.167 HD
ATOM     44  C   UNL A   1      45.679  28.208  26.700  1.00  0.00     0.037 A 
ATOM     45  C   UNL A   1      39.988  30.499  30.038  1.00  0.00     0.037 A 
ATOM     46  C   UNL A   1      45.755  29.569  27.159  1.00  0.00     0.049 A 
ATOM     47  C   UNL A   1      41.218  31.358  29.880  1.00  0.00     0.074 A 
ATOM     48  C   UNL A   1      46.791  30.474  27.006  1.00  0.00     0.029 A 
ATOM     49  N   UNL A   1      44.754  30.221  27.862  1.00  0.00    -0.354 N 
ATOM     50  N   UNL A   1      42.338  31.095  29.253  1.00  0.00    -0.248 NA
ATOM     51  C   UNL A   1      41.184  32.690  30.506  1.00  0.00     0.031 C 
ATOM     52  C   UNL A   1      46.436  31.660  27.655  1.00  0.00     0.029 A 
ATOM     53  C   UNL A   1      45.159  31.510  28.169  1.00  0.00     0.049 A 
ATOM     54  H   UNL A   1      43.886  29.827  28.107  1.00  0.00     0.167 HD
ATOM     55  C   UNL A   1      43.121  32.236  29.374  1.00  0.00     0.074 A 
ATOM     56  C   UNL A   1      42.351  33.197  30.132  1.00  0.00     0.031 C 
ATOM     57  C   UNL A   1      44.368  32.467  28.894  1.00  0.00     0.037 A 
BRANCH  44  58
ATOM     58  C   UNL A   1      46.875  27.646  25.992  1.00  0.00     0.064 A 
ATOM     59  C   UNL A   1      47.012  27.728  24.600  1.00  0.00     0.173 A 
ATOM     60  C   UNL A   1      47.930  27.086  26.728  1.00  0.00     0.173 A 
ATOM     61  F   UNL A   1      46.024  28.244  23.853  1.00  0.00    -0.203 F 
ATOM     62  C   UNL A   1      48.161  27.262  23.967  1.00  0.00     0.198 A 
ATOM     63  C   UNL A   1      49.087  26.643  26.095  1.00  0.00     0.198 A 
ATOM     64  F   UNL A   1      47.846  26.990  28.063  1.00  0.00    -0.203 F 
ATOM     65  F   UNL A   1      48.264  27.327  22.633  1.00  0.00    -0.200 F 
ATOM     66  C   UNL A   1      49.202  26.729  24.716  1.00  0.00     0.200 A 
ATOM     67  F   UNL A   1      50.095  26.140  26.821  1.00  0.00    -0.200 F 
ATOM     68  F   UNL A   1      50.315  26.297  24.108  1.00  0.00    -0.200 F 
ENDBRANCH  44  58
BRANCH  45  69
ATOM     69  C   UNL A   1      38.812  31.005  30.794  1.00  0.00     0.064 A 
ATOM     70  C   UNL A   1      38.710  30.831  32.182  1.00  0.00     0.173 A 
ATOM     71  C   UNL A   1      37.743  31.631  30.134  1.00  0.00     0.173 A 
ATOM     72  F   UNL A   1      39.692  30.213  32.852  1.00  0.00    -0.203 F 
ATOM     73  C   UNL A   1      37.572  31.239  32.875  1.00  0.00     0.198 A 
ATOM     74  C   UNL A   1      36.620  32.065  30.834  1.00  0.00     0.198 A 
ATOM     75  F   UNL A   1      37.789  31.817  28.807  1.00  0.00    -0.203 F 
ATOM     76  F   UNL A   1      37.475  31.009  34.192  1.00  0.00    -0.200 F 
ATOM     77  C   UNL A   1      36.530  31.859  32.203  1.00  0.00     0.200 A 
ATOM     78  F   UNL A   1      35.620  32.671  30.180  1.00  0.00    -0.200 F 
ATOM     79  F   UNL A   1      35.434  32.247  32.869  1.00  0.00    -0.200 F 
ENDBRANCH  45  69
BRANCH  57  80
ATOM     80  C   UNL A   1      44.962  33.827  29.116  1.00  0.00     0.064 A 
ATOM     81  C   UNL A   1      44.738  34.885  28.223  1.00  0.00     0.173 A 
ATOM     82  C   UNL A   1      45.706  34.090  30.276  1.00  0.00     0.173 A 
ATOM     83  F   UNL A   1      44.044  34.678  27.094  1.00  0.00    -0.203 F 
ATOM     84  C   UNL A   1      45.250  36.154  28.478  1.00  0.00     0.198 A 
ATOM     85  C   UNL A   1      46.193  35.367  30.540  1.00  0.00     0.198 A 
ATOM     86  F   UNL A   1      45.941  33.114  31.165  1.00  0.00    -0.203 F 
ATOM     87  F   UNL A   1      45.052  37.143  27.596  1.00  0.00    -0.200 F 
ATOM     88  C   UNL A   1      45.969  36.396  29.640  1.00  0.00     0.200 A 
ATOM     89  F   UNL A   1      46.875  35.602  31.670  1.00  0.00    -0.200 F 
ATOM     90  F   UNL A   1      46.447  37.623  29.889  1.00  0.00    -0.200 F 
ENDBRANCH  57  80
ENDBRANCH  31  32
ENDBRANCH  24  26
ENDBRANCH  23  24
ENDBRANCH  22  23
ENDBRANCH  21  22
ENDBRANCH  20  21
ENDBRANCH   1  20
TORSDOF 17
ENDMDL
MODEL 2
REMARK VINA RESULT:     -10.9      4.645      7.137
REMARK SMILES C[C@@H]1CC[N@@H+]1CC1(CC(=O)OCCOCCOC(=O)c2ccc(-c3c4nc(c(-c5c(F)c(F)c(F)c(F)c5F)c5ccc([nH]5)c(-c5c(F)c(F)c(F)c(F)c5F)c5nc(c(-c6c(F)c(F)c(F)c(F)c6F)c6ccc3[nH]6)C=C5)C=C4)cc2)CCCCC1
REMARK SMILES IDX 13 1 12 2 11 3 9 4 10 5 8 6 7 7 83 8 87 9 84 10 86 11 85 12
REMARK SMILES IDX 6 13 5 14 1 15 2 16 3 17 4 18 14 20 15 21 16 22 17 23 18 24
REMARK SMILES IDX 19 25 20 26 21 27 82 28 22 29 81 30 23 31 24 32 25 33 75 34
REMARK SMILES IDX 26 35 80 36 74 37 76 38 27 39 79 40 73 41 72 42 28 44 60 45
REMARK SMILES IDX 40 46 59 47 41 48 44 49 58 50 77 51 42 52 43 53 57 55 78 56
REMARK SMILES IDX 45 57 29 58 30 59 38 60 31 61 32 62 36 63 39 64 33 65 34 66
REMARK SMILES IDX 37 67 35 68 61 69 62 70 70 71 63 72 64 73 68 74 71 75 65 76
REMARK SMILES IDX 66 77 69 78 67 79 46 80 47 81 55 82 48 83 49 84 53 85 56 86
REMARK SMILES IDX 50 87 51 88 54 89 52 90
REMARK H PARENT 5 19 76 43 44 54
REMARK Flexibility Score: inf
ROOT
ATOM      1  C   UNL A   1      39.135  21.901  26.144  1.00  0.00     0.202 C 
ENDROOT
BRANCH   1   2
ATOM      2  C   UNL A   1      37.988  21.902  25.132  1.00  0.00     0.261 C 
BRANCH   2   3
ATOM      3  O   UNL A   1      36.692  21.978  25.765  1.00  0.00    -0.463 OA
BRANCH   3   4
ATOM      4  C   UNL A   1      35.856  20.948  25.503  1.00  0.00     0.306 C 
ATOM      5  O   UNL A   1      36.207  19.888  24.994  1.00  0.00    -0.252 OA
BRANCH   4   6
ATOM      6  C   UNL A   1      34.391  21.212  25.789  1.00  0.00     0.135 C 
BRANCH   6   7
ATOM      7  C   UNL A   1      33.200  21.030  24.767  1.00  0.00     0.030 C 
ATOM      8  C   UNL A   1      33.645  21.831  23.506  1.00  0.00     0.013 C 
ATOM      9  C   UNL A   1      31.882  21.648  25.287  1.00  0.00     0.013 C 
ATOM     10  C   UNL A   1      33.659  23.355  23.674  1.00  0.00     0.001 C 
ATOM     11  C   UNL A   1      31.958  23.154  25.525  1.00  0.00     0.001 C 
ATOM     12  C   UNL A   1      32.345  23.876  24.238  1.00  0.00     0.000 C 
BRANCH   7  13
ATOM     13  C   UNL A   1      33.071  19.477  24.458  1.00  0.00     0.269 C 
BRANCH  13  14
ATOM     14  N   UNL A   1      33.601  18.273  25.120  1.00  0.00    -0.332 N 
ATOM     15  C   UNL A   1      34.032  16.943  22.949  1.00  0.00     0.075 C 
ATOM     16  C   UNL A   1      33.704  16.972  24.423  1.00  0.00     0.186 C 
ATOM     17  C   UNL A   1      32.361  16.565  25.078  1.00  0.00     0.126 C 
ATOM     18  C   UNL A   1      32.727  17.643  26.126  1.00  0.00     0.268 C 
ATOM     19  H   UNL A   1      34.469  18.755  25.353  1.00  0.00     0.348 HD
ENDBRANCH  13  14
ENDBRANCH   7  13
ENDBRANCH   6   7
ENDBRANCH   4   6
ENDBRANCH   3   4
ENDBRANCH   2   3
ENDBRANCH   1   2
BRANCH   1  20
ATOM     20  O   UNL A   1      39.980  20.753  26.139  1.00  0.00    -0.374 OA
BRANCH  20  21
ATOM     21  C   UNL A   1      41.257  20.881  26.761  1.00  0.00     0.202 C 
BRANCH  21  22
ATOM     22  C   UNL A   1      42.373  21.454  25.877  1.00  0.00     0.261 C 
BRANCH  22  23
ATOM     23  O   UNL A   1      43.049  22.556  26.515  1.00  0.00    -0.460 OA
BRANCH  23  24
ATOM     24  C   UNL A   1      43.093  23.693  25.779  1.00  0.00     0.338 C 
ATOM     25  O   UNL A   1      43.471  23.819  24.628  1.00  0.00    -0.246 OA
BRANCH  24  26
ATOM     26  C   UNL A   1      42.440  24.800  26.506  1.00  0.00     0.060 A 
ATOM     27  C   UNL A   1      43.130  26.017  26.574  1.00  0.00     0.016 A 
ATOM     28  C   UNL A   1      41.238  24.629  27.196  1.00  0.00     0.016 A 
ATOM     29  C   UNL A   1      42.659  27.045  27.386  1.00  0.00     0.010 A 
ATOM     30  C   UNL A   1      40.769  25.662  28.018  1.00  0.00     0.010 A 
ATOM     31  C   UNL A   1      41.501  26.857  28.152  1.00  0.00    -0.014 A 
BRANCH  31  32
ATOM     32  C   UNL A   1      41.170  27.832  29.222  1.00  0.00     0.031 A 
ATOM     33  C   UNL A   1      42.010  27.850  30.472  1.00  0.00     0.074 A 
ATOM     34  C   UNL A   1      40.174  28.724  29.072  1.00  0.00     0.049 A 
ATOM     35  N   UNL A   1      41.884  28.584  31.549  1.00  0.00    -0.248 NA
ATOM     36  C   UNL A   1      43.147  26.916  30.512  1.00  0.00     0.031 C 
ATOM     37  C   UNL A   1      39.324  28.851  27.890  1.00  0.00     0.029 A 
ATOM     38  N   UNL A   1      39.708  29.692  29.928  1.00  0.00    -0.354 N 
ATOM     39  C   UNL A   1      42.914  28.192  32.394  1.00  0.00     0.074 A 
ATOM     40  C   UNL A   1      43.646  27.145  31.718  1.00  0.00     0.031 C 
ATOM     41  C   UNL A   1      38.429  29.832  28.101  1.00  0.00     0.029 A 
ATOM     42  C   UNL A   1      38.622  30.379  29.443  1.00  0.00     0.049 A 
ATOM     43  H   UNL A   1      40.115  29.876  30.805  1.00  0.00     0.167 HD
ATOM     44  C   UNL A   1      43.225  28.668  33.623  1.00  0.00     0.037 A 
ATOM     45  C   UNL A   1      37.857  31.323  30.028  1.00  0.00     0.037 A 
ATOM     46  C   UNL A   1      42.515  29.725  34.291  1.00  0.00     0.049 A 
ATOM     47  C   UNL A   1      38.188  31.789  31.424  1.00  0.00     0.074 A 
ATOM     48  C   UNL A   1      42.772  30.288  35.529  1.00  0.00     0.029 A 
ATOM     49  N   UNL A   1      41.407  30.380  33.775  1.00  0.00    -0.354 N 
ATOM     50  N   UNL A   1      39.175  31.427  32.207  1.00  0.00    -0.248 NA
ATOM     51  C   UNL A   1      37.297  32.799  32.018  1.00  0.00     0.031 C 
ATOM     52  C   UNL A   1      41.793  31.253  35.783  1.00  0.00     0.029 A 
ATOM     53  C   UNL A   1      40.956  31.325  34.682  1.00  0.00     0.049 A 
ATOM     54  H   UNL A   1      41.001  30.199  32.897  1.00  0.00     0.167 HD
ATOM     55  C   UNL A   1      39.047  32.188  33.362  1.00  0.00     0.074 A 
ATOM     56  C   UNL A   1      37.888  33.036  33.181  1.00  0.00     0.031 C 
ATOM     57  C   UNL A   1      39.823  32.186  34.473  1.00  0.00     0.037 A 
BRANCH  44  58
ATOM     58  C   UNL A   1      44.377  28.040  34.347  1.00  0.00     0.064 A 
ATOM     59  C   UNL A   1      45.686  28.520  34.205  1.00  0.00     0.173 A 
ATOM     60  C   UNL A   1      44.152  26.991  35.251  1.00  0.00     0.173 A 
ATOM     61  F   UNL A   1      45.951  29.513  33.343  1.00  0.00    -0.203 F 
ATOM     62  C   UNL A   1      46.732  27.968  34.939  1.00  0.00     0.198 A 
ATOM     63  C   UNL A   1      45.197  26.457  36.000  1.00  0.00     0.198 A 
ATOM     64  F   UNL A   1      42.916  26.500  35.424  1.00  0.00    -0.203 F 
ATOM     65  F   UNL A   1      47.981  28.425  34.772  1.00  0.00    -0.200 F 
ATOM     66  C   UNL A   1      46.485  26.944  35.843  1.00  0.00     0.200 A 
ATOM     67  F   UNL A   1      44.954  25.476  36.881  1.00  0.00    -0.200 F 
ATOM     68  F   UNL A   1      47.490  26.425  36.561  1.00  0.00    -0.200 F 
ENDBRANCH  44  58
BRANCH  45  69
ATOM     69  C   UNL A   1      36.679  31.879  29.312  1.00  0.00     0.064 A 
ATOM     70  C   UNL A   1      36.624  33.231  28.942  1.00  0.00     0.173 A 
ATOM     71  C   UNL A   1      35.561  31.079  29.029  1.00  0.00     0.173 A 
ATOM     72  F   UNL A   1      37.655  34.042  29.218  1.00  0.00    -0.203 F 
ATOM     73  C   UNL A   1      35.487  33.765  28.339  1.00  0.00     0.198 A 
ATOM     74  C   UNL A   1      34.437  31.609  28.400  1.00  0.00     0.198 A 
ATOM     75  F   UNL A   1      35.560  29.782  29.367  1.00  0.00    -0.203 F 
ATOM     76  F   UNL A   1      35.439  35.072  28.048  1.00  0.00    -0.200 F 
ATOM     77  C   UNL A   1      34.397  32.954  28.065  1.00  0.00     0.200 A 
ATOM     78  F   UNL A   1      33.389  30.819  28.129  1.00  0.00    -0.200 F 
ATOM     79  F   UNL A   1      33.301  33.470  27.491  1.00  0.00    -0.200 F 
ENDBRANCH  45  69
BRANCH  57  80
ATOM     80  C   UNL A   1      39.493  33.168  35.559  1.00  0.00     0.064 A 
ATOM     81  C   UNL A   1      38.654  32.831  36.630  1.00  0.00     0.173 A 
ATOM     82  C   UNL A   1      40.086  34.440  35.562  1.00  0.00     0.173 A 
ATOM     83  F   UNL A   1      38.054  31.631  36.664  1.00  0.00    -0.203 F 
ATOM     84  C   UNL A   1      38.408  33.737  37.658  1.00  0.00     0.198 A 
ATOM     85  C   UNL A   1      39.859  35.333  36.604  1.00  0.00     0.198 A 
ATOM     86  F   UNL A   1      40.903  34.808  34.564  1.00  0.00    -0.203 F 
ATOM     87  F   UNL A   1      37.577  33.406  38.655  1.00  0.00    -0.200 F 
ATOM     88  C   UNL A   1      39.018  34.983  37.649  1.00  0.00     0.200 A 
ATOM     89  F   UNL A   1      40.460  36.532  36.601  1.00  0.00    -0.200 F 
ATOM     90  F   UNL A   1      38.791  35.848  38.648  1.00  0.00    -0.200 F 
ENDBRANCH  57  80
ENDBRANCH  31  32
ENDBRANCH  24  26
ENDBRANCH  23  24
ENDBRANCH  22  23
ENDBRANCH  21  22
ENDBRANCH  20  21
ENDBRANCH   1  20
TORSDOF 17
ENDMDL
MODEL 3
REMARK VINA RESULT:     -10.9      1.330      7.791
REMARK SMILES C[C@@H]1CC[N@@H+]1CC1(CC(=O)OCCOCCOC(=O)c2ccc(-c3c4nc(c(-c5c(F)c(F)c(F)c(F)c5F)c5ccc([nH]5)c(-c5c(F)c(F)c(F)c(F)c5F)c5nc(c(-c6c(F)c(F)c(F)c(F)c6F)c6ccc3[nH]6)C=C5)C=C4)cc2)CCCCC1
REMARK SMILES IDX 13 1 12 2 11 3 9 4 10 5 8 6 7 7 83 8 87 9 84 10 86 11 85 12
REMARK SMILES IDX 6 13 5 14 1 15 2 16 3 17 4 18 14 20 15 21 16 22 17 23 18 24
REMARK SMILES IDX 19 25 20 26 21 27 82 28 22 29 81 30 23 31 24 32 25 33 75 34
REMARK SMILES IDX 26 35 80 36 74 37 76 38 27 39 79 40 73 41 72 42 28 44 60 45
REMARK SMILES IDX 40 46 59 47 41 48 44 49 58 50 77 51 42 52 43 53 57 55 78 56
REMARK SMILES IDX 45 57 29 58 30 59 38 60 31 61 32 62 36 63 39 64 33 65 34 66
REMARK SMILES IDX 37 67 35 68 61 69 62 70 70 71 63 72 64 73 68 74 71 75 65 76
REMARK SMILES IDX 66 77 69 78 67 79 46 80 47 81 55 82 48 83 49 84 53 85 56 86
REMARK SMILES IDX 50 87 51 88 54 89 52 90
REMARK H PARENT 5 19 76 43 44 54
REMARK Flexibility Score: inf
ROOT
ATOM      1  C   UNL A   1      34.390  23.572  23.443  1.00  0.00     0.202 C 
ENDROOT
BRANCH   1   2
ATOM      2  C   UNL A   1      33.312  23.496  22.361  1.00  0.00     0.261 C 
BRANCH   2   3
ATOM      3  O   UNL A   1      32.331  24.549  22.483  1.00  0.00    -0.463 OA
BRANCH   3   4
ATOM      4  C   UNL A   1      32.432  25.546  21.575  1.00  0.00     0.306 C 
ATOM      5  O   UNL A   1      33.273  25.582  20.681  1.00  0.00    -0.252 OA
BRANCH   4   6
ATOM      6  C   UNL A   1      31.484  26.710  21.780  1.00  0.00     0.135 C 
BRANCH   6   7
ATOM      7  C   UNL A   1      31.486  27.701  23.011  1.00  0.00     0.030 C 
ATOM      8  C   UNL A   1      30.441  27.097  23.997  1.00  0.00     0.013 C 
ATOM      9  C   UNL A   1      31.014  29.120  22.622  1.00  0.00     0.013 C 
ATOM     10  C   UNL A   1      28.981  27.198  23.540  1.00  0.00     0.001 C 
ATOM     11  C   UNL A   1      29.584  29.171  22.090  1.00  0.00     0.001 C 
ATOM     12  C   UNL A   1      28.612  28.615  23.126  1.00  0.00     0.000 C 
BRANCH   7  13
ATOM     13  C   UNL A   1      32.949  27.688  23.630  1.00  0.00     0.269 C 
BRANCH  13  14
ATOM     14  N   UNL A   1      33.502  28.154  24.913  1.00  0.00    -0.332 N 
ATOM     15  C   UNL A   1      33.284  25.889  26.134  1.00  0.00     0.075 C 
ATOM     16  C   UNL A   1      33.314  27.398  26.171  1.00  0.00     0.186 C 
ATOM     17  C   UNL A   1      32.128  28.336  26.506  1.00  0.00     0.126 C 
ATOM     18  C   UNL A   1      32.830  29.311  25.531  1.00  0.00     0.268 C 
ATOM     19  H   UNL A   1      34.442  28.194  24.521  1.00  0.00     0.348 HD
ENDBRANCH  13  14
ENDBRANCH   7  13
ENDBRANCH   6   7
ENDBRANCH   4   6
ENDBRANCH   3   4
ENDBRANCH   2   3
ENDBRANCH   1   2
BRANCH   1  20
ATOM     20  O   UNL A   1      35.257  22.445  23.549  1.00  0.00    -0.374 OA
BRANCH  20  21
ATOM     21  C   UNL A   1      35.026  21.545  24.632  1.00  0.00     0.202 C 
BRANCH  21  22
ATOM     22  C   UNL A   1      36.184  21.392  25.627  1.00  0.00     0.261 C 
BRANCH  22  23
ATOM     23  O   UNL A   1      37.442  21.800  25.053  1.00  0.00    -0.460 OA
BRANCH  23  24
ATOM     24  C   UNL A   1      38.535  21.413  25.754  1.00  0.00     0.338 C 
ATOM     25  O   UNL A   1      39.082  20.325  25.737  1.00  0.00    -0.246 OA
BRANCH  24  26
ATOM     26  C   UNL A   1      39.128  22.567  26.459  1.00  0.00     0.060 A 
ATOM     27  C   UNL A   1      38.564  23.826  26.213  1.00  0.00     0.016 A 
ATOM     28  C   UNL A   1      40.270  22.447  27.252  1.00  0.00     0.016 A 
ATOM     29  C   UNL A   1      39.177  24.976  26.703  1.00  0.00     0.010 A 
ATOM     30  C   UNL A   1      40.890  23.606  27.738  1.00  0.00     0.010 A 
ATOM     31  C   UNL A   1      40.372  24.878  27.427  1.00  0.00    -0.014 A 
BRANCH  31  32
ATOM     32  C   UNL A   1      41.165  26.104  27.692  1.00  0.00     0.031 A 
ATOM     33  C   UNL A   1      40.525  27.231  28.458  1.00  0.00     0.074 A 
ATOM     34  C   UNL A   1      42.450  26.203  27.303  1.00  0.00     0.049 A 
ATOM     35  N   UNL A   1      41.010  28.407  28.771  1.00  0.00    -0.248 NA
ATOM     36  C   UNL A   1      39.153  27.000  28.941  1.00  0.00     0.031 C 
ATOM     37  C   UNL A   1      43.204  25.165  26.605  1.00  0.00     0.029 A 
ATOM     38  N   UNL A   1      43.345  27.236  27.441  1.00  0.00    -0.354 N 
ATOM     39  C   UNL A   1      40.002  29.055  29.473  1.00  0.00     0.074 A 
ATOM     40  C   UNL A   1      38.872  28.155  29.527  1.00  0.00     0.031 C 
ATOM     41  C   UNL A   1      44.447  25.619  26.362  1.00  0.00     0.029 A 
ATOM     42  C   UNL A   1      44.564  26.990  26.857  1.00  0.00     0.049 A 
ATOM     43  H   UNL A   1      43.133  28.073  27.913  1.00  0.00     0.167 HD
ATOM     44  C   UNL A   1      40.021  30.290  30.028  1.00  0.00     0.037 A 
ATOM     45  C   UNL A   1      45.640  27.790  26.718  1.00  0.00     0.037 A 
ATOM     46  C   UNL A   1      41.150  31.181  29.998  1.00  0.00     0.049 A 
ATOM     47  C   UNL A   1      45.609  29.185  27.292  1.00  0.00     0.074 A 
ATOM     48  C   UNL A   1      41.266  32.443  30.553  1.00  0.00     0.029 A 
ATOM     49  N   UNL A   1      42.358  30.902  29.378  1.00  0.00    -0.354 N 
ATOM     50  N   UNL A   1      44.660  29.782  27.970  1.00  0.00    -0.248 NA
ATOM     51  C   UNL A   1      46.804  30.018  27.080  1.00  0.00     0.031 C 
ATOM     52  C   UNL A   1      42.530  32.947  30.231  1.00  0.00     0.029 A 
ATOM     53  C   UNL A   1      43.217  31.979  29.518  1.00  0.00     0.049 A 
ATOM     54  H   UNL A   1      42.572  30.064  28.909  1.00  0.00     0.167 HD
ATOM     55  C   UNL A   1      45.155  31.038  28.297  1.00  0.00     0.074 A 
ATOM     56  C   UNL A   1      46.490  31.120  27.747  1.00  0.00     0.031 C 
ATOM     57  C   UNL A   1      44.556  32.033  28.996  1.00  0.00     0.037 A 
BRANCH  44  58
ATOM     58  C   UNL A   1      38.774  30.772  30.706  1.00  0.00     0.064 A 
ATOM     59  C   UNL A   1      38.622  30.711  32.098  1.00  0.00     0.173 A 
ATOM     60  C   UNL A   1      37.751  31.370  29.956  1.00  0.00     0.173 A 
ATOM     61  F   UNL A   1      39.569  30.137  32.856  1.00  0.00    -0.203 F 
ATOM     62  C   UNL A   1      37.487  31.227  32.716  1.00  0.00     0.198 A 
ATOM     63  C   UNL A   1      36.627  31.905  30.578  1.00  0.00     0.198 A 
ATOM     64  F   UNL A   1      37.852  31.455  28.621  1.00  0.00    -0.203 F 
ATOM     65  F   UNL A   1      37.349  31.139  34.046  1.00  0.00    -0.200 F 
ATOM     66  C   UNL A   1      36.494  31.832  31.956  1.00  0.00     0.200 A 
ATOM     67  F   UNL A   1      35.676  32.500  29.844  1.00  0.00    -0.200 F 
ATOM     68  F   UNL A   1      35.410  32.344  32.554  1.00  0.00    -0.200 F 
ENDBRANCH  44  58
BRANCH  45  69
ATOM     69  C   UNL A   1      46.838  27.309  25.981  1.00  0.00     0.064 A 
ATOM     70  C   UNL A   1      47.878  26.639  26.640  1.00  0.00     0.173 A 
ATOM     71  C   UNL A   1      46.989  27.557  24.608  1.00  0.00     0.173 A 
ATOM     72  F   UNL A   1      47.794  26.405  27.958  1.00  0.00    -0.203 F 
ATOM     73  C   UNL A   1      49.033  26.257  25.960  1.00  0.00     0.198 A 
ATOM     74  C   UNL A   1      48.131  27.149  23.924  1.00  0.00     0.198 A 
ATOM     75  F   UNL A   1      46.026  28.199  23.931  1.00  0.00    -0.203 F 
ATOM     76  F   UNL A   1      50.036  25.669  26.627  1.00  0.00    -0.200 F 
ATOM     77  C   UNL A   1      49.157  26.509  24.602  1.00  0.00     0.200 A 
ATOM     78  F   UNL A   1      48.243  27.387  22.610  1.00  0.00    -0.200 F 
ATOM     79  F   UNL A   1      50.271  26.147  23.950  1.00  0.00    -0.200 F 
ENDBRANCH  45  69
BRANCH  57  80
ATOM     80  C   UNL A   1      45.352  33.277  29.265  1.00  0.00     0.064 A 
ATOM     81  C   UNL A   1      46.191  33.389  30.381  1.00  0.00     0.173 A 
ATOM     82  C   UNL A   1      45.326  34.341  28.350  1.00  0.00     0.173 A 
ATOM     83  F   UNL A   1      46.240  32.403  31.290  1.00  0.00    -0.203 F 
ATOM     84  C   UNL A   1      46.966  34.528  30.581  1.00  0.00     0.198 A 
ATOM     85  C   UNL A   1      46.121  35.467  28.540  1.00  0.00     0.198 A 
ATOM     86  F   UNL A   1      44.544  34.278  27.262  1.00  0.00    -0.203 F 
ATOM     87  F   UNL A   1      47.737  34.629  31.672  1.00  0.00    -0.200 F 
ATOM     88  C   UNL A   1      46.937  35.562  29.655  1.00  0.00     0.200 A 
ATOM     89  F   UNL A   1      46.103  36.458  27.637  1.00  0.00    -0.200 F 
ATOM     90  F   UNL A   1      47.696  36.650  29.843  1.00  0.00    -0.200 F 
ENDBRANCH  57  80
ENDBRANCH  31  32
ENDBRANCH  24  26
ENDBRANCH  23  24
ENDBRANCH  22  23
ENDBRANCH  21  22
ENDBRANCH  20  21
ENDBRANCH   1  20
TORSDOF 17
ENDMDL
