MODEL 1
REMARK VINA RESULT:     -10.6      0.000      0.000
REMARK SMILES [NH3+][C@@]1(C(=O)OCCOCCOC(=O)c2ccc(-c3c4nc(c(-c5c(F)c(F)c(F)c(F)c5F)c5ccc([nH]5)c(-c5c(F)c(F)c(F)c(F)c5F)c5nc(c(-c6c(F)c(F)c(F)c(F)c6F)c6ccc3[nH]6)C=C5)C=C4)cc2)CC[C@H](Sc2cccs2)C1
REMARK SMILES IDX 8 1 7 2 6 3 5 4 3 5 4 6 2 7 77 8 86 9 78 10 79 11 1 12 80 16
REMARK SMILES IDX 81 17 82 18 85 19 83 20 84 21 9 22 10 23 11 24 12 25 13 26
REMARK SMILES IDX 14 27 15 28 76 29 16 30 75 31 17 32 18 33 19 34 69 35 20 36
REMARK SMILES IDX 74 37 68 38 70 39 21 40 73 41 67 42 66 43 22 45 54 46 34 47
REMARK SMILES IDX 53 48 35 49 38 50 52 51 71 52 36 53 37 54 51 56 72 57 39 58
REMARK SMILES IDX 23 59 24 60 32 61 25 62 26 63 30 64 33 65 27 66 28 67 31 68
REMARK SMILES IDX 29 69 55 70 56 71 64 72 57 73 58 74 62 75 65 76 59 77 60 78
REMARK SMILES IDX 63 79 61 80 40 81 41 82 49 83 42 84 43 85 47 86 50 87 44 88
REMARK SMILES IDX 45 89 48 90 46 91
REMARK H PARENT 1 13 1 14 1 15 70 44 38 55
REMARK Flexibility Score: inf
ROOT
ATOM      1  O   UNL A   1      35.373  22.197  25.536  1.00  0.00    -0.374 OA
ENDROOT
BRANCH   1   2
ATOM      2  C   UNL A   1      34.059  22.639  25.198  1.00  0.00     0.202 C 
BRANCH   2   3
ATOM      3  C   UNL A   1      33.840  24.151  25.151  1.00  0.00     0.261 C 
BRANCH   3   4
ATOM      4  O   UNL A   1      32.851  24.511  24.171  1.00  0.00    -0.459 OA
BRANCH   4   5
ATOM      5  C   UNL A   1      33.336  24.976  22.994  1.00  0.00     0.368 C 
ATOM      6  O   UNL A   1      34.270  24.475  22.371  1.00  0.00    -0.245 OA
BRANCH   5   7
ATOM      7  C   UNL A   1      32.599  26.242  22.469  1.00  0.00     0.193 C 
ATOM      8  C   UNL A   1      33.633  27.348  22.247  1.00  0.00     0.082 C 
ATOM      9  C   UNL A   1      31.583  26.896  23.421  1.00  0.00     0.095 C 
ATOM     10  C   UNL A   1      33.769  27.979  23.630  1.00  0.00     0.022 C 
ATOM     11  C   UNL A   1      32.336  28.012  24.173  1.00  0.00     0.059 C 
BRANCH   7  12
ATOM     12  N   UNL A   1      31.911  25.849  21.213  1.00  0.00    -0.343 N 
ATOM     13  H   UNL A   1      32.578  25.398  20.588  1.00  0.00     0.345 HD
ATOM     14  H   UNL A   1      31.530  26.680  20.760  1.00  0.00     0.345 HD
ATOM     15  H   UNL A   1      31.154  25.201  21.429  1.00  0.00     0.345 HD
ENDBRANCH   7  12
BRANCH  11  16
ATOM     16  S   UNL A   1      32.234  27.758  25.967  1.00  0.00    -0.112 SA
BRANCH  16  17
ATOM     17  C   UNL A   1      33.267  28.990  26.673  1.00  0.00     0.060 A 
ATOM     18  C   UNL A   1      34.584  28.912  27.078  1.00  0.00     0.027 A 
ATOM     19  S   UNL A   1      32.637  30.565  26.936  1.00  0.00    -0.137 S 
ATOM     20  C   UNL A   1      35.060  30.139  27.636  1.00  0.00     0.013 A 
ATOM     21  C   UNL A   1      34.100  31.124  27.610  1.00  0.00     0.066 A 
ENDBRANCH  16  17
ENDBRANCH  11  16
ENDBRANCH   5   7
ENDBRANCH   4   5
ENDBRANCH   3   4
ENDBRANCH   2   3
ENDBRANCH   1   2
BRANCH   1  22
ATOM     22  C   UNL A   1      35.690  20.826  25.292  1.00  0.00     0.202 C 
BRANCH  22  23
ATOM     23  C   UNL A   1      37.154  20.514  24.951  1.00  0.00     0.261 C 
BRANCH  23  24
ATOM     24  O   UNL A   1      38.035  21.619  25.228  1.00  0.00    -0.460 OA
BRANCH  24  25
ATOM     25  C   UNL A   1      39.093  21.327  26.021  1.00  0.00     0.338 C 
ATOM     26  O   UNL A   1      39.650  20.243  26.147  1.00  0.00    -0.246 OA
BRANCH  25  27
ATOM     27  C   UNL A   1      39.636  22.555  26.625  1.00  0.00     0.060 A 
ATOM     28  C   UNL A   1      39.128  23.784  26.181  1.00  0.00     0.016 A 
ATOM     29  C   UNL A   1      40.690  22.514  27.538  1.00  0.00     0.016 A 
ATOM     30  C   UNL A   1      39.693  24.979  26.625  1.00  0.00     0.010 A 
ATOM     31  C   UNL A   1      41.268  23.713  27.966  1.00  0.00     0.010 A 
ATOM     32  C   UNL A   1      40.790  24.950  27.495  1.00  0.00    -0.014 A 
BRANCH  32  33
ATOM     33  C   UNL A   1      41.543  26.195  27.786  1.00  0.00     0.031 A 
ATOM     34  C   UNL A   1      40.865  27.283  28.572  1.00  0.00     0.074 A 
ATOM     35  C   UNL A   1      42.814  26.354  27.375  1.00  0.00     0.049 A 
ATOM     36  N   UNL A   1      41.291  28.483  28.874  1.00  0.00    -0.248 NA
ATOM     37  C   UNL A   1      39.522  26.972  29.088  1.00  0.00     0.031 C 
ATOM     38  C   UNL A   1      43.600  25.359  26.652  1.00  0.00     0.029 A 
ATOM     39  N   UNL A   1      43.663  27.427  27.503  1.00  0.00    -0.354 N 
ATOM     40  C   UNL A   1      40.268  29.072  29.605  1.00  0.00     0.074 A 
ATOM     41  C   UNL A   1      39.191  28.109  29.682  1.00  0.00     0.031 C 
ATOM     42  C   UNL A   1      44.815  25.871  26.388  1.00  0.00     0.029 A 
ATOM     43  C   UNL A   1      44.877  27.243  26.889  1.00  0.00     0.049 A 
ATOM     44  H   UNL A   1      43.424  28.249  27.988  1.00  0.00     0.167 HD
ATOM     45  C   UNL A   1      40.233  30.302  30.169  1.00  0.00     0.037 A 
ATOM     46  C   UNL A   1      45.906  28.098  26.727  1.00  0.00     0.037 A 
ATOM     47  C   UNL A   1      41.301  31.261  30.092  1.00  0.00     0.049 A 
ATOM     48  C   UNL A   1      45.809  29.494  27.288  1.00  0.00     0.074 A 
ATOM     49  C   UNL A   1      41.358  32.536  30.627  1.00  0.00     0.029 A 
ATOM     50  N   UNL A   1      42.504  31.049  29.435  1.00  0.00    -0.354 N 
ATOM     51  N   UNL A   1      44.840  30.043  27.980  1.00  0.00    -0.248 NA
ATOM     52  C   UNL A   1      46.946  30.393  27.039  1.00  0.00     0.031 C 
ATOM     53  C   UNL A   1      42.578  33.111  30.257  1.00  0.00     0.029 A 
ATOM     54  C   UNL A   1      43.300  32.177  29.533  1.00  0.00     0.049 A 
ATOM     55  H   UNL A   1      42.753  30.219  28.968  1.00  0.00     0.167 HD
ATOM     56  C   UNL A   1      45.263  31.334  28.274  1.00  0.00     0.074 A 
ATOM     57  C   UNL A   1      46.579  31.486  27.691  1.00  0.00     0.031 C 
ATOM     58  C   UNL A   1      44.618  32.305  28.965  1.00  0.00     0.037 A 
BRANCH  45  59
ATOM     59  C   UNL A   1      38.984  30.689  30.904  1.00  0.00     0.064 A 
ATOM     60  C   UNL A   1      38.856  30.495  32.287  1.00  0.00     0.173 A 
ATOM     61  C   UNL A   1      37.916  31.290  30.221  1.00  0.00     0.173 A 
ATOM     62  F   UNL A   1      39.844  29.910  32.981  1.00  0.00    -0.203 F 
ATOM     63  C   UNL A   1      37.695  30.870  32.957  1.00  0.00     0.198 A 
ATOM     64  C   UNL A   1      36.767  31.687  30.898  1.00  0.00     0.198 A 
ATOM     65  F   UNL A   1      37.992  31.501  28.899  1.00  0.00    -0.203 F 
ATOM     66  F   UNL A   1      37.577  30.639  34.271  1.00  0.00    -0.200 F 
ATOM     67  C   UNL A   1      36.654  31.472  32.264  1.00  0.00     0.200 A 
ATOM     68  F   UNL A   1      35.768  32.279  30.229  1.00  0.00    -0.200 F 
ATOM     69  F   UNL A   1      35.540  31.839  32.911  1.00  0.00    -0.200 F 
ENDBRANCH  45  59
BRANCH  46  70
ATOM     70  C   UNL A   1      47.119  27.672  25.978  1.00  0.00     0.064 A 
ATOM     71  C   UNL A   1      47.166  27.746  24.579  1.00  0.00     0.173 A 
ATOM     72  C   UNL A   1      48.238  27.150  26.643  1.00  0.00     0.173 A 
ATOM     73  F   UNL A   1      46.109  28.208  23.896  1.00  0.00    -0.203 F 
ATOM     74  C   UNL A   1      48.280  27.297  23.872  1.00  0.00     0.198 A 
ATOM     75  C   UNL A   1      49.362  26.727  25.937  1.00  0.00     0.198 A 
ATOM     76  F   UNL A   1      48.239  27.048  27.981  1.00  0.00    -0.203 F 
ATOM     77  F   UNL A   1      48.280  27.332  22.533  1.00  0.00    -0.200 F 
ATOM     78  C   UNL A   1      49.379  26.792  24.552  1.00  0.00     0.200 A 
ATOM     79  F   UNL A   1      50.423  26.246  26.598  1.00  0.00    -0.200 F 
ATOM     80  F   UNL A   1      50.449  26.359  23.872  1.00  0.00    -0.200 F 
ENDBRANCH  46  70
BRANCH  58  81
ATOM     81  C   UNL A   1      45.337  33.605  29.174  1.00  0.00     0.064 A 
ATOM     82  C   UNL A   1      45.142  34.699  28.320  1.00  0.00     0.173 A 
ATOM     83  C   UNL A   1      46.182  33.776  30.282  1.00  0.00     0.173 A 
ATOM     84  F   UNL A   1      44.355  34.581  27.240  1.00  0.00    -0.203 F 
ATOM     85  C   UNL A   1      45.780  35.914  28.558  1.00  0.00     0.198 A 
ATOM     86  C   UNL A   1      46.797  34.999  30.531  1.00  0.00     0.198 A 
ATOM     87  F   UNL A   1      46.395  32.761  31.132  1.00  0.00    -0.203 F 
ATOM     88  F   UNL A   1      45.607  36.937  27.710  1.00  0.00    -0.200 F 
ATOM     89  C   UNL A   1      46.599  36.066  29.667  1.00  0.00     0.200 A 
ATOM     90  F   UNL A   1      47.578  35.148  31.610  1.00  0.00    -0.200 F 
ATOM     91  F   UNL A   1      47.201  37.240  29.902  1.00  0.00    -0.200 F 
ENDBRANCH  58  81
ENDBRANCH  32  33
ENDBRANCH  25  27
ENDBRANCH  24  25
ENDBRANCH  23  24
ENDBRANCH  22  23
ENDBRANCH   1  22
TORSDOF 17
ENDMDL
MODEL 2
REMARK VINA RESULT:     -10.6      0.276      2.003
REMARK SMILES [NH3+][C@@]1(C(=O)OCCOCCOC(=O)c2ccc(-c3c4nc(c(-c5c(F)c(F)c(F)c(F)c5F)c5ccc([nH]5)c(-c5c(F)c(F)c(F)c(F)c5F)c5nc(c(-c6c(F)c(F)c(F)c(F)c6F)c6ccc3[nH]6)C=C5)C=C4)cc2)CC[C@H](Sc2cccs2)C1
REMARK SMILES IDX 8 1 7 2 6 3 5 4 3 5 4 6 2 7 77 8 86 9 78 10 79 11 1 12 80 16
REMARK SMILES IDX 81 17 82 18 85 19 83 20 84 21 9 22 10 23 11 24 12 25 13 26
REMARK SMILES IDX 14 27 15 28 76 29 16 30 75 31 17 32 18 33 19 34 69 35 20 36
REMARK SMILES IDX 74 37 68 38 70 39 21 40 73 41 67 42 66 43 22 45 54 46 34 47
REMARK SMILES IDX 53 48 35 49 38 50 52 51 71 52 36 53 37 54 51 56 72 57 39 58
REMARK SMILES IDX 23 59 24 60 32 61 25 62 26 63 30 64 33 65 27 66 28 67 31 68
REMARK SMILES IDX 29 69 55 70 56 71 64 72 57 73 58 74 62 75 65 76 59 77 60 78
REMARK SMILES IDX 63 79 61 80 40 81 41 82 49 83 42 84 43 85 47 86 50 87 44 88
REMARK SMILES IDX 45 89 48 90 46 91
REMARK H PARENT 1 13 1 14 1 15 70 44 38 55
REMARK Flexibility Score: inf
ROOT
ATOM      1  O   UNL A   1      35.432  22.703  25.521  1.00  0.00    -0.374 OA
ENDROOT
BRANCH   1   2
ATOM      2  C   UNL A   1      34.117  23.153  25.198  1.00  0.00     0.202 C 
BRANCH   2   3
ATOM      3  C   UNL A   1      33.908  24.668  25.152  1.00  0.00     0.261 C 
BRANCH   3   4
ATOM      4  O   UNL A   1      32.864  25.029  24.233  1.00  0.00    -0.459 OA
BRANCH   4   5
ATOM      5  C   UNL A   1      33.278  25.440  23.009  1.00  0.00     0.368 C 
ATOM      6  O   UNL A   1      34.133  24.875  22.329  1.00  0.00    -0.245 OA
BRANCH   5   7
ATOM      7  C   UNL A   1      32.569  26.732  22.509  1.00  0.00     0.193 C 
ATOM      8  C   UNL A   1      33.625  27.825  22.329  1.00  0.00     0.082 C 
ATOM      9  C   UNL A   1      31.553  27.377  23.466  1.00  0.00     0.095 C 
ATOM     10  C   UNL A   1      33.753  28.417  23.729  1.00  0.00     0.022 C 
ATOM     11  C   UNL A   1      32.315  28.461  24.256  1.00  0.00     0.059 C 
BRANCH   7  12
ATOM     12  N   UNL A   1      31.890  26.384  21.235  1.00  0.00    -0.343 N 
ATOM     13  H   UNL A   1      32.286  26.939  20.477  1.00  0.00     0.345 HD
ATOM     14  H   UNL A   1      30.893  26.582  21.316  1.00  0.00     0.345 HD
ATOM     15  H   UNL A   1      32.025  25.392  21.038  1.00  0.00     0.345 HD
ENDBRANCH   7  12
BRANCH  11  16
ATOM     16  S   UNL A   1      32.186  28.161  26.042  1.00  0.00    -0.112 SA
BRANCH  16  17
ATOM     17  C   UNL A   1      33.406  29.188  26.777  1.00  0.00     0.060 A 
ATOM     18  C   UNL A   1      34.681  28.879  27.202  1.00  0.00     0.027 A 
ATOM     19  S   UNL A   1      33.056  30.847  27.046  1.00  0.00    -0.137 S 
ATOM     20  C   UNL A   1      35.354  29.999  27.780  1.00  0.00     0.013 A 
ATOM     21  C   UNL A   1      34.582  31.137  27.749  1.00  0.00     0.066 A 
ENDBRANCH  16  17
ENDBRANCH  11  16
ENDBRANCH   5   7
ENDBRANCH   4   5
ENDBRANCH   3   4
ENDBRANCH   2   3
ENDBRANCH   1   2
BRANCH   1  22
ATOM     22  C   UNL A   1      35.625  21.297  25.684  1.00  0.00     0.202 C 
BRANCH  22  23
ATOM     23  C   UNL A   1      36.935  20.719  25.132  1.00  0.00     0.261 C 
BRANCH  23  24
ATOM     24  O   UNL A   1      38.013  21.675  25.150  1.00  0.00    -0.460 OA
BRANCH  24  25
ATOM     25  C   UNL A   1      39.038  21.370  25.981  1.00  0.00     0.338 C 
ATOM     26  O   UNL A   1      39.563  20.275  26.143  1.00  0.00    -0.246 OA
BRANCH  25  27
ATOM     27  C   UNL A   1      39.593  22.595  26.581  1.00  0.00     0.060 A 
ATOM     28  C   UNL A   1      39.138  23.828  26.093  1.00  0.00     0.016 A 
ATOM     29  C   UNL A   1      40.610  22.543  27.534  1.00  0.00     0.016 A 
ATOM     30  C   UNL A   1      39.720  25.015  26.535  1.00  0.00     0.010 A 
ATOM     31  C   UNL A   1      41.207  23.735  27.959  1.00  0.00     0.010 A 
ATOM     32  C   UNL A   1      40.783  24.974  27.446  1.00  0.00    -0.014 A 
BRANCH  32  33
ATOM     33  C   UNL A   1      41.560  26.203  27.741  1.00  0.00     0.031 A 
ATOM     34  C   UNL A   1      40.905  27.300  28.534  1.00  0.00     0.074 A 
ATOM     35  C   UNL A   1      42.833  26.341  27.327  1.00  0.00     0.049 A 
ATOM     36  N   UNL A   1      41.354  28.490  28.840  1.00  0.00    -0.248 NA
ATOM     37  C   UNL A   1      39.558  27.012  29.053  1.00  0.00     0.031 C 
ATOM     38  C   UNL A   1      43.597  25.334  26.597  1.00  0.00     0.029 A 
ATOM     39  N   UNL A   1      43.702  27.396  27.457  1.00  0.00    -0.354 N 
ATOM     40  C   UNL A   1      40.345  29.095  29.577  1.00  0.00     0.074 A 
ATOM     41  C   UNL A   1      39.250  28.152  29.653  1.00  0.00     0.031 C 
ATOM     42  C   UNL A   1      44.821  25.824  26.331  1.00  0.00     0.029 A 
ATOM     43  C   UNL A   1      44.911  27.192  26.838  1.00  0.00     0.049 A 
ATOM     44  H   UNL A   1      43.480  28.221  27.947  1.00  0.00     0.167 HD
ATOM     45  C   UNL A   1      40.335  30.323  30.147  1.00  0.00     0.037 A 
ATOM     46  C   UNL A   1      45.955  28.028  26.677  1.00  0.00     0.037 A 
ATOM     47  C   UNL A   1      41.421  31.262  30.071  1.00  0.00     0.049 A 
ATOM     48  C   UNL A   1      45.886  29.423  27.245  1.00  0.00     0.074 A 
ATOM     49  C   UNL A   1      41.503  32.534  30.612  1.00  0.00     0.029 A 
ATOM     50  N   UNL A   1      42.617  31.030  29.410  1.00  0.00    -0.354 N 
ATOM     51  N   UNL A   1      44.930  29.988  27.942  1.00  0.00    -0.248 NA
ATOM     52  C   UNL A   1      47.039  30.302  26.997  1.00  0.00     0.031 C 
ATOM     53  C   UNL A   1      42.733  33.087  30.241  1.00  0.00     0.029 A 
ATOM     54  C   UNL A   1      43.435  32.142  29.511  1.00  0.00     0.049 A 
ATOM     55  H   UNL A   1      42.850  30.198  28.938  1.00  0.00     0.167 HD
ATOM     56  C   UNL A   1      45.377  31.268  28.241  1.00  0.00     0.074 A 
ATOM     57  C   UNL A   1      46.695  31.399  27.655  1.00  0.00     0.031 C 
ATOM     58  C   UNL A   1      44.753  32.248  28.939  1.00  0.00     0.037 A 
BRANCH  45  59
ATOM     59  C   UNL A   1      39.096  30.730  30.888  1.00  0.00     0.064 A 
ATOM     60  C   UNL A   1      38.026  31.360  30.237  1.00  0.00     0.173 A 
ATOM     61  C   UNL A   1      38.965  30.457  32.258  1.00  0.00     0.173 A 
ATOM     62  F   UNL A   1      38.109  31.654  28.930  1.00  0.00    -0.203 F 
ATOM     63  C   UNL A   1      36.876  31.721  30.935  1.00  0.00     0.198 A 
ATOM     64  C   UNL A   1      37.805  30.797  32.947  1.00  0.00     0.198 A 
ATOM     65  F   UNL A   1      39.960  29.853  32.925  1.00  0.00    -0.203 F 
ATOM     66  F   UNL A   1      35.882  32.358  30.301  1.00  0.00    -0.200 F 
ATOM     67  C   UNL A   1      36.764  31.434  32.287  1.00  0.00     0.200 A 
ATOM     68  F   UNL A   1      37.694  30.508  34.251  1.00  0.00    -0.200 F 
ATOM     69  F   UNL A   1      35.655  31.775  32.957  1.00  0.00    -0.200 F 
ENDBRANCH  45  59
BRANCH  46  70
ATOM     70  C   UNL A   1      47.157  27.583  25.922  1.00  0.00     0.064 A 
ATOM     71  C   UNL A   1      48.276  27.062  26.587  1.00  0.00     0.173 A 
ATOM     72  C   UNL A   1      47.224  27.703  24.527  1.00  0.00     0.173 A 
ATOM     73  F   UNL A   1      48.272  26.957  27.924  1.00  0.00    -0.203 F 
ATOM     74  C   UNL A   1      49.423  26.695  25.886  1.00  0.00     0.198 A 
ATOM     75  C   UNL A   1      48.361  27.310  23.824  1.00  0.00     0.198 A 
ATOM     76  F   UNL A   1      46.184  28.205  23.843  1.00  0.00    -0.203 F 
ATOM     77  F   UNL A   1      50.497  26.247  26.550  1.00  0.00    -0.200 F 
ATOM     78  C   UNL A   1      49.463  26.814  24.505  1.00  0.00     0.200 A 
ATOM     79  F   UNL A   1      48.392  27.421  22.489  1.00  0.00    -0.200 F 
ATOM     80  F   UNL A   1      50.566  26.464  23.831  1.00  0.00    -0.200 F 
ENDBRANCH  46  70
BRANCH  58  81
ATOM     81  C   UNL A   1      45.497  33.533  29.152  1.00  0.00     0.064 A 
ATOM     82  C   UNL A   1      46.368  33.709  30.236  1.00  0.00     0.173 A 
ATOM     83  C   UNL A   1      45.385  34.579  28.222  1.00  0.00     0.173 A 
ATOM     84  F   UNL A   1      46.499  32.744  31.160  1.00  0.00    -0.203 F 
ATOM     85  C   UNL A   1      47.089  34.890  30.390  1.00  0.00     0.198 A 
ATOM     86  C   UNL A   1      46.126  35.748  28.365  1.00  0.00     0.198 A 
ATOM     87  F   UNL A   1      44.570  34.457  27.164  1.00  0.00    -0.203 F 
ATOM     88  F   UNL A   1      47.891  35.051  31.452  1.00  0.00    -0.200 F 
ATOM     89  C   UNL A   1      46.974  35.904  29.451  1.00  0.00     0.200 A 
ATOM     90  F   UNL A   1      46.024  36.721  27.449  1.00  0.00    -0.200 F 
ATOM     91  F   UNL A   1      47.680  37.035  29.594  1.00  0.00    -0.200 F 
ENDBRANCH  58  81
ENDBRANCH  32  33
ENDBRANCH  25  27
ENDBRANCH  24  25
ENDBRANCH  23  24
ENDBRANCH  22  23
ENDBRANCH   1  22
TORSDOF 17
ENDMDL
MODEL 3
REMARK VINA RESULT:     -10.5      4.699     10.077
REMARK SMILES [NH3+][C@@]1(C(=O)OCCOCCOC(=O)c2ccc(-c3c4nc(c(-c5c(F)c(F)c(F)c(F)c5F)c5ccc([nH]5)c(-c5c(F)c(F)c(F)c(F)c5F)c5nc(c(-c6c(F)c(F)c(F)c(F)c6F)c6ccc3[nH]6)C=C5)C=C4)cc2)CC[C@H](Sc2cccs2)C1
REMARK SMILES IDX 8 1 7 2 6 3 5 4 3 5 4 6 2 7 77 8 86 9 78 10 79 11 1 12 80 16
REMARK SMILES IDX 81 17 82 18 85 19 83 20 84 21 9 22 10 23 11 24 12 25 13 26
REMARK SMILES IDX 14 27 15 28 76 29 16 30 75 31 17 32 18 33 19 34 69 35 20 36
REMARK SMILES IDX 74 37 68 38 70 39 21 40 73 41 67 42 66 43 22 45 54 46 34 47
REMARK SMILES IDX 53 48 35 49 38 50 52 51 71 52 36 53 37 54 51 56 72 57 39 58
REMARK SMILES IDX 23 59 24 60 32 61 25 62 26 63 30 64 33 65 27 66 28 67 31 68
REMARK SMILES IDX 29 69 55 70 56 71 64 72 57 73 58 74 62 75 65 76 59 77 60 78
REMARK SMILES IDX 63 79 61 80 40 81 41 82 49 83 42 84 43 85 47 86 50 87 44 88
REMARK SMILES IDX 45 89 48 90 46 91
REMARK H PARENT 1 13 1 14 1 15 70 44 38 55
REMARK Flexibility Score: inf
ROOT
ATOM      1  O   UNL A   1      30.595  29.659  23.841  1.00  0.00    -0.374 OA
ENDROOT
BRANCH   1   2
ATOM      2  C   UNL A   1      29.854  28.488  23.502  1.00  0.00     0.202 C 
BRANCH   2   3
ATOM      3  C   UNL A   1      30.663  27.211  23.277  1.00  0.00     0.261 C 
BRANCH   3   4
ATOM      4  O   UNL A   1      30.782  26.441  24.486  1.00  0.00    -0.459 OA
BRANCH   4   5
ATOM      5  C   UNL A   1      30.651  25.100  24.341  1.00  0.00     0.368 C 
ATOM      6  O   UNL A   1      30.431  24.526  23.275  1.00  0.00    -0.245 OA
BRANCH   5   7
ATOM      7  C   UNL A   1      30.802  24.308  25.672  1.00  0.00     0.193 C 
ATOM      8  C   UNL A   1      32.112  24.731  26.341  1.00  0.00     0.082 C 
ATOM      9  C   UNL A   1      30.943  22.781  25.555  1.00  0.00     0.095 C 
ATOM     10  C   UNL A   1      33.149  23.836  25.670  1.00  0.00     0.022 C 
ATOM     11  C   UNL A   1      32.455  22.475  25.550  1.00  0.00     0.059 C 
BRANCH   7  12
ATOM     12  N   UNL A   1      29.612  24.628  26.500  1.00  0.00    -0.343 N 
ATOM     13  H   UNL A   1      29.257  23.774  26.929  1.00  0.00     0.345 HD
ATOM     14  H   UNL A   1      28.888  25.038  25.911  1.00  0.00     0.345 HD
ATOM     15  H   UNL A   1      29.874  25.292  27.229  1.00  0.00     0.345 HD
ENDBRANCH   7  12
BRANCH  11  16
ATOM     16  S   UNL A   1      32.917  21.553  24.056  1.00  0.00    -0.112 SA
BRANCH  16  17
ATOM     17  C   UNL A   1      32.802  19.858  24.500  1.00  0.00     0.060 A 
ATOM     18  C   UNL A   1      32.893  19.262  25.741  1.00  0.00     0.027 A 
ATOM     19  S   UNL A   1      32.531  18.686  23.275  1.00  0.00    -0.137 S 
ATOM     20  C   UNL A   1      32.776  17.839  25.676  1.00  0.00     0.013 A 
ATOM     21  C   UNL A   1      32.567  17.397  24.391  1.00  0.00     0.066 A 
ENDBRANCH  16  17
ENDBRANCH  11  16
ENDBRANCH   5   7
ENDBRANCH   4   5
ENDBRANCH   3   4
ENDBRANCH   2   3
ENDBRANCH   1   2
BRANCH   1  22
ATOM     22  C   UNL A   1      31.481  29.576  24.959  1.00  0.00     0.202 C 
BRANCH  22  23
ATOM     23  C   UNL A   1      31.505  30.786  25.903  1.00  0.00     0.261 C 
BRANCH  23  24
ATOM     24  O   UNL A   1      32.460  30.635  26.972  1.00  0.00    -0.460 OA
BRANCH  24  25
ATOM     25  C   UNL A   1      33.181  31.743  27.259  1.00  0.00     0.338 C 
ATOM     26  O   UNL A   1      32.796  32.906  27.245  1.00  0.00    -0.246 OA
BRANCH  25  27
ATOM     27  C   UNL A   1      34.509  31.371  27.778  1.00  0.00     0.060 A 
ATOM     28  C   UNL A   1      34.726  30.028  28.117  1.00  0.00     0.016 A 
ATOM     29  C   UNL A   1      35.491  32.330  28.022  1.00  0.00     0.016 A 
ATOM     30  C   UNL A   1      35.919  29.643  28.730  1.00  0.00     0.010 A 
ATOM     31  C   UNL A   1      36.677  31.945  28.656  1.00  0.00     0.010 A 
ATOM     32  C   UNL A   1      36.888  30.606  29.035  1.00  0.00    -0.014 A 
BRANCH  32  33
ATOM     33  C   UNL A   1      38.048  30.252  29.891  1.00  0.00     0.031 A 
ATOM     34  C   UNL A   1      39.084  29.308  29.349  1.00  0.00     0.074 A 
ATOM     35  C   UNL A   1      38.189  30.771  31.124  1.00  0.00     0.049 A 
ATOM     36  N   UNL A   1      40.131  28.792  29.940  1.00  0.00    -0.248 NA
ATOM     37  C   UNL A   1      38.914  28.890  27.948  1.00  0.00     0.031 C 
ATOM     38  C   UNL A   1      37.284  31.735  31.744  1.00  0.00     0.029 A 
ATOM     39  N   UNL A   1      39.150  30.547  32.079  1.00  0.00    -0.354 N 
ATOM     40  C   UNL A   1      40.739  27.983  28.988  1.00  0.00     0.074 A 
ATOM     41  C   UNL A   1      39.932  28.056  27.790  1.00  0.00     0.031 C 
ATOM     42  C   UNL A   1      37.726  32.011  32.984  1.00  0.00     0.029 A 
ATOM     43  C   UNL A   1      38.921  31.215  33.256  1.00  0.00     0.049 A 
ATOM     44  H   UNL A   1      39.929  29.963  31.933  1.00  0.00     0.167 HD
ATOM     45  C   UNL A   1      41.873  27.252  29.101  1.00  0.00     0.037 A 
ATOM     46  C   UNL A   1      39.587  31.164  34.427  1.00  0.00     0.037 A 
ATOM     47  C   UNL A   1      42.675  27.176  30.292  1.00  0.00     0.049 A 
ATOM     48  C   UNL A   1      40.797  30.273  34.556  1.00  0.00     0.074 A 
ATOM     49  C   UNL A   1      43.839  26.458  30.506  1.00  0.00     0.029 A 
ATOM     50  N   UNL A   1      42.394  27.844  31.474  1.00  0.00    -0.354 N 
ATOM     51  N   UNL A   1      41.367  29.514  33.652  1.00  0.00    -0.248 NA
ATOM     52  C   UNL A   1      41.453  30.227  35.872  1.00  0.00     0.031 C 
ATOM     53  C   UNL A   1      44.238  26.658  31.831  1.00  0.00     0.029 A 
ATOM     54  C   UNL A   1      43.350  27.538  32.427  1.00  0.00     0.049 A 
ATOM     55  H   UNL A   1      41.627  28.446  31.615  1.00  0.00     0.167 HD
ATOM     56  C   UNL A   1      42.460  28.927  34.278  1.00  0.00     0.074 A 
ATOM     57  C   UNL A   1      42.479  29.423  35.638  1.00  0.00     0.031 C 
ATOM     58  C   UNL A   1      43.367  28.057  33.771  1.00  0.00     0.037 A 
BRANCH  45  59
ATOM     59  C   UNL A   1      42.302  26.455  27.905  1.00  0.00     0.064 A 
ATOM     60  C   UNL A   1      41.788  25.175  27.654  1.00  0.00     0.173 A 
ATOM     61  C   UNL A   1      43.214  26.992  26.984  1.00  0.00     0.173 A 
ATOM     62  F   UNL A   1      40.924  24.614  28.514  1.00  0.00    -0.203 F 
ATOM     63  C   UNL A   1      42.186  24.451  26.533  1.00  0.00     0.198 A 
ATOM     64  C   UNL A   1      43.591  26.275  25.851  1.00  0.00     0.198 A 
ATOM     65  F   UNL A   1      43.732  28.213  27.178  1.00  0.00    -0.203 F 
ATOM     66  F   UNL A   1      41.712  23.214  26.333  1.00  0.00    -0.200 F 
ATOM     67  C   UNL A   1      43.082  25.004  25.630  1.00  0.00     0.200 A 
ATOM     68  F   UNL A   1      44.447  26.816  24.973  1.00  0.00    -0.200 F 
ATOM     69  F   UNL A   1      43.459  24.310  24.548  1.00  0.00    -0.200 F 
ENDBRANCH  45  59
BRANCH  46  70
ATOM     70  C   UNL A   1      39.114  31.963  35.589  1.00  0.00     0.064 A 
ATOM     71  C   UNL A   1      39.526  33.291  35.768  1.00  0.00     0.173 A 
ATOM     72  C   UNL A   1      38.272  31.403  36.560  1.00  0.00     0.173 A 
ATOM     73  F   UNL A   1      40.357  33.860  34.884  1.00  0.00    -0.203 F 
ATOM     74  C   UNL A   1      39.127  34.023  36.885  1.00  0.00     0.198 A 
ATOM     75  C   UNL A   1      37.851  32.145  37.662  1.00  0.00     0.198 A 
ATOM     76  F   UNL A   1      37.857  30.133  36.441  1.00  0.00    -0.203 F 
ATOM     77  F   UNL A   1      39.576  35.273  37.059  1.00  0.00    -0.200 F 
ATOM     78  C   UNL A   1      38.286  33.452  37.829  1.00  0.00     0.200 A 
ATOM     79  F   UNL A   1      37.034  31.591  38.567  1.00  0.00    -0.200 F 
ATOM     80  F   UNL A   1      37.905  34.154  38.903  1.00  0.00    -0.200 F 
ENDBRANCH  46  70
BRANCH  58  81
ATOM     81  C   UNL A   1      44.485  27.616  34.668  1.00  0.00     0.064 A 
ATOM     82  C   UNL A   1      45.678  28.344  34.771  1.00  0.00     0.173 A 
ATOM     83  C   UNL A   1      44.333  26.483  35.484  1.00  0.00     0.173 A 
ATOM     84  F   UNL A   1      45.876  29.426  34.002  1.00  0.00    -0.203 F 
ATOM     85  C   UNL A   1      46.685  27.947  35.646  1.00  0.00     0.198 A 
ATOM     86  C   UNL A   1      45.332  26.104  36.376  1.00  0.00     0.198 A 
ATOM     87  F   UNL A   1      43.208  25.756  35.428  1.00  0.00    -0.203 F 
ATOM     88  F   UNL A   1      47.832  28.639  35.704  1.00  0.00    -0.200 F 
ATOM     89  C   UNL A   1      46.508  26.834  36.454  1.00  0.00     0.200 A 
ATOM     90  F   UNL A   1      45.153  25.035  37.166  1.00  0.00    -0.200 F 
ATOM     91  F   UNL A   1      47.473  26.461  37.306  1.00  0.00    -0.200 F 
ENDBRANCH  58  81
ENDBRANCH  32  33
ENDBRANCH  25  27
ENDBRANCH  24  25
ENDBRANCH  23  24
ENDBRANCH  22  23
ENDBRANCH   1  22
TORSDOF 17
ENDMDL
