MODEL 1
REMARK VINA RESULT:     -11.7      0.000      0.000
REMARK SMILES CCOc1cc(NC(=O)c2c(C(=O)OCCOCCOC(=O)c3ccc(-c4c5nc(c(-c6c(F)c(F)c(F)c(F)c6F)c6ccc([nH]6)c(-c6c(F)c(F)c(F)c(F)c6F)c6nc(c(-c7c(F)c(F)c(F)c(F)c7F)c7ccc4[nH]7)C=C6)C=C5)cc3)cnn2C)ccc1OC(F)F
REMARK SMILES IDX 16 1 15 2 14 3 12 4 13 5 11 6 10 7 88 8 86 9 87 10 89 11
REMARK SMILES IDX 8 12 7 13 9 15 6 16 4 17 5 18 92 19 91 20 90 21 3 22 2 23
REMARK SMILES IDX 1 24 93 25 94 26 95 27 96 28 17 29 18 30 19 31 20 32 21 33
REMARK SMILES IDX 22 34 23 35 24 36 85 37 25 38 84 39 26 40 27 41 28 42 78 43
REMARK SMILES IDX 29 44 83 45 77 46 79 47 30 48 82 49 76 50 75 51 31 53 63 54
REMARK SMILES IDX 43 55 62 56 44 57 47 58 61 59 80 60 45 61 46 62 60 64 81 65
REMARK SMILES IDX 48 66 32 67 33 68 41 69 34 70 35 71 39 72 42 73 36 74 37 75
REMARK SMILES IDX 40 76 38 77 64 78 65 79 73 80 66 81 67 82 71 83 74 84 68 85
REMARK SMILES IDX 69 86 72 87 70 88 49 89 50 90 58 91 51 92 52 93 56 94 59 95
REMARK SMILES IDX 53 96 54 97 57 98 55 99
REMARK H PARENT 7 14 79 52 47 63
REMARK Flexibility Score: inf
ROOT
ATOM      1  C   UNL A   1      40.489  20.764  26.200  1.00  0.00     0.202 C 
ENDROOT
BRANCH   1   2
ATOM      2  C   UNL A   1      39.403  21.840  26.142  1.00  0.00     0.261 C 
BRANCH   2   3
ATOM      3  O   UNL A   1      38.166  21.291  25.659  1.00  0.00    -0.460 OA
BRANCH   3   4
ATOM      4  C   UNL A   1      37.080  22.110  25.772  1.00  0.00     0.342 C 
ATOM      5  O   UNL A   1      37.139  23.317  25.915  1.00  0.00    -0.246 OA
BRANCH   4   6
ATOM      6  C   UNL A   1      35.804  21.425  25.612  1.00  0.00     0.111 A 
ATOM      7  C   UNL A   1      34.544  21.668  26.162  1.00  0.00     0.140 A 
ATOM      8  N   UNL A   1      33.706  20.818  25.474  1.00  0.00    -0.262 N 
ATOM      9  C   UNL A   1      35.622  20.286  24.798  1.00  0.00     0.151 A 
ATOM     10  N   UNL A   1      34.357  19.872  24.772  1.00  0.00    -0.180 NA
ATOM     11  C   UNL A   1      32.269  20.882  25.338  1.00  0.00     0.174 C 
BRANCH   7  12
ATOM     12  C   UNL A   1      34.130  22.720  27.048  1.00  0.00     0.274 C 
ATOM     13  N   UNL A   1      33.867  23.999  26.613  1.00  0.00    -0.321 N 
ATOM     14  H   UNL A   1      33.778  24.628  27.366  1.00  0.00     0.170 HD
ATOM     15  O   UNL A   1      34.050  22.542  28.266  1.00  0.00    -0.267 OA
BRANCH  13  16
ATOM     16  C   UNL A   1      33.694  24.644  25.373  1.00  0.00     0.045 A 
ATOM     17  C   UNL A   1      33.002  26.430  23.857  1.00  0.00     0.163 A 
ATOM     18  C   UNL A   1      33.124  25.900  25.162  1.00  0.00     0.076 A 
ATOM     19  C   UNL A   1      33.538  25.747  22.761  1.00  0.00     0.168 A 
ATOM     20  C   UNL A   1      34.129  24.501  22.980  1.00  0.00     0.053 A 
ATOM     21  C   UNL A   1      34.191  23.951  24.262  1.00  0.00     0.030 A 
BRANCH  17  22
ATOM     22  O   UNL A   1      32.452  27.672  23.677  1.00  0.00    -0.490 OA
BRANCH  22  23
ATOM     23  C   UNL A   1      31.209  27.852  24.371  1.00  0.00     0.226 C 
ATOM     24  C   UNL A   1      30.082  27.884  23.352  1.00  0.00     0.049 C 
ENDBRANCH  22  23
ENDBRANCH  17  22
BRANCH  19  25
ATOM     25  O   UNL A   1      33.637  26.161  21.464  1.00  0.00    -0.431 OA
BRANCH  25  26
ATOM     26  C   UNL A   1      32.593  25.860  20.550  1.00  0.00     0.542 C 
ATOM     27  F   UNL A   1      32.899  24.765  19.817  1.00  0.00    -0.167 F 
ATOM     28  F   UNL A   1      31.428  25.662  21.206  1.00  0.00    -0.167 F 
ENDBRANCH  25  26
ENDBRANCH  19  25
ENDBRANCH  13  16
ENDBRANCH   7  12
ENDBRANCH   4   6
ENDBRANCH   3   4
ENDBRANCH   2   3
ENDBRANCH   1   2
BRANCH   1  29
ATOM     29  O   UNL A   1      41.764  21.223  26.650  1.00  0.00    -0.374 OA
BRANCH  29  30
ATOM     30  C   UNL A   1      42.909  20.675  25.990  1.00  0.00     0.202 C 
BRANCH  30  31
ATOM     31  C   UNL A   1      43.826  21.704  25.319  1.00  0.00     0.261 C 
BRANCH  31  32
ATOM     32  O   UNL A   1      43.078  22.857  24.885  1.00  0.00    -0.460 OA
BRANCH  32  33
ATOM     33  C   UNL A   1      43.746  24.032  24.955  1.00  0.00     0.338 C 
ATOM     34  O   UNL A   1      44.711  24.377  24.293  1.00  0.00    -0.246 OA
BRANCH  33  35
ATOM     35  C   UNL A   1      43.041  24.961  25.861  1.00  0.00     0.060 A 
ATOM     36  C   UNL A   1      43.614  26.224  26.059  1.00  0.00     0.016 A 
ATOM     37  C   UNL A   1      41.886  24.591  26.555  1.00  0.00     0.016 A 
ATOM     38  C   UNL A   1      43.068  27.101  26.994  1.00  0.00     0.010 A 
ATOM     39  C   UNL A   1      41.344  25.471  27.501  1.00  0.00     0.010 A 
ATOM     40  C   UNL A   1      41.954  26.714  27.749  1.00  0.00    -0.014 A 
BRANCH  40  41
ATOM     41  C   UNL A   1      41.525  27.549  28.898  1.00  0.00     0.031 A 
ATOM     42  C   UNL A   1      42.292  27.462  30.188  1.00  0.00     0.074 A 
ATOM     43  C   UNL A   1      40.494  28.404  28.783  1.00  0.00     0.049 A 
ATOM     44  N   UNL A   1      42.079  28.074  31.326  1.00  0.00    -0.248 NA
ATOM     45  C   UNL A   1      43.459  26.565  30.197  1.00  0.00     0.031 C 
ATOM     46  C   UNL A   1      39.699  28.611  27.575  1.00  0.00     0.029 A 
ATOM     47  N   UNL A   1      39.936  29.255  29.705  1.00  0.00    -0.354 N 
ATOM     48  C   UNL A   1      43.086  27.645  32.179  1.00  0.00     0.074 A 
ATOM     49  C   UNL A   1      43.891  26.694  31.443  1.00  0.00     0.031 C 
ATOM     50  C   UNL A   1      38.743  29.520  27.834  1.00  0.00     0.029 A 
ATOM     51  C   UNL A   1      38.845  29.940  29.231  1.00  0.00     0.049 A 
ATOM     52  H   UNL A   1      40.287  29.364  30.619  1.00  0.00     0.167 HD
ATOM     53  C   UNL A   1      43.327  28.019  33.458  1.00  0.00     0.037 A 
ATOM     54  C   UNL A   1      38.012  30.790  29.862  1.00  0.00     0.037 A 
ATOM     55  C   UNL A   1      42.523  28.954  34.199  1.00  0.00     0.049 A 
ATOM     56  C   UNL A   1      38.260  31.136  31.308  1.00  0.00     0.074 A 
ATOM     57  C   UNL A   1      42.672  29.377  35.508  1.00  0.00     0.029 A 
ATOM     58  N   UNL A   1      41.415  29.614  33.689  1.00  0.00    -0.354 N 
ATOM     59  N   UNL A   1      39.216  30.727  32.105  1.00  0.00    -0.248 NA
ATOM     60  C   UNL A   1      37.313  32.067  31.939  1.00  0.00     0.031 C 
ATOM     61  C   UNL A   1      41.636  30.270  35.800  1.00  0.00     0.029 A 
ATOM     62  C   UNL A   1      40.865  30.433  34.661  1.00  0.00     0.049 A 
ATOM     63  H   UNL A   1      41.071  29.515  32.772  1.00  0.00     0.167 HD
ATOM     64  C   UNL A   1      39.003  31.367  33.319  1.00  0.00     0.074 A 
ATOM     65  C   UNL A   1      37.834  32.203  33.151  1.00  0.00     0.031 C 
ATOM     66  C   UNL A   1      39.710  31.270  34.471  1.00  0.00     0.037 A 
BRANCH  53  67
ATOM     67  C   UNL A   1      44.509  27.405  34.146  1.00  0.00     0.064 A 
ATOM     68  C   UNL A   1      44.403  26.181  34.824  1.00  0.00     0.173 A 
ATOM     69  C   UNL A   1      45.769  28.020  34.089  1.00  0.00     0.173 A 
ATOM     70  F   UNL A   1      43.217  25.562  34.917  1.00  0.00    -0.203 F 
ATOM     71  C   UNL A   1      45.513  25.604  35.435  1.00  0.00     0.198 A 
ATOM     72  C   UNL A   1      46.880  27.429  34.682  1.00  0.00     0.198 A 
ATOM     73  F   UNL A   1      45.921  29.190  33.451  1.00  0.00    -0.203 F 
ATOM     74  F   UNL A   1      45.383  24.452  36.106  1.00  0.00    -0.200 F 
ATOM     75  C   UNL A   1      46.751  26.225  35.358  1.00  0.00     0.200 A 
ATOM     76  F   UNL A   1      48.078  28.024  34.599  1.00  0.00    -0.200 F 
ATOM     77  F   UNL A   1      47.820  25.664  35.939  1.00  0.00    -0.200 F 
ENDBRANCH  53  67
BRANCH  54  78
ATOM     78  C   UNL A   1      36.848  31.365  29.139  1.00  0.00     0.064 A 
ATOM     79  C   UNL A   1      36.814  32.717  28.777  1.00  0.00     0.173 A 
ATOM     80  C   UNL A   1      35.728  30.577  28.835  1.00  0.00     0.173 A 
ATOM     81  F   UNL A   1      37.849  33.517  29.074  1.00  0.00    -0.203 F 
ATOM     82  C   UNL A   1      35.693  33.267  28.156  1.00  0.00     0.198 A 
ATOM     83  C   UNL A   1      34.620  31.121  28.190  1.00  0.00     0.198 A 
ATOM     84  F   UNL A   1      35.710  29.278  29.166  1.00  0.00    -0.203 F 
ATOM     85  F   UNL A   1      35.664  34.576  27.868  1.00  0.00    -0.200 F 
ATOM     86  C   UNL A   1      34.599  32.468  27.860  1.00  0.00     0.200 A 
ATOM     87  F   UNL A   1      33.568  30.344  27.901  1.00  0.00    -0.200 F 
ATOM     88  F   UNL A   1      33.519  32.998  27.269  1.00  0.00    -0.200 F 
ENDBRANCH  54  78
BRANCH  66  89
ATOM     89  C   UNL A   1      39.264  32.116  35.626  1.00  0.00     0.064 A 
ATOM     90  C   UNL A   1      38.401  31.617  36.611  1.00  0.00     0.173 A 
ATOM     91  C   UNL A   1      39.743  33.427  35.773  1.00  0.00     0.173 A 
ATOM     92  F   UNL A   1      37.906  30.374  36.508  1.00  0.00    -0.203 F 
ATOM     93  C   UNL A   1      38.012  32.408  37.690  1.00  0.00     0.198 A 
ATOM     94  C   UNL A   1      39.373  34.207  36.865  1.00  0.00     0.198 A 
ATOM     95  F   UNL A   1      40.578  33.948  34.861  1.00  0.00    -0.203 F 
ATOM     96  F   UNL A   1      37.154  31.925  38.598  1.00  0.00    -0.200 F 
ATOM     97  C   UNL A   1      38.504  33.699  37.819  1.00  0.00     0.200 A 
ATOM     98  F   UNL A   1      39.857  35.450  36.995  1.00  0.00    -0.200 F 
ATOM     99  F   UNL A   1      38.134  34.457  38.861  1.00  0.00    -0.200 F 
ENDBRANCH  66  89
ENDBRANCH  40  41
ENDBRANCH  33  35
ENDBRANCH  32  33
ENDBRANCH  31  32
ENDBRANCH  30  31
ENDBRANCH  29  30
ENDBRANCH   1  29
TORSDOF 20
ENDMDL
MODEL 2
REMARK VINA RESULT:     -11.6      1.549      2.360
REMARK SMILES CCOc1cc(NC(=O)c2c(C(=O)OCCOCCOC(=O)c3ccc(-c4c5nc(c(-c6c(F)c(F)c(F)c(F)c6F)c6ccc([nH]6)c(-c6c(F)c(F)c(F)c(F)c6F)c6nc(c(-c7c(F)c(F)c(F)c(F)c7F)c7ccc4[nH]7)C=C6)C=C5)cc3)cnn2C)ccc1OC(F)F
REMARK SMILES IDX 16 1 15 2 14 3 12 4 13 5 11 6 10 7 88 8 86 9 87 10 89 11
REMARK SMILES IDX 8 12 7 13 9 15 6 16 4 17 5 18 92 19 91 20 90 21 3 22 2 23
REMARK SMILES IDX 1 24 93 25 94 26 95 27 96 28 17 29 18 30 19 31 20 32 21 33
REMARK SMILES IDX 22 34 23 35 24 36 85 37 25 38 84 39 26 40 27 41 28 42 78 43
REMARK SMILES IDX 29 44 83 45 77 46 79 47 30 48 82 49 76 50 75 51 31 53 63 54
REMARK SMILES IDX 43 55 62 56 44 57 47 58 61 59 80 60 45 61 46 62 60 64 81 65
REMARK SMILES IDX 48 66 32 67 33 68 41 69 34 70 35 71 39 72 42 73 36 74 37 75
REMARK SMILES IDX 40 76 38 77 64 78 65 79 73 80 66 81 67 82 71 83 74 84 68 85
REMARK SMILES IDX 69 86 72 87 70 88 49 89 50 90 58 91 51 92 52 93 56 94 59 95
REMARK SMILES IDX 53 96 54 97 57 98 55 99
REMARK H PARENT 7 14 79 52 47 63
REMARK Flexibility Score: inf
ROOT
ATOM      1  C   UNL A   1      40.339  20.969  26.406  1.00  0.00     0.202 C 
ENDROOT
BRANCH   1   2
ATOM      2  C   UNL A   1      39.334  22.112  26.560  1.00  0.00     0.261 C 
BRANCH   2   3
ATOM      3  O   UNL A   1      38.390  22.110  25.477  1.00  0.00    -0.460 OA
BRANCH   3   4
ATOM      4  C   UNL A   1      37.369  23.010  25.590  1.00  0.00     0.342 C 
ATOM      5  O   UNL A   1      37.314  23.887  26.433  1.00  0.00    -0.246 OA
BRANCH   4   6
ATOM      6  C   UNL A   1      36.364  22.899  24.542  1.00  0.00     0.111 A 
ATOM      7  C   UNL A   1      34.992  22.643  24.593  1.00  0.00     0.140 A 
ATOM      8  N   UNL A   1      34.559  22.872  23.305  1.00  0.00    -0.262 N 
ATOM      9  C   UNL A   1      36.647  23.041  23.166  1.00  0.00     0.151 A 
ATOM     10  N   UNL A   1      35.557  22.952  22.407  1.00  0.00    -0.180 NA
ATOM     11  C   UNL A   1      33.216  23.130  22.838  1.00  0.00     0.174 C 
BRANCH   7  12
ATOM     12  C   UNL A   1      34.150  22.441  25.739  1.00  0.00     0.274 C 
ATOM     13  N   UNL A   1      33.396  23.449  26.296  1.00  0.00    -0.321 N 
ATOM     14  H   UNL A   1      33.029  23.187  27.172  1.00  0.00     0.170 HD
ATOM     15  O   UNL A   1      34.111  21.356  26.325  1.00  0.00    -0.267 OA
BRANCH  13  16
ATOM     16  C   UNL A   1      33.013  24.757  25.941  1.00  0.00     0.045 A 
ATOM     17  C   UNL A   1      31.468  26.546  25.323  1.00  0.00     0.163 A 
ATOM     18  C   UNL A   1      31.716  25.200  25.680  1.00  0.00     0.076 A 
ATOM     19  C   UNL A   1      32.508  27.481  25.318  1.00  0.00     0.168 A 
ATOM     20  C   UNL A   1      33.801  27.037  25.602  1.00  0.00     0.053 A 
ATOM     21  C   UNL A   1      34.052  25.694  25.892  1.00  0.00     0.030 A 
BRANCH  17  22
ATOM     22  O   UNL A   1      30.184  26.961  25.087  1.00  0.00    -0.490 OA
BRANCH  22  23
ATOM     23  C   UNL A   1      29.703  26.613  23.781  1.00  0.00     0.226 C 
ATOM     24  C   UNL A   1      29.712  27.859  22.912  1.00  0.00     0.049 C 
ENDBRANCH  22  23
ENDBRANCH  17  22
BRANCH  19  25
ATOM     25  O   UNL A   1      32.438  28.832  25.137  1.00  0.00    -0.431 OA
BRANCH  25  26
ATOM     26  C   UNL A   1      31.488  29.590  25.871  1.00  0.00     0.542 C 
ATOM     27  F   UNL A   1      31.466  29.203  27.167  1.00  0.00    -0.167 F 
ATOM     28  F   UNL A   1      31.769  30.909  25.791  1.00  0.00    -0.167 F 
ENDBRANCH  25  26
ENDBRANCH  19  25
ENDBRANCH  13  16
ENDBRANCH   7  12
ENDBRANCH   4   6
ENDBRANCH   3   4
ENDBRANCH   2   3
ENDBRANCH   1   2
BRANCH   1  29
ATOM     29  O   UNL A   1      41.669  21.279  26.824  1.00  0.00    -0.374 OA
BRANCH  29  30
ATOM     30  C   UNL A   1      42.731  20.735  26.035  1.00  0.00     0.202 C 
BRANCH  30  31
ATOM     31  C   UNL A   1      43.709  21.767  25.464  1.00  0.00     0.261 C 
BRANCH  31  32
ATOM     32  O   UNL A   1      43.005  22.900  24.917  1.00  0.00    -0.460 OA
BRANCH  32  33
ATOM     33  C   UNL A   1      43.679  24.072  24.969  1.00  0.00     0.338 C 
ATOM     34  O   UNL A   1      44.628  24.413  24.283  1.00  0.00    -0.246 OA
BRANCH  33  35
ATOM     35  C   UNL A   1      42.999  25.005  25.891  1.00  0.00     0.060 A 
ATOM     36  C   UNL A   1      43.604  26.250  26.106  1.00  0.00     0.016 A 
ATOM     37  C   UNL A   1      41.839  24.652  26.585  1.00  0.00     0.016 A 
ATOM     38  C   UNL A   1      43.083  27.126  27.055  1.00  0.00     0.010 A 
ATOM     39  C   UNL A   1      41.322  25.531  27.547  1.00  0.00     0.010 A 
ATOM     40  C   UNL A   1      41.962  26.755  27.810  1.00  0.00    -0.014 A 
BRANCH  40  41
ATOM     41  C   UNL A   1      41.559  27.583  28.973  1.00  0.00     0.031 A 
ATOM     42  C   UNL A   1      42.333  27.463  30.257  1.00  0.00     0.074 A 
ATOM     43  C   UNL A   1      40.545  28.460  28.877  1.00  0.00     0.049 A 
ATOM     44  N   UNL A   1      42.139  28.064  31.403  1.00  0.00    -0.248 NA
ATOM     45  C   UNL A   1      43.481  26.543  30.245  1.00  0.00     0.031 C 
ATOM     46  C   UNL A   1      39.746  28.699  27.677  1.00  0.00     0.029 A 
ATOM     47  N   UNL A   1      40.011  29.310  29.813  1.00  0.00    -0.354 N 
ATOM     48  C   UNL A   1      43.144  27.603  32.244  1.00  0.00     0.074 A 
ATOM     49  C   UNL A   1      43.924  26.646  31.489  1.00  0.00     0.031 C 
ATOM     50  C   UNL A   1      38.810  29.624  27.955  1.00  0.00     0.029 A 
ATOM     51  C   UNL A   1      38.930  30.023  29.357  1.00  0.00     0.049 A 
ATOM     52  H   UNL A   1      40.369  29.399  30.726  1.00  0.00     0.167 HD
ATOM     53  C   UNL A   1      43.401  27.955  33.526  1.00  0.00     0.037 A 
ATOM     54  C   UNL A   1      38.119  30.882  30.004  1.00  0.00     0.037 A 
ATOM     55  C   UNL A   1      42.621  28.896  34.285  1.00  0.00     0.049 A 
ATOM     56  C   UNL A   1      38.384  31.203  31.453  1.00  0.00     0.074 A 
ATOM     57  C   UNL A   1      42.788  29.298  35.598  1.00  0.00     0.029 A 
ATOM     58  N   UNL A   1      41.523  29.585  33.792  1.00  0.00    -0.354 N 
ATOM     59  N   UNL A   1      39.336  30.764  32.238  1.00  0.00    -0.248 NA
ATOM     60  C   UNL A   1      37.460  32.144  32.104  1.00  0.00     0.031 C 
ATOM     61  C   UNL A   1      41.772  30.208  35.910  1.00  0.00     0.029 A 
ATOM     62  C   UNL A   1      40.997  30.402  34.778  1.00  0.00     0.049 A 
ATOM     63  H   UNL A   1      41.171  29.506  32.876  1.00  0.00     0.167 HD
ATOM     64  C   UNL A   1      39.145  31.392  33.462  1.00  0.00     0.074 A 
ATOM     65  C   UNL A   1      37.992  32.254  33.313  1.00  0.00     0.031 C 
ATOM     66  C   UNL A   1      39.858  31.265  34.607  1.00  0.00     0.037 A 
BRANCH  53  67
ATOM     67  C   UNL A   1      44.575  27.308  34.197  1.00  0.00     0.064 A 
ATOM     68  C   UNL A   1      45.840  27.916  34.197  1.00  0.00     0.173 A 
ATOM     69  C   UNL A   1      44.427  26.094  34.883  1.00  0.00     0.173 A 
ATOM     70  F   UNL A   1      46.034  29.070  33.542  1.00  0.00    -0.203 F 
ATOM     71  C   UNL A   1      46.918  27.322  34.848  1.00  0.00     0.198 A 
ATOM     72  C   UNL A   1      45.502  25.515  35.551  1.00  0.00     0.198 A 
ATOM     73  F   UNL A   1      43.237  25.476  34.913  1.00  0.00    -0.203 F 
ATOM     74  F   UNL A   1      48.125  27.902  34.807  1.00  0.00    -0.200 F 
ATOM     75  C   UNL A   1      46.746  26.126  35.529  1.00  0.00     0.200 A 
ATOM     76  F   UNL A   1      45.333  24.364  36.218  1.00  0.00    -0.200 F 
ATOM     77  F   UNL A   1      47.783  25.559  36.162  1.00  0.00    -0.200 F 
ENDBRANCH  53  67
BRANCH  54  78
ATOM     78  C   UNL A   1      36.962  31.490  29.298  1.00  0.00     0.064 A 
ATOM     79  C   UNL A   1      36.943  32.852  28.975  1.00  0.00     0.173 A 
ATOM     80  C   UNL A   1      35.835  30.723  28.969  1.00  0.00     0.173 A 
ATOM     81  F   UNL A   1      37.985  33.632  29.297  1.00  0.00    -0.203 F 
ATOM     82  C   UNL A   1      35.829  33.432  28.370  1.00  0.00     0.198 A 
ATOM     83  C   UNL A   1      34.733  31.297  28.339  1.00  0.00     0.198 A 
ATOM     84  F   UNL A   1      35.803  29.414  29.262  1.00  0.00    -0.203 F 
ATOM     85  F   UNL A   1      35.813  34.749  28.120  1.00  0.00    -0.200 F 
ATOM     86  C   UNL A   1      34.727  32.653  28.049  1.00  0.00     0.200 A 
ATOM     87  F   UNL A   1      33.673  30.539  28.025  1.00  0.00    -0.200 F 
ATOM     88  F   UNL A   1      33.654  33.212  27.472  1.00  0.00    -0.200 F 
ENDBRANCH  54  78
BRANCH  66  89
ATOM     89  C   UNL A   1      39.437  32.104  35.777  1.00  0.00     0.064 A 
ATOM     90  C   UNL A   1      39.981  33.376  36.001  1.00  0.00     0.173 A 
ATOM     91  C   UNL A   1      38.447  31.646  36.659  1.00  0.00     0.173 A 
ATOM     92  F   UNL A   1      40.941  33.851  35.194  1.00  0.00    -0.203 F 
ATOM     93  C   UNL A   1      39.566  34.152  37.081  1.00  0.00     0.198 A 
ATOM     94  C   UNL A   1      38.015  32.434  37.723  1.00  0.00     0.198 A 
ATOM     95  F   UNL A   1      37.890  30.438  36.483  1.00  0.00    -0.203 F 
ATOM     96  F   UNL A   1      40.128  35.348  37.300  1.00  0.00    -0.200 F 
ATOM     97  C   UNL A   1      38.578  33.684  37.936  1.00  0.00     0.200 A 
ATOM     98  F   UNL A   1      37.054  31.985  38.542  1.00  0.00    -0.200 F 
ATOM     99  F   UNL A   1      38.176  34.434  38.971  1.00  0.00    -0.200 F 
ENDBRANCH  66  89
ENDBRANCH  40  41
ENDBRANCH  33  35
ENDBRANCH  32  33
ENDBRANCH  31  32
ENDBRANCH  30  31
ENDBRANCH  29  30
ENDBRANCH   1  29
TORSDOF 20
ENDMDL
MODEL 3
REMARK VINA RESULT:     -11.3      4.380      8.617
REMARK SMILES CCOc1cc(NC(=O)c2c(C(=O)OCCOCCOC(=O)c3ccc(-c4c5nc(c(-c6c(F)c(F)c(F)c(F)c6F)c6ccc([nH]6)c(-c6c(F)c(F)c(F)c(F)c6F)c6nc(c(-c7c(F)c(F)c(F)c(F)c7F)c7ccc4[nH]7)C=C6)C=C5)cc3)cnn2C)ccc1OC(F)F
REMARK SMILES IDX 16 1 15 2 14 3 12 4 13 5 11 6 10 7 88 8 86 9 87 10 89 11
REMARK SMILES IDX 8 12 7 13 9 15 6 16 4 17 5 18 92 19 91 20 90 21 3 22 2 23
REMARK SMILES IDX 1 24 93 25 94 26 95 27 96 28 17 29 18 30 19 31 20 32 21 33
REMARK SMILES IDX 22 34 23 35 24 36 85 37 25 38 84 39 26 40 27 41 28 42 78 43
REMARK SMILES IDX 29 44 83 45 77 46 79 47 30 48 82 49 76 50 75 51 31 53 63 54
REMARK SMILES IDX 43 55 62 56 44 57 47 58 61 59 80 60 45 61 46 62 60 64 81 65
REMARK SMILES IDX 48 66 32 67 33 68 41 69 34 70 35 71 39 72 42 73 36 74 37 75
REMARK SMILES IDX 40 76 38 77 64 78 65 79 73 80 66 81 67 82 71 83 74 84 68 85
REMARK SMILES IDX 69 86 72 87 70 88 49 89 50 90 58 91 51 92 52 93 56 94 59 95
REMARK SMILES IDX 53 96 54 97 57 98 55 99
REMARK H PARENT 7 14 79 52 47 63
REMARK Flexibility Score: inf
ROOT
ATOM      1  C   UNL A   1      34.123  21.422  27.144  1.00  0.00     0.202 C 
ENDROOT
BRANCH   1   2
ATOM      2  C   UNL A   1      33.058  22.392  27.659  1.00  0.00     0.261 C 
BRANCH   2   3
ATOM      3  O   UNL A   1      32.177  22.793  26.598  1.00  0.00    -0.460 OA
BRANCH   3   4
ATOM      4  C   UNL A   1      32.019  24.140  26.446  1.00  0.00     0.342 C 
ATOM      5  O   UNL A   1      31.462  24.863  27.252  1.00  0.00    -0.246 OA
BRANCH   4   6
ATOM      6  C   UNL A   1      32.664  24.681  25.258  1.00  0.00     0.111 A 
ATOM      7  C   UNL A   1      32.182  24.934  23.972  1.00  0.00     0.140 A 
ATOM      8  N   UNL A   1      33.199  25.635  23.363  1.00  0.00    -0.262 N 
ATOM      9  C   UNL A   1      34.020  25.071  25.211  1.00  0.00     0.151 A 
ATOM     10  N   UNL A   1      34.365  25.585  24.032  1.00  0.00    -0.180 NA
ATOM     11  C   UNL A   1      33.138  26.475  22.188  1.00  0.00     0.174 C 
BRANCH   7  12
ATOM     12  C   UNL A   1      30.856  24.753  23.450  1.00  0.00     0.274 C 
ATOM     13  N   UNL A   1      29.922  25.764  23.424  1.00  0.00    -0.321 N 
ATOM     14  H   UNL A   1      29.023  25.423  23.208  1.00  0.00     0.170 HD
ATOM     15  O   UNL A   1      30.466  23.652  23.053  1.00  0.00    -0.267 OA
BRANCH  13  16
ATOM     16  C   UNL A   1      29.915  27.157  23.625  1.00  0.00     0.045 A 
ATOM     17  C   UNL A   1      30.705  29.295  24.506  1.00  0.00     0.163 A 
ATOM     18  C   UNL A   1      30.833  27.892  24.377  1.00  0.00     0.076 A 
ATOM     19  C   UNL A   1      29.711  29.984  23.803  1.00  0.00     0.168 A 
ATOM     20  C   UNL A   1      28.810  29.247  23.033  1.00  0.00     0.053 A 
ATOM     21  C   UNL A   1      28.899  27.855  22.959  1.00  0.00     0.030 A 
BRANCH  17  22
ATOM     22  O   UNL A   1      31.627  29.996  25.237  1.00  0.00    -0.490 OA
BRANCH  22  23
ATOM     23  C   UNL A   1      32.660  29.173  25.795  1.00  0.00     0.226 C 
ATOM     24  C   UNL A   1      32.974  29.668  27.197  1.00  0.00     0.049 C 
ENDBRANCH  22  23
ENDBRANCH  17  22
BRANCH  19  25
ATOM     25  O   UNL A   1      29.522  31.331  23.697  1.00  0.00    -0.431 OA
BRANCH  25  26
ATOM     26  C   UNL A   1      28.304  31.830  23.163  1.00  0.00     0.542 C 
ATOM     27  F   UNL A   1      27.272  31.564  23.997  1.00  0.00    -0.167 F 
ATOM     28  F   UNL A   1      28.388  33.161  22.948  1.00  0.00    -0.167 F 
ENDBRANCH  25  26
ENDBRANCH  19  25
ENDBRANCH  13  16
ENDBRANCH   7  12
ENDBRANCH   4   6
ENDBRANCH   3   4
ENDBRANCH   2   3
ENDBRANCH   1   2
BRANCH   1  29
ATOM     29  O   UNL A   1      34.827  21.866  25.983  1.00  0.00    -0.374 OA
BRANCH  29  30
ATOM     30  C   UNL A   1      35.192  20.861  25.033  1.00  0.00     0.202 C 
BRANCH  30  31
ATOM     31  C   UNL A   1      36.674  20.471  25.037  1.00  0.00     0.261 C 
BRANCH  31  32
ATOM     32  O   UNL A   1      37.504  21.599  25.379  1.00  0.00    -0.460 OA
BRANCH  32  33
ATOM     33  C   UNL A   1      38.708  21.283  25.910  1.00  0.00     0.338 C 
ATOM     34  O   UNL A   1      39.308  20.226  25.811  1.00  0.00    -0.246 OA
BRANCH  33  35
ATOM     35  C   UNL A   1      39.320  22.480  26.522  1.00  0.00     0.060 A 
ATOM     36  C   UNL A   1      38.801  23.727  26.151  1.00  0.00     0.016 A 
ATOM     37  C   UNL A   1      40.417  22.398  27.384  1.00  0.00     0.016 A 
ATOM     38  C   UNL A   1      39.410  24.899  26.595  1.00  0.00     0.010 A 
ATOM     39  C   UNL A   1      41.034  23.577  27.821  1.00  0.00     0.010 A 
ATOM     40  C   UNL A   1      40.555  24.830  27.401  1.00  0.00    -0.014 A 
BRANCH  40  41
ATOM     41  C   UNL A   1      41.331  26.065  27.672  1.00  0.00     0.031 A 
ATOM     42  C   UNL A   1      40.683  27.177  28.449  1.00  0.00     0.074 A 
ATOM     43  C   UNL A   1      42.609  26.179  27.268  1.00  0.00     0.049 A 
ATOM     44  N   UNL A   1      41.161  28.352  28.774  1.00  0.00    -0.248 NA
ATOM     45  C   UNL A   1      39.313  26.930  28.926  1.00  0.00     0.031 C 
ATOM     46  C   UNL A   1      43.361  25.157  26.544  1.00  0.00     0.029 A 
ATOM     47  N   UNL A   1      43.496  27.217  27.407  1.00  0.00    -0.354 N 
ATOM     48  C   UNL A   1      40.156  28.979  29.500  1.00  0.00     0.074 A 
ATOM     49  C   UNL A   1      39.030  28.071  29.538  1.00  0.00     0.031 C 
ATOM     50  C   UNL A   1      44.595  25.625  26.288  1.00  0.00     0.029 A 
ATOM     51  C   UNL A   1      44.710  26.987  26.809  1.00  0.00     0.049 A 
ATOM     52  H   UNL A   1      43.283  28.047  27.892  1.00  0.00     0.167 HD
ATOM     53  C   UNL A   1      40.175  30.196  30.092  1.00  0.00     0.037 A 
ATOM     54  C   UNL A   1      45.781  27.793  26.677  1.00  0.00     0.037 A 
ATOM     55  C   UNL A   1      41.288  31.107  30.047  1.00  0.00     0.049 A 
ATOM     56  C   UNL A   1      45.750  29.172  27.285  1.00  0.00     0.074 A 
ATOM     57  C   UNL A   1      41.392  32.373  30.594  1.00  0.00     0.029 A 
ATOM     58  N   UNL A   1      42.493  30.844  29.415  1.00  0.00    -0.354 N 
ATOM     59  N   UNL A   1      44.797  29.755  27.969  1.00  0.00    -0.248 NA
ATOM     60  C   UNL A   1      46.949  30.004  27.103  1.00  0.00     0.031 C 
ATOM     61  C   UNL A   1      42.650  32.890  30.268  1.00  0.00     0.029 A 
ATOM     62  C   UNL A   1      43.344  31.928  29.551  1.00  0.00     0.049 A 
ATOM     63  H   UNL A   1      42.713  30.009  28.941  1.00  0.00     0.167 HD
ATOM     64  C   UNL A   1      45.288  31.005  28.322  1.00  0.00     0.074 A 
ATOM     65  C   UNL A   1      46.629  31.094  27.787  1.00  0.00     0.031 C 
ATOM     66  C   UNL A   1      44.682  31.993  29.024  1.00  0.00     0.037 A 
BRANCH  53  67
ATOM     67  C   UNL A   1      38.945  30.620  30.836  1.00  0.00     0.064 A 
ATOM     68  C   UNL A   1      38.828  30.426  32.221  1.00  0.00     0.173 A 
ATOM     69  C   UNL A   1      37.893  31.267  30.170  1.00  0.00     0.173 A 
ATOM     70  F   UNL A   1      39.801  29.800  32.899  1.00  0.00    -0.203 F 
ATOM     71  C   UNL A   1      37.694  30.850  32.909  1.00  0.00     0.198 A 
ATOM     72  C   UNL A   1      36.771  31.709  30.865  1.00  0.00     0.198 A 
ATOM     73  F   UNL A   1      37.960  31.477  28.848  1.00  0.00    -0.203 F 
ATOM     74  F   UNL A   1      37.588  30.624  34.226  1.00  0.00    -0.200 F 
ATOM     75  C   UNL A   1      36.670  31.496  32.232  1.00  0.00     0.200 A 
ATOM     76  F   UNL A   1      35.787  32.341  30.213  1.00  0.00    -0.200 F 
ATOM     77  F   UNL A   1      35.583  31.911  32.897  1.00  0.00    -0.200 F 
ENDBRANCH  53  67
BRANCH  54  78
ATOM     78  C   UNL A   1      46.973  27.330  25.921  1.00  0.00     0.064 A 
ATOM     79  C   UNL A   1      48.018  26.649  26.559  1.00  0.00     0.173 A 
ATOM     80  C   UNL A   1      47.107  27.597  24.551  1.00  0.00     0.173 A 
ATOM     81  F   UNL A   1      47.949  26.397  27.874  1.00  0.00    -0.203 F 
ATOM     82  C   UNL A   1      49.163  26.272  25.859  1.00  0.00     0.198 A 
ATOM     83  C   UNL A   1      48.239  27.196  23.846  1.00  0.00     0.198 A 
ATOM     84  F   UNL A   1      46.136  28.251  23.896  1.00  0.00    -0.203 F 
ATOM     85  F   UNL A   1      50.172  25.670  26.504  1.00  0.00    -0.200 F 
ATOM     86  C   UNL A   1      49.271  26.543  24.503  1.00  0.00     0.200 A 
ATOM     87  F   UNL A   1      48.336  27.455  22.535  1.00  0.00    -0.200 F 
ATOM     88  F   UNL A   1      50.375  26.186  23.832  1.00  0.00    -0.200 F 
ENDBRANCH  54  78
BRANCH  66  89
ATOM     89  C   UNL A   1      45.475  33.238  29.288  1.00  0.00     0.064 A 
ATOM     90  C   UNL A   1      46.267  33.374  30.437  1.00  0.00     0.173 A 
ATOM     91  C   UNL A   1      45.477  34.289  28.358  1.00  0.00     0.173 A 
ATOM     92  F   UNL A   1      46.287  32.403  31.362  1.00  0.00    -0.203 F 
ATOM     93  C   UNL A   1      47.014  34.529  30.657  1.00  0.00     0.198 A 
ATOM     94  C   UNL A   1      46.245  35.431  28.569  1.00  0.00     0.198 A 
ATOM     95  F   UNL A   1      44.741  34.203  27.239  1.00  0.00    -0.203 F 
ATOM     96  F   UNL A   1      47.732  34.655  31.782  1.00  0.00    -0.200 F 
ATOM     97  C   UNL A   1      47.008  35.552  29.721  1.00  0.00     0.200 A 
ATOM     98  F   UNL A   1      46.246  36.414  27.659  1.00  0.00    -0.200 F 
ATOM     99  F   UNL A   1      47.733  36.660  29.932  1.00  0.00    -0.200 F 
ENDBRANCH  66  89
ENDBRANCH  40  41
ENDBRANCH  33  35
ENDBRANCH  32  33
ENDBRANCH  31  32
ENDBRANCH  30  31
ENDBRANCH  29  30
ENDBRANCH   1  29
TORSDOF 20
ENDMDL
