MODEL 1
REMARK VINA RESULT:     -12.5      0.000      0.000
REMARK SMILES O=C(OCCOCCOC(=O)[C@@H]1CCCC[C@@H]1C(=O)Nc1nc(-c2ccc(Cl)c(Cl)c2)cs1)c1ccc(-c2c3nc(c(-c4c(F)c(F)c(F)c(F)c4F)c4ccc([nH]4)c(-c4c(F)c(F)c(F)c(F)c4F)c4nc(c(-c5c(F)c(F)c(F)c(F)c5F)c5ccc2[nH]5)C=C4)C=C3)cc1
REMARK SMILES IDX 7 1 6 2 5 3 4 4 3 5 2 6 1 7 34 8 35 9 96 10 36 11 95 12
REMARK SMILES IDX 37 13 38 14 39 15 89 16 40 17 94 18 88 19 90 20 41 21 93 22
REMARK SMILES IDX 87 23 86 24 42 26 74 27 54 28 73 29 55 30 58 31 72 32 91 33
REMARK SMILES IDX 56 34 57 35 71 37 92 38 59 39 43 40 44 41 52 42 45 43 46 44
REMARK SMILES IDX 50 45 53 46 47 47 48 48 51 49 49 50 75 51 76 52 84 53 77 54
REMARK SMILES IDX 78 55 82 56 85 57 79 58 80 59 83 60 81 61 60 62 61 63 69 64
REMARK SMILES IDX 62 65 63 66 67 67 70 68 64 69 65 70 68 71 66 72 8 73 9 74
REMARK SMILES IDX 10 75 11 76 12 77 13 78 17 79 14 80 16 81 15 82 18 83 19 84
REMARK SMILES IDX 20 85 21 87 22 88 33 89 23 90 32 91 24 92 25 93 31 94 26 95
REMARK SMILES IDX 29 96 27 97 30 98 28 99
REMARK H PARENT 90 25 58 36 20 86
REMARK Flexibility Score: inf
ROOT
ATOM      1  C   UNL A   1      33.524  27.577  26.000  1.00  0.00     0.202 C 
ENDROOT
BRANCH   1   2
ATOM      2  O   UNL A   1      32.140  27.937  26.049  1.00  0.00    -0.374 OA
BRANCH   2   3
ATOM      3  C   UNL A   1      31.819  29.006  26.944  1.00  0.00     0.202 C 
BRANCH   3   4
ATOM      4  C   UNL A   1      31.801  30.433  26.380  1.00  0.00     0.261 C 
BRANCH   4   5
ATOM      5  O   UNL A   1      33.128  30.987  26.324  1.00  0.00    -0.460 OA
BRANCH   5   6
ATOM      6  C   UNL A   1      33.742  31.734  27.271  1.00  0.00     0.338 C 
ATOM      7  O   UNL A   1      33.272  32.823  27.589  1.00  0.00    -0.246 OA
BRANCH   6   8
ATOM      8  C   UNL A   1      34.977  31.271  27.958  1.00  0.00     0.060 A 
ATOM      9  C   UNL A   1      36.009  32.126  28.331  1.00  0.00     0.016 A 
ATOM     10  C   UNL A   1      35.074  29.922  28.328  1.00  0.00     0.016 A 
ATOM     11  C   UNL A   1      37.124  31.695  28.996  1.00  0.00     0.010 A 
ATOM     12  C   UNL A   1      36.176  29.474  29.063  1.00  0.00     0.010 A 
ATOM     13  C   UNL A   1      37.188  30.376  29.404  1.00  0.00    -0.014 A 
BRANCH  13  14
ATOM     14  C   UNL A   1      38.384  30.026  30.165  1.00  0.00     0.031 A 
ATOM     15  C   UNL A   1      39.439  29.234  29.482  1.00  0.00     0.074 A 
ATOM     16  C   UNL A   1      38.568  30.623  31.358  1.00  0.00     0.049 A 
ATOM     17  N   UNL A   1      40.533  28.735  29.976  1.00  0.00    -0.248 NA
ATOM     18  C   UNL A   1      39.250  28.987  28.041  1.00  0.00     0.031 C 
ATOM     19  C   UNL A   1      37.645  31.589  31.969  1.00  0.00     0.029 A 
ATOM     20  N   UNL A   1      39.604  30.551  32.243  1.00  0.00    -0.354 N 
ATOM     21  C   UNL A   1      41.130  28.054  28.928  1.00  0.00     0.074 A 
ATOM     22  C   UNL A   1      40.310  28.245  27.754  1.00  0.00     0.031 C 
ATOM     23  C   UNL A   1      38.169  32.029  33.123  1.00  0.00     0.029 A 
ATOM     24  C   UNL A   1      39.398  31.294  33.379  1.00  0.00     0.049 A 
ATOM     25  H   UNL A   1      40.417  30.020  32.083  1.00  0.00     0.167 HD
ATOM     26  C   UNL A   1      42.249  27.303  28.987  1.00  0.00     0.037 A 
ATOM     27  C   UNL A   1      40.095  31.298  34.528  1.00  0.00     0.037 A 
ATOM     28  C   UNL A   1      43.025  27.172  30.188  1.00  0.00     0.049 A 
ATOM     29  C   UNL A   1      41.277  30.371  34.599  1.00  0.00     0.074 A 
ATOM     30  C   UNL A   1      44.143  26.398  30.423  1.00  0.00     0.029 A 
ATOM     31  N   UNL A   1      42.745  27.854  31.369  1.00  0.00    -0.354 N 
ATOM     32  N   UNL A   1      41.794  29.622  33.652  1.00  0.00    -0.248 NA
ATOM     33  C   UNL A   1      41.945  30.247  35.898  1.00  0.00     0.031 C 
ATOM     34  C   UNL A   1      44.512  26.578  31.761  1.00  0.00     0.029 A 
ATOM     35  C   UNL A   1      43.650  27.495  32.348  1.00  0.00     0.049 A 
ATOM     36  H   UNL A   1      42.010  28.498  31.488  1.00  0.00     0.167 HD
ATOM     37  C   UNL A   1      42.838  28.928  34.237  1.00  0.00     0.074 A 
ATOM     38  C   UNL A   1      42.906  29.378  35.617  1.00  0.00     0.031 C 
ATOM     39  C   UNL A   1      43.657  27.988  33.704  1.00  0.00     0.037 A 
BRANCH  26  40
ATOM     40  C   UNL A   1      42.599  26.497  27.777  1.00  0.00     0.064 A 
ATOM     41  C   UNL A   1      42.041  25.237  27.523  1.00  0.00     0.173 A 
ATOM     42  C   UNL A   1      43.546  26.994  26.868  1.00  0.00     0.173 A 
ATOM     43  F   UNL A   1      41.163  24.701  28.383  1.00  0.00    -0.203 F 
ATOM     44  C   UNL A   1      42.428  24.499  26.406  1.00  0.00     0.198 A 
ATOM     45  C   UNL A   1      43.915  26.262  25.743  1.00  0.00     0.198 A 
ATOM     46  F   UNL A   1      44.126  28.185  27.080  1.00  0.00    -0.203 F 
ATOM     47  F   UNL A   1      41.916  23.276  26.203  1.00  0.00    -0.200 F 
ATOM     48  C   UNL A   1      43.359  25.014  25.515  1.00  0.00     0.200 A 
ATOM     49  F   UNL A   1      44.820  26.760  24.889  1.00  0.00    -0.200 F 
ATOM     50  F   UNL A   1      43.732  24.299  24.444  1.00  0.00    -0.200 F 
ENDBRANCH  26  40
BRANCH  27  51
ATOM     51  C   UNL A   1      39.619  32.074  35.706  1.00  0.00     0.064 A 
ATOM     52  C   UNL A   1      38.640  31.568  36.570  1.00  0.00     0.173 A 
ATOM     53  C   UNL A   1      40.120  33.359  35.980  1.00  0.00     0.173 A 
ATOM     54  F   UNL A   1      38.109  30.357  36.345  1.00  0.00    -0.203 F 
ATOM     55  C   UNL A   1      38.168  32.320  37.646  1.00  0.00     0.198 A 
ATOM     56  C   UNL A   1      39.675  34.095  37.075  1.00  0.00     0.198 A 
ATOM     57  F   UNL A   1      41.052  33.903  35.185  1.00  0.00    -0.203 F 
ATOM     58  F   UNL A   1      37.191  31.834  38.424  1.00  0.00    -0.200 F 
ATOM     59  C   UNL A   1      38.690  33.580  37.902  1.00  0.00     0.200 A 
ATOM     60  F   UNL A   1      40.196  35.305  37.324  1.00  0.00    -0.200 F 
ATOM     61  F   UNL A   1      38.234  34.302  38.934  1.00  0.00    -0.200 F 
ENDBRANCH  27  51
BRANCH  39  62
ATOM     62  C   UNL A   1      44.677  27.402  34.625  1.00  0.00     0.064 A 
ATOM     63  C   UNL A   1      45.919  28.023  34.816  1.00  0.00     0.173 A 
ATOM     64  C   UNL A   1      44.383  26.248  35.363  1.00  0.00     0.173 A 
ATOM     65  F   UNL A   1      46.243  29.118  34.113  1.00  0.00    -0.203 F 
ATOM     66  C   UNL A   1      46.841  27.497  35.714  1.00  0.00     0.198 A 
ATOM     67  C   UNL A   1      45.297  25.742  36.279  1.00  0.00     0.198 A 
ATOM     68  F   UNL A   1      43.203  25.629  35.210  1.00  0.00    -0.203 F 
ATOM     69  F   UNL A   1      48.038  28.082  35.859  1.00  0.00    -0.200 F 
ATOM     70  C   UNL A   1      46.525  26.364  36.451  1.00  0.00     0.200 A 
ATOM     71  F   UNL A   1      44.987  24.657  37.000  1.00  0.00    -0.200 F 
ATOM     72  F   UNL A   1      47.410  25.869  37.326  1.00  0.00    -0.200 F 
ENDBRANCH  39  62
ENDBRANCH  13  14
ENDBRANCH   6   8
ENDBRANCH   5   6
ENDBRANCH   4   5
ENDBRANCH   3   4
ENDBRANCH   2   3
ENDBRANCH   1   2
BRANCH   1  73
ATOM     73  C   UNL A   1      33.829  26.820  24.709  1.00  0.00     0.261 C 
BRANCH  73  74
ATOM     74  O   UNL A   1      33.830  25.408  24.994  1.00  0.00    -0.463 OA
BRANCH  74  75
ATOM     75  C   UNL A   1      34.271  24.632  23.977  1.00  0.00     0.309 C 
ATOM     76  O   UNL A   1      34.086  24.862  22.785  1.00  0.00    -0.252 OA
BRANCH  75  77
ATOM     77  C   UNL A   1      35.015  23.403  24.442  1.00  0.00     0.111 C 
ATOM     78  C   UNL A   1      36.077  22.984  23.443  1.00  0.00     0.016 C 
ATOM     79  C   UNL A   1      34.228  22.212  25.015  1.00  0.00     0.093 C 
ATOM     80  C   UNL A   1      37.113  22.134  24.161  1.00  0.00     0.001 C 
ATOM     81  C   UNL A   1      35.160  21.160  25.623  1.00  0.00     0.014 C 
ATOM     82  C   UNL A   1      36.532  20.978  24.972  1.00  0.00     0.001 C 
BRANCH  79  83
ATOM     83  C   UNL A   1      32.969  21.673  24.272  1.00  0.00     0.230 C 
ATOM     84  O   UNL A   1      33.097  21.017  23.231  1.00  0.00    -0.274 OA
ATOM     85  N   UNL A   1      31.721  21.794  24.796  1.00  0.00    -0.302 N 
ATOM     86  H   UNL A   1      31.211  20.987  25.037  1.00  0.00     0.172 HD
BRANCH  85  87
ATOM     87  C   UNL A   1      31.176  23.022  24.990  1.00  0.00     0.189 A 
ATOM     88  N   UNL A   1      30.748  23.820  24.061  1.00  0.00    -0.220 NA
ATOM     89  S   UNL A   1      31.002  23.551  26.596  1.00  0.00    -0.105 S 
ATOM     90  C   UNL A   1      30.346  25.009  24.625  1.00  0.00     0.084 A 
ATOM     91  C   UNL A   1      30.454  25.078  25.998  1.00  0.00     0.097 A 
BRANCH  90  92
ATOM     92  C   UNL A   1      29.992  26.086  23.726  1.00  0.00     0.003 A 
ATOM     93  C   UNL A   1      31.010  26.756  23.033  1.00  0.00     0.012 A 
ATOM     94  C   UNL A   1      28.714  26.652  23.801  1.00  0.00     0.032 A 
ATOM     95  C   UNL A   1      30.756  27.992  22.434  1.00  0.00     0.023 A 
ATOM     96  C   UNL A   1      28.469  27.904  23.229  1.00  0.00     0.060 A 
ATOM     97  C   UNL A   1      29.490  28.576  22.545  1.00  0.00     0.059 A 
ATOM     98  Cl  UNL A   1      26.909  28.604  23.485  1.00  0.00    -0.083 Cl
ATOM     99  Cl  UNL A   1      29.270  30.148  21.866  1.00  0.00    -0.083 Cl
ENDBRANCH  90  92
ENDBRANCH  85  87
ENDBRANCH  79  83
ENDBRANCH  75  77
ENDBRANCH  74  75
ENDBRANCH  73  74
ENDBRANCH   1  73
TORSDOF 17
ENDMDL
MODEL 2
REMARK VINA RESULT:     -12.2      4.496      9.779
REMARK SMILES O=C(OCCOCCOC(=O)[C@@H]1CCCC[C@@H]1C(=O)Nc1nc(-c2ccc(Cl)c(Cl)c2)cs1)c1ccc(-c2c3nc(c(-c4c(F)c(F)c(F)c(F)c4F)c4ccc([nH]4)c(-c4c(F)c(F)c(F)c(F)c4F)c4nc(c(-c5c(F)c(F)c(F)c(F)c5F)c5ccc2[nH]5)C=C4)C=C3)cc1
REMARK SMILES IDX 7 1 6 2 5 3 4 4 3 5 2 6 1 7 34 8 35 9 96 10 36 11 95 12
REMARK SMILES IDX 37 13 38 14 39 15 89 16 40 17 94 18 88 19 90 20 41 21 93 22
REMARK SMILES IDX 87 23 86 24 42 26 74 27 54 28 73 29 55 30 58 31 72 32 91 33
REMARK SMILES IDX 56 34 57 35 71 37 92 38 59 39 43 40 44 41 52 42 45 43 46 44
REMARK SMILES IDX 50 45 53 46 47 47 48 48 51 49 49 50 75 51 76 52 84 53 77 54
REMARK SMILES IDX 78 55 82 56 85 57 79 58 80 59 83 60 81 61 60 62 61 63 69 64
REMARK SMILES IDX 62 65 63 66 67 67 70 68 64 69 65 70 68 71 66 72 8 73 9 74
REMARK SMILES IDX 10 75 11 76 12 77 13 78 17 79 14 80 16 81 15 82 18 83 19 84
REMARK SMILES IDX 20 85 21 87 22 88 33 89 23 90 32 91 24 92 25 93 31 94 26 95
REMARK SMILES IDX 29 96 27 97 30 98 28 99
REMARK H PARENT 90 25 58 36 20 86
REMARK Flexibility Score: inf
ROOT
ATOM      1  C   UNL A   1      35.770  24.011  25.656  1.00  0.00     0.202 C 
ENDROOT
BRANCH   1   2
ATOM      2  O   UNL A   1      35.901  23.239  24.457  1.00  0.00    -0.374 OA
BRANCH   2   3
ATOM      3  C   UNL A   1      35.982  21.825  24.650  1.00  0.00     0.202 C 
BRANCH   3   4
ATOM      4  C   UNL A   1      37.377  21.190  24.728  1.00  0.00     0.261 C 
BRANCH   4   5
ATOM      5  O   UNL A   1      37.955  21.367  26.035  1.00  0.00    -0.460 OA
BRANCH   5   6
ATOM      6  C   UNL A   1      39.268  21.500  26.337  1.00  0.00     0.338 C 
ATOM      7  O   UNL A   1      40.006  20.518  26.299  1.00  0.00    -0.246 OA
BRANCH   6   8
ATOM      8  C   UNL A   1      39.860  22.813  26.706  1.00  0.00     0.060 A 
ATOM      9  C   UNL A   1      40.963  22.944  27.545  1.00  0.00     0.016 A 
ATOM     10  C   UNL A   1      39.341  23.974  26.117  1.00  0.00     0.016 A 
ATOM     11  C   UNL A   1      41.522  24.154  27.848  1.00  0.00     0.010 A 
ATOM     12  C   UNL A   1      39.936  25.214  26.365  1.00  0.00     0.010 A 
ATOM     13  C   UNL A   1      41.039  25.288  27.223  1.00  0.00    -0.014 A 
BRANCH  13  14
ATOM     14  C   UNL A   1      41.743  26.522  27.558  1.00  0.00     0.031 A 
ATOM     15  C   UNL A   1      41.081  27.471  28.490  1.00  0.00     0.074 A 
ATOM     16  C   UNL A   1      43.033  26.631  27.190  1.00  0.00     0.049 A 
ATOM     17  N   UNL A   1      41.467  28.657  28.858  1.00  0.00    -0.248 NA
ATOM     18  C   UNL A   1      39.823  27.017  29.111  1.00  0.00     0.031 C 
ATOM     19  C   UNL A   1      43.790  25.609  26.453  1.00  0.00     0.029 A 
ATOM     20  N   UNL A   1      43.949  27.615  27.422  1.00  0.00    -0.354 N 
ATOM     21  C   UNL A   1      40.469  29.122  29.697  1.00  0.00     0.074 A 
ATOM     22  C   UNL A   1      39.483  28.076  29.832  1.00  0.00     0.031 C 
ATOM     23  C   UNL A   1      45.059  26.018  26.311  1.00  0.00     0.029 A 
ATOM     24  C   UNL A   1      45.169  27.368  26.842  1.00  0.00     0.049 A 
ATOM     25  H   UNL A   1      43.754  28.422  27.952  1.00  0.00     0.167 HD
ATOM     26  C   UNL A   1      40.393  30.348  30.257  1.00  0.00     0.037 A 
ATOM     27  C   UNL A   1      46.220  28.192  26.693  1.00  0.00     0.037 A 
ATOM     28  C   UNL A   1      41.422  31.335  30.093  1.00  0.00     0.049 A 
ATOM     29  C   UNL A   1      46.063  29.586  27.236  1.00  0.00     0.074 A 
ATOM     30  C   UNL A   1      41.459  32.638  30.541  1.00  0.00     0.029 A 
ATOM     31  N   UNL A   1      42.615  31.103  29.413  1.00  0.00    -0.354 N 
ATOM     32  N   UNL A   1      45.071  30.089  27.935  1.00  0.00    -0.248 NA
ATOM     33  C   UNL A   1      47.135  30.538  26.937  1.00  0.00     0.031 C 
ATOM     34  C   UNL A   1      42.655  33.210  30.092  1.00  0.00     0.029 A 
ATOM     35  C   UNL A   1      43.383  32.251  29.400  1.00  0.00     0.049 A 
ATOM     36  H   UNL A   1      42.873  30.247  29.001  1.00  0.00     0.167 HD
ATOM     37  C   UNL A   1      45.389  31.419  28.150  1.00  0.00     0.074 A 
ATOM     38  C   UNL A   1      46.690  31.632  27.539  1.00  0.00     0.031 C 
ATOM     39  C   UNL A   1      44.673  32.389  28.771  1.00  0.00     0.037 A 
BRANCH  26  40
ATOM     40  C   UNL A   1      39.124  30.699  30.967  1.00  0.00     0.064 A 
ATOM     41  C   UNL A   1      38.016  31.244  30.305  1.00  0.00     0.173 A 
ATOM     42  C   UNL A   1      39.037  30.513  32.355  1.00  0.00     0.173 A 
ATOM     43  F   UNL A   1      38.065  31.480  28.986  1.00  0.00    -0.203 F 
ATOM     44  C   UNL A   1      36.868  31.599  31.011  1.00  0.00     0.198 A 
ATOM     45  C   UNL A   1      37.881  30.851  33.054  1.00  0.00     0.198 A 
ATOM     46  F   UNL A   1      40.079  30.016  33.037  1.00  0.00    -0.203 F 
ATOM     47  F   UNL A   1      35.834  32.161  30.368  1.00  0.00    -0.200 F 
ATOM     48  C   UNL A   1      36.800  31.397  32.382  1.00  0.00     0.200 A 
ATOM     49  F   UNL A   1      37.822  30.660  34.379  1.00  0.00    -0.200 F 
ATOM     50  F   UNL A   1      35.696  31.744  33.059  1.00  0.00    -0.200 F 
ENDBRANCH  26  40
BRANCH  27  51
ATOM     51  C   UNL A   1      47.407  27.776  25.899  1.00  0.00     0.064 A 
ATOM     52  C   UNL A   1      47.395  27.791  24.498  1.00  0.00     0.173 A 
ATOM     53  C   UNL A   1      48.582  27.325  26.529  1.00  0.00     0.173 A 
ATOM     54  F   UNL A   1      46.294  28.189  23.843  1.00  0.00    -0.203 F 
ATOM     55  C   UNL A   1      48.498  27.358  23.761  1.00  0.00     0.198 A 
ATOM     56  C   UNL A   1      49.695  26.927  25.793  1.00  0.00     0.198 A 
ATOM     57  F   UNL A   1      48.653  27.278  27.867  1.00  0.00    -0.203 F 
ATOM     58  F   UNL A   1      48.438  27.331  22.423  1.00  0.00    -0.200 F 
ATOM     59  C   UNL A   1      49.649  26.932  24.408  1.00  0.00     0.200 A 
ATOM     60  F   UNL A   1      50.808  26.533  26.426  1.00  0.00    -0.200 F 
ATOM     61  F   UNL A   1      50.706  26.514  23.700  1.00  0.00    -0.200 F 
ENDBRANCH  27  51
BRANCH  39  62
ATOM     62  C   UNL A   1      45.295  33.747  28.807  1.00  0.00     0.064 A 
ATOM     63  C   UNL A   1      45.001  34.703  27.826  1.00  0.00     0.173 A 
ATOM     64  C   UNL A   1      46.141  34.109  29.863  1.00  0.00     0.173 A 
ATOM     65  F   UNL A   1      44.210  34.386  26.789  1.00  0.00    -0.203 F 
ATOM     66  C   UNL A   1      45.545  35.979  27.897  1.00  0.00     0.198 A 
ATOM     67  C   UNL A   1      46.661  35.394  29.945  1.00  0.00     0.198 A 
ATOM     68  F   UNL A   1      46.442  33.222  30.824  1.00  0.00    -0.203 F 
ATOM     69  F   UNL A   1      45.282  36.871  26.932  1.00  0.00    -0.200 F 
ATOM     70  C   UNL A   1      46.366  36.327  28.961  1.00  0.00     0.200 A 
ATOM     71  F   UNL A   1      47.442  35.734  30.979  1.00  0.00    -0.200 F 
ATOM     72  F   UNL A   1      46.877  37.562  29.034  1.00  0.00    -0.200 F 
ENDBRANCH  39  62
ENDBRANCH  13  14
ENDBRANCH   6   8
ENDBRANCH   5   6
ENDBRANCH   4   5
ENDBRANCH   3   4
ENDBRANCH   2   3
ENDBRANCH   1   2
BRANCH   1  73
ATOM     73  C   UNL A   1      34.314  24.028  26.117  1.00  0.00     0.261 C 
BRANCH  73  74
ATOM     74  O   UNL A   1      33.632  25.107  25.448  1.00  0.00    -0.463 OA
BRANCH  74  75
ATOM     75  C   UNL A   1      32.551  25.581  26.108  1.00  0.00     0.309 C 
ATOM     76  O   UNL A   1      31.766  24.895  26.757  1.00  0.00    -0.252 OA
BRANCH  75  77
ATOM     77  C   UNL A   1      32.367  27.073  25.959  1.00  0.00     0.111 C 
ATOM     78  C   UNL A   1      31.660  27.669  27.161  1.00  0.00     0.016 C 
ATOM     79  C   UNL A   1      31.863  27.644  24.622  1.00  0.00     0.093 C 
ATOM     80  C   UNL A   1      31.973  29.156  27.223  1.00  0.00     0.001 C 
ATOM     81  C   UNL A   1      31.944  29.173  24.596  1.00  0.00     0.014 C 
ATOM     82  C   UNL A   1      31.726  29.910  25.919  1.00  0.00     0.001 C 
BRANCH  79  83
ATOM     83  C   UNL A   1      30.634  27.005  23.909  1.00  0.00     0.230 C 
ATOM     84  O   UNL A   1      29.496  27.178  24.362  1.00  0.00    -0.274 OA
ATOM     85  N   UNL A   1      30.753  26.355  22.722  1.00  0.00    -0.302 N 
ATOM     86  H   UNL A   1      30.301  26.709  21.922  1.00  0.00     0.172 HD
BRANCH  85  87
ATOM     87  C   UNL A   1      31.491  25.220  22.634  1.00  0.00     0.189 A 
ATOM     88  N   UNL A   1      31.158  24.056  23.103  1.00  0.00    -0.220 NA
ATOM     89  S   UNL A   1      32.972  25.316  21.803  1.00  0.00    -0.105 S 
ATOM     90  C   UNL A   1      32.190  23.168  22.906  1.00  0.00     0.084 A 
ATOM     91  C   UNL A   1      33.293  23.678  22.255  1.00  0.00     0.097 A 
BRANCH  90  92
ATOM     92  C   UNL A   1      32.067  21.859  23.511  1.00  0.00     0.003 A 
ATOM     93  C   UNL A   1      32.283  21.725  24.890  1.00  0.00     0.012 A 
ATOM     94  C   UNL A   1      32.059  20.722  22.695  1.00  0.00     0.032 A 
ATOM     95  C   UNL A   1      32.507  20.464  25.446  1.00  0.00     0.023 A 
ATOM     96  C   UNL A   1      32.315  19.463  23.248  1.00  0.00     0.060 A 
ATOM     97  C   UNL A   1      32.541  19.333  24.624  1.00  0.00     0.059 A 
ATOM     98  Cl  UNL A   1      32.431  18.126  22.159  1.00  0.00    -0.083 Cl
ATOM     99  Cl  UNL A   1      32.918  17.817  25.360  1.00  0.00    -0.083 Cl
ENDBRANCH  90  92
ENDBRANCH  85  87
ENDBRANCH  79  83
ENDBRANCH  75  77
ENDBRANCH  74  75
ENDBRANCH  73  74
ENDBRANCH   1  73
TORSDOF 17
ENDMDL
MODEL 3
REMARK VINA RESULT:     -12.2      2.606      4.787
REMARK SMILES O=C(OCCOCCOC(=O)[C@@H]1CCCC[C@@H]1C(=O)Nc1nc(-c2ccc(Cl)c(Cl)c2)cs1)c1ccc(-c2c3nc(c(-c4c(F)c(F)c(F)c(F)c4F)c4ccc([nH]4)c(-c4c(F)c(F)c(F)c(F)c4F)c4nc(c(-c5c(F)c(F)c(F)c(F)c5F)c5ccc2[nH]5)C=C4)C=C3)cc1
REMARK SMILES IDX 7 1 6 2 5 3 4 4 3 5 2 6 1 7 34 8 35 9 96 10 36 11 95 12
REMARK SMILES IDX 37 13 38 14 39 15 89 16 40 17 94 18 88 19 90 20 41 21 93 22
REMARK SMILES IDX 87 23 86 24 42 26 74 27 54 28 73 29 55 30 58 31 72 32 91 33
REMARK SMILES IDX 56 34 57 35 71 37 92 38 59 39 43 40 44 41 52 42 45 43 46 44
REMARK SMILES IDX 50 45 53 46 47 47 48 48 51 49 49 50 75 51 76 52 84 53 77 54
REMARK SMILES IDX 78 55 82 56 85 57 79 58 80 59 83 60 81 61 60 62 61 63 69 64
REMARK SMILES IDX 62 65 63 66 67 67 70 68 64 69 65 70 68 71 66 72 8 73 9 74
REMARK SMILES IDX 10 75 11 76 12 77 13 78 17 79 14 80 16 81 15 82 18 83 19 84
REMARK SMILES IDX 20 85 21 87 22 88 33 89 23 90 32 91 24 92 25 93 31 94 26 95
REMARK SMILES IDX 29 96 27 97 30 98 28 99
REMARK H PARENT 90 25 58 36 20 86
REMARK Flexibility Score: inf
ROOT
ATOM      1  C   UNL A   1      33.110  30.024  26.102  1.00  0.00     0.202 C 
ENDROOT
BRANCH   1   2
ATOM      2  O   UNL A   1      31.814  30.596  25.887  1.00  0.00    -0.374 OA
BRANCH   2   3
ATOM      3  C   UNL A   1      31.558  31.809  26.599  1.00  0.00     0.202 C 
BRANCH   3   4
ATOM      4  C   UNL A   1      32.741  32.495  27.296  1.00  0.00     0.261 C 
BRANCH   4   5
ATOM      5  O   UNL A   1      32.388  33.820  27.737  1.00  0.00    -0.460 OA
BRANCH   5   6
ATOM      6  C   UNL A   1      33.016  34.563  28.677  1.00  0.00     0.338 C 
ATOM      7  O   UNL A   1      32.583  35.675  28.966  1.00  0.00    -0.246 OA
BRANCH   6   8
ATOM      8  C   UNL A   1      34.221  34.067  29.393  1.00  0.00     0.060 A 
ATOM      9  C   UNL A   1      34.164  33.159  30.446  1.00  0.00     0.016 A 
ATOM     10  C   UNL A   1      35.485  34.463  28.934  1.00  0.00     0.016 A 
ATOM     11  C   UNL A   1      35.283  32.682  31.073  1.00  0.00     0.010 A 
ATOM     12  C   UNL A   1      36.641  33.939  29.519  1.00  0.00     0.010 A 
ATOM     13  C   UNL A   1      36.525  33.035  30.581  1.00  0.00    -0.014 A 
BRANCH  13  14
ATOM     14  C   UNL A   1      37.656  32.423  31.271  1.00  0.00     0.031 A 
ATOM     15  C   UNL A   1      38.460  31.415  30.533  1.00  0.00     0.074 A 
ATOM     16  C   UNL A   1      38.044  32.958  32.443  1.00  0.00     0.049 A 
ATOM     17  N   UNL A   1      39.443  30.680  30.965  1.00  0.00    -0.248 NA
ATOM     18  C   UNL A   1      38.131  31.221  29.109  1.00  0.00     0.031 C 
ATOM     19  C   UNL A   1      37.402  34.106  33.100  1.00  0.00     0.029 A 
ATOM     20  N   UNL A   1      39.089  32.652  33.264  1.00  0.00    -0.354 N 
ATOM     21  C   UNL A   1      39.804  29.886  29.889  1.00  0.00     0.074 A 
ATOM     22  C   UNL A   1      38.977  30.261  28.766  1.00  0.00     0.031 C 
ATOM     23  C   UNL A   1      38.082  34.413  34.214  1.00  0.00     0.029 A 
ATOM     24  C   UNL A   1      39.127  33.419  34.403  1.00  0.00     0.049 A 
ATOM     25  H   UNL A   1      39.751  31.952  33.060  1.00  0.00     0.167 HD
ATOM     26  C   UNL A   1      40.727  28.902  29.888  1.00  0.00     0.037 A 
ATOM     27  C   UNL A   1      39.877  33.262  35.507  1.00  0.00     0.037 A 
ATOM     28  C   UNL A   1      41.527  28.595  31.040  1.00  0.00     0.049 A 
ATOM     29  C   UNL A   1      40.822  32.092  35.516  1.00  0.00     0.074 A 
ATOM     30  C   UNL A   1      42.454  27.589  31.215  1.00  0.00     0.029 A 
ATOM     31  N   UNL A   1      41.482  29.319  32.229  1.00  0.00    -0.354 N 
ATOM     32  N   UNL A   1      41.097  31.249  34.546  1.00  0.00    -0.248 NA
ATOM     33  C   UNL A   1      41.524  31.817  36.772  1.00  0.00     0.031 C 
ATOM     34  C   UNL A   1      42.937  27.676  32.526  1.00  0.00     0.029 A 
ATOM     35  C   UNL A   1      42.342  28.762  33.155  1.00  0.00     0.049 A 
ATOM     36  H   UNL A   1      40.920  30.112  32.386  1.00  0.00     0.167 HD
ATOM     37  C   UNL A   1      41.992  30.335  35.074  1.00  0.00     0.074 A 
ATOM     38  C   UNL A   1      42.245  30.754  36.442  1.00  0.00     0.031 C 
ATOM     39  C   UNL A   1      42.543  29.236  34.502  1.00  0.00     0.037 A 
BRANCH  26  40
ATOM     40  C   UNL A   1      40.810  28.042  28.667  1.00  0.00     0.064 A 
ATOM     41  C   UNL A   1      41.599  28.380  27.560  1.00  0.00     0.173 A 
ATOM     42  C   UNL A   1      40.049  26.865  28.599  1.00  0.00     0.173 A 
ATOM     43  F   UNL A   1      42.312  29.515  27.559  1.00  0.00    -0.203 F 
ATOM     44  C   UNL A   1      41.614  27.573  26.423  1.00  0.00     0.198 A 
ATOM     45  C   UNL A   1      40.081  26.052  27.470  1.00  0.00     0.198 A 
ATOM     46  F   UNL A   1      39.260  26.511  29.625  1.00  0.00    -0.203 F 
ATOM     47  F   UNL A   1      42.340  27.936  25.355  1.00  0.00    -0.200 F 
ATOM     48  C   UNL A   1      40.860  26.409  26.382  1.00  0.00     0.200 A 
ATOM     49  F   UNL A   1      39.347  24.931  27.432  1.00  0.00    -0.200 F 
ATOM     50  F   UNL A   1      40.873  25.637  25.285  1.00  0.00    -0.200 F 
ENDBRANCH  26  40
BRANCH  27  51
ATOM     51  C   UNL A   1      39.663  34.121  36.703  1.00  0.00     0.064 A 
ATOM     52  C   UNL A   1      40.299  35.362  36.837  1.00  0.00     0.173 A 
ATOM     53  C   UNL A   1      38.829  33.706  37.756  1.00  0.00     0.173 A 
ATOM     54  F   UNL A   1      41.124  35.799  35.875  1.00  0.00    -0.203 F 
ATOM     55  C   UNL A   1      40.127  36.141  37.982  1.00  0.00     0.198 A 
ATOM     56  C   UNL A   1      38.628  34.501  38.882  1.00  0.00     0.198 A 
ATOM     57  F   UNL A   1      38.198  32.525  37.691  1.00  0.00    -0.203 F 
ATOM     58  F   UNL A   1      40.792  37.298  38.108  1.00  0.00    -0.200 F 
ATOM     59  C   UNL A   1      39.287  35.714  39.000  1.00  0.00     0.200 A 
ATOM     60  F   UNL A   1      37.803  34.088  39.854  1.00  0.00    -0.200 F 
ATOM     61  F   UNL A   1      39.124  36.463  40.099  1.00  0.00    -0.200 F 
ENDBRANCH  27  51
BRANCH  39  62
ATOM     62  C   UNL A   1      43.461  28.433  35.365  1.00  0.00     0.064 A 
ATOM     63  C   UNL A   1      42.972  27.398  36.173  1.00  0.00     0.173 A 
ATOM     64  C   UNL A   1      44.842  28.664  35.334  1.00  0.00     0.173 A 
ATOM     65  F   UNL A   1      41.654  27.160  36.243  1.00  0.00    -0.203 F 
ATOM     66  C   UNL A   1      43.840  26.624  36.933  1.00  0.00     0.198 A 
ATOM     67  C   UNL A   1      45.709  27.870  36.074  1.00  0.00     0.198 A 
ATOM     68  F   UNL A   1      45.348  29.643  34.569  1.00  0.00    -0.203 F 
ATOM     69  F   UNL A   1      43.354  25.661  37.728  1.00  0.00    -0.200 F 
ATOM     70  C   UNL A   1      45.208  26.854  36.876  1.00  0.00     0.200 A 
ATOM     71  F   UNL A   1      47.030  28.083  36.009  1.00  0.00    -0.200 F 
ATOM     72  F   UNL A   1      46.044  26.097  37.598  1.00  0.00    -0.200 F 
ENDBRANCH  39  62
ENDBRANCH  13  14
ENDBRANCH   6   8
ENDBRANCH   5   6
ENDBRANCH   4   5
ENDBRANCH   3   4
ENDBRANCH   2   3
ENDBRANCH   1   2
BRANCH   1  73
ATOM     73  C   UNL A   1      33.502  29.143  24.918  1.00  0.00     0.261 C 
BRANCH  73  74
ATOM     74  O   UNL A   1      32.855  27.864  25.063  1.00  0.00    -0.463 OA
BRANCH  74  75
ATOM     75  C   UNL A   1      32.478  27.293  23.896  1.00  0.00     0.309 C 
ATOM     76  O   UNL A   1      33.247  26.873  23.036  1.00  0.00    -0.252 OA
BRANCH  75  77
ATOM     77  C   UNL A   1      30.979  27.232  23.718  1.00  0.00     0.111 C 
ATOM     78  C   UNL A   1      30.346  28.603  23.854  1.00  0.00     0.016 C 
ATOM     79  C   UNL A   1      30.176  26.128  24.430  1.00  0.00     0.093 C 
ATOM     80  C   UNL A   1      28.995  28.587  23.157  1.00  0.00     0.001 C 
ATOM     81  C   UNL A   1      28.718  26.102  23.961  1.00  0.00     0.014 C 
ATOM     82  C   UNL A   1      28.081  27.437  23.574  1.00  0.00     0.001 C 
BRANCH  79  83
ATOM     83  C   UNL A   1      30.423  25.825  25.937  1.00  0.00     0.230 C 
ATOM     84  O   UNL A   1      30.491  26.753  26.752  1.00  0.00    -0.274 OA
ATOM     85  N   UNL A   1      30.448  24.554  26.418  1.00  0.00    -0.302 N 
ATOM     86  H   UNL A   1      29.768  24.263  27.067  1.00  0.00     0.172 HD
BRANCH  85  87
ATOM     87  C   UNL A   1      31.407  23.686  26.006  1.00  0.00     0.189 A 
ATOM     88  N   UNL A   1      31.204  22.492  25.539  1.00  0.00    -0.220 NA
ATOM     89  S   UNL A   1      33.020  24.219  26.072  1.00  0.00    -0.105 S 
ATOM     90  C   UNL A   1      32.412  21.875  25.310  1.00  0.00     0.084 A 
ATOM     91  C   UNL A   1      33.527  22.638  25.587  1.00  0.00     0.097 A 
BRANCH  90  92
ATOM     92  C   UNL A   1      32.387  20.476  24.942  1.00  0.00     0.003 A 
ATOM     93  C   UNL A   1      32.898  19.528  25.840  1.00  0.00     0.012 A 
ATOM     94  C   UNL A   1      32.164  20.120  23.607  1.00  0.00     0.032 A 
ATOM     95  C   UNL A   1      33.201  18.238  25.401  1.00  0.00     0.023 A 
ATOM     96  C   UNL A   1      32.498  18.837  23.162  1.00  0.00     0.060 A 
ATOM     97  C   UNL A   1      33.018  17.895  24.058  1.00  0.00     0.059 A 
ATOM     98  Cl  UNL A   1      32.330  18.514  21.472  1.00  0.00    -0.083 Cl
ATOM     99  Cl  UNL A   1      33.503  16.314  23.560  1.00  0.00    -0.083 Cl
ENDBRANCH  90  92
ENDBRANCH  85  87
ENDBRANCH  79  83
ENDBRANCH  75  77
ENDBRANCH  74  75
ENDBRANCH  73  74
ENDBRANCH   1  73
TORSDOF 17
ENDMDL
