MODEL 1
REMARK VINA RESULT:     -11.6      0.000      0.000
REMARK SMILES CC[C@H](C)c1ccccc1Oc1cccc(F)c1C(=O)OCCOCCOC(=O)c1ccc(-c2c3nc(c(-c4c(F)c(F)c(F)c(F)c4F)c4ccc([nH]4)c(-c4c(F)c(F)c(F)c(F)c4F)c4nc(c(-c5c(F)c(F)c(F)c(F)c5F)c5ccc2[nH]5)C=C4)C=C3)cc1
REMARK SMILES IDX 23 1 22 2 21 3 19 4 20 5 18 6 12 7 13 8 14 9 16 10 15 11
REMARK SMILES IDX 17 12 11 13 10 14 5 15 6 16 7 17 9 18 8 19 3 20 4 21 2 22
REMARK SMILES IDX 1 23 24 24 25 25 26 26 27 27 28 28 29 29 30 30 31 31 92 32
REMARK SMILES IDX 32 33 91 34 33 35 34 36 35 37 85 38 36 39 90 40 84 41 86 42
REMARK SMILES IDX 37 43 89 44 83 45 82 46 38 48 70 49 50 50 69 51 51 52 54 53
REMARK SMILES IDX 68 54 87 55 52 56 53 57 67 59 88 60 55 61 39 62 40 63 48 64
REMARK SMILES IDX 41 65 42 66 46 67 49 68 43 69 44 70 47 71 45 72 71 73 72 74
REMARK SMILES IDX 80 75 73 76 74 77 78 78 81 79 75 80 76 81 79 82 77 83 56 84
REMARK SMILES IDX 57 85 65 86 58 87 59 88 63 89 66 90 60 91 61 92 64 93 62 94
REMARK H PARENT 86 47 54 58
REMARK Flexibility Score: inf
ROOT
ATOM      1  C   UNL A   1      32.295  28.430  26.637  1.00  0.00     0.202 C 
ENDROOT
BRANCH   1   2
ATOM      2  C   UNL A   1      31.464  27.155  26.805  1.00  0.00     0.261 C 
BRANCH   2   3
ATOM      3  O   UNL A   1      32.120  25.984  26.292  1.00  0.00    -0.459 OA
BRANCH   3   4
ATOM      4  C   UNL A   1      31.296  24.930  26.086  1.00  0.00     0.345 C 
ATOM      5  O   UNL A   1      30.174  24.779  26.553  1.00  0.00    -0.246 OA
BRANCH   4   6
ATOM      6  C   UNL A   1      31.867  23.978  25.126  1.00  0.00     0.138 A 
ATOM      7  C   UNL A   1      31.907  24.164  23.742  1.00  0.00     0.144 A 
ATOM      8  C   UNL A   1      32.583  23.219  22.945  1.00  0.00     0.048 A 
ATOM      9  C   UNL A   1      33.271  22.147  23.511  1.00  0.00     0.007 A 
ATOM     10  C   UNL A   1      32.553  22.889  25.682  1.00  0.00     0.141 A 
ATOM     11  C   UNL A   1      33.257  21.984  24.890  1.00  0.00     0.040 A 
ATOM     12  F   UNL A   1      32.550  22.681  27.007  1.00  0.00    -0.206 F 
BRANCH   7  13
ATOM     13  O   UNL A   1      31.350  25.158  22.983  1.00  0.00    -0.456 OA
BRANCH  13  14
ATOM     14  C   UNL A   1      31.808  26.451  22.936  1.00  0.00     0.130 A 
ATOM     15  C   UNL A   1      31.044  27.641  22.955  1.00  0.00    -0.002 A 
ATOM     16  C   UNL A   1      31.772  28.850  22.998  1.00  0.00     0.008 A 
ATOM     17  C   UNL A   1      33.170  28.886  23.064  1.00  0.00     0.001 A 
ATOM     18  C   UNL A   1      33.213  26.498  23.026  1.00  0.00     0.047 A 
ATOM     19  C   UNL A   1      33.895  27.706  23.089  1.00  0.00     0.004 A 
BRANCH  15  20
ATOM     20  C   UNL A   1      29.513  27.667  22.938  1.00  0.00     0.019 C 
ATOM     21  C   UNL A   1      28.898  26.676  23.930  1.00  0.00     0.013 C 
BRANCH  20  22
ATOM     22  C   UNL A   1      28.836  29.063  23.002  1.00  0.00     0.005 C 
ATOM     23  C   UNL A   1      27.314  29.063  22.980  1.00  0.00     0.004 C 
ENDBRANCH  20  22
ENDBRANCH  15  20
ENDBRANCH  13  14
ENDBRANCH   7  13
ENDBRANCH   4   6
ENDBRANCH   3   4
ENDBRANCH   2   3
ENDBRANCH   1   2
BRANCH   1  24
ATOM     24  O   UNL A   1      31.760  29.663  27.107  1.00  0.00    -0.374 OA
BRANCH  24  25
ATOM     25  C   UNL A   1      31.753  30.784  26.231  1.00  0.00     0.202 C 
BRANCH  25  26
ATOM     26  C   UNL A   1      31.950  32.188  26.827  1.00  0.00     0.261 C 
BRANCH  26  27
ATOM     27  O   UNL A   1      32.788  32.236  27.996  1.00  0.00    -0.460 OA
BRANCH  27  28
ATOM     28  C   UNL A   1      33.768  33.167  27.938  1.00  0.00     0.338 C 
ATOM     29  O   UNL A   1      33.637  34.385  27.909  1.00  0.00    -0.246 OA
BRANCH  28  30
ATOM     30  C   UNL A   1      35.104  32.556  28.037  1.00  0.00     0.060 A 
ATOM     31  C   UNL A   1      35.168  31.160  28.144  1.00  0.00     0.016 A 
ATOM     32  C   UNL A   1      36.244  33.337  28.240  1.00  0.00     0.016 A 
ATOM     33  C   UNL A   1      36.355  30.544  28.532  1.00  0.00     0.010 A 
ATOM     34  C   UNL A   1      37.434  32.717  28.642  1.00  0.00     0.010 A 
ATOM     35  C   UNL A   1      37.475  31.325  28.845  1.00  0.00    -0.014 A 
BRANCH  35  36
ATOM     36  C   UNL A   1      38.591  30.694  29.593  1.00  0.00     0.031 A 
ATOM     37  C   UNL A   1      38.782  31.051  31.045  1.00  0.00     0.074 A 
ATOM     38  C   UNL A   1      39.368  29.760  29.022  1.00  0.00     0.049 A 
ATOM     39  N   UNL A   1      39.657  30.596  31.907  1.00  0.00    -0.248 NA
ATOM     40  C   UNL A   1      37.857  32.054  31.600  1.00  0.00     0.031 C 
ATOM     41  C   UNL A   1      39.253  29.294  27.642  1.00  0.00     0.029 A 
ATOM     42  N   UNL A   1      40.406  29.028  29.541  1.00  0.00    -0.354 N 
ATOM     43  C   UNL A   1      39.385  31.251  33.101  1.00  0.00     0.074 A 
ATOM     44  C   UNL A   1      38.288  32.159  32.849  1.00  0.00     0.031 C 
ATOM     45  C   UNL A   1      40.187  28.353  27.422  1.00  0.00     0.029 A 
ATOM     46  C   UNL A   1      40.976  28.164  28.639  1.00  0.00     0.049 A 
ATOM     47  H   UNL A   1      40.714  29.114  30.473  1.00  0.00     0.167 HD
ATOM     48  C   UNL A   1      39.987  31.101  34.306  1.00  0.00     0.037 A 
ATOM     49  C   UNL A   1      42.017  27.323  28.783  1.00  0.00     0.037 A 
ATOM     50  C   UNL A   1      41.078  30.198  34.563  1.00  0.00     0.049 A 
ATOM     51  C   UNL A   1      42.707  27.216  30.118  1.00  0.00     0.074 A 
ATOM     52  C   UNL A   1      41.758  29.979  35.748  1.00  0.00     0.029 A 
ATOM     53  N   UNL A   1      41.649  29.366  33.613  1.00  0.00    -0.354 N 
ATOM     54  N   UNL A   1      42.435  27.830  31.244  1.00  0.00    -0.248 NA
ATOM     55  C   UNL A   1      43.846  26.290  30.202  1.00  0.00     0.031 C 
ATOM     56  C   UNL A   1      42.764  29.037  35.507  1.00  0.00     0.029 A 
ATOM     57  C   UNL A   1      42.683  28.641  34.182  1.00  0.00     0.049 A 
ATOM     58  H   UNL A   1      41.361  29.299  32.674  1.00  0.00     0.167 HD
ATOM     59  C   UNL A   1      43.347  27.346  32.174  1.00  0.00     0.074 A 
ATOM     60  C   UNL A   1      44.173  26.377  31.484  1.00  0.00     0.031 C 
ATOM     61  C   UNL A   1      43.488  27.674  33.482  1.00  0.00     0.037 A 
BRANCH  48  62
ATOM     62  C   UNL A   1      39.486  31.949  35.436  1.00  0.00     0.064 A 
ATOM     63  C   UNL A   1      38.531  31.471  36.345  1.00  0.00     0.173 A 
ATOM     64  C   UNL A   1      39.986  33.246  35.627  1.00  0.00     0.173 A 
ATOM     65  F   UNL A   1      38.012  30.243  36.195  1.00  0.00    -0.203 F 
ATOM     66  C   UNL A   1      38.080  32.269  37.393  1.00  0.00     0.198 A 
ATOM     67  C   UNL A   1      39.549  34.032  36.689  1.00  0.00     0.198 A 
ATOM     68  F   UNL A   1      40.902  33.749  34.785  1.00  0.00    -0.203 F 
ATOM     69  F   UNL A   1      37.138  31.807  38.228  1.00  0.00    -0.200 F 
ATOM     70  C   UNL A   1      38.592  33.546  37.568  1.00  0.00     0.200 A 
ATOM     71  F   UNL A   1      40.051  35.262  36.862  1.00  0.00    -0.200 F 
ATOM     72  F   UNL A   1      38.159  34.311  38.580  1.00  0.00    -0.200 F 
ENDBRANCH  48  62
BRANCH  49  73
ATOM     73  C   UNL A   1      42.477  26.508  27.629  1.00  0.00     0.064 A 
ATOM     74  C   UNL A   1      41.947  25.235  27.386  1.00  0.00     0.173 A 
ATOM     75  C   UNL A   1      43.474  26.979  26.763  1.00  0.00     0.173 A 
ATOM     76  F   UNL A   1      41.010  24.731  28.203  1.00  0.00    -0.203 F 
ATOM     77  C   UNL A   1      42.410  24.454  26.329  1.00  0.00     0.198 A 
ATOM     78  C   UNL A   1      43.919  26.208  25.692  1.00  0.00     0.198 A 
ATOM     79  F   UNL A   1      44.015  28.191  26.957  1.00  0.00    -0.203 F 
ATOM     80  F   UNL A   1      41.919  23.221  26.144  1.00  0.00    -0.200 F 
ATOM     81  C   UNL A   1      43.392  24.943  25.480  1.00  0.00     0.200 A 
ATOM     82  F   UNL A   1      44.861  26.688  24.870  1.00  0.00    -0.200 F 
ATOM     83  F   UNL A   1      43.838  24.192  24.464  1.00  0.00    -0.200 F 
ENDBRANCH  49  73
BRANCH  61  84
ATOM     84  C   UNL A   1      44.552  26.956  34.258  1.00  0.00     0.064 A 
ATOM     85  C   UNL A   1      45.834  27.500  34.424  1.00  0.00     0.173 A 
ATOM     86  C   UNL A   1      44.276  25.723  34.868  1.00  0.00     0.173 A 
ATOM     87  F   UNL A   1      46.150  28.669  33.847  1.00  0.00    -0.203 F 
ATOM     88  C   UNL A   1      46.810  26.821  35.149  1.00  0.00     0.198 A 
ATOM     89  C   UNL A   1      45.246  25.060  35.614  1.00  0.00     0.198 A 
ATOM     90  F   UNL A   1      43.063  25.165  34.746  1.00  0.00    -0.203 F 
ATOM     91  F   UNL A   1      48.042  27.336  35.254  1.00  0.00    -0.200 F 
ATOM     92  C   UNL A   1      46.514  25.605  35.748  1.00  0.00     0.200 A 
ATOM     93  F   UNL A   1      44.956  23.891  36.201  1.00  0.00    -0.200 F 
ATOM     94  F   UNL A   1      47.455  24.954  36.446  1.00  0.00    -0.200 F 
ENDBRANCH  61  84
ENDBRANCH  35  36
ENDBRANCH  28  30
ENDBRANCH  27  28
ENDBRANCH  26  27
ENDBRANCH  25  26
ENDBRANCH  24  25
ENDBRANCH   1  24
TORSDOF 18
ENDMDL
MODEL 2
REMARK VINA RESULT:     -11.6      0.808      2.244
REMARK SMILES CC[C@H](C)c1ccccc1Oc1cccc(F)c1C(=O)OCCOCCOC(=O)c1ccc(-c2c3nc(c(-c4c(F)c(F)c(F)c(F)c4F)c4ccc([nH]4)c(-c4c(F)c(F)c(F)c(F)c4F)c4nc(c(-c5c(F)c(F)c(F)c(F)c5F)c5ccc2[nH]5)C=C4)C=C3)cc1
REMARK SMILES IDX 23 1 22 2 21 3 19 4 20 5 18 6 12 7 13 8 14 9 16 10 15 11
REMARK SMILES IDX 17 12 11 13 10 14 5 15 6 16 7 17 9 18 8 19 3 20 4 21 2 22
REMARK SMILES IDX 1 23 24 24 25 25 26 26 27 27 28 28 29 29 30 30 31 31 92 32
REMARK SMILES IDX 32 33 91 34 33 35 34 36 35 37 85 38 36 39 90 40 84 41 86 42
REMARK SMILES IDX 37 43 89 44 83 45 82 46 38 48 70 49 50 50 69 51 51 52 54 53
REMARK SMILES IDX 68 54 87 55 52 56 53 57 67 59 88 60 55 61 39 62 40 63 48 64
REMARK SMILES IDX 41 65 42 66 46 67 49 68 43 69 44 70 47 71 45 72 71 73 72 74
REMARK SMILES IDX 80 75 73 76 74 77 78 78 81 79 75 80 76 81 79 82 77 83 56 84
REMARK SMILES IDX 57 85 65 86 58 87 59 88 63 89 66 90 60 91 61 92 64 93 62 94
REMARK H PARENT 86 47 54 58
REMARK Flexibility Score: inf
ROOT
ATOM      1  C   UNL A   1      31.712  27.859  27.108  1.00  0.00     0.202 C 
ENDROOT
BRANCH   1   2
ATOM      2  C   UNL A   1      30.943  26.613  26.660  1.00  0.00     0.261 C 
BRANCH   2   3
ATOM      3  O   UNL A   1      31.762  25.434  26.609  1.00  0.00    -0.459 OA
BRANCH   3   4
ATOM      4  C   UNL A   1      31.064  24.275  26.557  1.00  0.00     0.345 C 
ATOM      5  O   UNL A   1      30.044  24.008  27.182  1.00  0.00    -0.246 OA
BRANCH   4   6
ATOM      6  C   UNL A   1      31.622  23.353  25.561  1.00  0.00     0.138 A 
ATOM      7  C   UNL A   1      31.262  23.320  24.211  1.00  0.00     0.144 A 
ATOM      8  C   UNL A   1      31.957  22.457  23.341  1.00  0.00     0.048 A 
ATOM      9  C   UNL A   1      33.037  21.694  23.779  1.00  0.00     0.007 A 
ATOM     10  C   UNL A   1      32.704  22.572  25.991  1.00  0.00     0.141 A 
ATOM     11  C   UNL A   1      33.414  21.756  25.113  1.00  0.00     0.040 A 
ATOM     12  F   UNL A   1      33.090  22.584  27.276  1.00  0.00    -0.206 F 
BRANCH   7  13
ATOM     13  O   UNL A   1      30.276  24.009  23.559  1.00  0.00    -0.456 OA
BRANCH  13  14
ATOM     14  C   UNL A   1      30.279  25.367  23.356  1.00  0.00     0.130 A 
ATOM     15  C   UNL A   1      31.236  26.136  22.657  1.00  0.00    -0.002 A 
ATOM     16  C   UNL A   1      30.948  27.511  22.509  1.00  0.00     0.008 A 
ATOM     17  C   UNL A   1      29.764  28.087  22.984  1.00  0.00     0.001 A 
ATOM     18  C   UNL A   1      29.080  25.953  23.811  1.00  0.00     0.047 A 
ATOM     19  C   UNL A   1      28.821  27.305  23.629  1.00  0.00     0.004 A 
BRANCH  15  20
ATOM     20  C   UNL A   1      32.525  25.555  22.067  1.00  0.00     0.019 C 
ATOM     21  C   UNL A   1      32.530  25.576  20.536  1.00  0.00     0.013 C 
BRANCH  20  22
ATOM     22  C   UNL A   1      33.863  26.064  22.669  1.00  0.00     0.005 C 
ATOM     23  C   UNL A   1      34.079  25.768  24.146  1.00  0.00     0.004 C 
ENDBRANCH  20  22
ENDBRANCH  15  20
ENDBRANCH  13  14
ENDBRANCH   7  13
ENDBRANCH   4   6
ENDBRANCH   3   4
ENDBRANCH   2   3
ENDBRANCH   1   2
BRANCH   1  24
ATOM     24  O   UNL A   1      32.706  28.399  26.243  1.00  0.00    -0.374 OA
BRANCH  24  25
ATOM     25  C   UNL A   1      32.457  29.646  25.606  1.00  0.00     0.202 C 
BRANCH  25  26
ATOM     26  C   UNL A   1      32.125  30.867  26.478  1.00  0.00     0.261 C 
BRANCH  26  27
ATOM     27  O   UNL A   1      32.920  30.992  27.671  1.00  0.00    -0.460 OA
BRANCH  27  28
ATOM     28  C   UNL A   1      33.752  32.060  27.673  1.00  0.00     0.338 C 
ATOM     29  O   UNL A   1      33.442  33.245  27.645  1.00  0.00    -0.246 OA
BRANCH  28  30
ATOM     30  C   UNL A   1      35.157  31.653  27.842  1.00  0.00     0.060 A 
ATOM     31  C   UNL A   1      35.444  30.283  27.778  1.00  0.00     0.016 A 
ATOM     32  C   UNL A   1      36.128  32.563  28.268  1.00  0.00     0.016 A 
ATOM     33  C   UNL A   1      36.678  29.807  28.214  1.00  0.00     0.010 A 
ATOM     34  C   UNL A   1      37.364  32.082  28.718  1.00  0.00     0.010 A 
ATOM     35  C   UNL A   1      37.619  30.698  28.747  1.00  0.00    -0.014 A 
BRANCH  35  36
ATOM     36  C   UNL A   1      38.753  30.146  29.528  1.00  0.00     0.031 A 
ATOM     37  C   UNL A   1      38.938  30.596  30.954  1.00  0.00     0.074 A 
ATOM     38  C   UNL A   1      39.555  29.199  29.012  1.00  0.00     0.049 A 
ATOM     39  N   UNL A   1      39.826  30.219  31.839  1.00  0.00    -0.248 NA
ATOM     40  C   UNL A   1      37.987  31.606  31.450  1.00  0.00     0.031 C 
ATOM     41  C   UNL A   1      39.450  28.646  27.665  1.00  0.00     0.029 A 
ATOM     42  N   UNL A   1      40.614  28.529  29.572  1.00  0.00    -0.354 N 
ATOM     43  C   UNL A   1      39.539  30.939  32.992  1.00  0.00     0.074 A 
ATOM     44  C   UNL A   1      38.416  31.799  32.689  1.00  0.00     0.031 C 
ATOM     45  C   UNL A   1      40.409  27.719  27.499  1.00  0.00     0.029 A 
ATOM     46  C   UNL A   1      41.205  27.627  28.723  1.00  0.00     0.049 A 
ATOM     47  H   UNL A   1      40.921  28.681  30.496  1.00  0.00     0.167 HD
ATOM     48  C   UNL A   1      40.147  30.880  34.202  1.00  0.00     0.037 A 
ATOM     49  C   UNL A   1      42.269  26.826  28.915  1.00  0.00     0.037 A 
ATOM     50  C   UNL A   1      41.263  30.026  34.510  1.00  0.00     0.049 A 
ATOM     51  C   UNL A   1      42.965  26.820  30.252  1.00  0.00     0.074 A 
ATOM     52  C   UNL A   1      41.951  29.899  35.704  1.00  0.00     0.029 A 
ATOM     53  N   UNL A   1      41.854  29.152  33.611  1.00  0.00    -0.354 N 
ATOM     54  N   UNL A   1      42.678  27.495  31.338  1.00  0.00    -0.248 NA
ATOM     55  C   UNL A   1      44.129  25.933  30.388  1.00  0.00     0.031 C 
ATOM     56  C   UNL A   1      42.982  28.972  35.517  1.00  0.00     0.029 A 
ATOM     57  C   UNL A   1      42.909  28.492  34.220  1.00  0.00     0.049 A 
ATOM     58  H   UNL A   1      41.567  29.019  32.678  1.00  0.00     0.167 HD
ATOM     59  C   UNL A   1      43.605  27.094  32.293  1.00  0.00     0.074 A 
ATOM     60  C   UNL A   1      44.456  26.108  31.661  1.00  0.00     0.031 C 
ATOM     61  C   UNL A   1      43.740  27.507  33.578  1.00  0.00     0.037 A 
BRANCH  48  62
ATOM     62  C   UNL A   1      39.625  31.783  35.279  1.00  0.00     0.064 A 
ATOM     63  C   UNL A   1      40.084  33.101  35.419  1.00  0.00     0.173 A 
ATOM     64  C   UNL A   1      38.636  31.333  36.166  1.00  0.00     0.173 A 
ATOM     65  F   UNL A   1      41.041  33.572  34.604  1.00  0.00    -0.203 F 
ATOM     66  C   UNL A   1      39.587  33.929  36.421  1.00  0.00     0.198 A 
ATOM     67  C   UNL A   1      38.125  32.172  37.152  1.00  0.00     0.198 A 
ATOM     68  F   UNL A   1      38.163  30.081  36.073  1.00  0.00    -0.203 F 
ATOM     69  F   UNL A   1      40.068  35.172  36.561  1.00  0.00    -0.200 F 
ATOM     70  C   UNL A   1      38.604  33.467  37.283  1.00  0.00     0.200 A 
ATOM     71  F   UNL A   1      37.169  31.726  37.979  1.00  0.00    -0.200 F 
ATOM     72  F   UNL A   1      38.123  34.267  38.245  1.00  0.00    -0.200 F 
ENDBRANCH  48  62
BRANCH  49  73
ATOM     73  C   UNL A   1      42.749  25.954  27.812  1.00  0.00     0.064 A 
ATOM     74  C   UNL A   1      42.300  24.633  27.686  1.00  0.00     0.173 A 
ATOM     75  C   UNL A   1      43.686  26.419  26.877  1.00  0.00     0.173 A 
ATOM     76  F   UNL A   1      41.424  24.136  28.572  1.00  0.00    -0.203 F 
ATOM     77  C   UNL A   1      42.784  23.803  26.676  1.00  0.00     0.198 A 
ATOM     78  C   UNL A   1      44.150  25.597  25.854  1.00  0.00     0.198 A 
ATOM     79  F   UNL A   1      44.149  27.676  26.959  1.00  0.00    -0.203 F 
ATOM     80  F   UNL A   1      42.372  22.530  26.604  1.00  0.00    -0.200 F 
ATOM     81  C   UNL A   1      43.705  24.287  25.759  1.00  0.00     0.200 A 
ATOM     82  F   UNL A   1      45.033  26.070  24.966  1.00  0.00    -0.200 F 
ATOM     83  F   UNL A   1      44.170  23.488  24.789  1.00  0.00    -0.200 F 
ENDBRANCH  49  73
BRANCH  61  84
ATOM     84  C   UNL A   1      44.824  26.867  34.393  1.00  0.00     0.064 A 
ATOM     85  C   UNL A   1      44.601  25.684  35.113  1.00  0.00     0.173 A 
ATOM     86  C   UNL A   1      46.109  27.428  34.430  1.00  0.00     0.173 A 
ATOM     87  F   UNL A   1      43.385  25.118  35.120  1.00  0.00    -0.203 F 
ATOM     88  C   UNL A   1      45.619  25.102  35.865  1.00  0.00     0.198 A 
ATOM     89  C   UNL A   1      47.131  26.829  35.161  1.00  0.00     0.198 A 
ATOM     90  F   UNL A   1      46.375  28.554  33.752  1.00  0.00    -0.203 F 
ATOM     91  F   UNL A   1      45.371  24.000  36.583  1.00  0.00    -0.200 F 
ATOM     92  C   UNL A   1      46.884  25.672  35.884  1.00  0.00     0.200 A 
ATOM     93  F   UNL A   1      48.355  27.374  35.170  1.00  0.00    -0.200 F 
ATOM     94  F   UNL A   1      47.862  25.109  36.607  1.00  0.00    -0.200 F 
ENDBRANCH  61  84
ENDBRANCH  35  36
ENDBRANCH  28  30
ENDBRANCH  27  28
ENDBRANCH  26  27
ENDBRANCH  25  26
ENDBRANCH  24  25
ENDBRANCH   1  24
TORSDOF 18
ENDMDL
MODEL 3
REMARK VINA RESULT:     -11.6      4.387      7.431
REMARK SMILES CC[C@H](C)c1ccccc1Oc1cccc(F)c1C(=O)OCCOCCOC(=O)c1ccc(-c2c3nc(c(-c4c(F)c(F)c(F)c(F)c4F)c4ccc([nH]4)c(-c4c(F)c(F)c(F)c(F)c4F)c4nc(c(-c5c(F)c(F)c(F)c(F)c5F)c5ccc2[nH]5)C=C4)C=C3)cc1
REMARK SMILES IDX 23 1 22 2 21 3 19 4 20 5 18 6 12 7 13 8 14 9 16 10 15 11
REMARK SMILES IDX 17 12 11 13 10 14 5 15 6 16 7 17 9 18 8 19 3 20 4 21 2 22
REMARK SMILES IDX 1 23 24 24 25 25 26 26 27 27 28 28 29 29 30 30 31 31 92 32
REMARK SMILES IDX 32 33 91 34 33 35 34 36 35 37 85 38 36 39 90 40 84 41 86 42
REMARK SMILES IDX 37 43 89 44 83 45 82 46 38 48 70 49 50 50 69 51 51 52 54 53
REMARK SMILES IDX 68 54 87 55 52 56 53 57 67 59 88 60 55 61 39 62 40 63 48 64
REMARK SMILES IDX 41 65 42 66 46 67 49 68 43 69 44 70 47 71 45 72 71 73 72 74
REMARK SMILES IDX 80 75 73 76 74 77 78 78 81 79 75 80 76 81 79 82 77 83 56 84
REMARK SMILES IDX 57 85 65 86 58 87 59 88 63 89 66 90 60 91 61 92 64 93 62 94
REMARK H PARENT 86 47 54 58
REMARK Flexibility Score: inf
ROOT
ATOM      1  C   UNL A   1      36.007  23.434  24.130  1.00  0.00     0.202 C 
ENDROOT
BRANCH   1   2
ATOM      2  C   UNL A   1      34.900  23.521  23.076  1.00  0.00     0.261 C 
BRANCH   2   3
ATOM      3  O   UNL A   1      34.370  24.848  22.925  1.00  0.00    -0.459 OA
BRANCH   3   4
ATOM      4  C   UNL A   1      33.339  24.938  22.052  1.00  0.00     0.345 C 
ATOM      5  O   UNL A   1      33.279  24.434  20.938  1.00  0.00    -0.246 OA
BRANCH   4   6
ATOM      6  C   UNL A   1      32.201  25.660  22.635  1.00  0.00     0.138 A 
ATOM      7  C   UNL A   1      31.039  25.059  23.127  1.00  0.00     0.144 A 
ATOM      8  C   UNL A   1      30.071  25.863  23.760  1.00  0.00     0.048 A 
ATOM      9  C   UNL A   1      30.278  27.226  23.970  1.00  0.00     0.007 A 
ATOM     10  C   UNL A   1      32.392  27.033  22.842  1.00  0.00     0.141 A 
ATOM     11  C   UNL A   1      31.449  27.812  23.510  1.00  0.00     0.040 A 
ATOM     12  F   UNL A   1      33.498  27.647  22.396  1.00  0.00    -0.206 F 
BRANCH   7  13
ATOM     13  O   UNL A   1      30.652  23.747  23.076  1.00  0.00    -0.456 OA
BRANCH  13  14
ATOM     14  C   UNL A   1      31.328  22.712  23.675  1.00  0.00     0.130 A 
ATOM     15  C   UNL A   1      31.471  22.457  25.057  1.00  0.00    -0.002 A 
ATOM     16  C   UNL A   1      32.135  21.260  25.407  1.00  0.00     0.008 A 
ATOM     17  C   UNL A   1      32.594  20.347  24.450  1.00  0.00     0.001 A 
ATOM     18  C   UNL A   1      31.773  21.776  22.721  1.00  0.00     0.047 A 
ATOM     19  C   UNL A   1      32.404  20.599  23.102  1.00  0.00     0.004 A 
BRANCH  15  20
ATOM     20  C   UNL A   1      30.944  23.389  26.152  1.00  0.00     0.019 C 
ATOM     21  C   UNL A   1      29.920  22.706  27.062  1.00  0.00     0.013 C 
BRANCH  20  22
ATOM     22  C   UNL A   1      32.002  24.195  26.954  1.00  0.00     0.005 C 
ATOM     23  C   UNL A   1      33.106  24.843  26.131  1.00  0.00     0.004 C 
ENDBRANCH  20  22
ENDBRANCH  15  20
ENDBRANCH  13  14
ENDBRANCH   7  13
ENDBRANCH   4   6
ENDBRANCH   3   4
ENDBRANCH   2   3
ENDBRANCH   1   2
BRANCH   1  24
ATOM     24  O   UNL A   1      35.838  22.546  25.230  1.00  0.00    -0.374 OA
BRANCH  24  25
ATOM     25  C   UNL A   1      35.986  21.148  25.011  1.00  0.00     0.202 C 
BRANCH  25  26
ATOM     26  C   UNL A   1      37.361  20.505  25.251  1.00  0.00     0.261 C 
BRANCH  26  27
ATOM     27  O   UNL A   1      38.474  21.416  25.189  1.00  0.00    -0.460 OA
BRANCH  27  28
ATOM     28  C   UNL A   1      39.425  21.195  26.127  1.00  0.00     0.338 C 
ATOM     29  O   UNL A   1      40.036  20.154  26.336  1.00  0.00    -0.246 OA
BRANCH  28  30
ATOM     30  C   UNL A   1      39.772  22.430  26.849  1.00  0.00     0.060 A 
ATOM     31  C   UNL A   1      39.114  23.607  26.467  1.00  0.00     0.016 A 
ATOM     32  C   UNL A   1      40.863  22.477  27.720  1.00  0.00     0.016 A 
ATOM     33  C   UNL A   1      39.593  24.843  26.893  1.00  0.00     0.010 A 
ATOM     34  C   UNL A   1      41.351  23.721  28.138  1.00  0.00     0.010 A 
ATOM     35  C   UNL A   1      40.753  24.909  27.677  1.00  0.00    -0.014 A 
BRANCH  35  36
ATOM     36  C   UNL A   1      41.444  26.215  27.811  1.00  0.00     0.031 A 
ATOM     37  C   UNL A   1      40.747  27.330  28.548  1.00  0.00     0.074 A 
ATOM     38  C   UNL A   1      42.698  26.386  27.363  1.00  0.00     0.049 A 
ATOM     39  N   UNL A   1      41.171  28.537  28.826  1.00  0.00    -0.248 NA
ATOM     40  C   UNL A   1      39.390  27.041  29.041  1.00  0.00     0.031 C 
ATOM     41  C   UNL A   1      43.496  25.371  26.678  1.00  0.00     0.029 A 
ATOM     42  N   UNL A   1      43.525  27.479  27.428  1.00  0.00    -0.354 N 
ATOM     43  C   UNL A   1      40.138  29.147  29.528  1.00  0.00     0.074 A 
ATOM     44  C   UNL A   1      39.055  28.192  29.606  1.00  0.00     0.031 C 
ATOM     45  C   UNL A   1      44.700  25.891  26.384  1.00  0.00     0.029 A 
ATOM     46  C   UNL A   1      44.750  27.279  26.843  1.00  0.00     0.049 A 
ATOM     47  H   UNL A   1      43.264  28.328  27.854  1.00  0.00     0.167 HD
ATOM     48  C   UNL A   1      40.100  30.387  30.071  1.00  0.00     0.037 A 
ATOM     49  C   UNL A   1      45.788  28.122  26.694  1.00  0.00     0.037 A 
ATOM     50  C   UNL A   1      41.175  31.341  29.998  1.00  0.00     0.049 A 
ATOM     51  C   UNL A   1      45.700  29.517  27.258  1.00  0.00     0.074 A 
ATOM     52  C   UNL A   1      41.229  32.625  30.512  1.00  0.00     0.029 A 
ATOM     53  N   UNL A   1      42.386  31.111  29.366  1.00  0.00    -0.354 N 
ATOM     54  N   UNL A   1      44.725  30.079  27.930  1.00  0.00    -0.248 NA
ATOM     55  C   UNL A   1      46.862  30.392  27.047  1.00  0.00     0.031 C 
ATOM     56  C   UNL A   1      42.462  33.184  30.161  1.00  0.00     0.029 A 
ATOM     57  C   UNL A   1      43.191  32.235  29.464  1.00  0.00     0.049 A 
ATOM     58  H   UNL A   1      42.639  30.273  28.915  1.00  0.00     0.167 HD
ATOM     59  C   UNL A   1      45.165  31.358  28.246  1.00  0.00     0.074 A 
ATOM     60  C   UNL A   1      46.501  31.486  27.702  1.00  0.00     0.031 C 
ATOM     61  C   UNL A   1      44.522  32.340  28.925  1.00  0.00     0.037 A 
BRANCH  48  62
ATOM     62  C   UNL A   1      38.841  30.790  30.780  1.00  0.00     0.064 A 
ATOM     63  C   UNL A   1      38.706  30.655  32.169  1.00  0.00     0.173 A 
ATOM     64  C   UNL A   1      37.768  31.340  30.065  1.00  0.00     0.173 A 
ATOM     65  F   UNL A   1      39.700  30.119  32.895  1.00  0.00    -0.203 F 
ATOM     66  C   UNL A   1      37.533  31.038  32.814  1.00  0.00     0.198 A 
ATOM     67  C   UNL A   1      36.605  31.743  30.716  1.00  0.00     0.198 A 
ATOM     68  F   UNL A   1      37.848  31.491  28.734  1.00  0.00    -0.203 F 
ATOM     69  F   UNL A   1      37.410  30.864  34.138  1.00  0.00    -0.200 F 
ATOM     70  C   UNL A   1      36.486  31.587  32.089  1.00  0.00     0.200 A 
ATOM     71  F   UNL A   1      35.598  32.281  30.014  1.00  0.00    -0.200 F 
ATOM     72  F   UNL A   1      35.359  31.958  32.712  1.00  0.00    -0.200 F 
ENDBRANCH  48  62
BRANCH  49  73
ATOM     73  C   UNL A   1      47.011  27.675  25.979  1.00  0.00     0.064 A 
ATOM     74  C   UNL A   1      47.096  27.739  24.583  1.00  0.00     0.173 A 
ATOM     75  C   UNL A   1      48.109  27.153  26.679  1.00  0.00     0.173 A 
ATOM     76  F   UNL A   1      46.061  28.206  23.869  1.00  0.00    -0.203 F 
ATOM     77  C   UNL A   1      48.227  27.279  23.910  1.00  0.00     0.198 A 
ATOM     78  C   UNL A   1      49.248  26.716  26.008  1.00  0.00     0.198 A 
ATOM     79  F   UNL A   1      48.073  27.068  28.017  1.00  0.00    -0.203 F 
ATOM     80  F   UNL A   1      48.266  27.309  22.570  1.00  0.00    -0.200 F 
ATOM     81  C   UNL A   1      49.303  26.772  24.624  1.00  0.00     0.200 A 
ATOM     82  F   UNL A   1      50.288  26.235  26.701  1.00  0.00    -0.200 F 
ATOM     83  F   UNL A   1      50.390  26.329  23.976  1.00  0.00    -0.200 F 
ENDBRANCH  49  73
BRANCH  61  84
ATOM     84  C   UNL A   1      45.267  33.623  29.147  1.00  0.00     0.064 A 
ATOM     85  C   UNL A   1      46.088  33.811  30.268  1.00  0.00     0.173 A 
ATOM     86  C   UNL A   1      45.182  34.664  28.211  1.00  0.00     0.173 A 
ATOM     87  F   UNL A   1      46.189  32.850  31.198  1.00  0.00    -0.203 F 
ATOM     88  C   UNL A   1      46.774  35.008  30.459  1.00  0.00     0.198 A 
ATOM     89  C   UNL A   1      45.890  35.849  28.391  1.00  0.00     0.198 A 
ATOM     90  F   UNL A   1      44.416  34.530  27.118  1.00  0.00    -0.203 F 
ATOM     91  F   UNL A   1      47.514  35.185  31.561  1.00  0.00    -0.200 F 
ATOM     92  C   UNL A   1      46.679  36.023  29.518  1.00  0.00     0.200 A 
ATOM     93  F   UNL A   1      45.806  36.825  27.477  1.00  0.00    -0.200 F 
ATOM     94  F   UNL A   1      47.341  37.174  29.704  1.00  0.00    -0.200 F 
ENDBRANCH  61  84
ENDBRANCH  35  36
ENDBRANCH  28  30
ENDBRANCH  27  28
ENDBRANCH  26  27
ENDBRANCH  25  26
ENDBRANCH  24  25
ENDBRANCH   1  24
TORSDOF 18
ENDMDL
