MODEL 1
REMARK VINA RESULT:     -13.1      0.000      0.000
REMARK SMILES CC(=O)Nc1cnc(N2CC=C(c3ccccc3C)CC2)c(C(=O)OCCOCCOC(=O)c2ccc(-c3c4nc(c(-c5c(F)c(F)c(F)c(F)c5F)c5ccc([nH]5)c(-c5c(F)c(F)c(F)c(F)c5F)c5nc(c(-c6c(F)c(F)c(F)c(F)c6F)c6ccc3[nH]6)C=C5)C=C4)cc2)c1
REMARK SMILES IDX 28 1 27 2 26 3 25 4 23 5 24 6 22 7 5 8 6 9 97 10 7 11 8 12
REMARK SMILES IDX 4 13 1 14 2 15 3 16 9 18 10 19 21 20 11 21 20 22 12 23 13 24
REMARK SMILES IDX 14 25 18 26 15 27 17 28 19 29 16 30 29 31 30 32 31 33 32 34
REMARK SMILES IDX 33 35 34 36 35 37 96 38 36 39 95 40 37 41 38 42 39 43 89 44
REMARK SMILES IDX 40 45 94 46 88 47 90 48 41 49 93 50 87 51 86 52 42 54 74 55
REMARK SMILES IDX 54 56 73 57 55 58 58 59 72 60 91 61 56 62 57 63 71 65 92 66
REMARK SMILES IDX 59 67 43 68 44 69 52 70 45 71 46 72 50 73 53 74 47 75 48 76
REMARK SMILES IDX 51 77 49 78 75 79 76 80 84 81 77 82 78 83 82 84 85 85 79 86
REMARK SMILES IDX 80 87 83 88 81 89 60 90 61 91 69 92 62 93 63 94 67 95 70 96
REMARK SMILES IDX 64 97 65 98 68 99 66 100
REMARK H PARENT 4 17 90 53 58 64
REMARK Flexibility Score: inf
ROOT
ATOM      1  O   UNL A   1      33.723  28.242  26.920  1.00  0.00    -0.374 OA
ENDROOT
BRANCH   1   2
ATOM      2  C   UNL A   1      32.449  28.247  27.553  1.00  0.00     0.202 C 
BRANCH   2   3
ATOM      3  C   UNL A   1      31.718  27.161  26.855  1.00  0.00     0.261 C 
BRANCH   3   4
ATOM      4  O   UNL A   1      32.642  26.146  26.464  1.00  0.00    -0.460 OA
BRANCH   4   5
ATOM      5  C   UNL A   1      32.203  24.858  26.372  1.00  0.00     0.342 C 
ATOM      6  O   UNL A   1      31.416  24.311  27.101  1.00  0.00    -0.246 OA
BRANCH   5   7
ATOM      7  C   UNL A   1      32.916  24.259  25.239  1.00  0.00     0.104 A 
ATOM      8  C   UNL A   1      34.710  22.785  24.570  1.00  0.00     0.060 A 
ATOM      9  C   UNL A   1      34.471  23.232  23.283  1.00  0.00     0.139 A 
ATOM     10  C   UNL A   1      33.919  23.334  25.550  1.00  0.00     0.047 A 
ATOM     11  N   UNL A   1      33.456  24.081  22.942  1.00  0.00    -0.236 NA
ATOM     12  C   UNL A   1      32.668  24.611  23.916  1.00  0.00     0.143 A 
BRANCH   8  13
ATOM     13  N   UNL A   1      35.764  21.921  24.906  1.00  0.00    -0.325 N 
ATOM     14  C   UNL A   1      37.392  23.638  25.702  1.00  0.00     0.114 C 
ATOM     15  C   UNL A   1      37.070  22.245  25.200  1.00  0.00     0.221 C 
ATOM     16  O   UNL A   1      37.943  21.381  25.130  1.00  0.00    -0.275 OA
ATOM     17  H   UNL A   1      35.542  20.962  24.936  1.00  0.00     0.169 HD
ENDBRANCH   8  13
BRANCH  12  18
ATOM     18  N   UNL A   1      31.729  25.535  23.508  1.00  0.00    -0.352 N 
ATOM     19  C   UNL A   1      32.049  26.326  22.325  1.00  0.00     0.146 C 
ATOM     20  C   UNL A   1      30.303  25.298  23.729  1.00  0.00     0.123 C 
ATOM     21  C   UNL A   1      31.172  27.557  22.302  1.00  0.00    -0.002 C 
ATOM     22  C   UNL A   1      29.603  26.624  23.998  1.00  0.00     0.057 C 
ATOM     23  C   UNL A   1      30.087  27.727  23.085  1.00  0.00    -0.041 C 
BRANCH  23  24
ATOM     24  C   UNL A   1      29.367  29.017  23.126  1.00  0.00    -0.020 A 
ATOM     25  C   UNL A   1      28.185  29.162  22.380  1.00  0.00     0.008 A 
ATOM     26  C   UNL A   1      29.835  30.116  23.883  1.00  0.00    -0.044 A 
ATOM     27  C   UNL A   1      27.476  30.365  22.382  1.00  0.00     0.001 A 
ATOM     28  C   UNL A   1      29.099  31.311  23.889  1.00  0.00     0.004 A 
ATOM     29  C   UNL A   1      31.089  30.066  24.714  1.00  0.00     0.045 C 
ATOM     30  C   UNL A   1      27.933  31.439  23.138  1.00  0.00     0.000 A 
ENDBRANCH  23  24
ENDBRANCH  12  18
ENDBRANCH   5   7
ENDBRANCH   4   5
ENDBRANCH   3   4
ENDBRANCH   2   3
ENDBRANCH   1   2
BRANCH   1  31
ATOM     31  C   UNL A   1      34.501  29.395  27.150  1.00  0.00     0.202 C 
BRANCH  31  32
ATOM     32  C   UNL A   1      33.655  30.595  27.587  1.00  0.00     0.261 C 
BRANCH  32  33
ATOM     33  O   UNL A   1      34.488  31.776  27.612  1.00  0.00    -0.460 OA
BRANCH  33  34
ATOM     34  C   UNL A   1      34.440  32.521  28.754  1.00  0.00     0.338 C 
ATOM     35  O   UNL A   1      33.566  33.324  29.036  1.00  0.00    -0.246 OA
BRANCH  34  36
ATOM     36  C   UNL A   1      35.762  32.462  29.450  1.00  0.00     0.060 A 
ATOM     37  C   UNL A   1      36.901  33.027  28.840  1.00  0.00     0.016 A 
ATOM     38  C   UNL A   1      35.917  31.562  30.502  1.00  0.00     0.016 A 
ATOM     39  C   UNL A   1      38.188  32.573  29.174  1.00  0.00     0.010 A 
ATOM     40  C   UNL A   1      37.170  31.044  30.750  1.00  0.00     0.010 A 
ATOM     41  C   UNL A   1      38.311  31.518  30.073  1.00  0.00    -0.014 A 
BRANCH  41  42
ATOM     42  C   UNL A   1      39.538  30.770  30.369  1.00  0.00     0.031 A 
ATOM     43  C   UNL A   1      39.696  29.464  29.706  1.00  0.00     0.074 A 
ATOM     44  C   UNL A   1      40.614  31.341  30.965  1.00  0.00     0.049 A 
ATOM     45  N   UNL A   1      40.642  28.640  29.976  1.00  0.00    -0.248 NA
ATOM     46  C   UNL A   1      38.770  28.947  28.709  1.00  0.00     0.031 C 
ATOM     47  C   UNL A   1      42.035  30.987  30.836  1.00  0.00     0.029 A 
ATOM     48  N   UNL A   1      40.673  32.475  31.786  1.00  0.00    -0.354 N 
ATOM     49  C   UNL A   1      40.658  27.676  29.001  1.00  0.00     0.074 A 
ATOM     50  C   UNL A   1      39.402  27.840  28.316  1.00  0.00     0.031 C 
ATOM     51  C   UNL A   1      42.757  31.672  31.744  1.00  0.00     0.029 A 
ATOM     52  C   UNL A   1      41.816  32.384  32.590  1.00  0.00     0.049 A 
ATOM     53  H   UNL A   1      40.020  33.211  31.795  1.00  0.00     0.167 HD
ATOM     54  C   UNL A   1      41.807  26.956  28.852  1.00  0.00     0.037 A 
ATOM     55  C   UNL A   1      41.667  32.322  33.937  1.00  0.00     0.037 A 
ATOM     56  C   UNL A   1      42.788  27.344  29.901  1.00  0.00     0.049 A 
ATOM     57  C   UNL A   1      42.076  30.949  34.397  1.00  0.00     0.074 A 
ATOM     58  C   UNL A   1      43.972  28.065  29.905  1.00  0.00     0.029 A 
ATOM     59  N   UNL A   1      42.404  27.277  31.246  1.00  0.00    -0.354 N 
ATOM     60  N   UNL A   1      42.356  29.974  33.574  1.00  0.00    -0.248 NA
ATOM     61  C   UNL A   1      42.217  30.553  35.782  1.00  0.00     0.031 C 
ATOM     62  C   UNL A   1      44.297  28.400  31.261  1.00  0.00     0.029 A 
ATOM     63  C   UNL A   1      43.332  27.861  32.097  1.00  0.00     0.049 A 
ATOM     64  H   UNL A   1      41.568  26.861  31.554  1.00  0.00     0.167 HD
ATOM     65  C   UNL A   1      42.755  28.861  34.244  1.00  0.00     0.074 A 
ATOM     66  C   UNL A   1      42.580  29.264  35.638  1.00  0.00     0.031 C 
ATOM     67  C   UNL A   1      43.170  27.743  33.559  1.00  0.00     0.037 A 
BRANCH  54  68
ATOM     68  C   UNL A   1      42.132  26.048  27.666  1.00  0.00     0.064 A 
ATOM     69  C   UNL A   1      41.438  24.831  27.486  1.00  0.00     0.173 A 
ATOM     70  C   UNL A   1      43.118  26.281  26.680  1.00  0.00     0.173 A 
ATOM     71  F   UNL A   1      40.440  24.471  28.304  1.00  0.00    -0.203 F 
ATOM     72  C   UNL A   1      41.735  23.927  26.453  1.00  0.00     0.198 A 
ATOM     73  C   UNL A   1      43.432  25.371  25.662  1.00  0.00     0.198 A 
ATOM     74  F   UNL A   1      43.813  27.413  26.605  1.00  0.00    -0.203 F 
ATOM     75  F   UNL A   1      41.036  22.789  26.345  1.00  0.00    -0.200 F 
ATOM     76  C   UNL A   1      42.739  24.192  25.547  1.00  0.00     0.200 A 
ATOM     77  F   UNL A   1      44.409  25.665  24.791  1.00  0.00    -0.200 F 
ATOM     78  F   UNL A   1      43.028  23.329  24.564  1.00  0.00    -0.200 F 
ENDBRANCH  54  68
BRANCH  55  79
ATOM     79  C   UNL A   1      40.550  33.214  34.405  1.00  0.00     0.064 A 
ATOM     80  C   UNL A   1      39.334  32.584  34.765  1.00  0.00     0.173 A 
ATOM     81  C   UNL A   1      40.799  34.468  34.984  1.00  0.00     0.173 A 
ATOM     82  F   UNL A   1      39.049  31.364  34.287  1.00  0.00    -0.203 F 
ATOM     83  C   UNL A   1      38.491  33.108  35.750  1.00  0.00     0.198 A 
ATOM     84  C   UNL A   1      39.954  34.988  35.977  1.00  0.00     0.198 A 
ATOM     85  F   UNL A   1      41.939  35.119  34.712  1.00  0.00    -0.203 F 
ATOM     86  F   UNL A   1      37.465  32.376  36.212  1.00  0.00    -0.200 F 
ATOM     87  C   UNL A   1      38.825  34.292  36.384  1.00  0.00     0.200 A 
ATOM     88  F   UNL A   1      40.302  36.105  36.632  1.00  0.00    -0.200 F 
ATOM     89  F   UNL A   1      38.132  34.693  37.462  1.00  0.00    -0.200 F 
ENDBRANCH  55  79
BRANCH  67  90
ATOM     90  C   UNL A   1      43.398  26.376  34.179  1.00  0.00     0.064 A 
ATOM     91  C   UNL A   1      42.415  25.618  34.822  1.00  0.00     0.173 A 
ATOM     92  C   UNL A   1      44.659  25.732  34.081  1.00  0.00     0.173 A 
ATOM     93  F   UNL A   1      41.299  26.180  35.296  1.00  0.00    -0.203 F 
ATOM     94  C   UNL A   1      42.587  24.259  35.094  1.00  0.00     0.198 A 
ATOM     95  C   UNL A   1      44.846  24.389  34.386  1.00  0.00     0.198 A 
ATOM     96  F   UNL A   1      45.772  26.371  33.705  1.00  0.00    -0.203 F 
ATOM     97  F   UNL A   1      41.569  23.558  35.611  1.00  0.00    -0.200 F 
ATOM     98  C   UNL A   1      43.792  23.636  34.841  1.00  0.00     0.200 A 
ATOM     99  F   UNL A   1      46.055  23.837  34.215  1.00  0.00    -0.200 F 
ATOM    100  F   UNL A   1      43.950  22.329  35.081  1.00  0.00    -0.200 F 
ENDBRANCH  67  90
ENDBRANCH  41  42
ENDBRANCH  34  36
ENDBRANCH  33  34
ENDBRANCH  32  33
ENDBRANCH  31  32
ENDBRANCH   1  31
TORSDOF 17
ENDMDL
MODEL 2
REMARK VINA RESULT:     -13.1      1.862      2.938
REMARK SMILES CC(=O)Nc1cnc(N2CC=C(c3ccccc3C)CC2)c(C(=O)OCCOCCOC(=O)c2ccc(-c3c4nc(c(-c5c(F)c(F)c(F)c(F)c5F)c5ccc([nH]5)c(-c5c(F)c(F)c(F)c(F)c5F)c5nc(c(-c6c(F)c(F)c(F)c(F)c6F)c6ccc3[nH]6)C=C5)C=C4)cc2)c1
REMARK SMILES IDX 28 1 27 2 26 3 25 4 23 5 24 6 22 7 5 8 6 9 97 10 7 11 8 12
REMARK SMILES IDX 4 13 1 14 2 15 3 16 9 18 10 19 21 20 11 21 20 22 12 23 13 24
REMARK SMILES IDX 14 25 18 26 15 27 17 28 19 29 16 30 29 31 30 32 31 33 32 34
REMARK SMILES IDX 33 35 34 36 35 37 96 38 36 39 95 40 37 41 38 42 39 43 89 44
REMARK SMILES IDX 40 45 94 46 88 47 90 48 41 49 93 50 87 51 86 52 42 54 74 55
REMARK SMILES IDX 54 56 73 57 55 58 58 59 72 60 91 61 56 62 57 63 71 65 92 66
REMARK SMILES IDX 59 67 43 68 44 69 52 70 45 71 46 72 50 73 53 74 47 75 48 76
REMARK SMILES IDX 51 77 49 78 75 79 76 80 84 81 77 82 78 83 82 84 85 85 79 86
REMARK SMILES IDX 80 87 83 88 81 89 60 90 61 91 69 92 62 93 63 94 67 95 70 96
REMARK SMILES IDX 64 97 65 98 68 99 66 100
REMARK H PARENT 4 17 90 53 58 64
REMARK Flexibility Score: inf
ROOT
ATOM      1  O   UNL A   1      34.443  29.253  26.515  1.00  0.00    -0.374 OA
ENDROOT
BRANCH   1   2
ATOM      2  C   UNL A   1      33.950  28.236  25.652  1.00  0.00     0.202 C 
BRANCH   2   3
ATOM      3  C   UNL A   1      32.996  27.492  26.510  1.00  0.00     0.261 C 
BRANCH   3   4
ATOM      4  O   UNL A   1      33.277  26.096  26.426  1.00  0.00    -0.460 OA
BRANCH   4   5
ATOM      5  C   UNL A   1      32.241  25.228  26.240  1.00  0.00     0.342 C 
ATOM      6  O   UNL A   1      31.221  25.175  26.879  1.00  0.00    -0.246 OA
BRANCH   5   7
ATOM      7  C   UNL A   1      32.637  24.341  25.141  1.00  0.00     0.104 A 
ATOM      8  C   UNL A   1      34.052  22.496  24.484  1.00  0.00     0.060 A 
ATOM      9  C   UNL A   1      33.639  22.762  23.191  1.00  0.00     0.139 A 
ATOM     10  C   UNL A   1      33.543  23.322  25.457  1.00  0.00     0.047 A 
ATOM     11  N   UNL A   1      32.705  23.705  22.863  1.00  0.00    -0.236 NA
ATOM     12  C   UNL A   1      32.196  24.511  23.834  1.00  0.00     0.143 A 
BRANCH   8  13
ATOM     13  N   UNL A   1      35.020  21.531  24.803  1.00  0.00    -0.325 N 
ATOM     14  C   UNL A   1      37.045  22.974  24.585  1.00  0.00     0.114 C 
ATOM     15  C   UNL A   1      36.386  21.611  24.645  1.00  0.00     0.221 C 
ATOM     16  O   UNL A   1      37.061  20.582  24.638  1.00  0.00    -0.275 OA
ATOM     17  H   UNL A   1      34.681  20.691  25.189  1.00  0.00     0.169 HD
ENDBRANCH   8  13
BRANCH  12  18
ATOM     18  N   UNL A   1      31.333  25.503  23.415  1.00  0.00    -0.352 N 
ATOM     19  C   UNL A   1      31.727  26.268  22.236  1.00  0.00     0.146 C 
ATOM     20  C   UNL A   1      29.892  25.373  23.618  1.00  0.00     0.123 C 
ATOM     21  C   UNL A   1      30.945  27.561  22.204  1.00  0.00    -0.002 C 
ATOM     22  C   UNL A   1      29.289  26.748  23.879  1.00  0.00     0.057 C 
ATOM     23  C   UNL A   1      29.865  27.811  22.973  1.00  0.00    -0.041 C 
BRANCH  23  24
ATOM     24  C   UNL A   1      29.243  29.152  23.007  1.00  0.00    -0.020 A 
ATOM     25  C   UNL A   1      28.126  29.405  22.192  1.00  0.00     0.008 A 
ATOM     26  C   UNL A   1      29.743  30.193  23.822  1.00  0.00    -0.044 A 
ATOM     27  C   UNL A   1      27.510  30.659  22.185  1.00  0.00     0.001 A 
ATOM     28  C   UNL A   1      29.100  31.441  23.818  1.00  0.00     0.004 A 
ATOM     29  C   UNL A   1      30.933  30.027  24.729  1.00  0.00     0.045 C 
ATOM     30  C   UNL A   1      27.997  31.676  22.999  1.00  0.00     0.000 A 
ENDBRANCH  23  24
ENDBRANCH  12  18
ENDBRANCH   5   7
ENDBRANCH   4   5
ENDBRANCH   3   4
ENDBRANCH   2   3
ENDBRANCH   1   2
BRANCH   1  31
ATOM     31  C   UNL A   1      33.447  30.028  27.144  1.00  0.00     0.202 C 
BRANCH  31  32
ATOM     32  C   UNL A   1      33.984  31.369  27.653  1.00  0.00     0.261 C 
BRANCH  32  33
ATOM     33  O   UNL A   1      35.427  31.305  27.721  1.00  0.00    -0.460 OA
BRANCH  33  34
ATOM     34  C   UNL A   1      35.964  31.155  28.966  1.00  0.00     0.338 C 
ATOM     35  O   UNL A   1      35.903  31.978  29.864  1.00  0.00    -0.246 OA
BRANCH  34  36
ATOM     36  C   UNL A   1      36.908  29.996  28.971  1.00  0.00     0.060 A 
ATOM     37  C   UNL A   1      37.036  29.200  30.129  1.00  0.00     0.016 A 
ATOM     38  C   UNL A   1      37.883  29.932  27.978  1.00  0.00     0.016 A 
ATOM     39  C   UNL A   1      38.211  28.468  30.364  1.00  0.00     0.010 A 
ATOM     40  C   UNL A   1      39.075  29.300  28.262  1.00  0.00     0.010 A 
ATOM     41  C   UNL A   1      39.265  28.589  29.463  1.00  0.00    -0.014 A 
BRANCH  41  42
ATOM     42  C   UNL A   1      40.630  28.086  29.653  1.00  0.00     0.031 A 
ATOM     43  C   UNL A   1      40.949  26.782  29.047  1.00  0.00     0.074 A 
ATOM     44  C   UNL A   1      41.644  28.877  30.087  1.00  0.00     0.049 A 
ATOM     45  N   UNL A   1      42.050  26.155  29.247  1.00  0.00    -0.248 NA
ATOM     46  C   UNL A   1      40.029  26.042  28.194  1.00  0.00     0.031 C 
ATOM     47  C   UNL A   1      43.084  28.763  29.811  1.00  0.00     0.029 A 
ATOM     48  N   UNL A   1      41.586  30.060  30.834  1.00  0.00    -0.354 N 
ATOM     49  C   UNL A   1      42.134  25.140  28.330  1.00  0.00     0.074 A 
ATOM     50  C   UNL A   1      40.804  25.035  27.789  1.00  0.00     0.031 C 
ATOM     51  C   UNL A   1      43.763  29.626  30.590  1.00  0.00     0.029 A 
ATOM     52  C   UNL A   1      42.805  30.226  31.502  1.00  0.00     0.049 A 
ATOM     53  H   UNL A   1      40.816  30.672  30.880  1.00  0.00     0.167 HD
ATOM     54  C   UNL A   1      43.372  24.619  28.086  1.00  0.00     0.037 A 
ATOM     55  C   UNL A   1      42.813  30.238  32.859  1.00  0.00     0.037 A 
ATOM     56  C   UNL A   1      44.373  25.246  28.990  1.00  0.00     0.049 A 
ATOM     57  C   UNL A   1      43.508  28.994  33.340  1.00  0.00     0.074 A 
ATOM     58  C   UNL A   1      45.403  26.158  28.816  1.00  0.00     0.029 A 
ATOM     59  N   UNL A   1      44.153  25.212  30.372  1.00  0.00    -0.354 N 
ATOM     60  N   UNL A   1      43.869  28.024  32.543  1.00  0.00    -0.248 NA
ATOM     61  C   UNL A   1      43.864  28.729  34.718  1.00  0.00     0.031 C 
ATOM     62  C   UNL A   1      45.804  26.642  30.105  1.00  0.00     0.029 A 
ATOM     63  C   UNL A   1      45.045  26.008  31.076  1.00  0.00     0.049 A 
ATOM     64  H   UNL A   1      43.442  24.682  30.798  1.00  0.00     0.167 HD
ATOM     65  C   UNL A   1      44.530  27.048  33.220  1.00  0.00     0.074 A 
ATOM     66  C   UNL A   1      44.435  27.515  34.601  1.00  0.00     0.031 C 
ATOM     67  C   UNL A   1      45.064  25.970  32.551  1.00  0.00     0.037 A 
BRANCH  54  68
ATOM     68  C   UNL A   1      43.726  23.696  26.919  1.00  0.00     0.064 A 
ATOM     69  C   UNL A   1      43.231  22.374  26.878  1.00  0.00     0.173 A 
ATOM     70  C   UNL A   1      44.559  24.016  25.822  1.00  0.00     0.173 A 
ATOM     71  F   UNL A   1      42.392  21.915  27.816  1.00  0.00    -0.203 F 
ATOM     72  C   UNL A   1      43.572  21.461  25.867  1.00  0.00     0.198 A 
ATOM     73  C   UNL A   1      44.919  23.101  24.825  1.00  0.00     0.198 A 
ATOM     74  F   UNL A   1      45.044  25.238  25.615  1.00  0.00    -0.203 F 
ATOM     75  F   UNL A   1      43.065  20.221  25.894  1.00  0.00    -0.200 F 
ATOM     76  C   UNL A   1      44.425  21.821  24.846  1.00  0.00     0.200 A 
ATOM     77  F   UNL A   1      45.743  23.489  23.840  1.00  0.00    -0.200 F 
ATOM     78  F   UNL A   1      44.756  20.951  23.882  1.00  0.00    -0.200 F 
ENDBRANCH  54  68
BRANCH  55  79
ATOM     79  C   UNL A   1      41.611  30.957  33.407  1.00  0.00     0.064 A 
ATOM     80  C   UNL A   1      41.601  32.369  33.294  1.00  0.00     0.173 A 
ATOM     81  C   UNL A   1      40.360  30.330  33.513  1.00  0.00     0.173 A 
ATOM     82  F   UNL A   1      42.758  33.033  33.143  1.00  0.00    -0.203 F 
ATOM     83  C   UNL A   1      40.414  33.093  33.151  1.00  0.00     0.198 A 
ATOM     84  C   UNL A   1      39.170  31.060  33.363  1.00  0.00     0.198 A 
ATOM     85  F   UNL A   1      40.283  28.995  33.600  1.00  0.00    -0.203 F 
ATOM     86  F   UNL A   1      40.459  34.396  32.833  1.00  0.00    -0.200 F 
ATOM     87  C   UNL A   1      39.200  32.430  33.146  1.00  0.00     0.200 A 
ATOM     88  F   UNL A   1      37.996  30.415  33.302  1.00  0.00    -0.200 F 
ATOM     89  F   UNL A   1      38.079  33.089  32.810  1.00  0.00    -0.200 F 
ENDBRANCH  55  79
BRANCH  67  90
ATOM     90  C   UNL A   1      45.597  24.712  33.212  1.00  0.00     0.064 A 
ATOM     91  C   UNL A   1      46.914  24.537  33.648  1.00  0.00     0.173 A 
ATOM     92  C   UNL A   1      44.739  23.619  33.496  1.00  0.00     0.173 A 
ATOM     93  F   UNL A   1      47.912  25.292  33.178  1.00  0.00    -0.203 F 
ATOM     94  C   UNL A   1      47.275  23.506  34.518  1.00  0.00     0.198 A 
ATOM     95  C   UNL A   1      45.106  22.569  34.331  1.00  0.00     0.198 A 
ATOM     96  F   UNL A   1      43.515  23.501  32.969  1.00  0.00    -0.203 F 
ATOM     97  F   UNL A   1      48.528  23.452  34.990  1.00  0.00    -0.200 F 
ATOM     98  C   UNL A   1      46.360  22.542  34.888  1.00  0.00     0.200 A 
ATOM     99  F   UNL A   1      44.220  21.600  34.598  1.00  0.00    -0.200 F 
ATOM    100  F   UNL A   1      46.700  21.566  35.739  1.00  0.00    -0.200 F 
ENDBRANCH  67  90
ENDBRANCH  41  42
ENDBRANCH  34  36
ENDBRANCH  33  34
ENDBRANCH  32  33
ENDBRANCH  31  32
ENDBRANCH   1  31
TORSDOF 17
ENDMDL
MODEL 3
REMARK VINA RESULT:     -13.1      1.500      4.322
REMARK SMILES CC(=O)Nc1cnc(N2CC=C(c3ccccc3C)CC2)c(C(=O)OCCOCCOC(=O)c2ccc(-c3c4nc(c(-c5c(F)c(F)c(F)c(F)c5F)c5ccc([nH]5)c(-c5c(F)c(F)c(F)c(F)c5F)c5nc(c(-c6c(F)c(F)c(F)c(F)c6F)c6ccc3[nH]6)C=C5)C=C4)cc2)c1
REMARK SMILES IDX 28 1 27 2 26 3 25 4 23 5 24 6 22 7 5 8 6 9 97 10 7 11 8 12
REMARK SMILES IDX 4 13 1 14 2 15 3 16 9 18 10 19 21 20 11 21 20 22 12 23 13 24
REMARK SMILES IDX 14 25 18 26 15 27 17 28 19 29 16 30 29 31 30 32 31 33 32 34
REMARK SMILES IDX 33 35 34 36 35 37 96 38 36 39 95 40 37 41 38 42 39 43 89 44
REMARK SMILES IDX 40 45 94 46 88 47 90 48 41 49 93 50 87 51 86 52 42 54 74 55
REMARK SMILES IDX 54 56 73 57 55 58 58 59 72 60 91 61 56 62 57 63 71 65 92 66
REMARK SMILES IDX 59 67 43 68 44 69 52 70 45 71 46 72 50 73 53 74 47 75 48 76
REMARK SMILES IDX 51 77 49 78 75 79 76 80 84 81 77 82 78 83 82 84 85 85 79 86
REMARK SMILES IDX 80 87 83 88 81 89 60 90 61 91 69 92 62 93 63 94 67 95 70 96
REMARK SMILES IDX 64 97 65 98 68 99 66 100
REMARK H PARENT 4 17 90 53 58 64
REMARK Flexibility Score: inf
ROOT
ATOM      1  O   UNL A   1      32.976  29.812  27.266  1.00  0.00    -0.374 OA
ENDROOT
BRANCH   1   2
ATOM      2  C   UNL A   1      34.059  29.057  26.737  1.00  0.00     0.202 C 
BRANCH   2   3
ATOM      3  C   UNL A   1      33.553  27.663  26.772  1.00  0.00     0.261 C 
BRANCH   3   4
ATOM      4  O   UNL A   1      32.851  27.386  25.560  1.00  0.00    -0.460 OA
BRANCH   4   5
ATOM      5  C   UNL A   1      31.488  27.354  25.584  1.00  0.00     0.342 C 
ATOM      6  O   UNL A   1      30.792  26.913  26.463  1.00  0.00    -0.246 OA
BRANCH   5   7
ATOM      7  C   UNL A   1      31.039  27.918  24.307  1.00  0.00     0.104 A 
ATOM      8  C   UNL A   1      30.139  29.867  23.198  1.00  0.00     0.060 A 
ATOM      9  C   UNL A   1      29.979  29.049  22.094  1.00  0.00     0.139 A 
ATOM     10  C   UNL A   1      30.663  29.267  24.317  1.00  0.00     0.047 A 
ATOM     11  N   UNL A   1      30.399  27.750  22.035  1.00  0.00    -0.236 NA
ATOM     12  C   UNL A   1      30.930  27.165  23.143  1.00  0.00     0.143 A 
BRANCH   8  13
ATOM     13  N   UNL A   1      29.692  31.197  23.247  1.00  0.00    -0.325 N 
ATOM     14  C   UNL A   1      27.271  30.744  23.653  1.00  0.00     0.114 C 
ATOM     15  C   UNL A   1      28.395  31.662  23.217  1.00  0.00     0.221 C 
ATOM     16  O   UNL A   1      28.174  32.834  22.917  1.00  0.00    -0.275 OA
ATOM     17  H   UNL A   1      30.393  31.885  23.311  1.00  0.00     0.169 HD
ENDBRANCH   8  13
BRANCH  12  18
ATOM     18  N   UNL A   1      31.239  25.825  23.038  1.00  0.00    -0.352 N 
ATOM     19  C   UNL A   1      30.227  24.874  23.483  1.00  0.00     0.146 C 
ATOM     20  C   UNL A   1      32.117  25.344  21.972  1.00  0.00     0.123 C 
ATOM     21  C   UNL A   1      30.883  23.536  23.734  1.00  0.00    -0.002 C 
ATOM     22  C   UNL A   1      32.944  24.171  22.486  1.00  0.00     0.057 C 
ATOM     23  C   UNL A   1      32.129  23.217  23.327  1.00  0.00    -0.041 C 
BRANCH  23  24
ATOM     24  C   UNL A   1      32.769  21.951  23.742  1.00  0.00    -0.020 A 
ATOM     25  C   UNL A   1      32.196  20.733  23.336  1.00  0.00     0.008 A 
ATOM     26  C   UNL A   1      33.932  21.923  24.544  1.00  0.00    -0.044 A 
ATOM     27  C   UNL A   1      32.761  19.511  23.710  1.00  0.00     0.001 A 
ATOM     28  C   UNL A   1      34.498  20.686  24.895  1.00  0.00     0.004 A 
ATOM     29  C   UNL A   1      34.623  23.168  25.034  1.00  0.00     0.045 C 
ATOM     30  C   UNL A   1      33.913  19.489  24.489  1.00  0.00     0.000 A 
ENDBRANCH  23  24
ENDBRANCH  12  18
ENDBRANCH   5   7
ENDBRANCH   4   5
ENDBRANCH   3   4
ENDBRANCH   2   3
ENDBRANCH   1   2
BRANCH   1  31
ATOM     31  C   UNL A   1      33.197  31.203  27.324  1.00  0.00     0.202 C 
BRANCH  31  32
ATOM     32  C   UNL A   1      34.607  31.551  27.810  1.00  0.00     0.261 C 
BRANCH  32  33
ATOM     33  O   UNL A   1      34.677  32.969  28.083  1.00  0.00    -0.460 OA
BRANCH  33  34
ATOM     34  C   UNL A   1      34.654  33.330  29.399  1.00  0.00     0.338 C 
ATOM     35  O   UNL A   1      33.731  33.897  29.958  1.00  0.00    -0.246 OA
BRANCH  34  36
ATOM     36  C   UNL A   1      36.032  33.232  29.971  1.00  0.00     0.060 A 
ATOM     37  C   UNL A   1      37.144  33.620  29.194  1.00  0.00     0.016 A 
ATOM     38  C   UNL A   1      36.223  32.447  31.106  1.00  0.00     0.016 A 
ATOM     39  C   UNL A   1      38.418  33.093  29.461  1.00  0.00     0.010 A 
ATOM     40  C   UNL A   1      37.451  31.851  31.298  1.00  0.00     0.010 A 
ATOM     41  C   UNL A   1      38.550  32.141  30.466  1.00  0.00    -0.014 A 
BRANCH  41  42
ATOM     42  C   UNL A   1      39.739  31.325  30.737  1.00  0.00     0.031 A 
ATOM     43  C   UNL A   1      39.840  30.041  30.022  1.00  0.00     0.074 A 
ATOM     44  C   UNL A   1      40.838  31.821  31.360  1.00  0.00     0.049 A 
ATOM     45  N   UNL A   1      40.745  29.163  30.261  1.00  0.00    -0.248 NA
ATOM     46  C   UNL A   1      38.896  29.608  29.001  1.00  0.00     0.031 C 
ATOM     47  C   UNL A   1      42.241  31.406  31.222  1.00  0.00     0.029 A 
ATOM     48  N   UNL A   1      40.945  32.916  32.226  1.00  0.00    -0.354 N 
ATOM     49  C   UNL A   1      40.721  28.240  29.248  1.00  0.00     0.074 A 
ATOM     50  C   UNL A   1      39.478  28.490  28.565  1.00  0.00     0.031 C 
ATOM     51  C   UNL A   1      42.989  32.018  32.159  1.00  0.00     0.029 A 
ATOM     52  C   UNL A   1      42.077  32.739  33.030  1.00  0.00     0.049 A 
ATOM     53  H   UNL A   1      40.327  33.681  32.262  1.00  0.00     0.167 HD
ATOM     54  C   UNL A   1      41.837  27.473  29.075  1.00  0.00     0.037 A 
ATOM     55  C   UNL A   1      41.917  32.630  34.373  1.00  0.00     0.037 A 
ATOM     56  C   UNL A   1      42.828  27.772  30.142  1.00  0.00     0.049 A 
ATOM     57  C   UNL A   1      42.259  31.222  34.779  1.00  0.00     0.074 A 
ATOM     58  C   UNL A   1      44.045  28.436  30.181  1.00  0.00     0.029 A 
ATOM     59  N   UNL A   1      42.434  27.669  31.482  1.00  0.00    -0.354 N 
ATOM     60  N   UNL A   1      42.498  30.269  33.918  1.00  0.00    -0.248 NA
ATOM     61  C   UNL A   1      42.373  30.764  36.146  1.00  0.00     0.031 C 
ATOM     62  C   UNL A   1      44.377  28.700  31.550  1.00  0.00     0.029 A 
ATOM     63  C   UNL A   1      43.383  28.174  32.359  1.00  0.00     0.049 A 
ATOM     64  H   UNL A   1      41.577  27.280  31.770  1.00  0.00     0.167 HD
ATOM     65  C   UNL A   1      42.841  29.112  34.544  1.00  0.00     0.074 A 
ATOM     66  C   UNL A   1      42.677  29.466  35.952  1.00  0.00     0.031 C 
ATOM     67  C   UNL A   1      43.208  28.004  33.815  1.00  0.00     0.037 A 
BRANCH  54  68
ATOM     68  C   UNL A   1      42.126  26.599  27.854  1.00  0.00     0.064 A 
ATOM     69  C   UNL A   1      41.393  25.411  27.636  1.00  0.00     0.173 A 
ATOM     70  C   UNL A   1      43.112  26.838  26.870  1.00  0.00     0.173 A 
ATOM     71  F   UNL A   1      40.390  25.052  28.447  1.00  0.00    -0.203 F 
ATOM     72  C   UNL A   1      41.655  24.537  26.568  1.00  0.00     0.198 A 
ATOM     73  C   UNL A   1      43.390  25.956  25.817  1.00  0.00     0.198 A 
ATOM     74  F   UNL A   1      43.840  27.950  26.830  1.00  0.00    -0.203 F 
ATOM     75  F   UNL A   1      40.921  23.425  26.425  1.00  0.00    -0.200 F 
ATOM     76  C   UNL A   1      42.662  24.804  25.665  1.00  0.00     0.200 A 
ATOM     77  F   UNL A   1      44.370  26.253  24.949  1.00  0.00    -0.200 F 
ATOM     78  F   UNL A   1      42.917  23.969  24.648  1.00  0.00    -0.200 F 
ENDBRANCH  54  68
BRANCH  55  79
ATOM     79  C   UNL A   1      40.841  33.554  34.873  1.00  0.00     0.064 A 
ATOM     80  C   UNL A   1      39.599  32.966  35.217  1.00  0.00     0.173 A 
ATOM     81  C   UNL A   1      41.145  34.777  35.490  1.00  0.00     0.173 A 
ATOM     82  F   UNL A   1      39.261  31.774  34.700  1.00  0.00    -0.203 F 
ATOM     83  C   UNL A   1      38.781  33.494  36.220  1.00  0.00     0.198 A 
ATOM     84  C   UNL A   1      40.324  35.300  36.502  1.00  0.00     0.198 A 
ATOM     85  F   UNL A   1      42.311  35.387  35.234  1.00  0.00    -0.203 F 
ATOM     86  F   UNL A   1      37.726  32.791  36.662  1.00  0.00    -0.200 F 
ATOM     87  C   UNL A   1      39.167  34.641  36.890  1.00  0.00     0.200 A 
ATOM     88  F   UNL A   1      40.721  36.381  37.190  1.00  0.00    -0.200 F 
ATOM     89  F   UNL A   1      38.494  35.037  37.982  1.00  0.00    -0.200 F 
ENDBRANCH  55  79
BRANCH  67  90
ATOM     90  C   UNL A   1      43.367  26.604  34.380  1.00  0.00     0.064 A 
ATOM     91  C   UNL A   1      42.347  25.868  34.988  1.00  0.00     0.173 A 
ATOM     92  C   UNL A   1      44.597  25.907  34.261  1.00  0.00     0.173 A 
ATOM     93  F   UNL A   1      41.255  26.462  35.479  1.00  0.00    -0.203 F 
ATOM     94  C   UNL A   1      42.453  24.492  35.205  1.00  0.00     0.198 A 
ATOM     95  C   UNL A   1      44.720  24.545  34.512  1.00  0.00     0.198 A 
ATOM     96  F   UNL A   1      45.742  26.507  33.916  1.00  0.00    -0.203 F 
ATOM     97  F   UNL A   1      41.401  23.819  35.689  1.00  0.00    -0.200 F 
ATOM     98  C   UNL A   1      43.629  23.824  34.932  1.00  0.00     0.200 A 
ATOM     99  F   UNL A   1      45.903  23.944  34.323  1.00  0.00    -0.200 F 
ATOM    100  F   UNL A   1      43.725  22.503  35.119  1.00  0.00    -0.200 F 
ENDBRANCH  67  90
ENDBRANCH  41  42
ENDBRANCH  34  36
ENDBRANCH  33  34
ENDBRANCH  32  33
ENDBRANCH  31  32
ENDBRANCH   1  31
TORSDOF 17
ENDMDL
