MODEL 1
REMARK VINA RESULT:     -11.8      0.000      0.000
REMARK SMILES CC[C@@H]1CCC[C@@H]([NH+]2CC(n3cc(C(=O)OCCOCCOC(=O)c4ccc(-c5c6nc(c(-c7c(F)c(F)c(F)c(F)c7F)c7ccc([nH]7)c(-c7c(F)c(F)c(F)c(F)c7F)c7nc(c(-c8c(F)c(F)c(F)c(F)c8F)c8ccc5[nH]8)C=C7)C=C6)cc4)nn3)C2)C1
REMARK SMILES IDX 18 1 17 2 16 3 14 4 15 5 13 6 11 7 12 8 89 9 88 10 10 11
REMARK SMILES IDX 8 12 9 13 90 14 7 16 3 17 4 18 91 19 5 20 6 21 2 22 1 23
REMARK SMILES IDX 19 24 20 25 21 26 22 27 23 28 24 29 25 30 26 31 87 32 27 33
REMARK SMILES IDX 86 34 28 35 29 36 30 37 80 38 31 39 85 40 79 41 81 42 32 43
REMARK SMILES IDX 84 44 78 45 77 46 33 48 65 49 45 50 64 51 46 52 49 53 63 54
REMARK SMILES IDX 82 55 47 56 48 57 62 59 83 60 50 61 34 62 35 63 43 64 36 65
REMARK SMILES IDX 37 66 41 67 44 68 38 69 39 70 42 71 40 72 66 73 67 74 75 75
REMARK SMILES IDX 68 76 69 77 73 78 76 79 70 80 71 81 74 82 72 83 51 84 52 85
REMARK SMILES IDX 60 86 53 87 54 88 58 89 61 90 55 91 56 92 59 93 57 94
REMARK H PARENT 8 15 81 47 49 58
REMARK Flexibility Score: inf
ROOT
ATOM      1  C   UNL A   1      44.033  18.903  25.226  1.00  0.00     0.202 C 
ENDROOT
BRANCH   1   2
ATOM      2  C   UNL A   1      42.768  18.656  26.048  1.00  0.00     0.261 C 
BRANCH   2   3
ATOM      3  O   UNL A   1      41.613  19.290  25.482  1.00  0.00    -0.458 OA
BRANCH   3   4
ATOM      4  C   UNL A   1      40.849  19.987  26.373  1.00  0.00     0.360 C 
ATOM      5  O   UNL A   1      41.238  20.360  27.479  1.00  0.00    -0.244 OA
BRANCH   4   6
ATOM      6  C   UNL A   1      39.549  20.332  25.836  1.00  0.00     0.190 A 
ATOM      7  N   UNL A   1      37.685  21.279  25.275  1.00  0.00    -0.237 N 
ATOM      8  C   UNL A   1      38.832  21.505  25.982  1.00  0.00     0.147 A 
ATOM      9  N   UNL A   1      37.647  20.023  24.802  1.00  0.00    -0.066 NA
ATOM     10  N   UNL A   1      38.794  19.441  25.115  1.00  0.00    -0.123 NA
BRANCH   7  11
ATOM     11  C   UNL A   1      36.536  22.111  25.355  1.00  0.00     0.218 C 
ATOM     12  N   UNL A   1      35.670  23.813  24.448  1.00  0.00    -0.329 N 
ATOM     13  C   UNL A   1      35.852  22.412  24.015  1.00  0.00     0.296 C 
ATOM     14  C   UNL A   1      36.801  23.627  25.404  1.00  0.00     0.296 C 
ATOM     15  H   UNL A   1      35.658  24.556  23.749  1.00  0.00     0.348 HD
BRANCH  12  16
ATOM     16  C   UNL A   1      34.384  24.175  25.090  1.00  0.00     0.184 C 
ATOM     17  C   UNL A   1      33.880  26.537  24.136  1.00  0.00    -0.006 C 
ATOM     18  C   UNL A   1      32.588  25.989  23.498  1.00  0.00     0.004 C 
ATOM     19  C   UNL A   1      34.301  25.699  25.358  1.00  0.00     0.068 C 
ATOM     20  C   UNL A   1      32.562  24.477  23.290  1.00  0.00     0.006 C 
ATOM     21  C   UNL A   1      33.028  23.710  24.522  1.00  0.00     0.065 C 
BRANCH  17  22
ATOM     22  C   UNL A   1      33.729  28.060  24.376  1.00  0.00     0.000 C 
ATOM     23  C   UNL A   1      33.239  28.897  23.208  1.00  0.00     0.004 C 
ENDBRANCH  17  22
ENDBRANCH  12  16
ENDBRANCH   7  11
ENDBRANCH   4   6
ENDBRANCH   3   4
ENDBRANCH   2   3
ENDBRANCH   1   2
BRANCH   1  24
ATOM     24  O   UNL A   1      44.075  20.067  24.405  1.00  0.00    -0.374 OA
BRANCH  24  25
ATOM     25  C   UNL A   1      44.681  21.263  24.889  1.00  0.00     0.202 C 
BRANCH  25  26
ATOM     26  C   UNL A   1      43.972  22.012  26.007  1.00  0.00     0.261 C 
BRANCH  26  27
ATOM     27  O   UNL A   1      42.879  22.766  25.506  1.00  0.00    -0.460 OA
BRANCH  27  28
ATOM     28  C   UNL A   1      43.127  24.088  25.380  1.00  0.00     0.338 C 
ATOM     29  O   UNL A   1      43.989  24.624  24.703  1.00  0.00    -0.246 OA
BRANCH  28  30
ATOM     30  C   UNL A   1      42.277  24.801  26.334  1.00  0.00     0.060 A 
ATOM     31  C   UNL A   1      41.389  25.725  25.780  1.00  0.00     0.016 A 
ATOM     32  C   UNL A   1      42.640  24.824  27.689  1.00  0.00     0.016 A 
ATOM     33  C   UNL A   1      41.097  26.846  26.515  1.00  0.00     0.010 A 
ATOM     34  C   UNL A   1      42.366  25.953  28.412  1.00  0.00     0.010 A 
ATOM     35  C   UNL A   1      41.691  26.988  27.774  1.00  0.00    -0.014 A 
BRANCH  35  36
ATOM     36  C   UNL A   1      41.487  28.226  28.482  1.00  0.00     0.031 A 
ATOM     37  C   UNL A   1      42.561  29.196  28.187  1.00  0.00     0.074 A 
ATOM     38  C   UNL A   1      40.386  28.461  29.220  1.00  0.00     0.049 A 
ATOM     39  N   UNL A   1      43.480  29.620  28.988  1.00  0.00    -0.248 NA
ATOM     40  C   UNL A   1      42.769  29.568  26.776  1.00  0.00     0.031 C 
ATOM     41  C   UNL A   1      39.170  27.654  29.338  1.00  0.00     0.029 A 
ATOM     42  N   UNL A   1      40.096  29.559  29.966  1.00  0.00    -0.354 N 
ATOM     43  C   UNL A   1      44.249  30.488  28.224  1.00  0.00     0.074 A 
ATOM     44  C   UNL A   1      43.918  30.235  26.849  1.00  0.00     0.031 C 
ATOM     45  C   UNL A   1      38.195  28.397  29.916  1.00  0.00     0.029 A 
ATOM     46  C   UNL A   1      38.755  29.673  30.324  1.00  0.00     0.049 A 
ATOM     47  H   UNL A   1      40.777  30.218  30.233  1.00  0.00     0.167 HD
ATOM     48  C   UNL A   1      44.843  31.565  28.803  1.00  0.00     0.037 A 
ATOM     49  C   UNL A   1      38.182  30.800  30.820  1.00  0.00     0.037 A 
ATOM     50  C   UNL A   1      45.010  31.364  30.222  1.00  0.00     0.049 A 
ATOM     51  C   UNL A   1      39.288  31.656  31.340  1.00  0.00     0.074 A 
ATOM     52  C   UNL A   1      45.655  30.408  30.986  1.00  0.00     0.029 A 
ATOM     53  N   UNL A   1      44.130  31.983  31.075  1.00  0.00    -0.354 N 
ATOM     54  N   UNL A   1      40.011  31.343  32.381  1.00  0.00    -0.248 NA
ATOM     55  C   UNL A   1      39.903  32.586  30.402  1.00  0.00     0.031 C 
ATOM     56  C   UNL A   1      44.782  30.166  32.089  1.00  0.00     0.029 A 
ATOM     57  C   UNL A   1      43.703  31.041  31.979  1.00  0.00     0.049 A 
ATOM     58  H   UNL A   1      43.854  32.928  31.045  1.00  0.00     0.167 HD
ATOM     59  C   UNL A   1      41.307  31.686  32.023  1.00  0.00     0.074 A 
ATOM     60  C   UNL A   1      41.172  32.488  30.809  1.00  0.00     0.031 C 
ATOM     61  C   UNL A   1      42.384  31.046  32.565  1.00  0.00     0.037 A 
BRANCH  48  62
ATOM     62  C   UNL A   1      44.866  32.924  28.149  1.00  0.00     0.064 A 
ATOM     63  C   UNL A   1      46.082  33.409  27.636  1.00  0.00     0.173 A 
ATOM     64  C   UNL A   1      43.831  33.883  28.262  1.00  0.00     0.173 A 
ATOM     65  F   UNL A   1      47.141  32.596  27.512  1.00  0.00    -0.203 F 
ATOM     66  C   UNL A   1      46.264  34.760  27.327  1.00  0.00     0.198 A 
ATOM     67  C   UNL A   1      43.998  35.215  27.898  1.00  0.00     0.198 A 
ATOM     68  F   UNL A   1      42.652  33.613  28.833  1.00  0.00    -0.203 F 
ATOM     69  F   UNL A   1      47.477  35.197  26.964  1.00  0.00    -0.200 F 
ATOM     70  C   UNL A   1      45.225  35.661  27.462  1.00  0.00     0.200 A 
ATOM     71  F   UNL A   1      42.981  36.073  28.059  1.00  0.00    -0.200 F 
ATOM     72  F   UNL A   1      45.415  36.965  27.224  1.00  0.00    -0.200 F 
ENDBRANCH  48  62
BRANCH  49  73
ATOM     73  C   UNL A   1      36.840  31.366  30.521  1.00  0.00     0.064 A 
ATOM     74  C   UNL A   1      35.972  31.740  31.564  1.00  0.00     0.173 A 
ATOM     75  C   UNL A   1      36.507  31.834  29.236  1.00  0.00     0.173 A 
ATOM     76  F   UNL A   1      36.238  31.374  32.826  1.00  0.00    -0.203 F 
ATOM     77  C   UNL A   1      34.866  32.567  31.339  1.00  0.00     0.198 A 
ATOM     78  C   UNL A   1      35.398  32.654  29.013  1.00  0.00     0.198 A 
ATOM     79  F   UNL A   1      37.304  31.595  28.185  1.00  0.00    -0.203 F 
ATOM     80  F   UNL A   1      34.105  32.961  32.371  1.00  0.00    -0.200 F 
ATOM     81  C   UNL A   1      34.588  33.034  30.067  1.00  0.00     0.200 A 
ATOM     82  F   UNL A   1      35.162  33.131  27.782  1.00  0.00    -0.200 F 
ATOM     83  F   UNL A   1      33.572  33.883  29.861  1.00  0.00    -0.200 F 
ENDBRANCH  49  73
BRANCH  61  84
ATOM     84  C   UNL A   1      42.142  30.113  33.719  1.00  0.00     0.064 A 
ATOM     85  C   UNL A   1      41.754  28.768  33.583  1.00  0.00     0.173 A 
ATOM     86  C   UNL A   1      42.451  30.563  35.010  1.00  0.00     0.173 A 
ATOM     87  F   UNL A   1      41.540  28.231  32.374  1.00  0.00    -0.203 F 
ATOM     88  C   UNL A   1      41.637  27.931  34.694  1.00  0.00     0.198 A 
ATOM     89  C   UNL A   1      42.371  29.717  36.112  1.00  0.00     0.198 A 
ATOM     90  F   UNL A   1      42.881  31.822  35.195  1.00  0.00    -0.203 F 
ATOM     91  F   UNL A   1      41.251  26.656  34.539  1.00  0.00    -0.200 F 
ATOM     92  C   UNL A   1      41.952  28.406  35.956  1.00  0.00     0.200 A 
ATOM     93  F   UNL A   1      42.726  30.168  37.322  1.00  0.00    -0.200 F 
ATOM     94  F   UNL A   1      41.879  27.593  37.020  1.00  0.00    -0.200 F 
ENDBRANCH  61  84
ENDBRANCH  35  36
ENDBRANCH  28  30
ENDBRANCH  27  28
ENDBRANCH  26  27
ENDBRANCH  25  26
ENDBRANCH  24  25
ENDBRANCH   1  24
TORSDOF 17
ENDMDL
MODEL 2
REMARK VINA RESULT:     -11.6      4.309      9.496
REMARK SMILES CC[C@@H]1CCC[C@@H]([NH+]2CC(n3cc(C(=O)OCCOCCOC(=O)c4ccc(-c5c6nc(c(-c7c(F)c(F)c(F)c(F)c7F)c7ccc([nH]7)c(-c7c(F)c(F)c(F)c(F)c7F)c7nc(c(-c8c(F)c(F)c(F)c(F)c8F)c8ccc5[nH]8)C=C7)C=C6)cc4)nn3)C2)C1
REMARK SMILES IDX 18 1 17 2 16 3 14 4 15 5 13 6 11 7 12 8 89 9 88 10 10 11
REMARK SMILES IDX 8 12 9 13 90 14 7 16 3 17 4 18 91 19 5 20 6 21 2 22 1 23
REMARK SMILES IDX 19 24 20 25 21 26 22 27 23 28 24 29 25 30 26 31 87 32 27 33
REMARK SMILES IDX 86 34 28 35 29 36 30 37 80 38 31 39 85 40 79 41 81 42 32 43
REMARK SMILES IDX 84 44 78 45 77 46 33 48 65 49 45 50 64 51 46 52 49 53 63 54
REMARK SMILES IDX 82 55 47 56 48 57 62 59 83 60 50 61 34 62 35 63 43 64 36 65
REMARK SMILES IDX 37 66 41 67 44 68 38 69 39 70 42 71 40 72 66 73 67 74 75 75
REMARK SMILES IDX 68 76 69 77 73 78 76 79 70 80 71 81 74 82 72 83 51 84 52 85
REMARK SMILES IDX 60 86 53 87 54 88 58 89 61 90 55 91 56 92 59 93 57 94
REMARK H PARENT 8 15 81 47 49 58
REMARK Flexibility Score: inf
ROOT
ATOM      1  C   UNL A   1      34.811  32.790  28.024  1.00  0.00     0.202 C 
ENDROOT
BRANCH   1   2
ATOM      2  C   UNL A   1      33.483  32.034  28.040  1.00  0.00     0.261 C 
BRANCH   2   3
ATOM      3  O   UNL A   1      33.592  30.723  27.470  1.00  0.00    -0.458 OA
BRANCH   3   4
ATOM      4  C   UNL A   1      32.503  30.318  26.754  1.00  0.00     0.360 C 
ATOM      5  O   UNL A   1      31.749  31.077  26.147  1.00  0.00    -0.244 OA
BRANCH   4   6
ATOM      6  C   UNL A   1      32.381  28.875  26.699  1.00  0.00     0.190 A 
ATOM      7  N   UNL A   1      32.582  26.758  26.297  1.00  0.00    -0.237 N 
ATOM      8  C   UNL A   1      33.131  27.967  25.976  1.00  0.00     0.147 A 
ATOM      9  N   UNL A   1      31.508  26.909  27.089  1.00  0.00    -0.066 NA
ATOM     10  N   UNL A   1      31.390  28.197  27.365  1.00  0.00    -0.123 NA
BRANCH   7  11
ATOM     11  C   UNL A   1      32.862  25.555  25.594  1.00  0.00     0.218 C 
ATOM     12  N   UNL A   1      33.337  23.524  25.932  1.00  0.00    -0.329 N 
ATOM     13  C   UNL A   1      32.100  24.318  26.085  1.00  0.00     0.296 C 
ATOM     14  C   UNL A   1      34.120  24.789  26.040  1.00  0.00     0.296 C 
ATOM     15  H   UNL A   1      33.497  22.724  26.544  1.00  0.00     0.348 HD
BRANCH  12  16
ATOM     16  C   UNL A   1      33.534  22.793  24.658  1.00  0.00     0.184 C 
ATOM     17  C   UNL A   1      35.701  21.426  25.077  1.00  0.00    -0.006 C 
ATOM     18  C   UNL A   1      34.902  20.123  24.875  1.00  0.00     0.004 C 
ATOM     19  C   UNL A   1      35.041  22.608  24.344  1.00  0.00     0.068 C 
ATOM     20  C   UNL A   1      33.395  20.252  25.075  1.00  0.00     0.006 C 
ATOM     21  C   UNL A   1      32.812  21.464  24.358  1.00  0.00     0.065 C 
BRANCH  17  22
ATOM     22  C   UNL A   1      37.194  21.171  24.748  1.00  0.00     0.000 C 
ATOM     23  C   UNL A   1      37.677  19.733  24.810  1.00  0.00     0.004 C 
ENDBRANCH  17  22
ENDBRANCH  12  16
ENDBRANCH   7  11
ENDBRANCH   4   6
ENDBRANCH   3   4
ENDBRANCH   2   3
ENDBRANCH   1   2
BRANCH   1  24
ATOM     24  O   UNL A   1      34.934  33.936  28.864  1.00  0.00    -0.374 OA
BRANCH  24  25
ATOM     25  C   UNL A   1      34.014  35.017  28.739  1.00  0.00     0.202 C 
BRANCH  25  26
ATOM     26  C   UNL A   1      33.296  35.483  29.997  1.00  0.00     0.261 C 
BRANCH  26  27
ATOM     27  O   UNL A   1      33.374  34.506  31.023  1.00  0.00    -0.460 OA
BRANCH  27  28
ATOM     28  C   UNL A   1      33.715  34.998  32.234  1.00  0.00     0.338 C 
ATOM     29  O   UNL A   1      33.299  36.011  32.772  1.00  0.00    -0.246 OA
BRANCH  28  30
ATOM     30  C   UNL A   1      34.815  34.188  32.759  1.00  0.00     0.060 A 
ATOM     31  C   UNL A   1      36.019  34.864  32.965  1.00  0.00     0.016 A 
ATOM     32  C   UNL A   1      34.743  32.791  32.659  1.00  0.00     0.016 A 
ATOM     33  C   UNL A   1      37.183  34.163  32.776  1.00  0.00     0.010 A 
ATOM     34  C   UNL A   1      35.904  32.098  32.449  1.00  0.00     0.010 A 
ATOM     35  C   UNL A   1      37.093  32.817  32.404  1.00  0.00    -0.014 A 
BRANCH  35  36
ATOM     36  C   UNL A   1      38.314  32.123  32.077  1.00  0.00     0.031 A 
ATOM     37  C   UNL A   1      39.140  31.894  33.280  1.00  0.00     0.074 A 
ATOM     38  C   UNL A   1      38.573  31.667  30.838  1.00  0.00     0.049 A 
ATOM     39  N   UNL A   1      40.270  32.443  33.574  1.00  0.00    -0.248 NA
ATOM     40  C   UNL A   1      38.528  31.136  34.387  1.00  0.00     0.031 C 
ATOM     41  C   UNL A   1      37.690  31.624  29.671  1.00  0.00     0.029 A 
ATOM     42  N   UNL A   1      39.695  31.043  30.393  1.00  0.00    -0.354 N 
ATOM     43  C   UNL A   1      40.613  31.917  34.813  1.00  0.00     0.074 A 
ATOM     44  C   UNL A   1      39.422  31.324  35.355  1.00  0.00     0.031 C 
ATOM     45  C   UNL A   1      38.226  30.805  28.734  1.00  0.00     0.029 A 
ATOM     46  C   UNL A   1      39.539  30.376  29.180  1.00  0.00     0.049 A 
ATOM     47  H   UNL A   1      40.548  31.061  30.885  1.00  0.00     0.167 HD
ATOM     48  C   UNL A   1      41.918  31.723  35.137  1.00  0.00     0.037 A 
ATOM     49  C   UNL A   1      40.418  29.468  28.680  1.00  0.00     0.037 A 
ATOM     50  C   UNL A   1      42.779  32.570  34.346  1.00  0.00     0.049 A 
ATOM     51  C   UNL A   1      41.716  29.690  29.381  1.00  0.00     0.074 A 
ATOM     52  C   UNL A   1      42.871  33.937  34.160  1.00  0.00     0.029 A 
ATOM     53  N   UNL A   1      43.447  32.010  33.285  1.00  0.00    -0.354 N 
ATOM     54  N   UNL A   1      42.446  30.759  29.221  1.00  0.00    -0.248 NA
ATOM     55  C   UNL A   1      41.931  28.960  30.624  1.00  0.00     0.031 C 
ATOM     56  C   UNL A   1      43.133  34.104  32.768  1.00  0.00     0.029 A 
ATOM     57  C   UNL A   1      43.267  32.837  32.204  1.00  0.00     0.049 A 
ATOM     58  H   UNL A   1      43.960  31.169  33.296  1.00  0.00     0.167 HD
ATOM     59  C   UNL A   1      42.891  31.074  30.497  1.00  0.00     0.074 A 
ATOM     60  C   UNL A   1      42.576  29.904  31.315  1.00  0.00     0.031 C 
ATOM     61  C   UNL A   1      43.197  32.359  30.843  1.00  0.00     0.037 A 
BRANCH  48  62
ATOM     62  C   UNL A   1      42.400  30.483  35.847  1.00  0.00     0.064 A 
ATOM     63  C   UNL A   1      43.351  30.615  36.874  1.00  0.00     0.173 A 
ATOM     64  C   UNL A   1      42.196  29.163  35.378  1.00  0.00     0.173 A 
ATOM     65  F   UNL A   1      43.648  31.824  37.375  1.00  0.00    -0.203 F 
ATOM     66  C   UNL A   1      44.087  29.524  37.342  1.00  0.00     0.198 A 
ATOM     67  C   UNL A   1      42.887  28.070  35.889  1.00  0.00     0.198 A 
ATOM     68  F   UNL A   1      41.410  28.879  34.333  1.00  0.00    -0.203 F 
ATOM     69  F   UNL A   1      45.071  29.720  38.229  1.00  0.00    -0.200 F 
ATOM     70  C   UNL A   1      43.857  28.254  36.847  1.00  0.00     0.200 A 
ATOM     71  F   UNL A   1      42.661  26.852  35.376  1.00  0.00    -0.200 F 
ATOM     72  F   UNL A   1      44.601  27.217  37.252  1.00  0.00    -0.200 F 
ENDBRANCH  48  62
BRANCH  49  73
ATOM     73  C   UNL A   1      40.129  28.196  27.967  1.00  0.00     0.064 A 
ATOM     74  C   UNL A   1      40.776  27.891  26.756  1.00  0.00     0.173 A 
ATOM     75  C   UNL A   1      39.463  27.130  28.602  1.00  0.00     0.173 A 
ATOM     76  F   UNL A   1      41.471  28.837  26.107  1.00  0.00    -0.203 F 
ATOM     77  C   UNL A   1      40.790  26.592  26.235  1.00  0.00     0.198 A 
ATOM     78  C   UNL A   1      39.472  25.836  28.077  1.00  0.00     0.198 A 
ATOM     79  F   UNL A   1      38.875  27.295  29.795  1.00  0.00    -0.203 F 
ATOM     80  F   UNL A   1      41.479  26.328  25.116  1.00  0.00    -0.200 F 
ATOM     81  C   UNL A   1      40.150  25.564  26.903  1.00  0.00     0.200 A 
ATOM     82  F   UNL A   1      38.881  24.841  28.754  1.00  0.00    -0.200 F 
ATOM     83  F   UNL A   1      40.223  24.307  26.445  1.00  0.00    -0.200 F 
ENDBRANCH  49  73
BRANCH  61  84
ATOM     84  C   UNL A   1      43.254  33.389  29.750  1.00  0.00     0.064 A 
ATOM     85  C   UNL A   1      44.352  33.572  28.890  1.00  0.00     0.173 A 
ATOM     86  C   UNL A   1      42.094  34.125  29.472  1.00  0.00     0.173 A 
ATOM     87  F   UNL A   1      45.462  32.833  29.023  1.00  0.00    -0.203 F 
ATOM     88  C   UNL A   1      44.303  34.484  27.835  1.00  0.00     0.198 A 
ATOM     89  C   UNL A   1      42.034  35.006  28.397  1.00  0.00     0.198 A 
ATOM     90  F   UNL A   1      40.995  33.951  30.224  1.00  0.00    -0.203 F 
ATOM     91  F   UNL A   1      45.369  34.651  27.039  1.00  0.00    -0.200 F 
ATOM     92  C   UNL A   1      43.141  35.195  27.586  1.00  0.00     0.200 A 
ATOM     93  F   UNL A   1      40.890  35.652  28.132  1.00  0.00    -0.200 F 
ATOM     94  F   UNL A   1      43.078  36.042  26.549  1.00  0.00    -0.200 F 
ENDBRANCH  61  84
ENDBRANCH  35  36
ENDBRANCH  28  30
ENDBRANCH  27  28
ENDBRANCH  26  27
ENDBRANCH  25  26
ENDBRANCH  24  25
ENDBRANCH   1  24
TORSDOF 17
ENDMDL
MODEL 3
REMARK VINA RESULT:     -11.5      4.302      9.618
REMARK SMILES CC[C@@H]1CCC[C@@H]([NH+]2CC(n3cc(C(=O)OCCOCCOC(=O)c4ccc(-c5c6nc(c(-c7c(F)c(F)c(F)c(F)c7F)c7ccc([nH]7)c(-c7c(F)c(F)c(F)c(F)c7F)c7nc(c(-c8c(F)c(F)c(F)c(F)c8F)c8ccc5[nH]8)C=C7)C=C6)cc4)nn3)C2)C1
REMARK SMILES IDX 18 1 17 2 16 3 14 4 15 5 13 6 11 7 12 8 89 9 88 10 10 11
REMARK SMILES IDX 8 12 9 13 90 14 7 16 3 17 4 18 91 19 5 20 6 21 2 22 1 23
REMARK SMILES IDX 19 24 20 25 21 26 22 27 23 28 24 29 25 30 26 31 87 32 27 33
REMARK SMILES IDX 86 34 28 35 29 36 30 37 80 38 31 39 85 40 79 41 81 42 32 43
REMARK SMILES IDX 84 44 78 45 77 46 33 48 65 49 45 50 64 51 46 52 49 53 63 54
REMARK SMILES IDX 82 55 47 56 48 57 62 59 83 60 50 61 34 62 35 63 43 64 36 65
REMARK SMILES IDX 37 66 41 67 44 68 38 69 39 70 42 71 40 72 66 73 67 74 75 75
REMARK SMILES IDX 68 76 69 77 73 78 76 79 70 80 71 81 74 82 72 83 51 84 52 85
REMARK SMILES IDX 60 86 53 87 54 88 58 89 61 90 55 91 56 92 59 93 57 94
REMARK H PARENT 8 15 81 47 49 58
REMARK Flexibility Score: inf
ROOT
ATOM      1  C   UNL A   1      31.708  29.844  25.128  1.00  0.00     0.202 C 
ENDROOT
BRANCH   1   2
ATOM      2  C   UNL A   1      30.530  29.578  24.191  1.00  0.00     0.261 C 
BRANCH   2   3
ATOM      3  O   UNL A   1      30.272  28.178  24.020  1.00  0.00    -0.458 OA
BRANCH   3   4
ATOM      4  C   UNL A   1      30.666  27.666  22.818  1.00  0.00     0.360 C 
ATOM      5  O   UNL A   1      30.334  28.123  21.725  1.00  0.00    -0.244 OA
BRANCH   4   6
ATOM      6  C   UNL A   1      31.608  26.575  22.963  1.00  0.00     0.190 A 
ATOM      7  N   UNL A   1      32.638  24.730  23.431  1.00  0.00    -0.237 N 
ATOM      8  C   UNL A   1      31.437  25.358  23.597  1.00  0.00     0.147 A 
ATOM      9  N   UNL A   1      33.525  25.532  22.821  1.00  0.00    -0.066 NA
ATOM     10  N   UNL A   1      32.899  26.654  22.505  1.00  0.00    -0.123 NA
BRANCH   7  11
ATOM     11  C   UNL A   1      33.015  23.555  24.138  1.00  0.00     0.218 C 
ATOM     12  N   UNL A   1      33.173  21.463  23.887  1.00  0.00    -0.329 N 
ATOM     13  C   UNL A   1      33.955  22.610  23.380  1.00  0.00     0.296 C 
ATOM     14  C   UNL A   1      32.017  22.385  24.085  1.00  0.00     0.296 C 
ATOM     15  H   UNL A   1      33.109  20.614  23.325  1.00  0.00     0.348 HD
BRANCH  12  16
ATOM     16  C   UNL A   1      33.644  20.801  25.126  1.00  0.00     0.184 C 
ATOM     17  C   UNL A   1      34.317  18.426  24.322  1.00  0.00    -0.006 C 
ATOM     18  C   UNL A   1      35.767  18.701  24.768  1.00  0.00     0.004 C 
ATOM     19  C   UNL A   1      33.314  19.286  25.113  1.00  0.00     0.068 C 
ATOM     20  C   UNL A   1      36.135  20.176  24.894  1.00  0.00     0.006 C 
ATOM     21  C   UNL A   1      35.082  20.978  25.652  1.00  0.00     0.065 C 
BRANCH  17  22
ATOM     22  C   UNL A   1      34.056  16.898  24.331  1.00  0.00     0.000 C 
ATOM     23  C   UNL A   1      34.979  16.046  25.184  1.00  0.00     0.004 C 
ENDBRANCH  17  22
ENDBRANCH  12  16
ENDBRANCH   7  11
ENDBRANCH   4   6
ENDBRANCH   3   4
ENDBRANCH   2   3
ENDBRANCH   1   2
BRANCH   1  24
ATOM     24  O   UNL A   1      31.699  29.211  26.405  1.00  0.00    -0.374 OA
BRANCH  24  25
ATOM     25  C   UNL A   1      32.760  29.443  27.328  1.00  0.00     0.202 C 
BRANCH  25  26
ATOM     26  C   UNL A   1      33.435  30.806  27.301  1.00  0.00     0.261 C 
BRANCH  26  27
ATOM     27  O   UNL A   1      34.847  30.677  27.240  1.00  0.00    -0.460 OA
BRANCH  27  28
ATOM     28  C   UNL A   1      35.523  31.661  27.871  1.00  0.00     0.338 C 
ATOM     29  O   UNL A   1      35.452  32.863  27.670  1.00  0.00    -0.246 OA
BRANCH  28  30
ATOM     30  C   UNL A   1      36.506  31.039  28.758  1.00  0.00     0.060 A 
ATOM     31  C   UNL A   1      37.580  31.848  29.133  1.00  0.00     0.016 A 
ATOM     32  C   UNL A   1      36.542  29.641  28.864  1.00  0.00     0.016 A 
ATOM     33  C   UNL A   1      38.794  31.240  29.334  1.00  0.00     0.010 A 
ATOM     34  C   UNL A   1      37.758  29.038  29.042  1.00  0.00     0.010 A 
ATOM     35  C   UNL A   1      38.877  29.853  29.166  1.00  0.00    -0.014 A 
BRANCH  35  36
ATOM     36  C   UNL A   1      40.179  29.240  29.246  1.00  0.00     0.031 A 
ATOM     37  C   UNL A   1      40.620  29.097  30.648  1.00  0.00     0.074 A 
ATOM     38  C   UNL A   1      40.825  28.775  28.161  1.00  0.00     0.049 A 
ATOM     39  N   UNL A   1      41.575  29.731  31.242  1.00  0.00    -0.248 NA
ATOM     40  C   UNL A   1      39.752  28.323  31.555  1.00  0.00     0.031 C 
ATOM     41  C   UNL A   1      40.336  28.643  26.787  1.00  0.00     0.029 A 
ATOM     42  N   UNL A   1      42.064  28.221  28.096  1.00  0.00    -0.354 N 
ATOM     43  C   UNL A   1      41.562  29.259  32.548  1.00  0.00     0.074 A 
ATOM     44  C   UNL A   1      40.301  28.596  32.736  1.00  0.00     0.031 C 
ATOM     45  C   UNL A   1      41.175  27.843  26.088  1.00  0.00     0.029 A 
ATOM     46  C   UNL A   1      42.319  27.518  26.922  1.00  0.00     0.049 A 
ATOM     47  H   UNL A   1      42.727  28.311  28.818  1.00  0.00     0.167 HD
ATOM     48  C   UNL A   1      42.721  29.165  33.252  1.00  0.00     0.037 A 
ATOM     49  C   UNL A   1      43.360  26.663  26.744  1.00  0.00     0.037 A 
ATOM     50  C   UNL A   1      43.725  30.052  32.718  1.00  0.00     0.049 A 
ATOM     51  C   UNL A   1      44.372  26.991  27.789  1.00  0.00     0.074 A 
ATOM     52  C   UNL A   1      43.786  31.418  32.509  1.00  0.00     0.029 A 
ATOM     53  N   UNL A   1      44.713  29.516  31.928  1.00  0.00    -0.354 N 
ATOM     54  N   UNL A   1      45.052  28.105  27.808  1.00  0.00    -0.248 NA
ATOM     55  C   UNL A   1      44.249  26.307  29.070  1.00  0.00     0.031 C 
ATOM     56  C   UNL A   1      44.443  31.571  31.251  1.00  0.00     0.029 A 
ATOM     57  C   UNL A   1      44.815  30.303  30.808  1.00  0.00     0.049 A 
ATOM     58  H   UNL A   1      45.249  28.714  32.127  1.00  0.00     0.167 HD
ATOM     59  C   UNL A   1      45.074  28.480  29.143  1.00  0.00     0.074 A 
ATOM     60  C   UNL A   1      44.600  27.310  29.880  1.00  0.00     0.031 C 
ATOM     61  C   UNL A   1      45.184  29.790  29.510  1.00  0.00     0.037 A 
BRANCH  48  62
ATOM     62  C   UNL A   1      43.042  27.978  34.126  1.00  0.00     0.064 A 
ATOM     63  C   UNL A   1      43.283  28.189  35.495  1.00  0.00     0.173 A 
ATOM     64  C   UNL A   1      43.407  26.701  33.637  1.00  0.00     0.173 A 
ATOM     65  F   UNL A   1      43.003  29.373  36.061  1.00  0.00    -0.203 F 
ATOM     66  C   UNL A   1      43.904  27.223  36.291  1.00  0.00     0.198 A 
ATOM     67  C   UNL A   1      43.970  25.720  34.446  1.00  0.00     0.198 A 
ATOM     68  F   UNL A   1      43.347  26.377  32.340  1.00  0.00    -0.203 F 
ATOM     69  F   UNL A   1      44.229  27.518  37.556  1.00  0.00    -0.200 F 
ATOM     70  C   UNL A   1      44.250  25.992  35.766  1.00  0.00     0.200 A 
ATOM     71  F   UNL A   1      44.316  24.543  33.907  1.00  0.00    -0.200 F 
ATOM     72  F   UNL A   1      44.898  25.089  36.511  1.00  0.00    -0.200 F 
ENDBRANCH  48  62
BRANCH  49  73
ATOM     73  C   UNL A   1      43.375  25.357  26.033  1.00  0.00     0.064 A 
ATOM     74  C   UNL A   1      44.433  25.026  25.168  1.00  0.00     0.173 A 
ATOM     75  C   UNL A   1      42.531  24.298  26.419  1.00  0.00     0.173 A 
ATOM     76  F   UNL A   1      45.310  25.965  24.785  1.00  0.00    -0.203 F 
ATOM     77  C   UNL A   1      44.657  23.709  24.749  1.00  0.00     0.198 A 
ATOM     78  C   UNL A   1      42.752  22.986  25.994  1.00  0.00     0.198 A 
ATOM     79  F   UNL A   1      41.536  24.491  27.296  1.00  0.00    -0.203 F 
ATOM     80  F   UNL A   1      45.719  23.422  23.983  1.00  0.00    -0.200 F 
ATOM     81  C   UNL A   1      43.824  22.689  25.174  1.00  0.00     0.200 A 
ATOM     82  F   UNL A   1      41.961  22.001  26.444  1.00  0.00    -0.200 F 
ATOM     83  F   UNL A   1      44.078  21.418  24.833  1.00  0.00    -0.200 F 
ENDBRANCH  49  73
BRANCH  61  84
ATOM     84  C   UNL A   1      45.503  30.797  28.439  1.00  0.00     0.064 A 
ATOM     85  C   UNL A   1      44.543  31.394  27.602  1.00  0.00     0.173 A 
ATOM     86  C   UNL A   1      46.816  31.278  28.353  1.00  0.00     0.173 A 
ATOM     87  F   UNL A   1      43.248  31.064  27.694  1.00  0.00    -0.203 F 
ATOM     88  C   UNL A   1      44.895  32.390  26.691  1.00  0.00     0.198 A 
ATOM     89  C   UNL A   1      47.158  32.298  27.470  1.00  0.00     0.198 A 
ATOM     90  F   UNL A   1      47.765  30.785  29.165  1.00  0.00    -0.203 F 
ATOM     91  F   UNL A   1      43.964  32.934  25.893  1.00  0.00    -0.200 F 
ATOM     92  C   UNL A   1      46.202  32.846  26.631  1.00  0.00     0.200 A 
ATOM     93  F   UNL A   1      48.413  32.769  27.454  1.00  0.00    -0.200 F 
ATOM     94  F   UNL A   1      46.535  33.831  25.785  1.00  0.00    -0.200 F 
ENDBRANCH  61  84
ENDBRANCH  35  36
ENDBRANCH  28  30
ENDBRANCH  27  28
ENDBRANCH  26  27
ENDBRANCH  25  26
ENDBRANCH  24  25
ENDBRANCH   1  24
TORSDOF 17
ENDMDL
