MODEL 1
REMARK VINA RESULT:      -9.4      0.000      0.000
REMARK SMILES C#CCN(CC(=O)OCCOCCOC(=O)c1ccc(-c2c3nc(c(-c4c(F)c(F)c(F)c(F)c4F)c4ccc([nH]4)c(-c4c(F)c(F)c(F)c(F)c4F)c4nc(c(-c5c(F)c(F)c(F)c(F)c5F)c5ccc2[nH]5)C=C4)C=C3)cc1)C(=O)C(C)(C)[NH2+]CC
REMARK SMILES IDX 9 1 8 2 6 3 7 4 5 5 4 6 3 7 2 8 1 9 80 10 81 11 82 12 83 13
REMARK SMILES IDX 84 14 85 15 86 18 87 19 10 20 11 21 12 22 13 23 14 24 15 25
REMARK SMILES IDX 16 26 17 27 18 28 79 29 19 30 78 31 20 32 21 33 22 34 72 35
REMARK SMILES IDX 23 36 77 37 71 38 73 39 24 40 76 41 70 42 69 43 25 45 57 46
REMARK SMILES IDX 37 47 56 48 38 49 41 50 55 51 74 52 39 53 40 54 54 56 75 57
REMARK SMILES IDX 42 58 26 59 27 60 35 61 28 62 29 63 33 64 36 65 30 66 31 67
REMARK SMILES IDX 34 68 32 69 58 70 59 71 67 72 60 73 61 74 65 75 68 76 62 77
REMARK SMILES IDX 63 78 66 79 64 80 43 81 44 82 52 83 45 84 46 85 50 86 53 87
REMARK SMILES IDX 47 88 48 89 51 90 49 91
REMARK H PARENT 85 16 85 17 73 44 41 55
REMARK Flexibility Score: inf
ROOT
ATOM      1  C   UNL A   1      31.067  25.934  25.259  1.00  0.00     0.261 C 
ENDROOT
BRANCH   1   2
ATOM      2  O   UNL A   1      30.217  24.908  25.833  1.00  0.00    -0.462 OA
BRANCH   2   3
ATOM      3  C   UNL A   1      30.904  23.859  26.361  1.00  0.00     0.325 C 
ATOM      4  O   UNL A   1      30.778  23.484  27.525  1.00  0.00    -0.250 OA
BRANCH   3   5
ATOM      5  C   UNL A   1      31.796  23.078  25.380  1.00  0.00     0.243 C 
BRANCH   5   6
ATOM      6  N   UNL A   1      33.136  22.600  25.734  1.00  0.00    -0.315 N 
BRANCH   6   7
ATOM      7  C   UNL A   1      34.249  23.613  25.702  1.00  0.00     0.210 C 
BRANCH   7   8
ATOM      8  C   UNL A   1      35.111  23.253  24.502  1.00  0.00    -0.085 C 
ATOM      9  C   UNL A   1      35.850  22.945  23.473  1.00  0.00     0.006 C 
ENDBRANCH   7   8
ENDBRANCH   6   7
BRANCH   6  10
ATOM     10  C   UNL A   1      33.463  21.290  26.136  1.00  0.00     0.284 C 
ATOM     11  O   UNL A   1      33.732  21.108  27.333  1.00  0.00    -0.268 OA
BRANCH  10  12
ATOM     12  C   UNL A   1      33.422  20.024  25.117  1.00  0.00     0.170 C 
ATOM     13  C   UNL A   1      32.574  20.318  23.873  1.00  0.00     0.090 C 
ATOM     14  C   UNL A   1      34.796  19.529  24.629  1.00  0.00     0.090 C 
BRANCH  12  15
ATOM     15  N   UNL A   1      32.898  18.828  25.850  1.00  0.00    -0.334 N 
ATOM     16  H   UNL A   1      32.080  19.136  26.377  1.00  0.00     0.347 HD
ATOM     17  H   UNL A   1      33.695  18.505  26.397  1.00  0.00     0.347 HD
BRANCH  15  18
ATOM     18  C   UNL A   1      32.496  17.652  25.085  1.00  0.00     0.257 C 
ATOM     19  C   UNL A   1      32.905  16.341  25.751  1.00  0.00     0.071 C 
ENDBRANCH  15  18
ENDBRANCH  12  15
ENDBRANCH  10  12
ENDBRANCH   6  10
ENDBRANCH   5   6
ENDBRANCH   3   5
ENDBRANCH   2   3
ENDBRANCH   1   2
BRANCH   1  20
ATOM     20  C   UNL A   1      31.424  27.043  26.252  1.00  0.00     0.202 C 
BRANCH  20  21
ATOM     21  O   UNL A   1      32.639  27.753  26.029  1.00  0.00    -0.374 OA
BRANCH  21  22
ATOM     22  C   UNL A   1      32.615  28.902  25.194  1.00  0.00     0.202 C 
BRANCH  22  23
ATOM     23  C   UNL A   1      32.279  30.258  25.827  1.00  0.00     0.261 C 
BRANCH  23  24
ATOM     24  O   UNL A   1      32.852  30.483  27.094  1.00  0.00    -0.460 OA
BRANCH  24  25
ATOM     25  C   UNL A   1      33.442  31.685  27.250  1.00  0.00     0.338 C 
ATOM     26  O   UNL A   1      33.046  32.783  26.965  1.00  0.00    -0.246 OA
BRANCH  25  27
ATOM     27  C   UNL A   1      34.616  31.340  28.052  1.00  0.00     0.060 A 
ATOM     28  C   UNL A   1      34.770  30.002  28.414  1.00  0.00     0.016 A 
ATOM     29  C   UNL A   1      35.619  32.293  28.257  1.00  0.00     0.016 A 
ATOM     30  C   UNL A   1      35.949  29.608  29.025  1.00  0.00     0.010 A 
ATOM     31  C   UNL A   1      36.799  31.895  28.864  1.00  0.00     0.010 A 
ATOM     32  C   UNL A   1      36.952  30.557  29.266  1.00  0.00    -0.014 A 
BRANCH  32  33
ATOM     33  C   UNL A   1      38.107  30.183  30.093  1.00  0.00     0.031 A 
ATOM     34  C   UNL A   1      39.086  29.215  29.512  1.00  0.00     0.074 A 
ATOM     35  C   UNL A   1      38.260  30.720  31.314  1.00  0.00     0.049 A 
ATOM     36  N   UNL A   1      40.160  28.702  30.046  1.00  0.00    -0.248 NA
ATOM     37  C   UNL A   1      38.816  28.756  28.136  1.00  0.00     0.031 C 
ATOM     38  C   UNL A   1      37.351  31.685  31.933  1.00  0.00     0.029 A 
ATOM     39  N   UNL A   1      39.232  30.518  32.256  1.00  0.00    -0.354 N 
ATOM     40  C   UNL A   1      40.698  27.875  29.071  1.00  0.00     0.074 A 
ATOM     41  C   UNL A   1      39.812  27.910  27.932  1.00  0.00     0.031 C 
ATOM     42  C   UNL A   1      37.803  31.980  33.163  1.00  0.00     0.029 A 
ATOM     43  C   UNL A   1      39.012  31.204  33.424  1.00  0.00     0.049 A 
ATOM     44  H   UNL A   1      40.014  29.939  32.109  1.00  0.00     0.167 HD
ATOM     45  C   UNL A   1      41.847  27.165  29.126  1.00  0.00     0.037 A 
ATOM     46  C   UNL A   1      39.706  31.173  34.576  1.00  0.00     0.037 A 
ATOM     47  C   UNL A   1      42.696  27.132  30.283  1.00  0.00     0.049 A 
ATOM     48  C   UNL A   1      40.940  30.308  34.638  1.00  0.00     0.074 A 
ATOM     49  C   UNL A   1      43.878  26.442  30.472  1.00  0.00     0.029 A 
ATOM     50  N   UNL A   1      42.438  27.825  31.460  1.00  0.00    -0.354 N 
ATOM     51  N   UNL A   1      41.466  29.550  33.704  1.00  0.00    -0.248 NA
ATOM     52  C   UNL A   1      41.677  30.292  35.907  1.00  0.00     0.031 C 
ATOM     53  C   UNL A   1      44.311  26.683  31.779  1.00  0.00     0.029 A 
ATOM     54  C   UNL A   1      43.428  27.562  32.389  1.00  0.00     0.049 A 
ATOM     55  H   UNL A   1      41.665  28.416  31.610  1.00  0.00     0.167 HD
ATOM     56  C   UNL A   1      42.603  28.985  34.263  1.00  0.00     0.074 A 
ATOM     57  C   UNL A   1      42.700  29.504  35.613  1.00  0.00     0.031 C 
ATOM     58  C   UNL A   1      43.485  28.110  33.721  1.00  0.00     0.037 A 
BRANCH  45  59
ATOM     59  C   UNL A   1      42.227  26.371  27.913  1.00  0.00     0.064 A 
ATOM     60  C   UNL A   1      42.986  26.937  26.876  1.00  0.00     0.173 A 
ATOM     61  C   UNL A   1      41.838  25.030  27.785  1.00  0.00     0.173 A 
ATOM     62  F   UNL A   1      43.363  28.224  26.939  1.00  0.00    -0.203 F 
ATOM     63  C   UNL A   1      43.323  26.195  25.747  1.00  0.00     0.198 A 
ATOM     64  C   UNL A   1      42.201  24.283  26.668  1.00  0.00     0.198 A 
ATOM     65  F   UNL A   1      41.106  24.444  28.744  1.00  0.00    -0.203 F 
ATOM     66  F   UNL A   1      44.010  26.770  24.750  1.00  0.00    -0.200 F 
ATOM     67  C   UNL A   1      42.938  24.867  25.648  1.00  0.00     0.200 A 
ATOM     68  F   UNL A   1      41.834  22.998  26.576  1.00  0.00    -0.200 F 
ATOM     69  F   UNL A   1      43.270  24.151  24.565  1.00  0.00    -0.200 F 
ENDBRANCH  45  59
BRANCH  46  70
ATOM     70  C   UNL A   1      39.243  31.951  35.755  1.00  0.00     0.064 A 
ATOM     71  C   UNL A   1      38.315  31.422  36.661  1.00  0.00     0.173 A 
ATOM     72  C   UNL A   1      39.707  33.256  35.989  1.00  0.00     0.173 A 
ATOM     73  F   UNL A   1      37.826  30.186  36.475  1.00  0.00    -0.203 F 
ATOM     74  C   UNL A   1      37.848  32.174  37.739  1.00  0.00     0.198 A 
ATOM     75  C   UNL A   1      39.264  33.995  37.085  1.00  0.00     0.198 A 
ATOM     76  F   UNL A   1      40.599  33.812  35.158  1.00  0.00    -0.203 F 
ATOM     77  F   UNL A   1      36.921  31.661  38.560  1.00  0.00    -0.200 F 
ATOM     78  C   UNL A   1      38.326  33.458  37.953  1.00  0.00     0.200 A 
ATOM     79  F   UNL A   1      39.741  35.230  37.295  1.00  0.00    -0.200 F 
ATOM     80  F   UNL A   1      37.877  34.180  38.989  1.00  0.00    -0.200 F 
ENDBRANCH  46  70
BRANCH  58  81
ATOM     81  C   UNL A   1      44.635  27.680  34.581  1.00  0.00     0.064 A 
ATOM     82  C   UNL A   1      45.820  28.426  34.644  1.00  0.00     0.173 A 
ATOM     83  C   UNL A   1      44.521  26.548  35.401  1.00  0.00     0.173 A 
ATOM     84  F   UNL A   1      45.978  29.508  33.866  1.00  0.00    -0.203 F 
ATOM     85  C   UNL A   1      46.857  28.044  35.488  1.00  0.00     0.198 A 
ATOM     86  C   UNL A   1      45.548  26.186  36.266  1.00  0.00     0.198 A 
ATOM     87  F   UNL A   1      43.402  25.808  35.381  1.00  0.00    -0.203 F 
ATOM     88  F   UNL A   1      47.997  28.749  35.505  1.00  0.00    -0.200 F 
ATOM     89  C   UNL A   1      46.717  26.932  36.304  1.00  0.00     0.200 A 
ATOM     90  F   UNL A   1      45.405  25.122  37.066  1.00  0.00    -0.200 F 
ATOM     91  F   UNL A   1      47.712  26.575  37.127  1.00  0.00    -0.200 F 
ENDBRANCH  58  81
ENDBRANCH  32  33
ENDBRANCH  25  27
ENDBRANCH  24  25
ENDBRANCH  23  24
ENDBRANCH  22  23
ENDBRANCH  21  22
ENDBRANCH  20  21
ENDBRANCH   1  20
TORSDOF 21
ENDMDL
MODEL 2
REMARK VINA RESULT:      -9.4      5.044     10.646
REMARK SMILES C#CCN(CC(=O)OCCOCCOC(=O)c1ccc(-c2c3nc(c(-c4c(F)c(F)c(F)c(F)c4F)c4ccc([nH]4)c(-c4c(F)c(F)c(F)c(F)c4F)c4nc(c(-c5c(F)c(F)c(F)c(F)c5F)c5ccc2[nH]5)C=C4)C=C3)cc1)C(=O)C(C)(C)[NH2+]CC
REMARK SMILES IDX 9 1 8 2 6 3 7 4 5 5 4 6 3 7 2 8 1 9 80 10 81 11 82 12 83 13
REMARK SMILES IDX 84 14 85 15 86 18 87 19 10 20 11 21 12 22 13 23 14 24 15 25
REMARK SMILES IDX 16 26 17 27 18 28 79 29 19 30 78 31 20 32 21 33 22 34 72 35
REMARK SMILES IDX 23 36 77 37 71 38 73 39 24 40 76 41 70 42 69 43 25 45 57 46
REMARK SMILES IDX 37 47 56 48 38 49 41 50 55 51 74 52 39 53 40 54 54 56 75 57
REMARK SMILES IDX 42 58 26 59 27 60 35 61 28 62 29 63 33 64 36 65 30 66 31 67
REMARK SMILES IDX 34 68 32 69 58 70 59 71 67 72 60 73 61 74 65 75 68 76 62 77
REMARK SMILES IDX 63 78 66 79 64 80 43 81 44 82 52 83 45 84 46 85 50 86 53 87
REMARK SMILES IDX 47 88 48 89 51 90 49 91
REMARK H PARENT 85 16 85 17 73 44 41 55
REMARK Flexibility Score: inf
ROOT
ATOM      1  C   UNL A   1      37.286  23.167  25.060  1.00  0.00     0.261 C 
ENDROOT
BRANCH   1   2
ATOM      2  O   UNL A   1      36.157  24.077  24.998  1.00  0.00    -0.462 OA
BRANCH   2   3
ATOM      3  C   UNL A   1      35.300  23.818  23.973  1.00  0.00     0.325 C 
ATOM      4  O   UNL A   1      35.660  23.374  22.885  1.00  0.00    -0.250 OA
BRANCH   3   5
ATOM      5  C   UNL A   1      33.806  24.015  24.283  1.00  0.00     0.243 C 
BRANCH   5   6
ATOM      6  N   UNL A   1      32.886  24.687  23.361  1.00  0.00    -0.315 N 
BRANCH   6   7
ATOM      7  C   UNL A   1      31.494  24.121  23.258  1.00  0.00     0.210 C 
BRANCH   7   8
ATOM      8  C   UNL A   1      31.005  23.946  24.686  1.00  0.00    -0.085 C 
ATOM      9  C   UNL A   1      30.585  23.796  25.912  1.00  0.00     0.006 C 
ENDBRANCH   7   8
ENDBRANCH   6   7
BRANCH   6  10
ATOM     10  C   UNL A   1      33.177  25.834  22.596  1.00  0.00     0.284 C 
ATOM     11  O   UNL A   1      33.772  25.670  21.521  1.00  0.00    -0.268 OA
BRANCH  10  12
ATOM     12  C   UNL A   1      32.697  27.325  23.034  1.00  0.00     0.170 C 
ATOM     13  C   UNL A   1      32.509  27.443  24.551  1.00  0.00     0.090 C 
ATOM     14  C   UNL A   1      33.629  28.469  22.597  1.00  0.00     0.090 C 
BRANCH  12  15
ATOM     15  N   UNL A   1      31.429  27.657  22.311  1.00  0.00    -0.334 N 
ATOM     16  H   UNL A   1      30.727  26.982  22.614  1.00  0.00     0.347 HD
ATOM     17  H   UNL A   1      31.691  27.628  21.327  1.00  0.00     0.347 HD
BRANCH  15  18
ATOM     18  C   UNL A   1      30.848  28.985  22.481  1.00  0.00     0.257 C 
ATOM     19  C   UNL A   1      29.326  28.958  22.597  1.00  0.00     0.071 C 
ENDBRANCH  15  18
ENDBRANCH  12  15
ENDBRANCH  10  12
ENDBRANCH   6  10
ENDBRANCH   5   6
ENDBRANCH   3   5
ENDBRANCH   2   3
ENDBRANCH   1   2
BRANCH   1  20
ATOM     20  C   UNL A   1      36.890  21.747  25.471  1.00  0.00     0.202 C 
BRANCH  20  21
ATOM     21  O   UNL A   1      37.829  20.707  25.215  1.00  0.00    -0.374 OA
BRANCH  21  22
ATOM     22  C   UNL A   1      39.162  20.861  25.684  1.00  0.00     0.202 C 
BRANCH  22  23
ATOM     23  C   UNL A   1      39.962  19.600  26.037  1.00  0.00     0.261 C 
BRANCH  23  24
ATOM     24  O   UNL A   1      41.149  19.421  25.301  1.00  0.00    -0.460 OA
BRANCH  24  25
ATOM     25  C   UNL A   1      42.249  19.173  26.041  1.00  0.00     0.338 C 
ATOM     26  O   UNL A   1      42.816  18.137  26.260  1.00  0.00    -0.246 OA
BRANCH  25  27
ATOM     27  C   UNL A   1      42.711  20.526  26.350  1.00  0.00     0.060 A 
ATOM     28  C   UNL A   1      43.010  21.360  25.273  1.00  0.00     0.016 A 
ATOM     29  C   UNL A   1      42.652  20.994  27.667  1.00  0.00     0.016 A 
ATOM     30  C   UNL A   1      43.287  22.694  25.520  1.00  0.00     0.010 A 
ATOM     31  C   UNL A   1      42.925  22.331  27.911  1.00  0.00     0.010 A 
ATOM     32  C   UNL A   1      43.262  23.172  26.838  1.00  0.00    -0.014 A 
BRANCH  32  33
ATOM     33  C   UNL A   1      43.754  24.528  27.117  1.00  0.00     0.031 A 
ATOM     34  C   UNL A   1      42.767  25.527  27.629  1.00  0.00     0.074 A 
ATOM     35  C   UNL A   1      45.049  24.825  26.926  1.00  0.00     0.049 A 
ATOM     36  N   UNL A   1      42.939  26.789  27.916  1.00  0.00    -0.248 NA
ATOM     37  C   UNL A   1      41.392  25.040  27.843  1.00  0.00     0.031 C 
ATOM     38  C   UNL A   1      46.068  23.891  26.448  1.00  0.00     0.029 A 
ATOM     39  N   UNL A   1      45.725  26.002  27.104  1.00  0.00    -0.354 N 
ATOM     40  C   UNL A   1      41.702  27.238  28.356  1.00  0.00     0.074 A 
ATOM     41  C   UNL A   1      40.775  26.136  28.253  1.00  0.00     0.031 C 
ATOM     42  C   UNL A   1      47.242  24.539  26.353  1.00  0.00     0.029 A 
ATOM     43  C   UNL A   1      47.046  25.934  26.737  1.00  0.00     0.049 A 
ATOM     44  H   UNL A   1      45.305  26.817  27.460  1.00  0.00     0.167 HD
ATOM     45  C   UNL A   1      41.383  28.466  28.825  1.00  0.00     0.037 A 
ATOM     46  C   UNL A   1      47.971  26.910  26.695  1.00  0.00     0.037 A 
ATOM     47  C   UNL A   1      42.324  29.549  28.894  1.00  0.00     0.049 A 
ATOM     48  C   UNL A   1      47.567  28.291  27.146  1.00  0.00     0.074 A 
ATOM     49  C   UNL A   1      42.124  30.842  29.334  1.00  0.00     0.029 A 
ATOM     50  N   UNL A   1      43.653  29.454  28.499  1.00  0.00    -0.354 N 
ATOM     51  N   UNL A   1      46.405  28.708  27.593  1.00  0.00    -0.248 NA
ATOM     52  C   UNL A   1      48.596  29.336  27.089  1.00  0.00     0.031 C 
ATOM     53  C   UNL A   1      43.321  31.544  29.163  1.00  0.00     0.029 A 
ATOM     54  C   UNL A   1      44.281  30.675  28.664  1.00  0.00     0.049 A 
ATOM     55  H   UNL A   1      44.083  28.640  28.153  1.00  0.00     0.167 HD
ATOM     56  C   UNL A   1      46.568  30.053  27.889  1.00  0.00     0.074 A 
ATOM     57  C   UNL A   1      47.949  30.378  27.589  1.00  0.00     0.031 C 
ATOM     58  C   UNL A   1      45.663  30.947  28.358  1.00  0.00     0.037 A 
BRANCH  45  59
ATOM     59  C   UNL A   1      39.972  28.687  29.277  1.00  0.00     0.064 A 
ATOM     60  C   UNL A   1      39.576  28.422  30.597  1.00  0.00     0.173 A 
ATOM     61  C   UNL A   1      39.005  29.177  28.387  1.00  0.00     0.173 A 
ATOM     62  F   UNL A   1      40.457  27.929  31.481  1.00  0.00    -0.203 F 
ATOM     63  C   UNL A   1      38.259  28.619  31.003  1.00  0.00     0.198 A 
ATOM     64  C   UNL A   1      37.696  29.400  28.804  1.00  0.00     0.198 A 
ATOM     65  F   UNL A   1      39.330  29.440  27.112  1.00  0.00    -0.203 F 
ATOM     66  F   UNL A   1      37.893  28.316  32.257  1.00  0.00    -0.200 F 
ATOM     67  C   UNL A   1      37.322  29.115  30.110  1.00  0.00     0.200 A 
ATOM     68  F   UNL A   1      36.793  29.885  27.942  1.00  0.00    -0.200 F 
ATOM     69  F   UNL A   1      36.057  29.313  30.504  1.00  0.00    -0.200 F 
ENDBRANCH  45  59
BRANCH  46  70
ATOM     70  C   UNL A   1      49.341  26.627  26.191  1.00  0.00     0.064 A 
ATOM     71  C   UNL A   1      50.334  26.102  27.029  1.00  0.00     0.173 A 
ATOM     72  C   UNL A   1      49.693  26.896  24.859  1.00  0.00     0.173 A 
ATOM     73  F   UNL A   1      50.055  25.842  28.316  1.00  0.00    -0.203 F 
ATOM     74  C   UNL A   1      51.630  25.882  26.564  1.00  0.00     0.198 A 
ATOM     75  C   UNL A   1      50.981  26.646  24.386  1.00  0.00     0.198 A 
ATOM     76  F   UNL A   1      48.783  27.394  24.010  1.00  0.00    -0.203 F 
ATOM     77  F   UNL A   1      52.572  25.428  27.402  1.00  0.00    -0.200 F 
ATOM     78  C   UNL A   1      51.951  26.150  25.242  1.00  0.00     0.200 A 
ATOM     79  F   UNL A   1      51.280  26.893  23.104  1.00  0.00    -0.200 F 
ATOM     80  F   UNL A   1      53.197  25.939  24.796  1.00  0.00    -0.200 F 
ENDBRANCH  46  70
BRANCH  58  81
ATOM     81  C   UNL A   1      46.145  32.347  28.590  1.00  0.00     0.064 A 
ATOM     82  C   UNL A   1      46.730  32.726  29.806  1.00  0.00     0.173 A 
ATOM     83  C   UNL A   1      46.081  33.298  27.560  1.00  0.00     0.173 A 
ATOM     84  F   UNL A   1      46.800  31.854  30.823  1.00  0.00    -0.203 F 
ATOM     85  C   UNL A   1      47.223  34.014  29.987  1.00  0.00     0.198 A 
ATOM     86  C   UNL A   1      46.601  34.576  27.735  1.00  0.00     0.198 A 
ATOM     87  F   UNL A   1      45.537  32.978  26.377  1.00  0.00    -0.203 F 
ATOM     88  F   UNL A   1      47.744  34.369  31.170  1.00  0.00    -0.200 F 
ATOM     89  C   UNL A   1      47.166  34.934  28.951  1.00  0.00     0.200 A 
ATOM     90  F   UNL A   1      46.562  35.457  26.728  1.00  0.00    -0.200 F 
ATOM     91  F   UNL A   1      47.655  36.170  29.123  1.00  0.00    -0.200 F 
ENDBRANCH  58  81
ENDBRANCH  32  33
ENDBRANCH  25  27
ENDBRANCH  24  25
ENDBRANCH  23  24
ENDBRANCH  22  23
ENDBRANCH  21  22
ENDBRANCH  20  21
ENDBRANCH   1  20
TORSDOF 21
ENDMDL
MODEL 3
REMARK VINA RESULT:      -9.3      2.001      7.913
REMARK SMILES C#CCN(CC(=O)OCCOCCOC(=O)c1ccc(-c2c3nc(c(-c4c(F)c(F)c(F)c(F)c4F)c4ccc([nH]4)c(-c4c(F)c(F)c(F)c(F)c4F)c4nc(c(-c5c(F)c(F)c(F)c(F)c5F)c5ccc2[nH]5)C=C4)C=C3)cc1)C(=O)C(C)(C)[NH2+]CC
REMARK SMILES IDX 9 1 8 2 6 3 7 4 5 5 4 6 3 7 2 8 1 9 80 10 81 11 82 12 83 13
REMARK SMILES IDX 84 14 85 15 86 18 87 19 10 20 11 21 12 22 13 23 14 24 15 25
REMARK SMILES IDX 16 26 17 27 18 28 79 29 19 30 78 31 20 32 21 33 22 34 72 35
REMARK SMILES IDX 23 36 77 37 71 38 73 39 24 40 76 41 70 42 69 43 25 45 57 46
REMARK SMILES IDX 37 47 56 48 38 49 41 50 55 51 74 52 39 53 40 54 54 56 75 57
REMARK SMILES IDX 42 58 26 59 27 60 35 61 28 62 29 63 33 64 36 65 30 66 31 67
REMARK SMILES IDX 34 68 32 69 58 70 59 71 67 72 60 73 61 74 65 75 68 76 62 77
REMARK SMILES IDX 63 78 66 79 64 80 43 81 44 82 52 83 45 84 46 85 50 86 53 87
REMARK SMILES IDX 47 88 48 89 51 90 49 91
REMARK H PARENT 85 16 85 17 73 44 41 55
REMARK Flexibility Score: inf
ROOT
ATOM      1  C   UNL A   1      33.378  28.787  25.611  1.00  0.00     0.261 C 
ENDROOT
BRANCH   1   2
ATOM      2  O   UNL A   1      33.188  27.839  26.692  1.00  0.00    -0.462 OA
BRANCH   2   3
ATOM      3  C   UNL A   1      33.061  26.550  26.275  1.00  0.00     0.325 C 
ATOM      4  O   UNL A   1      32.068  25.860  26.499  1.00  0.00    -0.250 OA
BRANCH   3   5
ATOM      5  C   UNL A   1      34.206  26.014  25.397  1.00  0.00     0.243 C 
BRANCH   5   6
ATOM      6  N   UNL A   1      34.103  24.767  24.634  1.00  0.00    -0.315 N 
BRANCH   6   7
ATOM      7  C   UNL A   1      34.787  23.557  25.214  1.00  0.00     0.210 C 
BRANCH   7   8
ATOM      8  C   UNL A   1      35.826  23.131  24.190  1.00  0.00    -0.085 C 
ATOM      9  C   UNL A   1      36.718  22.766  23.311  1.00  0.00     0.006 C 
ENDBRANCH   7   8
ENDBRANCH   6   7
BRANCH   6  10
ATOM     10  C   UNL A   1      33.390  24.594  23.431  1.00  0.00     0.284 C 
ATOM     11  O   UNL A   1      33.782  25.223  22.436  1.00  0.00    -0.268 OA
BRANCH  10  12
ATOM     12  C   UNL A   1      32.146  23.556  23.290  1.00  0.00     0.170 C 
ATOM     13  C   UNL A   1      32.525  22.317  22.469  1.00  0.00     0.090 C 
ATOM     14  C   UNL A   1      31.551  23.060  24.621  1.00  0.00     0.090 C 
BRANCH  12  15
ATOM     15  N   UNL A   1      30.985  24.272  22.672  1.00  0.00    -0.334 N 
ATOM     16  H   UNL A   1      30.356  23.558  22.304  1.00  0.00     0.347 HD
ATOM     17  H   UNL A   1      31.415  24.894  21.988  1.00  0.00     0.347 HD
BRANCH  15  18
ATOM     18  C   UNL A   1      30.183  25.163  23.503  1.00  0.00     0.257 C 
ATOM     19  C   UNL A   1      30.576  26.631  23.353  1.00  0.00     0.071 C 
ENDBRANCH  15  18
ENDBRANCH  12  15
ENDBRANCH  10  12
ENDBRANCH   6  10
ENDBRANCH   5   6
ENDBRANCH   3   5
ENDBRANCH   2   3
ENDBRANCH   1   2
BRANCH   1  20
ATOM     20  C   UNL A   1      32.107  29.567  25.265  1.00  0.00     0.202 C 
BRANCH  20  21
ATOM     21  O   UNL A   1      31.608  30.472  26.245  1.00  0.00    -0.374 OA
BRANCH  21  22
ATOM     22  C   UNL A   1      32.528  31.317  26.924  1.00  0.00     0.202 C 
BRANCH  22  23
ATOM     23  C   UNL A   1      32.107  32.761  27.227  1.00  0.00     0.261 C 
BRANCH  23  24
ATOM     24  O   UNL A   1      33.165  33.687  27.307  1.00  0.00    -0.460 OA
BRANCH  24  25
ATOM     25  C   UNL A   1      33.268  34.336  28.484  1.00  0.00     0.338 C 
ATOM     26  O   UNL A   1      32.536  35.144  28.989  1.00  0.00    -0.246 OA
BRANCH  25  27
ATOM     27  C   UNL A   1      34.405  33.652  29.103  1.00  0.00     0.060 A 
ATOM     28  C   UNL A   1      35.679  34.008  28.663  1.00  0.00     0.016 A 
ATOM     29  C   UNL A   1      34.198  32.835  30.219  1.00  0.00     0.016 A 
ATOM     30  C   UNL A   1      36.781  33.511  29.339  1.00  0.00     0.010 A 
ATOM     31  C   UNL A   1      35.302  32.343  30.896  1.00  0.00     0.010 A 
ATOM     32  C   UNL A   1      36.591  32.665  30.441  1.00  0.00    -0.014 A 
BRANCH  32  33
ATOM     33  C   UNL A   1      37.751  31.978  31.024  1.00  0.00     0.031 A 
ATOM     34  C   UNL A   1      38.201  32.417  32.381  1.00  0.00     0.074 A 
ATOM     35  C   UNL A   1      38.354  30.986  30.349  1.00  0.00     0.049 A 
ATOM     36  N   UNL A   1      39.211  31.998  33.093  1.00  0.00    -0.248 NA
ATOM     37  C   UNL A   1      37.405  33.479  33.024  1.00  0.00     0.031 C 
ATOM     38  C   UNL A   1      37.952  30.497  29.030  1.00  0.00     0.029 A 
ATOM     39  N   UNL A   1      39.439  30.221  30.679  1.00  0.00    -0.354 N 
ATOM     40  C   UNL A   1      39.162  32.733  34.269  1.00  0.00     0.074 A 
ATOM     41  C   UNL A   1      38.059  33.659  34.160  1.00  0.00     0.031 C 
ATOM     42  C   UNL A   1      38.795  29.520  28.654  1.00  0.00     0.029 A 
ATOM     43  C   UNL A   1      39.805  29.340  29.693  1.00  0.00     0.049 A 
ATOM     44  H   UNL A   1      39.910  30.294  31.539  1.00  0.00     0.167 HD
ATOM     45  C   UNL A   1      39.964  32.623  35.352  1.00  0.00     0.037 A 
ATOM     46  C   UNL A   1      40.862  28.508  29.641  1.00  0.00     0.037 A 
ATOM     47  C   UNL A   1      41.068  31.707  35.421  1.00  0.00     0.049 A 
ATOM     48  C   UNL A   1      41.789  28.463  30.829  1.00  0.00     0.074 A 
ATOM     49  C   UNL A   1      41.964  31.508  36.453  1.00  0.00     0.029 A 
ATOM     50  N   UNL A   1      41.425  30.837  34.398  1.00  0.00    -0.354 N 
ATOM     51  N   UNL A   1      41.724  29.136  31.955  1.00  0.00    -0.248 NA
ATOM     52  C   UNL A   1      42.933  27.548  30.745  1.00  0.00     0.031 C 
ATOM     53  C   UNL A   1      42.892  30.549  36.036  1.00  0.00     0.029 A 
ATOM     54  C   UNL A   1      42.545  30.113  34.765  1.00  0.00     0.049 A 
ATOM     55  H   UNL A   1      40.952  30.749  33.540  1.00  0.00     0.167 HD
ATOM     56  C   UNL A   1      42.802  28.712  32.718  1.00  0.00     0.074 A 
ATOM     57  C   UNL A   1      43.493  27.708  31.934  1.00  0.00     0.031 C 
ATOM     58  C   UNL A   1      43.195  29.117  33.951  1.00  0.00     0.037 A 
BRANCH  45  59
ATOM     59  C   UNL A   1      39.676  33.517  36.519  1.00  0.00     0.064 A 
ATOM     60  C   UNL A   1      40.249  34.794  36.622  1.00  0.00     0.173 A 
ATOM     61  C   UNL A   1      38.813  33.101  37.543  1.00  0.00     0.173 A 
ATOM     62  F   UNL A   1      41.101  35.230  35.680  1.00  0.00    -0.203 F 
ATOM     63  C   UNL A   1      39.986  35.612  37.717  1.00  0.00     0.198 A 
ATOM     64  C   UNL A   1      38.529  33.933  38.623  1.00  0.00     0.198 A 
ATOM     65  F   UNL A   1      38.244  31.887  37.497  1.00  0.00    -0.203 F 
ATOM     66  F   UNL A   1      40.581  36.810  37.815  1.00  0.00    -0.200 F 
ATOM     67  C   UNL A   1      39.120  35.185  38.712  1.00  0.00     0.200 A 
ATOM     68  F   UNL A   1      37.688  33.521  39.580  1.00  0.00    -0.200 F 
ATOM     69  F   UNL A   1      38.860  35.977  39.761  1.00  0.00    -0.200 F 
ENDBRANCH  45  59
BRANCH  46  70
ATOM     70  C   UNL A   1      41.111  27.682  28.430  1.00  0.00     0.064 A 
ATOM     71  C   UNL A   1      41.963  28.123  27.408  1.00  0.00     0.173 A 
ATOM     72  C   UNL A   1      40.482  26.439  28.258  1.00  0.00     0.173 A 
ATOM     73  F   UNL A   1      42.576  29.312  27.514  1.00  0.00    -0.203 F 
ATOM     74  C   UNL A   1      42.157  27.367  26.253  1.00  0.00     0.198 A 
ATOM     75  C   UNL A   1      40.701  25.669  27.117  1.00  0.00     0.198 A 
ATOM     76  F   UNL A   1      39.659  25.965  29.205  1.00  0.00    -0.203 F 
ATOM     77  F   UNL A   1      42.937  27.836  25.270  1.00  0.00    -0.200 F 
ATOM     78  C   UNL A   1      41.529  26.138  26.110  1.00  0.00     0.200 A 
ATOM     79  F   UNL A   1      40.104  24.476  26.992  1.00  0.00    -0.200 F 
ATOM     80  F   UNL A   1      41.716  25.412  24.999  1.00  0.00    -0.200 F 
ENDBRANCH  46  70
BRANCH  58  81
ATOM     81  C   UNL A   1      44.412  28.460  34.528  1.00  0.00     0.064 A 
ATOM     82  C   UNL A   1      45.686  29.027  34.383  1.00  0.00     0.173 A 
ATOM     83  C   UNL A   1      44.291  27.288  35.290  1.00  0.00     0.173 A 
ATOM     84  F   UNL A   1      45.850  30.140  33.652  1.00  0.00    -0.203 F 
ATOM     85  C   UNL A   1      46.799  28.435  34.970  1.00  0.00     0.198 A 
ATOM     86  C   UNL A   1      45.402  26.716  35.900  1.00  0.00     0.198 A 
ATOM     87  F   UNL A   1      43.091  26.714  35.462  1.00  0.00    -0.203 F 
ATOM     88  F   UNL A   1      48.014  28.971  34.789  1.00  0.00    -0.200 F 
ATOM     89  C   UNL A   1      46.655  27.286  35.734  1.00  0.00     0.200 A 
ATOM     90  F   UNL A   1      45.259  25.616  36.652  1.00  0.00    -0.200 F 
ATOM     91  F   UNL A   1      47.727  26.726  36.311  1.00  0.00    -0.200 F 
ENDBRANCH  58  81
ENDBRANCH  32  33
ENDBRANCH  25  27
ENDBRANCH  24  25
ENDBRANCH  23  24
ENDBRANCH  22  23
ENDBRANCH  21  22
ENDBRANCH  20  21
ENDBRANCH   1  20
TORSDOF 21
ENDMDL
