MODEL 1
REMARK VINA RESULT:     -11.9      0.000      0.000
REMARK SMILES CC1=C2C(=O)N(C[C@H]3CCCO3)C(=O)N=C2S[C@@H]1C(=O)OCCOCCOC(=O)c1ccc(-c2c3nc(c(-c4c(F)c(F)c(F)c(F)c4F)c4ccc([nH]4)c(-c4c(F)c(F)c(F)c(F)c4F)c4nc(c(-c5c(F)c(F)c(F)c(F)c5F)c5ccc2[nH]5)C=C4)C=C3)cc1
REMARK SMILES IDX 24 1 23 2 22 3 21 4 19 5 20 6 18 7 1 8 2 9 3 10 4 11 16 12
REMARK SMILES IDX 17 13 5 14 6 15 15 16 13 17 14 18 7 19 8 20 9 21 12 22 10 23
REMARK SMILES IDX 11 24 25 25 26 26 27 27 28 28 29 29 30 30 31 31 92 32 32 33
REMARK SMILES IDX 91 34 33 35 34 36 35 37 85 38 36 39 90 40 84 41 86 42 37 43
REMARK SMILES IDX 89 44 83 45 82 46 38 48 70 49 50 50 69 51 51 52 54 53 68 54
REMARK SMILES IDX 87 55 52 56 53 57 67 59 88 60 55 61 39 62 40 63 48 64 41 65
REMARK SMILES IDX 42 66 46 67 49 68 43 69 44 70 47 71 45 72 71 73 72 74 80 75
REMARK SMILES IDX 73 76 74 77 78 78 81 79 75 80 76 81 79 82 77 83 56 84 57 85
REMARK SMILES IDX 65 86 58 87 59 88 63 89 66 90 60 91 61 92 64 93 62 94
REMARK H PARENT 86 47 54 58
REMARK Flexibility Score: inf
ROOT
ATOM      1  O   UNL A   1      41.573  21.593  26.022  1.00  0.00    -0.374 OA
ENDROOT
BRANCH   1   2
ATOM      2  C   UNL A   1      40.721  20.595  26.574  1.00  0.00     0.202 C 
BRANCH   2   3
ATOM      3  C   UNL A   1      39.448  20.259  25.797  1.00  0.00     0.261 C 
BRANCH   3   4
ATOM      4  O   UNL A   1      38.550  21.375  25.740  1.00  0.00    -0.462 OA
BRANCH   4   5
ATOM      5  C   UNL A   1      37.346  21.120  25.167  1.00  0.00     0.323 C 
ATOM      6  O   UNL A   1      36.953  20.006  24.832  1.00  0.00    -0.251 OA
BRANCH   5   7
ATOM      7  C   UNL A   1      36.522  22.366  24.903  1.00  0.00     0.189 C 
ATOM      8  C   UNL A   1      34.737  21.564  26.579  1.00  0.00     0.042 C 
ATOM      9  C   UNL A   1      35.077  22.122  25.233  1.00  0.00    -0.033 C 
ATOM     10  C   UNL A   1      34.207  22.521  24.297  1.00  0.00     0.073 C 
ATOM     11  C   UNL A   1      32.752  22.527  24.314  1.00  0.00     0.264 C 
ATOM     12  C   UNL A   1      34.819  23.214  23.184  1.00  0.00     0.116 C 
ATOM     13  S   UNL A   1      36.533  22.955  23.165  1.00  0.00    -0.086 SA
ATOM     14  O   UNL A   1      32.104  21.593  24.762  1.00  0.00    -0.268 OA
ATOM     15  N   UNL A   1      32.274  23.695  23.777  1.00  0.00    -0.256 N 
ATOM     16  N   UNL A   1      34.196  23.971  22.360  1.00  0.00    -0.186 NA
ATOM     17  C   UNL A   1      32.877  24.267  22.645  1.00  0.00     0.351 C 
ATOM     18  O   UNL A   1      32.259  25.058  21.937  1.00  0.00    -0.246 OA
BRANCH  15  19
ATOM     19  C   UNL A   1      31.160  24.415  24.394  1.00  0.00     0.163 C 
BRANCH  19  20
ATOM     20  C   UNL A   1      31.422  25.541  25.413  1.00  0.00     0.138 C 
ATOM     21  C   UNL A   1      32.770  25.534  26.132  1.00  0.00     0.036 C 
ATOM     22  O   UNL A   1      31.396  26.787  24.670  1.00  0.00    -0.376 OA
ATOM     23  C   UNL A   1      33.636  26.466  25.336  1.00  0.00     0.031 C 
ATOM     24  C   UNL A   1      32.636  27.483  24.854  1.00  0.00     0.160 C 
ENDBRANCH  19  20
ENDBRANCH  15  19
ENDBRANCH   5   7
ENDBRANCH   4   5
ENDBRANCH   3   4
ENDBRANCH   2   3
ENDBRANCH   1   2
BRANCH   1  25
ATOM     25  C   UNL A   1      42.974  21.327  25.945  1.00  0.00     0.202 C 
BRANCH  25  26
ATOM     26  C   UNL A   1      43.797  22.129  24.931  1.00  0.00     0.261 C 
BRANCH  26  27
ATOM     27  O   UNL A   1      43.205  23.406  24.633  1.00  0.00    -0.460 OA
BRANCH  27  28
ATOM     28  C   UNL A   1      43.942  24.474  25.023  1.00  0.00     0.338 C 
ATOM     29  O   UNL A   1      45.044  24.804  24.616  1.00  0.00    -0.246 OA
BRANCH  28  30
ATOM     30  C   UNL A   1      43.147  25.344  25.909  1.00  0.00     0.060 A 
ATOM     31  C   UNL A   1      43.612  26.649  26.112  1.00  0.00     0.016 A 
ATOM     32  C   UNL A   1      42.043  24.863  26.613  1.00  0.00     0.016 A 
ATOM     33  C   UNL A   1      43.009  27.465  27.064  1.00  0.00     0.010 A 
ATOM     34  C   UNL A   1      41.444  25.679  27.580  1.00  0.00     0.010 A 
ATOM     35  C   UNL A   1      41.950  26.967  27.837  1.00  0.00    -0.014 A 
BRANCH  35  36
ATOM     36  C   UNL A   1      41.490  27.740  29.015  1.00  0.00     0.031 A 
ATOM     37  C   UNL A   1      42.242  27.609  30.311  1.00  0.00     0.074 A 
ATOM     38  C   UNL A   1      40.447  28.581  28.920  1.00  0.00     0.049 A 
ATOM     39  N   UNL A   1      42.012  28.178  31.467  1.00  0.00    -0.248 NA
ATOM     40  C   UNL A   1      43.411  26.715  30.302  1.00  0.00     0.031 C 
ATOM     41  C   UNL A   1      39.667  28.826  27.709  1.00  0.00     0.029 A 
ATOM     42  N   UNL A   1      39.861  29.383  29.867  1.00  0.00    -0.354 N 
ATOM     43  C   UNL A   1      43.000  27.709  32.322  1.00  0.00     0.074 A 
ATOM     44  C   UNL A   1      43.818  26.788  31.560  1.00  0.00     0.031 C 
ATOM     45  C   UNL A   1      38.695  29.711  27.988  1.00  0.00     0.029 A 
ATOM     46  C   UNL A   1      38.767  30.071  29.403  1.00  0.00     0.049 A 
ATOM     47  H   UNL A   1      40.193  29.459  30.791  1.00  0.00     0.167 HD
ATOM     48  C   UNL A   1      43.212  28.023  33.622  1.00  0.00     0.037 A 
ATOM     49  C   UNL A   1      37.912  30.882  30.055  1.00  0.00     0.037 A 
ATOM     50  C   UNL A   1      42.402  28.943  34.376  1.00  0.00     0.049 A 
ATOM     51  C   UNL A   1      38.129  31.163  31.519  1.00  0.00     0.074 A 
ATOM     52  C   UNL A   1      42.552  29.348  35.690  1.00  0.00     0.029 A 
ATOM     53  N   UNL A   1      41.282  29.594  33.881  1.00  0.00    -0.354 N 
ATOM     54  N   UNL A   1      39.084  30.741  32.311  1.00  0.00    -0.248 NA
ATOM     55  C   UNL A   1      37.149  32.038  32.179  1.00  0.00     0.031 C 
ATOM     56  C   UNL A   1      41.493  30.207  36.005  1.00  0.00     0.029 A 
ATOM     57  C   UNL A   1      40.713  30.377  34.872  1.00  0.00     0.049 A 
ATOM     58  H   UNL A   1      40.940  29.512  32.961  1.00  0.00     0.167 HD
ATOM     59  C   UNL A   1      38.838  31.317  33.550  1.00  0.00     0.074 A 
ATOM     60  C   UNL A   1      37.649  32.131  33.402  1.00  0.00     0.031 C 
ATOM     61  C   UNL A   1      39.533  31.187  34.707  1.00  0.00     0.037 A 
BRANCH  48  62
ATOM     62  C   UNL A   1      44.352  27.346  34.322  1.00  0.00     0.064 A 
ATOM     63  C   UNL A   1      45.630  27.921  34.379  1.00  0.00     0.173 A 
ATOM     64  C   UNL A   1      44.153  26.122  34.979  1.00  0.00     0.173 A 
ATOM     65  F   UNL A   1      45.875  29.084  33.757  1.00  0.00    -0.203 F 
ATOM     66  C   UNL A   1      46.672  27.286  35.050  1.00  0.00     0.198 A 
ATOM     67  C   UNL A   1      45.190  25.502  35.670  1.00  0.00     0.198 A 
ATOM     68  F   UNL A   1      42.949  25.532  34.958  1.00  0.00    -0.203 F 
ATOM     69  F   UNL A   1      47.895  27.834  35.058  1.00  0.00    -0.200 F 
ATOM     70  C   UNL A   1      46.449  26.081  35.700  1.00  0.00     0.200 A 
ATOM     71  F   UNL A   1      44.971  24.344  36.308  1.00  0.00    -0.200 F 
ATOM     72  F   UNL A   1      47.452  25.474  36.352  1.00  0.00    -0.200 F 
ENDBRANCH  48  62
BRANCH  49  73
ATOM     73  C   UNL A   1      36.757  31.477  29.332  1.00  0.00     0.064 A 
ATOM     74  C   UNL A   1      36.725  32.842  29.021  1.00  0.00     0.173 A 
ATOM     75  C   UNL A   1      35.656  30.694  28.957  1.00  0.00     0.173 A 
ATOM     76  F   UNL A   1      37.743  33.637  29.382  1.00  0.00    -0.203 F 
ATOM     77  C   UNL A   1      35.625  33.407  28.376  1.00  0.00     0.198 A 
ATOM     78  C   UNL A   1      34.570  31.254  28.288  1.00  0.00     0.198 A 
ATOM     79  F   UNL A   1      35.638  29.382  29.235  1.00  0.00    -0.203 F 
ATOM     80  F   UNL A   1      35.598  34.723  28.130  1.00  0.00    -0.200 F 
ATOM     81  C   UNL A   1      34.552  32.611  28.005  1.00  0.00     0.200 A 
ATOM     82  F   UNL A   1      33.539  30.479  27.922  1.00  0.00    -0.200 F 
ATOM     83  F   UNL A   1      33.495  33.153  27.384  1.00  0.00    -0.200 F 
ENDBRANCH  49  73
BRANCH  61  84
ATOM     84  C   UNL A   1      39.050  31.966  35.895  1.00  0.00     0.064 A 
ATOM     85  C   UNL A   1      39.402  33.310  36.087  1.00  0.00     0.173 A 
ATOM     86  C   UNL A   1      38.188  31.372  36.831  1.00  0.00     0.173 A 
ATOM     87  F   UNL A   1      40.234  33.918  35.229  1.00  0.00    -0.203 F 
ATOM     88  C   UNL A   1      38.927  34.024  37.184  1.00  0.00     0.198 A 
ATOM     89  C   UNL A   1      37.693  32.098  37.910  1.00  0.00     0.198 A 
ATOM     90  F   UNL A   1      37.816  30.091  36.689  1.00  0.00    -0.203 F 
ATOM     91  F   UNL A   1      39.313  35.294  37.372  1.00  0.00    -0.200 F 
ATOM     92  C   UNL A   1      38.068  33.420  38.090  1.00  0.00     0.200 A 
ATOM     93  F   UNL A   1      36.852  31.516  38.778  1.00  0.00    -0.200 F 
ATOM     94  F   UNL A   1      37.606  34.112  39.141  1.00  0.00    -0.200 F 
ENDBRANCH  61  84
ENDBRANCH  35  36
ENDBRANCH  28  30
ENDBRANCH  27  28
ENDBRANCH  26  27
ENDBRANCH  25  26
ENDBRANCH   1  25
TORSDOF 16
ENDMDL
MODEL 2
REMARK VINA RESULT:     -11.7      4.464      6.905
REMARK SMILES CC1=C2C(=O)N(C[C@H]3CCCO3)C(=O)N=C2S[C@@H]1C(=O)OCCOCCOC(=O)c1ccc(-c2c3nc(c(-c4c(F)c(F)c(F)c(F)c4F)c4ccc([nH]4)c(-c4c(F)c(F)c(F)c(F)c4F)c4nc(c(-c5c(F)c(F)c(F)c(F)c5F)c5ccc2[nH]5)C=C4)C=C3)cc1
REMARK SMILES IDX 24 1 23 2 22 3 21 4 19 5 20 6 18 7 1 8 2 9 3 10 4 11 16 12
REMARK SMILES IDX 17 13 5 14 6 15 15 16 13 17 14 18 7 19 8 20 9 21 12 22 10 23
REMARK SMILES IDX 11 24 25 25 26 26 27 27 28 28 29 29 30 30 31 31 92 32 32 33
REMARK SMILES IDX 91 34 33 35 34 36 35 37 85 38 36 39 90 40 84 41 86 42 37 43
REMARK SMILES IDX 89 44 83 45 82 46 38 48 70 49 50 50 69 51 51 52 54 53 68 54
REMARK SMILES IDX 87 55 52 56 53 57 67 59 88 60 55 61 39 62 40 63 48 64 41 65
REMARK SMILES IDX 42 66 46 67 49 68 43 69 44 70 47 71 45 72 71 73 72 74 80 75
REMARK SMILES IDX 73 76 74 77 78 78 81 79 75 80 76 81 79 82 77 83 56 84 57 85
REMARK SMILES IDX 65 86 58 87 59 88 63 89 66 90 60 91 61 92 64 93 62 94
REMARK H PARENT 86 47 54 58
REMARK Flexibility Score: inf
ROOT
ATOM      1  O   UNL A   1      37.461  21.448  25.285  1.00  0.00    -0.374 OA
ENDROOT
BRANCH   1   2
ATOM      2  C   UNL A   1      36.078  21.518  25.621  1.00  0.00     0.202 C 
BRANCH   2   3
ATOM      3  C   UNL A   1      35.160  20.458  25.011  1.00  0.00     0.261 C 
BRANCH   3   4
ATOM      4  O   UNL A   1      33.954  20.300  25.770  1.00  0.00    -0.462 OA
BRANCH   4   5
ATOM      5  C   UNL A   1      32.835  20.800  25.185  1.00  0.00     0.323 C 
ATOM      6  O   UNL A   1      31.803  20.163  24.991  1.00  0.00    -0.251 OA
BRANCH   5   7
ATOM      7  C   UNL A   1      32.983  22.235  24.716  1.00  0.00     0.189 C 
ATOM      8  C   UNL A   1      32.484  23.086  27.096  1.00  0.00     0.042 C 
ATOM      9  C   UNL A   1      32.232  23.168  25.624  1.00  0.00    -0.033 C 
ATOM     10  C   UNL A   1      31.456  24.062  25.001  1.00  0.00     0.073 C 
ATOM     11  C   UNL A   1      30.670  25.159  25.545  1.00  0.00     0.264 C 
ATOM     12  C   UNL A   1      31.569  24.033  23.558  1.00  0.00     0.116 C 
ATOM     13  S   UNL A   1      32.343  22.574  23.030  1.00  0.00    -0.086 SA
ATOM     14  O   UNL A   1      30.008  25.040  26.564  1.00  0.00    -0.268 OA
ATOM     15  N   UNL A   1      30.804  26.276  24.760  1.00  0.00    -0.256 N 
ATOM     16  N   UNL A   1      31.209  24.981  22.776  1.00  0.00    -0.186 NA
ATOM     17  C   UNL A   1      30.828  26.173  23.360  1.00  0.00     0.351 C 
ATOM     18  O   UNL A   1      30.558  27.143  22.655  1.00  0.00    -0.246 OA
BRANCH  15  19
ATOM     19  C   UNL A   1      30.983  27.602  25.350  1.00  0.00     0.163 C 
BRANCH  19  20
ATOM     20  C   UNL A   1      31.889  27.796  26.582  1.00  0.00     0.138 C 
ATOM     21  C   UNL A   1      33.367  27.441  26.427  1.00  0.00     0.036 C 
ATOM     22  O   UNL A   1      31.870  29.214  26.891  1.00  0.00    -0.376 OA
ATOM     23  C   UNL A   1      34.043  28.741  26.103  1.00  0.00     0.031 C 
ATOM     24  C   UNL A   1      33.209  29.726  26.879  1.00  0.00     0.160 C 
ENDBRANCH  19  20
ENDBRANCH  15  19
ENDBRANCH   5   7
ENDBRANCH   4   5
ENDBRANCH   3   4
ENDBRANCH   2   3
ENDBRANCH   1   2
BRANCH   1  25
ATOM     25  C   UNL A   1      37.992  20.199  24.840  1.00  0.00     0.202 C 
BRANCH  25  26
ATOM     26  C   UNL A   1      39.146  19.588  25.642  1.00  0.00     0.261 C 
BRANCH  26  27
ATOM     27  O   UNL A   1      40.265  20.486  25.762  1.00  0.00    -0.460 OA
BRANCH  27  28
ATOM     28  C   UNL A   1      40.850  20.497  26.983  1.00  0.00     0.338 C 
ATOM     29  O   UNL A   1      41.331  19.550  27.585  1.00  0.00    -0.246 OA
BRANCH  28  30
ATOM     30  C   UNL A   1      41.015  21.883  27.455  1.00  0.00     0.060 A 
ATOM     31  C   UNL A   1      40.369  22.891  26.728  1.00  0.00     0.016 A 
ATOM     32  C   UNL A   1      41.871  22.204  28.510  1.00  0.00     0.016 A 
ATOM     33  C   UNL A   1      40.620  24.229  27.015  1.00  0.00     0.010 A 
ATOM     34  C   UNL A   1      42.132  23.549  28.790  1.00  0.00     0.010 A 
ATOM     35  C   UNL A   1      41.539  24.566  28.018  1.00  0.00    -0.014 A 
BRANCH  35  36
ATOM     36  C   UNL A   1      41.993  25.972  28.139  1.00  0.00     0.031 A 
ATOM     37  C   UNL A   1      43.315  26.364  27.539  1.00  0.00     0.074 A 
ATOM     38  C   UNL A   1      41.219  26.894  28.735  1.00  0.00     0.049 A 
ATOM     39  N   UNL A   1      43.914  27.528  27.536  1.00  0.00    -0.248 NA
ATOM     40  C   UNL A   1      44.062  25.301  26.849  1.00  0.00     0.031 C 
ATOM     41  C   UNL A   1      39.902  26.644  29.315  1.00  0.00     0.029 A 
ATOM     42  N   UNL A   1      41.436  28.232  28.953  1.00  0.00    -0.354 N 
ATOM     43  C   UNL A   1      45.107  27.337  26.852  1.00  0.00     0.074 A 
ATOM     44  C   UNL A   1      45.161  25.940  26.477  1.00  0.00     0.031 C 
ATOM     45  C   UNL A   1      39.431  27.790  29.836  1.00  0.00     0.029 A 
ATOM     46  C   UNL A   1      40.426  28.845  29.651  1.00  0.00     0.049 A 
ATOM     47  H   UNL A   1      42.240  28.706  28.641  1.00  0.00     0.167 HD
ATOM     48  C   UNL A   1      46.066  28.246  26.557  1.00  0.00     0.037 A 
ATOM     49  C   UNL A   1      40.327  30.109  30.104  1.00  0.00     0.037 A 
ATOM     50  C   UNL A   1      46.008  29.636  26.926  1.00  0.00     0.049 A 
ATOM     51  C   UNL A   1      41.440  31.086  29.821  1.00  0.00     0.074 A 
ATOM     52  C   UNL A   1      46.917  30.641  26.649  1.00  0.00     0.029 A 
ATOM     53  N   UNL A   1      44.984  30.213  27.662  1.00  0.00    -0.354 N 
ATOM     54  N   UNL A   1      42.549  30.905  29.146  1.00  0.00    -0.248 NA
ATOM     55  C   UNL A   1      41.284  32.444  30.361  1.00  0.00     0.031 C 
ATOM     56  C   UNL A   1      46.466  31.817  27.260  1.00  0.00     0.029 A 
ATOM     57  C   UNL A   1      45.251  31.555  27.873  1.00  0.00     0.049 A 
ATOM     58  H   UNL A   1      44.184  29.739  27.986  1.00  0.00     0.167 HD
ATOM     59  C   UNL A   1      43.208  32.127  29.157  1.00  0.00     0.074 A 
ATOM     60  C   UNL A   1      42.368  33.047  29.894  1.00  0.00     0.031 C 
ATOM     61  C   UNL A   1      44.401  32.459  28.604  1.00  0.00     0.037 A 
BRANCH  48  62
ATOM     62  C   UNL A   1      47.278  27.760  25.818  1.00  0.00     0.064 A 
ATOM     63  C   UNL A   1      47.306  27.677  24.419  1.00  0.00     0.173 A 
ATOM     64  C   UNL A   1      48.441  27.409  26.520  1.00  0.00     0.173 A 
ATOM     65  F   UNL A   1      46.215  27.990  23.703  1.00  0.00    -0.203 F 
ATOM     66  C   UNL A   1      48.446  27.241  23.749  1.00  0.00     0.198 A 
ATOM     67  C   UNL A   1      49.588  26.998  25.847  1.00  0.00     0.198 A 
ATOM     68  F   UNL A   1      48.469  27.475  27.859  1.00  0.00    -0.203 F 
ATOM     69  F   UNL A   1      48.437  27.131  22.414  1.00  0.00    -0.200 F 
ATOM     70  C   UNL A   1      49.588  26.908  24.464  1.00  0.00     0.200 A 
ATOM     71  F   UNL A   1      50.694  26.688  26.537  1.00  0.00    -0.200 F 
ATOM     72  F   UNL A   1      50.688  26.495  23.817  1.00  0.00    -0.200 F 
ENDBRANCH  48  62
BRANCH  49  73
ATOM     73  C   UNL A   1      39.136  30.525  30.889  1.00  0.00     0.064 A 
ATOM     74  C   UNL A   1      39.074  30.319  32.274  1.00  0.00     0.173 A 
ATOM     75  C   UNL A   1      38.028  31.118  30.266  1.00  0.00     0.173 A 
ATOM     76  F   UNL A   1      40.098  29.733  32.910  1.00  0.00    -0.203 F 
ATOM     77  C   UNL A   1      37.941  30.676  33.003  1.00  0.00     0.198 A 
ATOM     78  C   UNL A   1      36.908  31.498  31.000  1.00  0.00     0.198 A 
ATOM     79  F   UNL A   1      38.037  31.333  28.942  1.00  0.00    -0.203 F 
ATOM     80  F   UNL A   1      37.888  30.427  34.318  1.00  0.00    -0.200 F 
ATOM     81  C   UNL A   1      36.861  31.270  32.367  1.00  0.00     0.200 A 
ATOM     82  F   UNL A   1      35.871  32.082  30.383  1.00  0.00    -0.200 F 
ATOM     83  F   UNL A   1      35.773  31.614  33.068  1.00  0.00    -0.200 F 
ENDBRANCH  49  73
BRANCH  61  84
ATOM     84  C   UNL A   1      44.854  33.884  28.744  1.00  0.00     0.064 A 
ATOM     85  C   UNL A   1      45.678  34.293  29.803  1.00  0.00     0.173 A 
ATOM     86  C   UNL A   1      44.496  34.840  27.781  1.00  0.00     0.173 A 
ATOM     87  F   UNL A   1      46.036  33.420  30.756  1.00  0.00    -0.203 F 
ATOM     88  C   UNL A   1      46.107  35.614  29.905  1.00  0.00     0.198 A 
ATOM     89  C   UNL A   1      44.951  36.153  27.872  1.00  0.00     0.198 A 
ATOM     90  F   UNL A   1      43.716  34.497  26.745  1.00  0.00    -0.203 F 
ATOM     91  F   UNL A   1      46.855  35.994  30.950  1.00  0.00    -0.200 F 
ATOM     92  C   UNL A   1      45.749  36.541  28.937  1.00  0.00     0.200 A 
ATOM     93  F   UNL A   1      44.615  37.043  26.927  1.00  0.00    -0.200 F 
ATOM     94  F   UNL A   1      46.169  37.809  29.033  1.00  0.00    -0.200 F 
ENDBRANCH  61  84
ENDBRANCH  35  36
ENDBRANCH  28  30
ENDBRANCH  27  28
ENDBRANCH  26  27
ENDBRANCH  25  26
ENDBRANCH   1  25
TORSDOF 16
ENDMDL
MODEL 3
REMARK VINA RESULT:     -11.7      2.962      8.711
REMARK SMILES CC1=C2C(=O)N(C[C@H]3CCCO3)C(=O)N=C2S[C@@H]1C(=O)OCCOCCOC(=O)c1ccc(-c2c3nc(c(-c4c(F)c(F)c(F)c(F)c4F)c4ccc([nH]4)c(-c4c(F)c(F)c(F)c(F)c4F)c4nc(c(-c5c(F)c(F)c(F)c(F)c5F)c5ccc2[nH]5)C=C4)C=C3)cc1
REMARK SMILES IDX 24 1 23 2 22 3 21 4 19 5 20 6 18 7 1 8 2 9 3 10 4 11 16 12
REMARK SMILES IDX 17 13 5 14 6 15 15 16 13 17 14 18 7 19 8 20 9 21 12 22 10 23
REMARK SMILES IDX 11 24 25 25 26 26 27 27 28 28 29 29 30 30 31 31 92 32 32 33
REMARK SMILES IDX 91 34 33 35 34 36 35 37 85 38 36 39 90 40 84 41 86 42 37 43
REMARK SMILES IDX 89 44 83 45 82 46 38 48 70 49 50 50 69 51 51 52 54 53 68 54
REMARK SMILES IDX 87 55 52 56 53 57 67 59 88 60 55 61 39 62 40 63 48 64 41 65
REMARK SMILES IDX 42 66 46 67 49 68 43 69 44 70 47 71 45 72 71 73 72 74 80 75
REMARK SMILES IDX 73 76 74 77 78 78 81 79 75 80 76 81 79 82 77 83 56 84 57 85
REMARK SMILES IDX 65 86 58 87 59 88 63 89 66 90 60 91 61 92 64 93 62 94
REMARK H PARENT 86 47 54 58
REMARK Flexibility Score: inf
ROOT
ATOM      1  O   UNL A   1      32.203  30.619  26.618  1.00  0.00    -0.374 OA
ENDROOT
BRANCH   1   2
ATOM      2  C   UNL A   1      32.132  29.483  25.761  1.00  0.00     0.202 C 
BRANCH   2   3
ATOM      3  C   UNL A   1      31.019  29.472  24.712  1.00  0.00     0.261 C 
BRANCH   3   4
ATOM      4  O   UNL A   1      31.539  29.298  23.388  1.00  0.00    -0.462 OA
BRANCH   4   5
ATOM      5  C   UNL A   1      30.944  28.319  22.658  1.00  0.00     0.323 C 
ATOM      6  O   UNL A   1      29.916  28.463  22.002  1.00  0.00    -0.251 OA
BRANCH   5   7
ATOM      7  C   UNL A   1      31.633  26.972  22.772  1.00  0.00     0.189 C 
ATOM      8  C   UNL A   1      29.694  26.080  24.216  1.00  0.00     0.042 C 
ATOM      9  C   UNL A   1      31.166  26.242  23.999  1.00  0.00    -0.033 C 
ATOM     10  C   UNL A   1      32.140  25.719  24.752  1.00  0.00     0.073 C 
ATOM     11  C   UNL A   1      32.058  24.884  25.941  1.00  0.00     0.264 C 
ATOM     12  C   UNL A   1      33.463  25.863  24.183  1.00  0.00     0.116 C 
ATOM     13  S   UNL A   1      33.461  27.039  22.910  1.00  0.00    -0.086 SA
ATOM     14  O   UNL A   1      31.253  25.103  26.833  1.00  0.00    -0.268 OA
ATOM     15  N   UNL A   1      32.984  23.874  25.879  1.00  0.00    -0.256 N 
ATOM     16  N   UNL A   1      34.486  25.171  24.523  1.00  0.00    -0.186 NA
ATOM     17  C   UNL A   1      34.277  24.111  25.383  1.00  0.00     0.351 C 
ATOM     18  O   UNL A   1      35.207  23.362  25.672  1.00  0.00    -0.246 OA
BRANCH  15  19
ATOM     19  C   UNL A   1      32.644  22.507  26.271  1.00  0.00     0.163 C 
BRANCH  19  20
ATOM     20  C   UNL A   1      31.715  21.647  25.391  1.00  0.00     0.138 C 
ATOM     21  C   UNL A   1      31.583  22.040  23.921  1.00  0.00     0.036 C 
ATOM     22  O   UNL A   1      32.280  20.310  25.377  1.00  0.00    -0.376 OA
ATOM     23  C   UNL A   1      32.571  21.170  23.200  1.00  0.00     0.031 C 
ATOM     24  C   UNL A   1      32.535  19.911  24.024  1.00  0.00     0.160 C 
ENDBRANCH  19  20
ENDBRANCH  15  19
ENDBRANCH   5   7
ENDBRANCH   4   5
ENDBRANCH   3   4
ENDBRANCH   2   3
ENDBRANCH   1   2
BRANCH   1  25
ATOM     25  C   UNL A   1      31.403  31.760  26.305  1.00  0.00     0.202 C 
BRANCH  25  26
ATOM     26  C   UNL A   1      31.768  33.090  26.972  1.00  0.00     0.261 C 
BRANCH  26  27
ATOM     27  O   UNL A   1      33.177  33.374  26.894  1.00  0.00    -0.460 OA
BRANCH  27  28
ATOM     28  C   UNL A   1      33.727  33.815  28.050  1.00  0.00     0.338 C 
ATOM     29  O   UNL A   1      33.250  34.608  28.844  1.00  0.00    -0.246 OA
BRANCH  28  30
ATOM     30  C   UNL A   1      34.953  33.054  28.353  1.00  0.00     0.060 A 
ATOM     31  C   UNL A   1      34.802  31.705  28.699  1.00  0.00     0.016 A 
ATOM     32  C   UNL A   1      36.205  33.668  28.410  1.00  0.00     0.016 A 
ATOM     33  C   UNL A   1      35.894  30.976  29.160  1.00  0.00     0.010 A 
ATOM     34  C   UNL A   1      37.300  32.938  28.885  1.00  0.00     0.010 A 
ATOM     35  C   UNL A   1      37.140  31.603  29.300  1.00  0.00    -0.014 A 
BRANCH  35  36
ATOM     36  C   UNL A   1      38.222  30.901  30.030  1.00  0.00     0.031 A 
ATOM     37  C   UNL A   1      38.443  31.216  31.484  1.00  0.00     0.074 A 
ATOM     38  C   UNL A   1      38.969  29.966  29.419  1.00  0.00     0.049 A 
ATOM     39  N   UNL A   1      39.334  30.736  32.313  1.00  0.00    -0.248 NA
ATOM     40  C   UNL A   1      37.534  32.206  32.084  1.00  0.00     0.031 C 
ATOM     41  C   UNL A   1      38.822  29.544  28.028  1.00  0.00     0.029 A 
ATOM     42  N   UNL A   1      40.006  29.204  29.896  1.00  0.00    -0.354 N 
ATOM     43  C   UNL A   1      39.099  31.366  33.527  1.00  0.00     0.074 A 
ATOM     44  C   UNL A   1      37.998  32.284  33.323  1.00  0.00     0.031 C 
ATOM     45  C   UNL A   1      39.745  28.605  27.758  1.00  0.00     0.029 A 
ATOM     46  C   UNL A   1      40.565  28.383  28.948  1.00  0.00     0.049 A 
ATOM     47  H   UNL A   1      40.320  29.242  30.828  1.00  0.00     0.167 HD
ATOM     48  C   UNL A   1      39.738  31.191  34.708  1.00  0.00     0.037 A 
ATOM     49  C   UNL A   1      41.628  27.561  29.030  1.00  0.00     0.037 A 
ATOM     50  C   UNL A   1      40.830  30.274  34.911  1.00  0.00     0.049 A 
ATOM     51  C   UNL A   1      42.366  27.434  30.338  1.00  0.00     0.074 A 
ATOM     52  C   UNL A   1      41.525  30.005  36.077  1.00  0.00     0.029 A 
ATOM     53  N   UNL A   1      41.389  29.484  33.919  1.00  0.00    -0.354 N 
ATOM     54  N   UNL A   1      42.117  28.009  31.489  1.00  0.00    -0.248 NA
ATOM     55  C   UNL A   1      43.532  26.539  30.357  1.00  0.00     0.031 C 
ATOM     56  C   UNL A   1      42.538  29.087  35.777  1.00  0.00     0.029 A 
ATOM     57  C   UNL A   1      42.441  28.747  34.438  1.00  0.00     0.049 A 
ATOM     58  H   UNL A   1      41.085  29.452  32.982  1.00  0.00     0.167 HD
ATOM     59  C   UNL A   1      43.073  27.528  32.373  1.00  0.00     0.074 A 
ATOM     60  C   UNL A   1      43.901  26.602  31.629  1.00  0.00     0.031 C 
ATOM     61  C   UNL A   1      43.250  27.824  33.685  1.00  0.00     0.037 A 
BRANCH  48  62
ATOM     62  C   UNL A   1      39.291  32.027  35.870  1.00  0.00     0.064 A 
ATOM     63  C   UNL A   1      38.346  31.561  36.795  1.00  0.00     0.173 A 
ATOM     64  C   UNL A   1      39.846  33.299  36.082  1.00  0.00     0.173 A 
ATOM     65  F   UNL A   1      37.777  30.357  36.629  1.00  0.00    -0.203 F 
ATOM     66  C   UNL A   1      37.956  32.345  37.877  1.00  0.00     0.198 A 
ATOM     67  C   UNL A   1      39.474  34.070  37.179  1.00  0.00     0.198 A 
ATOM     68  F   UNL A   1      40.757  33.790  35.229  1.00  0.00    -0.203 F 
ATOM     69  F   UNL A   1      37.021  31.897  38.726  1.00  0.00    -0.200 F 
ATOM     70  C   UNL A   1      38.525  33.595  38.072  1.00  0.00     0.200 A 
ATOM     71  F   UNL A   1      40.032  35.272  37.373  1.00  0.00    -0.200 F 
ATOM     72  F   UNL A   1      38.154  34.346  39.119  1.00  0.00    -0.200 F 
ENDBRANCH  48  62
BRANCH  49  73
ATOM     73  C   UNL A   1      42.074  26.803  27.832  1.00  0.00     0.064 A 
ATOM     74  C   UNL A   1      41.567  25.527  27.554  1.00  0.00     0.173 A 
ATOM     75  C   UNL A   1      43.031  27.333  26.953  1.00  0.00     0.173 A 
ATOM     76  F   UNL A   1      40.670  24.967  28.378  1.00  0.00    -0.203 F 
ATOM     77  C   UNL A   1      42.013  24.801  26.450  1.00  0.00     0.198 A 
ATOM     78  C   UNL A   1      43.455  26.617  25.836  1.00  0.00     0.198 A 
ATOM     79  F   UNL A   1      43.549  28.549  27.178  1.00  0.00    -0.203 F 
ATOM     80  F   UNL A   1      41.547  23.565  26.231  1.00  0.00    -0.200 F 
ATOM     81  C   UNL A   1      42.953  25.349  25.590  1.00  0.00     0.200 A 
ATOM     82  F   UNL A   1      44.355  27.156  25.001  1.00  0.00    -0.200 F 
ATOM     83  F   UNL A   1      43.380  24.652  24.528  1.00  0.00    -0.200 F 
ENDBRANCH  49  73
BRANCH  61  84
ATOM     84  C   UNL A   1      44.358  27.115  34.409  1.00  0.00     0.064 A 
ATOM     85  C   UNL A   1      45.636  27.679  34.532  1.00  0.00     0.173 A 
ATOM     86  C   UNL A   1      44.123  25.876  35.026  1.00  0.00     0.173 A 
ATOM     87  F   UNL A   1      45.914  28.854  33.949  1.00  0.00    -0.203 F 
ATOM     88  C   UNL A   1      46.645  27.018  35.227  1.00  0.00     0.198 A 
ATOM     89  C   UNL A   1      45.127  25.232  35.744  1.00  0.00     0.198 A 
ATOM     90  F   UNL A   1      42.916  25.298  34.944  1.00  0.00    -0.203 F 
ATOM     91  F   UNL A   1      47.872  27.554  35.293  1.00  0.00    -0.200 F 
ATOM     92  C   UNL A   1      46.389  25.799  35.838  1.00  0.00     0.200 A 
ATOM     93  F   UNL A   1      44.873  24.061  36.345  1.00  0.00    -0.200 F 
ATOM     94  F   UNL A   1      47.359  25.168  36.512  1.00  0.00    -0.200 F 
ENDBRANCH  61  84
ENDBRANCH  35  36
ENDBRANCH  28  30
ENDBRANCH  27  28
ENDBRANCH  26  27
ENDBRANCH  25  26
ENDBRANCH   1  25
TORSDOF 16
ENDMDL
