MODEL 1
REMARK VINA RESULT:     -10.7      0.000      0.000
REMARK SMILES Cc1c(Cl)cc2c(c1C)O[C@H](C(F)(F)F)C(C(=O)OCCOCCOC(=O)c1ccc(-c3c4nc(c(-c5c(F)c(F)c(F)c(F)c5F)c5ccc([nH]5)c(-c5c(F)c(F)c(F)c(F)c5F)c5nc(c(-c6c(F)c(F)c(F)c(F)c6F)c6ccc3[nH]6)C=C5)C=C4)cc1)=C2
REMARK SMILES IDX 23 1 22 2 21 3 20 4 19 5 17 6 18 7 16 8 1 9 2 10 3 11 8 12
REMARK SMILES IDX 4 13 5 14 7 15 9 16 6 17 10 18 91 19 11 20 12 21 13 22 14 23
REMARK SMILES IDX 15 24 24 25 25 26 26 27 27 28 28 29 29 30 90 31 30 32 89 33
REMARK SMILES IDX 31 34 32 35 33 36 83 37 34 38 88 39 82 40 84 41 35 42 87 43
REMARK SMILES IDX 81 44 80 45 36 47 68 48 48 49 67 50 49 51 52 52 66 53 85 54
REMARK SMILES IDX 50 55 51 56 65 58 86 59 53 60 37 61 38 62 46 63 39 64 40 65
REMARK SMILES IDX 44 66 47 67 41 68 42 69 45 70 43 71 69 72 70 73 78 74 71 75
REMARK SMILES IDX 72 76 76 77 79 78 73 79 74 80 77 81 75 82 54 83 55 84 63 85
REMARK SMILES IDX 56 86 57 87 61 88 64 89 58 90 59 91 62 92 60 93
REMARK H PARENT 84 46 52 57
REMARK Flexibility Score: inf
ROOT
ATOM      1  C   UNL A   1      42.001  19.125  26.660  1.00  0.00     0.202 C 
ENDROOT
BRANCH   1   2
ATOM      2  O   UNL A   1      42.657  18.140  25.860  1.00  0.00    -0.374 OA
BRANCH   2   3
ATOM      3  C   UNL A   1      43.698  18.576  24.989  1.00  0.00     0.202 C 
BRANCH   3   4
ATOM      4  C   UNL A   1      44.635  19.657  25.530  1.00  0.00     0.261 C 
BRANCH   4   5
ATOM      5  O   UNL A   1      44.627  20.827  24.695  1.00  0.00    -0.460 OA
BRANCH   5   6
ATOM      6  C   UNL A   1      43.969  21.885  25.220  1.00  0.00     0.338 C 
ATOM      7  O   UNL A   1      42.809  22.206  25.007  1.00  0.00    -0.246 OA
BRANCH   6   8
ATOM      8  C   UNL A   1      44.822  22.567  26.210  1.00  0.00     0.087 C 
ATOM      9  C   UNL A   1      46.937  26.372  31.053  1.00  0.00     0.046 C 
ATOM     10  C   UNL A   1      46.300  25.359  30.132  1.00  0.00    -0.026 A 
ATOM     11  C   UNL A   1      45.028  24.834  30.435  1.00  0.00     0.045 A 
ATOM     12  C   UNL A   1      46.916  24.986  28.907  1.00  0.00    -0.004 A 
ATOM     13  Cl  UNL A   1      44.164  25.264  31.872  1.00  0.00    -0.084 Cl
ATOM     14  C   UNL A   1      44.382  23.960  29.560  1.00  0.00     0.032 A 
ATOM     15  C   UNL A   1      46.258  24.078  28.047  1.00  0.00     0.131 A 
ATOM     16  C   UNL A   1      48.258  25.527  28.478  1.00  0.00     0.049 C 
ATOM     17  C   UNL A   1      44.987  23.599  28.357  1.00  0.00     0.019 A 
ATOM     18  O   UNL A   1      46.927  23.702  26.911  1.00  0.00    -0.475 OA
ATOM     19  C   UNL A   1      44.250  22.799  27.397  1.00  0.00     0.027 C 
ATOM     20  C   UNL A   1      46.218  22.992  25.857  1.00  0.00     0.316 C 
BRANCH  20  21
ATOM     21  C   UNL A   1      46.281  23.844  24.581  1.00  0.00     0.430 C 
ATOM     22  F   UNL A   1      46.594  23.086  23.502  1.00  0.00    -0.167 F 
ATOM     23  F   UNL A   1      45.091  24.428  24.307  1.00  0.00    -0.167 F 
ATOM     24  F   UNL A   1      47.206  24.826  24.670  1.00  0.00    -0.167 F 
ENDBRANCH  20  21
ENDBRANCH   6   8
ENDBRANCH   5   6
ENDBRANCH   4   5
ENDBRANCH   3   4
ENDBRANCH   2   3
ENDBRANCH   1   2
BRANCH   1  25
ATOM     25  C   UNL A   1      40.684  19.693  26.119  1.00  0.00     0.261 C 
BRANCH  25  26
ATOM     26  O   UNL A   1      40.151  20.722  26.973  1.00  0.00    -0.460 OA
BRANCH  26  27
ATOM     27  C   UNL A   1      39.507  21.717  26.318  1.00  0.00     0.338 C 
ATOM     28  O   UNL A   1      38.672  21.607  25.432  1.00  0.00    -0.246 OA
BRANCH  27  29
ATOM     29  C   UNL A   1      39.816  23.017  26.936  1.00  0.00     0.060 A 
ATOM     30  C   UNL A   1      39.292  24.164  26.323  1.00  0.00     0.016 A 
ATOM     31  C   UNL A   1      40.701  23.122  28.010  1.00  0.00     0.016 A 
ATOM     32  C   UNL A   1      39.705  25.426  26.740  1.00  0.00     0.010 A 
ATOM     33  C   UNL A   1      41.128  24.390  28.416  1.00  0.00     0.010 A 
ATOM     34  C   UNL A   1      40.668  25.541  27.750  1.00  0.00    -0.014 A 
BRANCH  34  35
ATOM     35  C   UNL A   1      41.352  26.840  27.954  1.00  0.00     0.031 A 
ATOM     36  C   UNL A   1      40.630  27.914  28.721  1.00  0.00     0.074 A 
ATOM     37  C   UNL A   1      42.603  27.047  27.510  1.00  0.00     0.049 A 
ATOM     38  N   UNL A   1      40.991  29.147  28.965  1.00  0.00    -0.248 NA
ATOM     39  C   UNL A   1      39.327  27.542  29.298  1.00  0.00     0.031 C 
ATOM     40  C   UNL A   1      43.429  26.058  26.824  1.00  0.00     0.029 A 
ATOM     41  N   UNL A   1      43.392  28.167  27.573  1.00  0.00    -0.354 N 
ATOM     42  C   UNL A   1      39.962  29.697  29.719  1.00  0.00     0.074 A 
ATOM     43  C   UNL A   1      38.952  28.673  29.873  1.00  0.00     0.031 C 
ATOM     44  C   UNL A   1      44.613  26.619  26.521  1.00  0.00     0.029 A 
ATOM     45  C   UNL A   1      44.609  28.014  26.959  1.00  0.00     0.049 A 
ATOM     46  H   UNL A   1      43.113  28.999  28.018  1.00  0.00     0.167 HD
ATOM     47  C   UNL A   1      39.872  30.943  30.241  1.00  0.00     0.037 A 
ATOM     48  C   UNL A   1      45.593  28.911  26.751  1.00  0.00     0.037 A 
ATOM     49  C   UNL A   1      40.875  31.961  30.082  1.00  0.00     0.049 A 
ATOM     50  C   UNL A   1      45.422  30.323  27.250  1.00  0.00     0.074 A 
ATOM     51  C   UNL A   1      40.870  33.259  30.557  1.00  0.00     0.029 A 
ATOM     52  N   UNL A   1      42.064  31.791  29.388  1.00  0.00    -0.354 N 
ATOM     53  N   UNL A   1      44.436  30.846  27.935  1.00  0.00    -0.248 NA
ATOM     54  C   UNL A   1      46.502  31.270  26.936  1.00  0.00     0.031 C 
ATOM     55  C   UNL A   1      42.039  33.889  30.115  1.00  0.00     0.029 A 
ATOM     56  C   UNL A   1      42.791  32.969  29.404  1.00  0.00     0.049 A 
ATOM     57  H   UNL A   1      42.349  30.957  28.950  1.00  0.00     0.167 HD
ATOM     58  C   UNL A   1      44.777  32.177  28.143  1.00  0.00     0.074 A 
ATOM     59  C   UNL A   1      46.074  32.375  27.531  1.00  0.00     0.031 C 
ATOM     60  C   UNL A   1      44.077  33.149  28.778  1.00  0.00     0.037 A 
BRANCH  47  61
ATOM     61  C   UNL A   1      38.634  31.279  31.017  1.00  0.00     0.064 A 
ATOM     62  C   UNL A   1      38.588  31.160  32.414  1.00  0.00     0.173 A 
ATOM     63  C   UNL A   1      37.493  31.762  30.358  1.00  0.00     0.173 A 
ATOM     64  F   UNL A   1      39.645  30.684  33.086  1.00  0.00    -0.203 F 
ATOM     65  C   UNL A   1      37.438  31.500  33.122  1.00  0.00     0.198 A 
ATOM     66  C   UNL A   1      36.354  32.124  31.073  1.00  0.00     0.198 A 
ATOM     67  F   UNL A   1      37.487  31.893  29.024  1.00  0.00    -0.203 F 
ATOM     68  F   UNL A   1      37.402  31.345  34.453  1.00  0.00    -0.200 F 
ATOM     69  C   UNL A   1      36.326  31.989  32.453  1.00  0.00     0.200 A 
ATOM     70  F   UNL A   1      35.283  32.604  30.425  1.00  0.00    -0.200 F 
ATOM     71  F   UNL A   1      35.223  32.325  33.137  1.00  0.00    -0.200 F 
ENDBRANCH  47  61
BRANCH  48  72
ATOM     72  C   UNL A   1      46.819  28.508  26.017  1.00  0.00     0.064 A 
ATOM     73  C   UNL A   1      48.060  28.443  26.666  1.00  0.00     0.173 A 
ATOM     74  C   UNL A   1      46.779  28.189  24.652  1.00  0.00     0.173 A 
ATOM     75  F   UNL A   1      48.154  28.769  27.963  1.00  0.00    -0.203 F 
ATOM     76  C   UNL A   1      49.214  28.082  25.975  1.00  0.00     0.198 A 
ATOM     77  C   UNL A   1      47.929  27.802  23.968  1.00  0.00     0.198 A 
ATOM     78  F   UNL A   1      45.617  28.244  23.983  1.00  0.00    -0.203 F 
ATOM     79  F   UNL A   1      50.395  28.064  26.610  1.00  0.00    -0.200 F 
ATOM     80  C   UNL A   1      49.147  27.754  24.629  1.00  0.00     0.200 A 
ATOM     81  F   UNL A   1      47.858  27.479  22.669  1.00  0.00    -0.200 F 
ATOM     82  F   UNL A   1      50.257  27.400  23.967  1.00  0.00    -0.200 F 
ENDBRANCH  48  72
BRANCH  60  83
ATOM     83  C   UNL A   1      44.699  34.514  28.845  1.00  0.00     0.064 A 
ATOM     84  C   UNL A   1      45.536  34.883  29.908  1.00  0.00     0.173 A 
ATOM     85  C   UNL A   1      44.496  35.443  27.814  1.00  0.00     0.173 A 
ATOM     86  F   UNL A   1      45.751  34.035  30.924  1.00  0.00    -0.203 F 
ATOM     87  C   UNL A   1      46.126  36.144  29.948  1.00  0.00     0.198 A 
ATOM     88  C   UNL A   1      45.110  36.692  27.843  1.00  0.00     0.198 A 
ATOM     89  F   UNL A   1      43.711  35.134  26.770  1.00  0.00    -0.203 F 
ATOM     90  F   UNL A   1      46.886  36.493  30.996  1.00  0.00    -0.200 F 
ATOM     91  C   UNL A   1      45.919  37.043  28.913  1.00  0.00     0.200 A 
ATOM     92  F   UNL A   1      44.921  37.554  26.835  1.00  0.00    -0.200 F 
ATOM     93  F   UNL A   1      46.495  38.253  28.950  1.00  0.00    -0.200 F 
ENDBRANCH  60  83
ENDBRANCH  34  35
ENDBRANCH  27  29
ENDBRANCH  26  27
ENDBRANCH  25  26
ENDBRANCH   1  25
TORSDOF 15
ENDMDL
MODEL 2
REMARK VINA RESULT:     -10.7      0.140      1.581
REMARK SMILES Cc1c(Cl)cc2c(c1C)O[C@H](C(F)(F)F)C(C(=O)OCCOCCOC(=O)c1ccc(-c3c4nc(c(-c5c(F)c(F)c(F)c(F)c5F)c5ccc([nH]5)c(-c5c(F)c(F)c(F)c(F)c5F)c5nc(c(-c6c(F)c(F)c(F)c(F)c6F)c6ccc3[nH]6)C=C5)C=C4)cc1)=C2
REMARK SMILES IDX 23 1 22 2 21 3 20 4 19 5 17 6 18 7 16 8 1 9 2 10 3 11 8 12
REMARK SMILES IDX 4 13 5 14 7 15 9 16 6 17 10 18 91 19 11 20 12 21 13 22 14 23
REMARK SMILES IDX 15 24 24 25 25 26 26 27 27 28 28 29 29 30 90 31 30 32 89 33
REMARK SMILES IDX 31 34 32 35 33 36 83 37 34 38 88 39 82 40 84 41 35 42 87 43
REMARK SMILES IDX 81 44 80 45 36 47 68 48 48 49 67 50 49 51 52 52 66 53 85 54
REMARK SMILES IDX 50 55 51 56 65 58 86 59 53 60 37 61 38 62 46 63 39 64 40 65
REMARK SMILES IDX 44 66 47 67 41 68 42 69 45 70 43 71 69 72 70 73 78 74 71 75
REMARK SMILES IDX 72 76 76 77 79 78 73 79 74 80 77 81 75 82 54 83 55 84 63 85
REMARK SMILES IDX 56 86 57 87 61 88 64 89 58 90 59 91 62 92 60 93
REMARK H PARENT 84 46 52 57
REMARK Flexibility Score: inf
ROOT
ATOM      1  C   UNL A   1      41.942  19.217  26.585  1.00  0.00     0.202 C 
ENDROOT
BRANCH   1   2
ATOM      2  O   UNL A   1      42.554  18.221  25.764  1.00  0.00    -0.374 OA
BRANCH   2   3
ATOM      3  C   UNL A   1      43.689  18.602  24.990  1.00  0.00     0.202 C 
BRANCH   3   4
ATOM      4  C   UNL A   1      44.564  19.719  25.563  1.00  0.00     0.261 C 
BRANCH   4   5
ATOM      5  O   UNL A   1      44.517  20.897  24.742  1.00  0.00    -0.460 OA
BRANCH   5   6
ATOM      6  C   UNL A   1      43.878  21.947  25.306  1.00  0.00     0.338 C 
ATOM      7  O   UNL A   1      42.715  22.278  25.130  1.00  0.00    -0.246 OA
BRANCH   6   8
ATOM      8  C   UNL A   1      44.759  22.604  26.288  1.00  0.00     0.087 C 
ATOM      9  C   UNL A   1      47.024  26.326  31.128  1.00  0.00     0.046 C 
ATOM     10  C   UNL A   1      46.352  25.334  30.209  1.00  0.00    -0.026 A 
ATOM     11  C   UNL A   1      45.073  24.835  30.526  1.00  0.00     0.045 A 
ATOM     12  C   UNL A   1      46.943  24.957  28.973  1.00  0.00    -0.004 A 
ATOM     13  Cl  UNL A   1      44.238  25.274  31.977  1.00  0.00    -0.084 Cl
ATOM     14  C   UNL A   1      44.396  23.982  29.653  1.00  0.00     0.032 A 
ATOM     15  C   UNL A   1      46.254  24.070  28.116  1.00  0.00     0.131 A 
ATOM     16  C   UNL A   1      48.291  25.472  28.529  1.00  0.00     0.049 C 
ATOM     17  C   UNL A   1      44.976  23.616  28.440  1.00  0.00     0.019 A 
ATOM     18  O   UNL A   1      46.898  23.687  26.968  1.00  0.00    -0.475 OA
ATOM     19  C   UNL A   1      44.209  22.840  27.485  1.00  0.00     0.027 C 
ATOM     20  C   UNL A   1      46.159  23.000  25.920  1.00  0.00     0.316 C 
BRANCH  20  21
ATOM     21  C   UNL A   1      46.224  23.860  24.649  1.00  0.00     0.430 C 
ATOM     22  F   UNL A   1      46.555  23.111  23.568  1.00  0.00    -0.167 F 
ATOM     23  F   UNL A   1      45.030  24.431  24.367  1.00  0.00    -0.167 F 
ATOM     24  F   UNL A   1      47.136  24.852  24.751  1.00  0.00    -0.167 F 
ENDBRANCH  20  21
ENDBRANCH   6   8
ENDBRANCH   5   6
ENDBRANCH   4   5
ENDBRANCH   3   4
ENDBRANCH   2   3
ENDBRANCH   1   2
BRANCH   1  25
ATOM     25  C   UNL A   1      40.580  19.752  26.127  1.00  0.00     0.261 C 
BRANCH  25  26
ATOM     26  O   UNL A   1      40.090  20.790  26.996  1.00  0.00    -0.460 OA
BRANCH  26  27
ATOM     27  C   UNL A   1      39.452  21.800  26.359  1.00  0.00     0.338 C 
ATOM     28  O   UNL A   1      38.605  21.709  25.482  1.00  0.00    -0.246 OA
BRANCH  27  29
ATOM     29  C   UNL A   1      39.783  23.088  26.988  1.00  0.00     0.060 A 
ATOM     30  C   UNL A   1      39.263  24.248  26.396  1.00  0.00     0.016 A 
ATOM     31  C   UNL A   1      40.683  23.172  28.051  1.00  0.00     0.016 A 
ATOM     32  C   UNL A   1      39.695  25.501  26.822  1.00  0.00     0.010 A 
ATOM     33  C   UNL A   1      41.130  24.430  28.466  1.00  0.00     0.010 A 
ATOM     34  C   UNL A   1      40.673  25.593  27.819  1.00  0.00    -0.014 A 
BRANCH  34  35
ATOM     35  C   UNL A   1      41.374  26.883  28.029  1.00  0.00     0.031 A 
ATOM     36  C   UNL A   1      40.670  27.960  28.808  1.00  0.00     0.074 A 
ATOM     37  C   UNL A   1      42.625  27.078  27.579  1.00  0.00     0.049 A 
ATOM     38  N   UNL A   1      41.046  29.186  29.059  1.00  0.00    -0.248 NA
ATOM     39  C   UNL A   1      39.365  27.599  29.389  1.00  0.00     0.031 C 
ATOM     40  C   UNL A   1      43.436  26.085  26.882  1.00  0.00     0.029 A 
ATOM     41  N   UNL A   1      43.428  28.187  27.646  1.00  0.00    -0.354 N 
ATOM     42  C   UNL A   1      40.029  29.744  29.823  1.00  0.00     0.074 A 
ATOM     43  C   UNL A   1      39.007  28.731  29.975  1.00  0.00     0.031 C 
ATOM     44  C   UNL A   1      44.624  26.633  26.576  1.00  0.00     0.029 A 
ATOM     45  C   UNL A   1      44.639  28.025  27.024  1.00  0.00     0.049 A 
ATOM     46  H   UNL A   1      43.162  29.020  28.099  1.00  0.00     0.167 HD
ATOM     47  C   UNL A   1      39.957  30.986  30.354  1.00  0.00     0.037 A 
ATOM     48  C   UNL A   1      45.634  28.911  26.818  1.00  0.00     0.037 A 
ATOM     49  C   UNL A   1      40.971  31.993  30.197  1.00  0.00     0.049 A 
ATOM     50  C   UNL A   1      45.482  30.321  27.328  1.00  0.00     0.074 A 
ATOM     51  C   UNL A   1      40.985  33.288  30.681  1.00  0.00     0.029 A 
ATOM     52  N   UNL A   1      42.154  31.814  29.495  1.00  0.00    -0.354 N 
ATOM     53  N   UNL A   1      44.506  30.852  28.023  1.00  0.00    -0.248 NA
ATOM     54  C   UNL A   1      46.572  31.257  27.014  1.00  0.00     0.031 C 
ATOM     55  C   UNL A   1      42.158  33.907  30.238  1.00  0.00     0.029 A 
ATOM     56  C   UNL A   1      42.896  32.983  29.516  1.00  0.00     0.049 A 
ATOM     57  H   UNL A   1      42.426  30.980  29.049  1.00  0.00     0.167 HD
ATOM     58  C   UNL A   1      44.864  32.176  28.238  1.00  0.00     0.074 A 
ATOM     59  C   UNL A   1      46.161  32.363  27.621  1.00  0.00     0.031 C 
ATOM     60  C   UNL A   1      44.180  33.152  28.885  1.00  0.00     0.037 A 
BRANCH  47  61
ATOM     61  C   UNL A   1      38.727  31.332  31.139  1.00  0.00     0.064 A 
ATOM     62  C   UNL A   1      38.671  31.158  32.530  1.00  0.00     0.173 A 
ATOM     63  C   UNL A   1      37.606  31.878  30.497  1.00  0.00     0.173 A 
ATOM     64  F   UNL A   1      39.710  30.621  33.186  1.00  0.00    -0.203 F 
ATOM     65  C   UNL A   1      37.530  31.507  33.248  1.00  0.00     0.198 A 
ATOM     66  C   UNL A   1      36.476  32.248  31.223  1.00  0.00     0.198 A 
ATOM     67  F   UNL A   1      37.609  32.063  29.170  1.00  0.00    -0.203 F 
ATOM     68  F   UNL A   1      37.484  31.300  34.572  1.00  0.00    -0.200 F 
ATOM     69  C   UNL A   1      36.438  32.059  32.596  1.00  0.00     0.200 A 
ATOM     70  F   UNL A   1      35.424  32.789  30.592  1.00  0.00    -0.200 F 
ATOM     71  F   UNL A   1      35.344  32.403  33.290  1.00  0.00    -0.200 F 
ENDBRANCH  47  61
BRANCH  48  72
ATOM     72  C   UNL A   1      46.850  28.499  26.074  1.00  0.00     0.064 A 
ATOM     73  C   UNL A   1      46.789  28.185  24.709  1.00  0.00     0.173 A 
ATOM     74  C   UNL A   1      48.097  28.403  26.710  1.00  0.00     0.173 A 
ATOM     75  F   UNL A   1      45.614  28.232  24.064  1.00  0.00    -0.203 F 
ATOM     76  C   UNL A   1      47.926  27.782  24.012  1.00  0.00     0.198 A 
ATOM     77  C   UNL A   1      49.238  28.026  26.006  1.00  0.00     0.198 A 
ATOM     78  F   UNL A   1      48.206  28.686  28.017  1.00  0.00    -0.203 F 
ATOM     79  F   UNL A   1      47.833  27.450  22.717  1.00  0.00    -0.200 F 
ATOM     80  C   UNL A   1      49.151  27.711  24.659  1.00  0.00     0.200 A 
ATOM     81  F   UNL A   1      50.420  27.965  26.634  1.00  0.00    -0.200 F 
ATOM     82  F   UNL A   1      50.245  27.330  23.986  1.00  0.00    -0.200 F 
ENDBRANCH  48  72
BRANCH  60  83
ATOM     83  C   UNL A   1      44.819  34.509  28.958  1.00  0.00     0.064 A 
ATOM     84  C   UNL A   1      44.565  35.489  27.988  1.00  0.00     0.173 A 
ATOM     85  C   UNL A   1      45.656  34.847  30.031  1.00  0.00     0.173 A 
ATOM     86  F   UNL A   1      43.782  35.210  26.935  1.00  0.00    -0.203 F 
ATOM     87  C   UNL A   1      45.145  36.752  28.077  1.00  0.00     0.198 A 
ATOM     88  C   UNL A   1      46.212  36.119  30.133  1.00  0.00     0.198 A 
ATOM     89  F   UNL A   1      45.923  33.947  30.990  1.00  0.00    -0.203 F 
ATOM     90  F   UNL A   1      44.924  37.659  27.116  1.00  0.00    -0.200 F 
ATOM     91  C   UNL A   1      45.961  37.068  29.153  1.00  0.00     0.200 A 
ATOM     92  F   UNL A   1      46.988  36.428  31.181  1.00  0.00    -0.200 F 
ATOM     93  F   UNL A   1      46.512  38.286  29.242  1.00  0.00    -0.200 F 
ENDBRANCH  60  83
ENDBRANCH  34  35
ENDBRANCH  27  29
ENDBRANCH  26  27
ENDBRANCH  25  26
ENDBRANCH   1  25
TORSDOF 15
ENDMDL
MODEL 3
REMARK VINA RESULT:     -10.5      4.103      7.077
REMARK SMILES Cc1c(Cl)cc2c(c1C)O[C@H](C(F)(F)F)C(C(=O)OCCOCCOC(=O)c1ccc(-c3c4nc(c(-c5c(F)c(F)c(F)c(F)c5F)c5ccc([nH]5)c(-c5c(F)c(F)c(F)c(F)c5F)c5nc(c(-c6c(F)c(F)c(F)c(F)c6F)c6ccc3[nH]6)C=C5)C=C4)cc1)=C2
REMARK SMILES IDX 23 1 22 2 21 3 20 4 19 5 17 6 18 7 16 8 1 9 2 10 3 11 8 12
REMARK SMILES IDX 4 13 5 14 7 15 9 16 6 17 10 18 91 19 11 20 12 21 13 22 14 23
REMARK SMILES IDX 15 24 24 25 25 26 26 27 27 28 28 29 29 30 90 31 30 32 89 33
REMARK SMILES IDX 31 34 32 35 33 36 83 37 34 38 88 39 82 40 84 41 35 42 87 43
REMARK SMILES IDX 81 44 80 45 36 47 68 48 48 49 67 50 49 51 52 52 66 53 85 54
REMARK SMILES IDX 50 55 51 56 65 58 86 59 53 60 37 61 38 62 46 63 39 64 40 65
REMARK SMILES IDX 44 66 47 67 41 68 42 69 45 70 43 71 69 72 70 73 78 74 71 75
REMARK SMILES IDX 72 76 76 77 79 78 73 79 74 80 77 81 75 82 54 83 55 84 63 85
REMARK SMILES IDX 56 86 57 87 61 88 64 89 58 90 59 91 62 92 60 93
REMARK H PARENT 84 46 52 57
REMARK Flexibility Score: inf
ROOT
ATOM      1  C   UNL A   1      36.045  20.511  24.815  1.00  0.00     0.202 C 
ENDROOT
BRANCH   1   2
ATOM      2  O   UNL A   1      35.366  21.167  25.887  1.00  0.00    -0.374 OA
BRANCH   2   3
ATOM      3  C   UNL A   1      33.991  20.853  26.096  1.00  0.00     0.202 C 
BRANCH   3   4
ATOM      4  C   UNL A   1      32.975  21.922  25.686  1.00  0.00     0.261 C 
BRANCH   4   5
ATOM      5  O   UNL A   1      33.584  23.222  25.603  1.00  0.00    -0.460 OA
BRANCH   5   6
ATOM      6  C   UNL A   1      33.649  23.731  24.352  1.00  0.00     0.338 C 
ATOM      7  O   UNL A   1      33.943  23.129  23.330  1.00  0.00    -0.246 OA
BRANCH   6   8
ATOM      8  C   UNL A   1      33.192  25.132  24.354  1.00  0.00     0.087 C 
ATOM      9  C   UNL A   1      31.697  31.203  26.176  1.00  0.00     0.046 C 
ATOM     10  C   UNL A   1      32.309  29.872  25.811  1.00  0.00    -0.026 A 
ATOM     11  C   UNL A   1      33.488  29.439  26.450  1.00  0.00     0.045 A 
ATOM     12  C   UNL A   1      31.670  28.993  24.896  1.00  0.00    -0.004 A 
ATOM     13  Cl  UNL A   1      34.317  30.406  27.623  1.00  0.00    -0.084 Cl
ATOM     14  C   UNL A   1      34.027  28.179  26.192  1.00  0.00     0.032 A 
ATOM     15  C   UNL A   1      32.247  27.731  24.626  1.00  0.00     0.131 A 
ATOM     16  C   UNL A   1      30.383  29.351  24.193  1.00  0.00     0.049 C 
ATOM     17  C   UNL A   1      33.396  27.316  25.297  1.00  0.00     0.019 A 
ATOM     18  O   UNL A   1      31.625  26.950  23.686  1.00  0.00    -0.475 OA
ATOM     19  C   UNL A   1      33.890  25.962  25.137  1.00  0.00     0.027 C 
ATOM     20  C   UNL A   1      31.996  25.551  23.549  1.00  0.00     0.316 C 
BRANCH  20  21
ATOM     21  C   UNL A   1      30.752  24.697  23.835  1.00  0.00     0.430 C 
ATOM     22  F   UNL A   1      30.787  23.534  23.140  1.00  0.00    -0.167 F 
ATOM     23  F   UNL A   1      30.664  24.360  25.143  1.00  0.00    -0.167 F 
ATOM     24  F   UNL A   1      29.609  25.336  23.501  1.00  0.00    -0.167 F 
ENDBRANCH  20  21
ENDBRANCH   6   8
ENDBRANCH   5   6
ENDBRANCH   4   5
ENDBRANCH   3   4
ENDBRANCH   2   3
ENDBRANCH   1   2
BRANCH   1  25
ATOM     25  C   UNL A   1      37.545  20.255  24.998  1.00  0.00     0.261 C 
BRANCH  25  26
ATOM     26  O   UNL A   1      38.250  21.448  25.389  1.00  0.00    -0.460 OA
BRANCH  26  27
ATOM     27  C   UNL A   1      39.362  21.226  26.129  1.00  0.00     0.338 C 
ATOM     28  O   UNL A   1      40.036  20.207  26.173  1.00  0.00    -0.246 OA
BRANCH  27  29
ATOM     29  C   UNL A   1      39.792  22.470  26.788  1.00  0.00     0.060 A 
ATOM     30  C   UNL A   1      39.196  23.665  26.362  1.00  0.00     0.016 A 
ATOM     31  C   UNL A   1      40.841  22.484  27.707  1.00  0.00     0.016 A 
ATOM     32  C   UNL A   1      39.694  24.888  26.803  1.00  0.00     0.010 A 
ATOM     33  C   UNL A   1      41.352  23.713  28.136  1.00  0.00     0.010 A 
ATOM     34  C   UNL A   1      40.811  24.916  27.647  1.00  0.00    -0.014 A 
BRANCH  34  35
ATOM     35  C   UNL A   1      41.543  26.191  27.837  1.00  0.00     0.031 A 
ATOM     36  C   UNL A   1      40.855  27.305  28.577  1.00  0.00     0.074 A 
ATOM     37  C   UNL A   1      42.806  26.341  27.405  1.00  0.00     0.049 A 
ATOM     38  N   UNL A   1      41.260  28.527  28.804  1.00  0.00    -0.248 NA
ATOM     39  C   UNL A   1      39.531  26.994  29.143  1.00  0.00     0.031 C 
ATOM     40  C   UNL A   1      43.601  25.309  26.747  1.00  0.00     0.029 A 
ATOM     41  N   UNL A   1      43.638  27.430  27.459  1.00  0.00    -0.354 N 
ATOM     42  C   UNL A   1      40.245  29.130  29.536  1.00  0.00     0.074 A 
ATOM     43  C   UNL A   1      39.194  28.149  29.694  1.00  0.00     0.031 C 
ATOM     44  C   UNL A   1      44.809  25.817  26.449  1.00  0.00     0.029 A 
ATOM     45  C   UNL A   1      44.855  27.219  26.863  1.00  0.00     0.049 A 
ATOM     46  H   UNL A   1      43.386  28.280  27.886  1.00  0.00     0.167 HD
ATOM     47  C   UNL A   1      40.198  30.387  30.035  1.00  0.00     0.037 A 
ATOM     48  C   UNL A   1      45.876  28.073  26.653  1.00  0.00     0.037 A 
ATOM     49  C   UNL A   1      41.242  31.363  29.871  1.00  0.00     0.049 A 
ATOM     50  C   UNL A   1      45.754  29.499  27.125  1.00  0.00     0.074 A 
ATOM     51  C   UNL A   1      41.282  32.668  30.324  1.00  0.00     0.029 A 
ATOM     52  N   UNL A   1      42.431  31.134  29.195  1.00  0.00    -0.354 N 
ATOM     53  N   UNL A   1      44.781  30.073  27.789  1.00  0.00    -0.248 NA
ATOM     54  C   UNL A   1      46.874  30.398  26.808  1.00  0.00     0.031 C 
ATOM     55  C   UNL A   1      42.480  33.245  29.887  1.00  0.00     0.029 A 
ATOM     56  C   UNL A   1      43.204  32.284  29.200  1.00  0.00     0.049 A 
ATOM     57  H   UNL A   1      42.688  30.282  28.775  1.00  0.00     0.167 HD
ATOM     58  C   UNL A   1      45.171  31.392  27.978  1.00  0.00     0.074 A 
ATOM     59  C   UNL A   1      46.483  31.529  27.379  1.00  0.00     0.031 C 
ATOM     60  C   UNL A   1      44.503  32.402  28.588  1.00  0.00     0.037 A 
BRANCH  47  61
ATOM     61  C   UNL A   1      38.965  30.785  30.790  1.00  0.00     0.064 A 
ATOM     62  C   UNL A   1      37.818  31.251  30.128  1.00  0.00     0.173 A 
ATOM     63  C   UNL A   1      38.916  30.662  32.186  1.00  0.00     0.173 A 
ATOM     64  F   UNL A   1      37.823  31.405  28.797  1.00  0.00    -0.203 F 
ATOM     65  C   UNL A   1      36.672  31.593  30.842  1.00  0.00     0.198 A 
ATOM     66  C   UNL A   1      37.759  30.983  32.893  1.00  0.00     0.198 A 
ATOM     67  F   UNL A   1      39.986  30.222  32.864  1.00  0.00    -0.203 F 
ATOM     68  F   UNL A   1      35.600  32.071  30.194  1.00  0.00    -0.200 F 
ATOM     69  C   UNL A   1      36.641  31.451  32.220  1.00  0.00     0.200 A 
ATOM     70  F   UNL A   1      37.728  30.837  34.225  1.00  0.00    -0.200 F 
ATOM     71  F   UNL A   1      35.533  31.772  32.904  1.00  0.00    -0.200 F 
ENDBRANCH  47  61
BRANCH  48  72
ATOM     72  C   UNL A   1      47.094  27.610  25.940  1.00  0.00     0.064 A 
ATOM     73  C   UNL A   1      48.191  27.099  26.647  1.00  0.00     0.173 A 
ATOM     74  C   UNL A   1      47.190  27.677  24.543  1.00  0.00     0.173 A 
ATOM     75  F   UNL A   1      48.158  27.044  27.986  1.00  0.00    -0.203 F 
ATOM     76  C   UNL A   1      49.341  26.679  25.981  1.00  0.00     0.198 A 
ATOM     77  C   UNL A   1      48.330  27.233  23.877  1.00  0.00     0.198 A 
ATOM     78  F   UNL A   1      46.170  28.166  23.822  1.00  0.00    -0.203 F 
ATOM     79  F   UNL A   1      50.392  26.230  26.682  1.00  0.00    -0.200 F 
ATOM     80  C   UNL A   1      49.407  26.739  24.597  1.00  0.00     0.200 A 
ATOM     81  F   UNL A   1      48.386  27.286  22.539  1.00  0.00    -0.200 F 
ATOM     82  F   UNL A   1      50.511  26.329  23.959  1.00  0.00    -0.200 F 
ENDBRANCH  48  72
BRANCH  60  83
ATOM     83  C   UNL A   1      45.177  33.742  28.639  1.00  0.00     0.064 A 
ATOM     84  C   UNL A   1      46.074  34.070  29.667  1.00  0.00     0.173 A 
ATOM     85  C   UNL A   1      44.962  34.690  27.627  1.00  0.00     0.173 A 
ATOM     86  F   UNL A   1      46.303  33.203  30.664  1.00  0.00    -0.203 F 
ATOM     87  C   UNL A   1      46.712  35.308  29.692  1.00  0.00     0.198 A 
ATOM     88  C   UNL A   1      45.622  35.915  27.640  1.00  0.00     0.198 A 
ATOM     89  F   UNL A   1      44.120  34.421  26.617  1.00  0.00    -0.203 F 
ATOM     90  F   UNL A   1      47.530  35.617  30.707  1.00  0.00    -0.200 F 
ATOM     91  C   UNL A   1      46.491  36.225  28.675  1.00  0.00     0.200 A 
ATOM     92  F   UNL A   1      45.420  36.795  26.650  1.00  0.00    -0.200 F 
ATOM     93  F   UNL A   1      47.112  37.413  28.698  1.00  0.00    -0.200 F 
ENDBRANCH  60  83
ENDBRANCH  34  35
ENDBRANCH  27  29
ENDBRANCH  26  27
ENDBRANCH  25  26
ENDBRANCH   1  25
TORSDOF 15
ENDMDL
