MODEL 1
REMARK VINA RESULT:     -11.5      0.000      0.000
REMARK SMILES CCc1ccc(C(=O)NCc2ccc(C(=O)OCCOCCOC(=O)c3ccc(-c4c5nc(c(-c6c(F)c(F)c(F)c(F)c6F)c6ccc([nH]6)c(-c6c(F)c(F)c(F)c(F)c6F)c6nc(c(-c7c(F)c(F)c(F)c(F)c7F)c7ccc4[nH]7)C=C6)C=C5)cc3)cc2)cc1
REMARK SMILES IDX 19 1 18 2 17 3 15 4 16 5 14 6 11 7 12 8 90 9 13 10 89 11
REMARK SMILES IDX 10 12 9 13 7 14 8 15 6 17 3 18 4 19 92 20 5 21 91 22 2 23
REMARK SMILES IDX 1 24 20 25 21 26 22 27 23 28 24 29 25 30 26 31 27 32 88 33
REMARK SMILES IDX 28 34 87 35 29 36 30 37 31 38 81 39 32 40 86 41 80 42 82 43
REMARK SMILES IDX 33 44 85 45 79 46 78 47 34 49 66 50 46 51 65 52 47 53 50 54
REMARK SMILES IDX 64 55 83 56 48 57 49 58 63 60 84 61 51 62 35 63 36 64 44 65
REMARK SMILES IDX 37 66 38 67 42 68 45 69 39 70 40 71 43 72 41 73 67 74 68 75
REMARK SMILES IDX 76 76 69 77 70 78 74 79 77 80 71 81 72 82 75 83 73 84 52 85
REMARK SMILES IDX 53 86 61 87 54 88 55 89 59 90 62 91 56 92 57 93 60 94 58 95
REMARK H PARENT 9 16 82 48 50 59
REMARK Flexibility Score: inf
ROOT
ATOM      1  C   UNL A   1      34.913  33.838  29.476  1.00  0.00     0.202 C 
ENDROOT
BRANCH   1   2
ATOM      2  C   UNL A   1      34.262  32.453  29.411  1.00  0.00     0.261 C 
BRANCH   2   3
ATOM      3  O   UNL A   1      33.848  32.114  28.078  1.00  0.00    -0.460 OA
BRANCH   3   4
ATOM      4  C   UNL A   1      34.616  31.164  27.490  1.00  0.00     0.338 C 
ATOM      5  O   UNL A   1      35.837  31.138  27.450  1.00  0.00    -0.246 OA
BRANCH   4   6
ATOM      6  C   UNL A   1      33.796  30.044  26.979  1.00  0.00     0.060 A 
ATOM      7  C   UNL A   1      31.954  28.066  26.188  1.00  0.00    -0.029 A 
ATOM      8  C   UNL A   1      31.754  29.415  25.849  1.00  0.00     0.006 A 
ATOM      9  C   UNL A   1      33.134  27.717  26.868  1.00  0.00     0.006 A 
ATOM     10  C   UNL A   1      32.662  30.393  26.243  1.00  0.00     0.016 A 
ATOM     11  C   UNL A   1      34.061  28.699  27.254  1.00  0.00     0.016 A 
BRANCH   7  12
ATOM     12  C   UNL A   1      30.857  27.041  25.969  1.00  0.00     0.152 C 
BRANCH  12  13
ATOM     13  N   UNL A   1      30.998  26.347  24.704  1.00  0.00    -0.348 N 
ATOM     14  C   UNL A   1      30.560  26.579  23.432  1.00  0.00     0.251 C 
ATOM     15  O   UNL A   1      30.826  25.722  22.588  1.00  0.00    -0.269 OA
ATOM     16  H   UNL A   1      31.527  25.522  24.780  1.00  0.00     0.164 HD
BRANCH  14  17
ATOM     17  C   UNL A   1      29.861  27.817  23.004  1.00  0.00     0.039 A 
ATOM     18  C   UNL A   1      28.757  30.288  22.204  1.00  0.00    -0.048 A 
ATOM     19  C   UNL A   1      30.113  30.022  21.995  1.00  0.00     0.004 A 
ATOM     20  C   UNL A   1      27.949  29.291  22.762  1.00  0.00     0.004 A 
ATOM     21  C   UNL A   1      30.658  28.802  22.397  1.00  0.00     0.014 A 
ATOM     22  C   UNL A   1      28.492  28.054  23.137  1.00  0.00     0.014 A 
BRANCH  18  23
ATOM     23  C   UNL A   1      28.176  31.618  21.798  1.00  0.00     0.032 C 
ATOM     24  C   UNL A   1      28.583  32.731  22.750  1.00  0.00     0.009 C 
ENDBRANCH  18  23
ENDBRANCH  14  17
ENDBRANCH  12  13
ENDBRANCH   7  12
ENDBRANCH   4   6
ENDBRANCH   3   4
ENDBRANCH   2   3
ENDBRANCH   1   2
BRANCH   1  25
ATOM     25  O   UNL A   1      35.288  34.308  30.768  1.00  0.00    -0.374 OA
BRANCH  25  26
ATOM     26  C   UNL A   1      34.301  34.252  31.799  1.00  0.00     0.202 C 
BRANCH  26  27
ATOM     27  C   UNL A   1      34.660  33.430  33.044  1.00  0.00     0.261 C 
BRANCH  27  28
ATOM     28  O   UNL A   1      35.322  32.198  32.697  1.00  0.00    -0.460 OA
BRANCH  28  29
ATOM     29  C   UNL A   1      36.509  31.992  33.311  1.00  0.00     0.338 C 
ATOM     30  O   UNL A   1      36.783  32.191  34.489  1.00  0.00    -0.246 OA
BRANCH  29  31
ATOM     31  C   UNL A   1      37.434  31.298  32.398  1.00  0.00     0.060 A 
ATOM     32  C   UNL A   1      38.417  30.480  32.970  1.00  0.00     0.016 A 
ATOM     33  C   UNL A   1      37.389  31.493  31.017  1.00  0.00     0.016 A 
ATOM     34  C   UNL A   1      39.392  29.892  32.167  1.00  0.00     0.010 A 
ATOM     35  C   UNL A   1      38.376  30.912  30.212  1.00  0.00     0.010 A 
ATOM     36  C   UNL A   1      39.400  30.138  30.788  1.00  0.00    -0.014 A 
BRANCH  36  37
ATOM     37  C   UNL A   1      40.563  29.708  29.976  1.00  0.00     0.031 A 
ATOM     38  C   UNL A   1      41.658  30.698  29.691  1.00  0.00     0.074 A 
ATOM     39  C   UNL A   1      40.659  28.445  29.524  1.00  0.00     0.049 A 
ATOM     40  N   UNL A   1      42.749  30.552  28.981  1.00  0.00    -0.248 NA
ATOM     41  C   UNL A   1      41.502  32.034  30.286  1.00  0.00     0.031 C 
ATOM     42  C   UNL A   1      39.684  27.386  29.768  1.00  0.00     0.029 A 
ATOM     43  N   UNL A   1      41.627  27.846  28.757  1.00  0.00    -0.354 N 
ATOM     44  C   UNL A   1      43.403  31.775  29.041  1.00  0.00     0.074 A 
ATOM     45  C   UNL A   1      42.576  32.662  29.830  1.00  0.00     0.031 C 
ATOM     46  C   UNL A   1      40.096  26.265  29.152  1.00  0.00     0.029 A 
ATOM     47  C   UNL A   1      41.349  26.537  28.448  1.00  0.00     0.049 A 
ATOM     48  H   UNL A   1      42.443  28.308  28.458  1.00  0.00     0.167 HD
ATOM     49  C   UNL A   1      44.593  32.123  28.496  1.00  0.00     0.037 A 
ATOM     50  C   UNL A   1      42.020  25.668  27.668  1.00  0.00     0.037 A 
ATOM     51  C   UNL A   1      45.417  31.239  27.714  1.00  0.00     0.049 A 
ATOM     52  C   UNL A   1      43.307  26.102  27.014  1.00  0.00     0.074 A 
ATOM     53  C   UNL A   1      46.649  31.492  27.137  1.00  0.00     0.029 A 
ATOM     54  N   UNL A   1      45.087  29.931  27.394  1.00  0.00    -0.354 N 
ATOM     55  N   UNL A   1      43.932  27.251  27.097  1.00  0.00    -0.248 NA
ATOM     56  C   UNL A   1      43.981  25.114  26.159  1.00  0.00     0.031 C 
ATOM     57  C   UNL A   1      47.041  30.352  26.426  1.00  0.00     0.029 A 
ATOM     58  C   UNL A   1      46.077  29.372  26.604  1.00  0.00     0.049 A 
ATOM     59  H   UNL A   1      44.268  29.468  27.686  1.00  0.00     0.167 HD
ATOM     60  C   UNL A   1      45.083  27.117  26.331  1.00  0.00     0.074 A 
ATOM     61  C   UNL A   1      45.077  25.770  25.800  1.00  0.00     0.031 C 
ATOM     62  C   UNL A   1      46.058  28.027  26.089  1.00  0.00     0.037 A 
BRANCH  49  63
ATOM     63  C   UNL A   1      45.065  33.533  28.705  1.00  0.00     0.064 A 
ATOM     64  C   UNL A   1      45.893  33.880  29.784  1.00  0.00     0.173 A 
ATOM     65  C   UNL A   1      44.712  34.541  27.798  1.00  0.00     0.173 A 
ATOM     66  F   UNL A   1      46.247  32.954  30.689  1.00  0.00    -0.203 F 
ATOM     67  C   UNL A   1      46.328  35.191  29.958  1.00  0.00     0.198 A 
ATOM     68  C   UNL A   1      45.171  35.845  27.959  1.00  0.00     0.198 A 
ATOM     69  F   UNL A   1      43.925  34.261  26.747  1.00  0.00    -0.203 F 
ATOM     70  F   UNL A   1      47.082  35.509  31.019  1.00  0.00    -0.200 F 
ATOM     71  C   UNL A   1      45.973  36.171  29.042  1.00  0.00     0.200 A 
ATOM     72  F   UNL A   1      44.837  36.788  27.067  1.00  0.00    -0.200 F 
ATOM     73  F   UNL A   1      46.399  37.431  29.207  1.00  0.00    -0.200 F 
ENDBRANCH  49  63
BRANCH  50  74
ATOM     74  C   UNL A   1      41.482  24.300  27.448  1.00  0.00     0.064 A 
ATOM     75  C   UNL A   1      40.331  24.090  26.676  1.00  0.00     0.173 A 
ATOM     76  C   UNL A   1      42.098  23.178  28.021  1.00  0.00     0.173 A 
ATOM     77  F   UNL A   1      39.692  25.135  26.131  1.00  0.00    -0.203 F 
ATOM     78  C   UNL A   1      39.807  22.811  26.501  1.00  0.00     0.198 A 
ATOM     79  C   UNL A   1      41.589  21.896  27.821  1.00  0.00     0.198 A 
ATOM     80  F   UNL A   1      43.201  23.325  28.770  1.00  0.00    -0.203 F 
ATOM     81  F   UNL A   1      38.679  22.644  25.797  1.00  0.00    -0.200 F 
ATOM     82  C   UNL A   1      40.439  21.715  27.068  1.00  0.00     0.200 A 
ATOM     83  F   UNL A   1      42.209  20.839  28.362  1.00  0.00    -0.200 F 
ATOM     84  F   UNL A   1      39.936  20.485  26.896  1.00  0.00    -0.200 F 
ENDBRANCH  50  74
BRANCH  62  85
ATOM     85  C   UNL A   1      47.216  27.588  25.239  1.00  0.00     0.064 A 
ATOM     86  C   UNL A   1      47.247  27.825  23.857  1.00  0.00     0.173 A 
ATOM     87  C   UNL A   1      48.327  26.962  25.823  1.00  0.00     0.173 A 
ATOM     88  F   UNL A   1      46.202  28.408  23.248  1.00  0.00    -0.203 F 
ATOM     89  C   UNL A   1      48.337  27.428  23.086  1.00  0.00     0.198 A 
ATOM     90  C   UNL A   1      49.428  26.592  25.055  1.00  0.00     0.198 A 
ATOM     91  F   UNL A   1      48.352  26.719  27.142  1.00  0.00    -0.203 F 
ATOM     92  F   UNL A   1      48.325  27.623  21.761  1.00  0.00    -0.200 F 
ATOM     93  C   UNL A   1      49.429  26.820  23.686  1.00  0.00     0.200 A 
ATOM     94  F   UNL A   1      50.489  26.017  25.638  1.00  0.00    -0.200 F 
ATOM     95  F   UNL A   1      50.480  26.445  22.945  1.00  0.00    -0.200 F 
ENDBRANCH  62  85
ENDBRANCH  36  37
ENDBRANCH  29  31
ENDBRANCH  28  29
ENDBRANCH  27  28
ENDBRANCH  26  27
ENDBRANCH  25  26
ENDBRANCH   1  25
TORSDOF 18
ENDMDL
MODEL 2
REMARK VINA RESULT:     -11.5      5.430     10.699
REMARK SMILES CCc1ccc(C(=O)NCc2ccc(C(=O)OCCOCCOC(=O)c3ccc(-c4c5nc(c(-c6c(F)c(F)c(F)c(F)c6F)c6ccc([nH]6)c(-c6c(F)c(F)c(F)c(F)c6F)c6nc(c(-c7c(F)c(F)c(F)c(F)c7F)c7ccc4[nH]7)C=C6)C=C5)cc3)cc2)cc1
REMARK SMILES IDX 19 1 18 2 17 3 15 4 16 5 14 6 11 7 12 8 90 9 13 10 89 11
REMARK SMILES IDX 10 12 9 13 7 14 8 15 6 17 3 18 4 19 92 20 5 21 91 22 2 23
REMARK SMILES IDX 1 24 20 25 21 26 22 27 23 28 24 29 25 30 26 31 27 32 88 33
REMARK SMILES IDX 28 34 87 35 29 36 30 37 31 38 81 39 32 40 86 41 80 42 82 43
REMARK SMILES IDX 33 44 85 45 79 46 78 47 34 49 66 50 46 51 65 52 47 53 50 54
REMARK SMILES IDX 64 55 83 56 48 57 49 58 63 60 84 61 51 62 35 63 36 64 44 65
REMARK SMILES IDX 37 66 38 67 42 68 45 69 39 70 40 71 43 72 41 73 67 74 68 75
REMARK SMILES IDX 76 76 69 77 70 78 74 79 77 80 71 81 72 82 75 83 73 84 52 85
REMARK SMILES IDX 53 86 61 87 54 88 55 89 59 90 62 91 56 92 57 93 60 94 58 95
REMARK H PARENT 9 16 82 48 50 59
REMARK Flexibility Score: inf
ROOT
ATOM      1  C   UNL A   1      41.113  21.304  26.784  1.00  0.00     0.202 C 
ENDROOT
BRANCH   1   2
ATOM      2  C   UNL A   1      40.037  22.333  27.142  1.00  0.00     0.261 C 
BRANCH   2   3
ATOM      3  O   UNL A   1      39.020  22.424  26.130  1.00  0.00    -0.460 OA
BRANCH   3   4
ATOM      4  C   UNL A   1      38.183  23.479  26.290  1.00  0.00     0.338 C 
ATOM      5  O   UNL A   1      38.313  24.399  27.083  1.00  0.00    -0.246 OA
BRANCH   4   6
ATOM      6  C   UNL A   1      37.103  23.469  25.279  1.00  0.00     0.060 A 
ATOM      7  C   UNL A   1      34.827  23.337  23.626  1.00  0.00    -0.029 A 
ATOM      8  C   UNL A   1      34.853  24.178  24.751  1.00  0.00     0.006 A 
ATOM      9  C   UNL A   1      35.992  22.618  23.302  1.00  0.00     0.006 A 
ATOM     10  C   UNL A   1      35.976  24.241  25.569  1.00  0.00     0.016 A 
ATOM     11  C   UNL A   1      37.133  22.691  24.118  1.00  0.00     0.016 A 
BRANCH   7  12
ATOM     12  C   UNL A   1      33.533  23.087  22.874  1.00  0.00     0.152 C 
BRANCH  12  13
ATOM     13  N   UNL A   1      33.391  23.955  21.722  1.00  0.00    -0.348 N 
ATOM     14  C   UNL A   1      32.923  25.223  21.531  1.00  0.00     0.251 C 
ATOM     15  O   UNL A   1      32.895  25.637  20.370  1.00  0.00    -0.269 OA
ATOM     16  H   UNL A   1      33.700  23.534  20.888  1.00  0.00     0.164 HD
BRANCH  14  17
ATOM     17  C   UNL A   1      32.524  26.138  22.630  1.00  0.00     0.039 A 
ATOM     18  C   UNL A   1      32.014  27.917  24.761  1.00  0.00    -0.048 A 
ATOM     19  C   UNL A   1      33.217  27.994  24.052  1.00  0.00     0.004 A 
ATOM     20  C   UNL A   1      31.049  26.985  24.360  1.00  0.00     0.004 A 
ATOM     21  C   UNL A   1      33.469  27.109  23.002  1.00  0.00     0.014 A 
ATOM     22  C   UNL A   1      31.292  26.118  23.286  1.00  0.00     0.014 A 
BRANCH  18  23
ATOM     23  C   UNL A   1      31.755  28.852  25.914  1.00  0.00     0.032 C 
ATOM     24  C   UNL A   1      31.417  30.257  25.441  1.00  0.00     0.009 C 
ENDBRANCH  18  23
ENDBRANCH  14  17
ENDBRANCH  12  13
ENDBRANCH   7  12
ENDBRANCH   4   6
ENDBRANCH   3   4
ENDBRANCH   2   3
ENDBRANCH   1   2
BRANCH   1  25
ATOM     25  O   UNL A   1      41.845  21.534  25.583  1.00  0.00    -0.374 OA
BRANCH  25  26
ATOM     26  C   UNL A   1      43.266  21.636  25.690  1.00  0.00     0.202 C 
BRANCH  26  27
ATOM     27  C   UNL A   1      43.940  22.708  24.824  1.00  0.00     0.261 C 
BRANCH  27  28
ATOM     28  O   UNL A   1      43.205  23.947  24.839  1.00  0.00    -0.460 OA
BRANCH  28  29
ATOM     29  C   UNL A   1      43.925  25.037  25.187  1.00  0.00     0.338 C 
ATOM     30  O   UNL A   1      44.950  25.452  24.659  1.00  0.00    -0.246 OA
BRANCH  29  31
ATOM     31  C   UNL A   1      43.204  25.811  26.213  1.00  0.00     0.060 A 
ATOM     32  C   UNL A   1      43.622  27.128  26.444  1.00  0.00     0.016 A 
ATOM     33  C   UNL A   1      42.186  25.244  26.982  1.00  0.00     0.016 A 
ATOM     34  C   UNL A   1      43.058  27.869  27.480  1.00  0.00     0.010 A 
ATOM     35  C   UNL A   1      41.628  25.984  28.030  1.00  0.00     0.010 A 
ATOM     36  C   UNL A   1      42.085  27.286  28.305  1.00  0.00    -0.014 A 
BRANCH  36  37
ATOM     37  C   UNL A   1      41.660  27.987  29.539  1.00  0.00     0.031 A 
ATOM     38  C   UNL A   1      40.438  28.862  29.496  1.00  0.00     0.074 A 
ATOM     39  C   UNL A   1      42.336  27.826  30.691  1.00  0.00     0.049 A 
ATOM     40  N   UNL A   1      39.902  29.592  30.442  1.00  0.00    -0.248 NA
ATOM     41  C   UNL A   1      39.723  28.922  28.211  1.00  0.00     0.031 C 
ATOM     42  C   UNL A   1      43.510  26.976  30.868  1.00  0.00     0.029 A 
ATOM     43  N   UNL A   1      42.128  28.380  31.929  1.00  0.00    -0.354 N 
ATOM     44  C   UNL A   1      38.794  30.199  29.867  1.00  0.00     0.074 A 
ATOM     45  C   UNL A   1      38.749  29.778  28.483  1.00  0.00     0.031 C 
ATOM     46  C   UNL A   1      43.928  27.072  32.141  1.00  0.00     0.029 A 
ATOM     47  C   UNL A   1      43.069  28.013  32.859  1.00  0.00     0.049 A 
ATOM     48  H   UNL A   1      41.376  28.983  32.132  1.00  0.00     0.167 HD
ATOM     49  C   UNL A   1      37.890  31.025  30.444  1.00  0.00     0.037 A 
ATOM     50  C   UNL A   1      43.228  28.409  34.137  1.00  0.00     0.037 A 
ATOM     51  C   UNL A   1      37.933  31.441  31.821  1.00  0.00     0.049 A 
ATOM     52  C   UNL A   1      42.248  29.385  34.736  1.00  0.00     0.074 A 
ATOM     53  C   UNL A   1      37.051  32.258  32.506  1.00  0.00     0.029 A 
ATOM     54  N   UNL A   1      38.920  31.074  32.724  1.00  0.00    -0.354 N 
ATOM     55  N   UNL A   1      41.188  29.934  34.194  1.00  0.00    -0.248 NA
ATOM     56  C   UNL A   1      42.487  29.793  36.128  1.00  0.00     0.031 C 
ATOM     57  C   UNL A   1      37.531  32.426  33.809  1.00  0.00     0.029 A 
ATOM     58  C   UNL A   1      38.685  31.671  33.951  1.00  0.00     0.049 A 
ATOM     59  H   UNL A   1      39.678  30.477  32.522  1.00  0.00     0.167 HD
ATOM     60  C   UNL A   1      40.620  30.728  35.182  1.00  0.00     0.074 A 
ATOM     61  C   UNL A   1      41.446  30.580  36.362  1.00  0.00     0.031 C 
ATOM     62  C   UNL A   1      39.514  31.509  35.118  1.00  0.00     0.037 A 
BRANCH  49  63
ATOM     63  C   UNL A   1      36.785  31.557  29.578  1.00  0.00     0.064 A 
ATOM     64  C   UNL A   1      36.755  32.896  29.160  1.00  0.00     0.173 A 
ATOM     65  C   UNL A   1      35.760  30.708  29.136  1.00  0.00     0.173 A 
ATOM     66  F   UNL A   1      37.705  33.752  29.568  1.00  0.00    -0.203 F 
ATOM     67  C   UNL A   1      35.726  33.370  28.350  1.00  0.00     0.198 A 
ATOM     68  C   UNL A   1      34.748  31.179  28.304  1.00  0.00     0.198 A 
ATOM     69  F   UNL A   1      35.743  29.418  29.505  1.00  0.00    -0.203 F 
ATOM     70  F   UNL A   1      35.695  34.663  27.999  1.00  0.00    -0.200 F 
ATOM     71  C   UNL A   1      34.728  32.510  27.917  1.00  0.00     0.200 A 
ATOM     72  F   UNL A   1      33.790  30.344  27.877  1.00  0.00    -0.200 F 
ATOM     73  F   UNL A   1      33.742  32.966  27.132  1.00  0.00    -0.200 F 
ENDBRANCH  49  63
BRANCH  50  74
ATOM     74  C   UNL A   1      44.370  27.894  34.937  1.00  0.00     0.064 A 
ATOM     75  C   UNL A   1      44.278  26.680  35.631  1.00  0.00     0.173 A 
ATOM     76  C   UNL A   1      45.568  28.615  35.037  1.00  0.00     0.173 A 
ATOM     77  F   UNL A   1      43.142  25.968  35.587  1.00  0.00    -0.203 F 
ATOM     78  C   UNL A   1      45.336  26.216  36.410  1.00  0.00     0.198 A 
ATOM     79  C   UNL A   1      46.636  28.135  35.793  1.00  0.00     0.198 A 
ATOM     80  F   UNL A   1      45.706  29.783  34.394  1.00  0.00    -0.203 F 
ATOM     81  F   UNL A   1      45.205  25.075  37.101  1.00  0.00    -0.200 F 
ATOM     82  C   UNL A   1      46.516  26.940  36.485  1.00  0.00     0.200 A 
ATOM     83  F   UNL A   1      47.778  28.834  35.855  1.00  0.00    -0.200 F 
ATOM     84  F   UNL A   1      47.533  26.492  37.232  1.00  0.00    -0.200 F 
ENDBRANCH  50  74
BRANCH  62  85
ATOM     85  C   UNL A   1      39.113  32.240  36.367  1.00  0.00     0.064 A 
ATOM     86  C   UNL A   1      39.593  33.525  36.656  1.00  0.00     0.173 A 
ATOM     87  C   UNL A   1      38.201  31.662  37.265  1.00  0.00     0.173 A 
ATOM     88  F   UNL A   1      40.478  34.114  35.837  1.00  0.00    -0.203 F 
ATOM     89  C   UNL A   1      39.195  34.196  37.810  1.00  0.00     0.198 A 
ATOM     90  C   UNL A   1      37.783  32.347  38.402  1.00  0.00     0.198 A 
ATOM     91  F   UNL A   1      37.704  30.438  37.032  1.00  0.00    -0.203 F 
ATOM     92  F   UNL A   1      39.703  35.404  38.088  1.00  0.00    -0.200 F 
ATOM     93  C   UNL A   1      38.285  33.611  38.677  1.00  0.00     0.200 A 
ATOM     94  F   UNL A   1      36.893  31.786  39.232  1.00  0.00    -0.200 F 
ATOM     95  F   UNL A   1      37.899  34.260  39.783  1.00  0.00    -0.200 F 
ENDBRANCH  62  85
ENDBRANCH  36  37
ENDBRANCH  29  31
ENDBRANCH  28  29
ENDBRANCH  27  28
ENDBRANCH  26  27
ENDBRANCH  25  26
ENDBRANCH   1  25
TORSDOF 18
ENDMDL
MODEL 3
REMARK VINA RESULT:     -11.5      5.661     10.992
REMARK SMILES CCc1ccc(C(=O)NCc2ccc(C(=O)OCCOCCOC(=O)c3ccc(-c4c5nc(c(-c6c(F)c(F)c(F)c(F)c6F)c6ccc([nH]6)c(-c6c(F)c(F)c(F)c(F)c6F)c6nc(c(-c7c(F)c(F)c(F)c(F)c7F)c7ccc4[nH]7)C=C6)C=C5)cc3)cc2)cc1
REMARK SMILES IDX 19 1 18 2 17 3 15 4 16 5 14 6 11 7 12 8 90 9 13 10 89 11
REMARK SMILES IDX 10 12 9 13 7 14 8 15 6 17 3 18 4 19 92 20 5 21 91 22 2 23
REMARK SMILES IDX 1 24 20 25 21 26 22 27 23 28 24 29 25 30 26 31 27 32 88 33
REMARK SMILES IDX 28 34 87 35 29 36 30 37 31 38 81 39 32 40 86 41 80 42 82 43
REMARK SMILES IDX 33 44 85 45 79 46 78 47 34 49 66 50 46 51 65 52 47 53 50 54
REMARK SMILES IDX 64 55 83 56 48 57 49 58 63 60 84 61 51 62 35 63 36 64 44 65
REMARK SMILES IDX 37 66 38 67 42 68 45 69 39 70 40 71 43 72 41 73 67 74 68 75
REMARK SMILES IDX 76 76 69 77 70 78 74 79 77 80 71 81 72 82 75 83 73 84 52 85
REMARK SMILES IDX 53 86 61 87 54 88 55 89 59 90 62 91 56 92 57 93 60 94 58 95
REMARK H PARENT 9 16 82 48 50 59
REMARK Flexibility Score: inf
ROOT
ATOM      1  C   UNL A   1      41.088  21.250  26.485  1.00  0.00     0.202 C 
ENDROOT
BRANCH   1   2
ATOM      2  C   UNL A   1      39.743  21.927  26.765  1.00  0.00     0.261 C 
BRANCH   2   3
ATOM      3  O   UNL A   1      38.782  21.669  25.728  1.00  0.00    -0.460 OA
BRANCH   3   4
ATOM      4  C   UNL A   1      37.772  22.571  25.680  1.00  0.00     0.338 C 
ATOM      5  O   UNL A   1      37.881  23.778  25.522  1.00  0.00    -0.246 OA
BRANCH   4   6
ATOM      6  C   UNL A   1      36.451  21.907  25.723  1.00  0.00     0.060 A 
ATOM      7  C   UNL A   1      33.932  20.680  25.439  1.00  0.00    -0.029 A 
ATOM      8  C   UNL A   1      35.071  20.142  24.817  1.00  0.00     0.006 A 
ATOM      9  C   UNL A   1      34.093  21.805  26.268  1.00  0.00     0.006 A 
ATOM     10  C   UNL A   1      36.315  20.749  24.955  1.00  0.00     0.016 A 
ATOM     11  C   UNL A   1      35.350  22.412  26.421  1.00  0.00     0.016 A 
BRANCH   7  12
ATOM     12  C   UNL A   1      32.546  20.163  25.101  1.00  0.00     0.152 C 
BRANCH  12  13
ATOM     13  N   UNL A   1      32.278  20.200  23.676  1.00  0.00    -0.348 N 
ATOM     14  C   UNL A   1      32.194  21.194  22.745  1.00  0.00     0.251 C 
ATOM     15  O   UNL A   1      31.882  20.859  21.600  1.00  0.00    -0.269 OA
ATOM     16  H   UNL A   1      32.120  19.307  23.296  1.00  0.00     0.164 HD
BRANCH  14  17
ATOM     17  C   UNL A   1      32.524  22.617  23.012  1.00  0.00     0.039 A 
ATOM     18  C   UNL A   1      32.905  25.374  23.479  1.00  0.00    -0.048 A 
ATOM     19  C   UNL A   1      31.649  24.794  23.674  1.00  0.00     0.004 A 
ATOM     20  C   UNL A   1      33.979  24.557  23.106  1.00  0.00     0.004 A 
ATOM     21  C   UNL A   1      31.461  23.432  23.436  1.00  0.00     0.014 A 
ATOM     22  C   UNL A   1      33.795  23.183  22.898  1.00  0.00     0.014 A 
BRANCH  18  23
ATOM     23  C   UNL A   1      33.101  26.851  23.706  1.00  0.00     0.032 C 
ATOM     24  C   UNL A   1      33.770  27.136  25.042  1.00  0.00     0.009 C 
ENDBRANCH  18  23
ENDBRANCH  14  17
ENDBRANCH  12  13
ENDBRANCH   7  12
ENDBRANCH   4   6
ENDBRANCH   3   4
ENDBRANCH   2   3
ENDBRANCH   1   2
BRANCH   1  25
ATOM     25  O   UNL A   1      41.858  21.778  25.408  1.00  0.00    -0.374 OA
BRANCH  25  26
ATOM     26  C   UNL A   1      43.279  21.663  25.500  1.00  0.00     0.202 C 
BRANCH  26  27
ATOM     27  C   UNL A   1      44.099  22.666  24.679  1.00  0.00     0.261 C 
BRANCH  27  28
ATOM     28  O   UNL A   1      43.471  23.961  24.636  1.00  0.00    -0.460 OA
BRANCH  28  29
ATOM     29  C   UNL A   1      44.219  24.978  25.121  1.00  0.00     0.338 C 
ATOM     30  O   UNL A   1      45.314  25.353  24.722  1.00  0.00    -0.246 OA
BRANCH  29  31
ATOM     31  C   UNL A   1      43.447  25.737  26.122  1.00  0.00     0.060 A 
ATOM     32  C   UNL A   1      43.798  27.077  26.329  1.00  0.00     0.016 A 
ATOM     33  C   UNL A   1      42.448  25.137  26.890  1.00  0.00     0.016 A 
ATOM     34  C   UNL A   1      43.185  27.811  27.342  1.00  0.00     0.010 A 
ATOM     35  C   UNL A   1      41.841  25.872  27.915  1.00  0.00     0.010 A 
ATOM     36  C   UNL A   1      42.232  27.200  28.168  1.00  0.00    -0.014 A 
BRANCH  36  37
ATOM     37  C   UNL A   1      41.757  27.905  29.382  1.00  0.00     0.031 A 
ATOM     38  C   UNL A   1      40.482  28.699  29.311  1.00  0.00     0.074 A 
ATOM     39  C   UNL A   1      42.436  27.818  30.539  1.00  0.00     0.049 A 
ATOM     40  N   UNL A   1      39.897  29.418  30.236  1.00  0.00    -0.248 NA
ATOM     41  C   UNL A   1      39.771  28.680  28.023  1.00  0.00     0.031 C 
ATOM     42  C   UNL A   1      43.660  27.048  30.743  1.00  0.00     0.029 A 
ATOM     43  N   UNL A   1      42.188  28.390  31.761  1.00  0.00    -0.354 N 
ATOM     44  C   UNL A   1      38.756  29.939  29.641  1.00  0.00     0.074 A 
ATOM     45  C   UNL A   1      38.744  29.480  28.269  1.00  0.00     0.031 C 
ATOM     46  C   UNL A   1      44.066  27.204  32.014  1.00  0.00     0.029 A 
ATOM     47  C   UNL A   1      43.145  28.107  32.704  1.00  0.00     0.049 A 
ATOM     48  H   UNL A   1      41.399  28.949  31.946  1.00  0.00     0.167 HD
ATOM     49  C   UNL A   1      37.798  30.721  30.193  1.00  0.00     0.037 A 
ATOM     50  C   UNL A   1      43.273  28.546  33.971  1.00  0.00     0.037 A 
ATOM     51  C   UNL A   1      37.809  31.175  31.559  1.00  0.00     0.049 A 
ATOM     52  C   UNL A   1      42.230  29.474  34.541  1.00  0.00     0.074 A 
ATOM     53  C   UNL A   1      36.873  31.952  32.218  1.00  0.00     0.029 A 
ATOM     54  N   UNL A   1      38.813  30.895  32.474  1.00  0.00    -0.354 N 
ATOM     55  N   UNL A   1      41.140  29.940  33.981  1.00  0.00    -0.248 NA
ATOM     56  C   UNL A   1      42.437  29.933  35.923  1.00  0.00     0.031 C 
ATOM     57  C   UNL A   1      37.336  32.185  33.519  1.00  0.00     0.029 A 
ATOM     58  C   UNL A   1      38.534  31.508  33.684  1.00  0.00     0.049 A 
ATOM     59  H   UNL A   1      39.607  30.343  32.290  1.00  0.00     0.167 HD
ATOM     60  C   UNL A   1      40.519  30.722  34.946  1.00  0.00     0.074 A 
ATOM     61  C   UNL A   1      41.346  30.659  36.132  1.00  0.00     0.031 C 
ATOM     62  C   UNL A   1      39.366  31.430  34.858  1.00  0.00     0.037 A 
BRANCH  49  63
ATOM     63  C   UNL A   1      36.666  31.159  29.310  1.00  0.00     0.064 A 
ATOM     64  C   UNL A   1      36.569  32.475  28.833  1.00  0.00     0.173 A 
ATOM     65  C   UNL A   1      35.683  30.242  28.910  1.00  0.00     0.173 A 
ATOM     66  F   UNL A   1      37.476  33.394  29.199  1.00  0.00    -0.203 F 
ATOM     67  C   UNL A   1      35.516  32.861  28.008  1.00  0.00     0.198 A 
ATOM     68  C   UNL A   1      34.647  30.624  28.063  1.00  0.00     0.198 A 
ATOM     69  F   UNL A   1      35.732  28.970  29.336  1.00  0.00    -0.203 F 
ATOM     70  F   UNL A   1      35.419  34.134  27.600  1.00  0.00    -0.200 F 
ATOM     71  C   UNL A   1      34.560  31.935  27.618  1.00  0.00     0.200 A 
ATOM     72  F   UNL A   1      33.731  29.725  27.678  1.00  0.00    -0.200 F 
ATOM     73  F   UNL A   1      33.551  32.306  26.818  1.00  0.00    -0.200 F 
ENDBRANCH  49  63
BRANCH  50  74
ATOM     74  C   UNL A   1      44.441  28.126  34.788  1.00  0.00     0.064 A 
ATOM     75  C   UNL A   1      44.413  26.940  35.535  1.00  0.00     0.173 A 
ATOM     76  C   UNL A   1      45.602  28.910  34.851  1.00  0.00     0.173 A 
ATOM     77  F   UNL A   1      43.314  26.171  35.528  1.00  0.00    -0.203 F 
ATOM     78  C   UNL A   1      45.495  26.566  36.330  1.00  0.00     0.198 A 
ATOM     79  C   UNL A   1      46.694  28.520  35.623  1.00  0.00     0.198 A 
ATOM     80  F   UNL A   1      45.678  30.055  34.157  1.00  0.00    -0.203 F 
ATOM     81  F   UNL A   1      45.423  25.451  37.071  1.00  0.00    -0.200 F 
ATOM     82  C   UNL A   1      46.636  27.352  36.368  1.00  0.00     0.200 A 
ATOM     83  F   UNL A   1      47.799  29.278  35.650  1.00  0.00    -0.200 F 
ATOM     84  F   UNL A   1      47.677  26.989  37.130  1.00  0.00    -0.200 F 
ENDBRANCH  50  74
BRANCH  62  85
ATOM     85  C   UNL A   1      38.913  32.167  36.085  1.00  0.00     0.064 A 
ATOM     86  C   UNL A   1      38.154  31.539  37.083  1.00  0.00     0.173 A 
ATOM     87  C   UNL A   1      39.282  33.506  36.285  1.00  0.00     0.173 A 
ATOM     88  F   UNL A   1      37.763  30.264  36.933  1.00  0.00    -0.203 F 
ATOM     89  C   UNL A   1      37.759  32.232  38.225  1.00  0.00     0.198 A 
ATOM     90  C   UNL A   1      38.911  34.187  37.441  1.00  0.00     0.198 A 
ATOM     91  F   UNL A   1      40.016  34.151  35.365  1.00  0.00    -0.203 F 
ATOM     92  F   UNL A   1      36.995  31.626  39.144  1.00  0.00    -0.200 F 
ATOM     93  C   UNL A   1      38.144  33.552  38.407  1.00  0.00     0.200 A 
ATOM     94  F   UNL A   1      39.296  35.458  37.621  1.00  0.00    -0.200 F 
ATOM     95  F   UNL A   1      37.769  34.215  39.509  1.00  0.00    -0.200 F 
ENDBRANCH  62  85
ENDBRANCH  36  37
ENDBRANCH  29  31
ENDBRANCH  28  29
ENDBRANCH  27  28
ENDBRANCH  26  27
ENDBRANCH  25  26
ENDBRANCH   1  25
TORSDOF 18
ENDMDL
