MODEL 1
REMARK VINA RESULT:     -12.2      0.000      0.000
REMARK SMILES Cc1ccc(Cl)c(Nc2ccccc2C(=O)NCC(=O)OCCOCCOC(=O)c2ccc(-c3c4nc(c(-c5c(F)c(F)c(F)c(F)c5F)c5ccc([nH]5)c(-c5c(F)c(F)c(F)c(F)c5F)c5nc(c(-c6c(F)c(F)c(F)c(F)c6F)c6ccc3[nH]6)C=C5)C=C4)cc2)c1Cl
REMARK SMILES IDX 23 1 22 2 21 3 19 4 20 5 18 6 17 7 15 8 16 9 14 11 9 12
REMARK SMILES IDX 10 13 11 14 13 15 12 16 8 17 7 19 1 20 2 21 3 22 93 23 4 24
REMARK SMILES IDX 94 25 5 26 6 27 24 28 25 29 26 30 27 31 28 32 29 33 30 34
REMARK SMILES IDX 31 35 92 36 32 37 91 38 33 39 34 40 35 41 85 42 36 43 90 44
REMARK SMILES IDX 84 45 86 46 37 47 89 48 83 49 82 50 38 52 70 53 50 54 69 55
REMARK SMILES IDX 51 56 54 57 68 58 87 59 52 60 53 61 67 63 88 64 55 65 39 66
REMARK SMILES IDX 40 67 48 68 41 69 42 70 46 71 49 72 43 73 44 74 47 75 45 76
REMARK SMILES IDX 71 77 72 78 80 79 73 80 74 81 78 82 81 83 75 84 76 85 79 86
REMARK SMILES IDX 77 87 56 88 57 89 65 90 58 91 59 92 63 93 66 94 60 95 61 96
REMARK SMILES IDX 64 97 62 98
REMARK H PARENT 17 10 8 18 86 51 54 62
REMARK Flexibility Score: inf
ROOT
ATOM      1  C   UNL A   1      34.094  23.436  25.178  1.00  0.00     0.202 C 
ENDROOT
BRANCH   1   2
ATOM      2  C   UNL A   1      32.609  23.138  25.438  1.00  0.00     0.261 C 
BRANCH   2   3
ATOM      3  O   UNL A   1      31.800  24.267  25.079  1.00  0.00    -0.462 OA
BRANCH   3   4
ATOM      4  C   UNL A   1      31.001  24.769  26.062  1.00  0.00     0.325 C 
ATOM      5  O   UNL A   1      31.051  24.455  27.242  1.00  0.00    -0.250 OA
BRANCH   4   6
ATOM      6  C   UNL A   1      30.154  25.895  25.495  1.00  0.00     0.239 C 
BRANCH   6   7
ATOM      7  N   UNL A   1      29.859  25.935  24.090  1.00  0.00    -0.341 N 
ATOM      8  C   UNL A   1      30.361  26.896  23.247  1.00  0.00     0.253 C 
ATOM      9  O   UNL A   1      30.988  26.523  22.257  1.00  0.00    -0.269 OA
ATOM     10  H   UNL A   1      29.269  25.242  23.713  1.00  0.00     0.164 HD
BRANCH   8  11
ATOM     11  C   UNL A   1      29.835  28.285  23.322  1.00  0.00     0.063 A 
ATOM     12  C   UNL A   1      30.458  29.449  23.811  1.00  0.00     0.051 A 
ATOM     13  C   UNL A   1      29.657  30.615  23.894  1.00  0.00     0.027 A 
ATOM     14  C   UNL A   1      28.329  30.652  23.459  1.00  0.00     0.002 A 
ATOM     15  C   UNL A   1      28.497  28.343  22.860  1.00  0.00     0.016 A 
ATOM     16  C   UNL A   1      27.753  29.516  22.918  1.00  0.00     0.001 A 
BRANCH  12  17
ATOM     17  N   UNL A   1      31.813  29.656  24.146  1.00  0.00    -0.352 N 
ATOM     18  H   UNL A   1      32.361  29.855  23.353  1.00  0.00     0.167 HD
BRANCH  17  19
ATOM     19  C   UNL A   1      32.584  29.649  25.336  1.00  0.00     0.077 A 
ATOM     20  C   UNL A   1      33.789  31.920  28.191  1.00  0.00     0.046 C 
ATOM     21  C   UNL A   1      33.667  30.761  27.238  1.00  0.00    -0.030 A 
ATOM     22  C   UNL A   1      34.619  29.733  27.301  1.00  0.00     0.006 A 
ATOM     23  C   UNL A   1      32.625  30.691  26.283  1.00  0.00     0.069 A 
ATOM     24  C   UNL A   1      34.510  28.625  26.472  1.00  0.00     0.023 A 
ATOM     25  Cl  UNL A   1      31.323  31.837  26.395  1.00  0.00    -0.082 Cl
ATOM     26  C   UNL A   1      33.496  28.578  25.516  1.00  0.00     0.066 A 
ATOM     27  Cl  UNL A   1      33.414  27.163  24.516  1.00  0.00    -0.082 Cl
ENDBRANCH  17  19
ENDBRANCH  12  17
ENDBRANCH   8  11
ENDBRANCH   6   7
ENDBRANCH   4   6
ENDBRANCH   3   4
ENDBRANCH   2   3
ENDBRANCH   1   2
BRANCH   1  28
ATOM     28  O   UNL A   1      35.054  22.508  25.677  1.00  0.00    -0.374 OA
BRANCH  28  29
ATOM     29  C   UNL A   1      35.685  21.614  24.762  1.00  0.00     0.202 C 
BRANCH  29  30
ATOM     30  C   UNL A   1      36.996  20.932  25.199  1.00  0.00     0.261 C 
BRANCH  30  31
ATOM     31  O   UNL A   1      38.140  21.809  25.153  1.00  0.00    -0.460 OA
BRANCH  31  32
ATOM     32  C   UNL A   1      39.154  21.479  25.985  1.00  0.00     0.338 C 
ATOM     33  O   UNL A   1      39.768  20.420  26.021  1.00  0.00    -0.246 OA
BRANCH  32  34
ATOM     34  C   UNL A   1      39.590  22.648  26.768  1.00  0.00     0.060 A 
ATOM     35  C   UNL A   1      38.957  23.871  26.513  1.00  0.00     0.016 A 
ATOM     36  C   UNL A   1      40.701  22.589  27.612  1.00  0.00     0.016 A 
ATOM     37  C   UNL A   1      39.448  25.045  27.073  1.00  0.00     0.010 A 
ATOM     38  C   UNL A   1      41.209  23.777  28.160  1.00  0.00     0.010 A 
ATOM     39  C   UNL A   1      40.607  25.013  27.861  1.00  0.00    -0.014 A 
BRANCH  39  40
ATOM     40  C   UNL A   1      41.261  26.300  28.199  1.00  0.00     0.031 A 
ATOM     41  C   UNL A   1      42.662  26.556  27.720  1.00  0.00     0.074 A 
ATOM     42  C   UNL A   1      40.582  27.267  28.841  1.00  0.00     0.049 A 
ATOM     43  N   UNL A   1      43.396  27.635  27.826  1.00  0.00    -0.248 NA
ATOM     44  C   UNL A   1      43.323  25.444  27.018  1.00  0.00     0.031 C 
ATOM     45  C   UNL A   1      39.207  27.154  29.321  1.00  0.00     0.029 A 
ATOM     46  N   UNL A   1      40.960  28.540  29.188  1.00  0.00    -0.354 N 
ATOM     47  C   UNL A   1      44.597  27.338  27.195  1.00  0.00     0.074 A 
ATOM     48  C   UNL A   1      44.511  25.965  26.744  1.00  0.00     0.031 C 
ATOM     49  C   UNL A   1      38.856  28.312  29.907  1.00  0.00     0.029 A 
ATOM     50  C   UNL A   1      39.987  29.238  29.856  1.00  0.00     0.049 A 
ATOM     51  H   UNL A   1      41.845  28.916  28.978  1.00  0.00     0.167 HD
ATOM     52  C   UNL A   1      45.671  28.140  26.996  1.00  0.00     0.037 A 
ATOM     53  C   UNL A   1      40.010  30.481  30.374  1.00  0.00     0.037 A 
ATOM     54  C   UNL A   1      45.767  29.499  27.460  1.00  0.00     0.049 A 
ATOM     55  C   UNL A   1      41.236  31.336  30.194  1.00  0.00     0.074 A 
ATOM     56  C   UNL A   1      46.814  30.392  27.319  1.00  0.00     0.029 A 
ATOM     57  N   UNL A   1      44.774  30.160  28.169  1.00  0.00    -0.354 N 
ATOM     58  N   UNL A   1      42.359  31.055  29.577  1.00  0.00    -0.248 NA
ATOM     59  C   UNL A   1      41.191  32.688  30.769  1.00  0.00     0.031 C 
ATOM     60  C   UNL A   1      46.473  31.578  27.979  1.00  0.00     0.029 A 
ATOM     61  C   UNL A   1      45.191  31.443  28.489  1.00  0.00     0.049 A 
ATOM     62  H   UNL A   1      43.899  29.774  28.409  1.00  0.00     0.167 HD
ATOM     63  C   UNL A   1      43.145  32.196  29.674  1.00  0.00     0.074 A 
ATOM     64  C   UNL A   1      42.362  33.181  30.390  1.00  0.00     0.031 C 
ATOM     65  C   UNL A   1      44.402  32.408  29.212  1.00  0.00     0.037 A 
BRANCH  52  66
ATOM     66  C   UNL A   1      46.841  27.547  26.266  1.00  0.00     0.064 A 
ATOM     67  C   UNL A   1      47.864  26.866  26.946  1.00  0.00     0.173 A 
ATOM     68  C   UNL A   1      46.942  27.657  24.872  1.00  0.00     0.173 A 
ATOM     69  F   UNL A   1      47.823  26.747  28.282  1.00  0.00    -0.203 F 
ATOM     70  C   UNL A   1      48.960  26.349  26.260  1.00  0.00     0.198 A 
ATOM     71  C   UNL A   1      48.026  27.113  24.186  1.00  0.00     0.198 A 
ATOM     72  F   UNL A   1      45.991  28.295  24.173  1.00  0.00    -0.203 F 
ATOM     73  F   UNL A   1      49.951  25.751  26.936  1.00  0.00    -0.200 F 
ATOM     74  C   UNL A   1      49.037  26.469  24.880  1.00  0.00     0.200 A 
ATOM     75  F   UNL A   1      48.095  27.223  22.852  1.00  0.00    -0.200 F 
ATOM     76  F   UNL A   1      50.095  25.973  24.221  1.00  0.00    -0.200 F 
ENDBRANCH  52  66
BRANCH  53  77
ATOM     77  C   UNL A   1      38.826  30.989  31.115  1.00  0.00     0.064 A 
ATOM     78  C   UNL A   1      37.796  31.675  30.460  1.00  0.00     0.173 A 
ATOM     79  C   UNL A   1      38.705  30.793  32.499  1.00  0.00     0.173 A 
ATOM     80  F   UNL A   1      37.879  31.910  29.141  1.00  0.00    -0.203 F 
ATOM     81  C   UNL A   1      36.692  32.157  31.162  1.00  0.00     0.198 A 
ATOM     82  C   UNL A   1      37.590  31.252  33.196  1.00  0.00     0.198 A 
ATOM     83  F   UNL A   1      39.666  30.144  33.171  1.00  0.00    -0.203 F 
ATOM     84  F   UNL A   1      35.738  32.844  30.519  1.00  0.00    -0.200 F 
ATOM     85  C   UNL A   1      36.587  31.938  32.529  1.00  0.00     0.200 A 
ATOM     86  F   UNL A   1      37.488  31.028  34.512  1.00  0.00    -0.200 F 
ATOM     87  F   UNL A   1      35.523  32.394  33.201  1.00  0.00    -0.200 F 
ENDBRANCH  53  77
BRANCH  65  88
ATOM     88  C   UNL A   1      44.999  33.766  29.451  1.00  0.00     0.064 A 
ATOM     89  C   UNL A   1      44.811  34.822  28.547  1.00  0.00     0.173 A 
ATOM     90  C   UNL A   1      45.752  34.019  30.608  1.00  0.00     0.173 A 
ATOM     91  F   UNL A   1      44.111  34.628  27.419  1.00  0.00    -0.203 F 
ATOM     92  C   UNL A   1      45.384  36.071  28.775  1.00  0.00     0.198 A 
ATOM     93  C   UNL A   1      46.299  35.277  30.847  1.00  0.00     0.198 A 
ATOM     94  F   UNL A   1      45.956  33.046  31.510  1.00  0.00    -0.203 F 
ATOM     95  F   UNL A   1      45.238  37.049  27.870  1.00  0.00    -0.200 F 
ATOM     96  C   UNL A   1      46.124  36.298  29.927  1.00  0.00     0.200 A 
ATOM     97  F   UNL A   1      47.002  35.499  31.967  1.00  0.00    -0.200 F 
ATOM     98  F   UNL A   1      46.675  37.500  30.143  1.00  0.00    -0.200 F 
ENDBRANCH  65  88
ENDBRANCH  39  40
ENDBRANCH  32  34
ENDBRANCH  31  32
ENDBRANCH  30  31
ENDBRANCH  29  30
ENDBRANCH  28  29
ENDBRANCH   1  28
TORSDOF 18
ENDMDL
MODEL 2
REMARK VINA RESULT:     -12.0      0.755      7.307
REMARK SMILES Cc1ccc(Cl)c(Nc2ccccc2C(=O)NCC(=O)OCCOCCOC(=O)c2ccc(-c3c4nc(c(-c5c(F)c(F)c(F)c(F)c5F)c5ccc([nH]5)c(-c5c(F)c(F)c(F)c(F)c5F)c5nc(c(-c6c(F)c(F)c(F)c(F)c6F)c6ccc3[nH]6)C=C5)C=C4)cc2)c1Cl
REMARK SMILES IDX 23 1 22 2 21 3 19 4 20 5 18 6 17 7 15 8 16 9 14 11 9 12
REMARK SMILES IDX 10 13 11 14 13 15 12 16 8 17 7 19 1 20 2 21 3 22 93 23 4 24
REMARK SMILES IDX 94 25 5 26 6 27 24 28 25 29 26 30 27 31 28 32 29 33 30 34
REMARK SMILES IDX 31 35 92 36 32 37 91 38 33 39 34 40 35 41 85 42 36 43 90 44
REMARK SMILES IDX 84 45 86 46 37 47 89 48 83 49 82 50 38 52 70 53 50 54 69 55
REMARK SMILES IDX 51 56 54 57 68 58 87 59 52 60 53 61 67 63 88 64 55 65 39 66
REMARK SMILES IDX 40 67 48 68 41 69 42 70 46 71 49 72 43 73 44 74 47 75 45 76
REMARK SMILES IDX 71 77 72 78 80 79 73 80 74 81 78 82 81 83 75 84 76 85 79 86
REMARK SMILES IDX 77 87 56 88 57 89 65 90 58 91 59 92 63 93 66 94 60 95 61 96
REMARK SMILES IDX 64 97 62 98
REMARK H PARENT 17 10 8 18 86 51 54 62
REMARK Flexibility Score: inf
ROOT
ATOM      1  C   UNL A   1      33.362  23.074  24.934  1.00  0.00     0.202 C 
ENDROOT
BRANCH   1   2
ATOM      2  C   UNL A   1      31.832  22.973  25.041  1.00  0.00     0.261 C 
BRANCH   2   3
ATOM      3  O   UNL A   1      31.222  24.225  24.696  1.00  0.00    -0.462 OA
BRANCH   3   4
ATOM      4  C   UNL A   1      30.873  25.029  25.739  1.00  0.00     0.325 C 
ATOM      5  O   UNL A   1      31.193  24.851  26.905  1.00  0.00    -0.250 OA
BRANCH   4   6
ATOM      6  C   UNL A   1      30.170  26.266  25.206  1.00  0.00     0.239 C 
BRANCH   6   7
ATOM      7  N   UNL A   1      29.717  26.304  23.844  1.00  0.00    -0.341 N 
ATOM      8  C   UNL A   1      30.059  27.306  22.970  1.00  0.00     0.253 C 
ATOM      9  O   UNL A   1      30.593  26.987  21.909  1.00  0.00    -0.269 OA
ATOM     10  H   UNL A   1      29.134  25.578  23.522  1.00  0.00     0.164 HD
BRANCH   8  11
ATOM     11  C   UNL A   1      29.457  28.656  23.130  1.00  0.00     0.063 A 
ATOM     12  C   UNL A   1      30.010  29.816  23.709  1.00  0.00     0.051 A 
ATOM     13  C   UNL A   1      29.146  30.928  23.857  1.00  0.00     0.027 A 
ATOM     14  C   UNL A   1      27.824  30.925  23.403  1.00  0.00     0.002 A 
ATOM     15  C   UNL A   1      28.125  28.676  22.651  1.00  0.00     0.016 A 
ATOM     16  C   UNL A   1      27.317  29.801  22.776  1.00  0.00     0.001 A 
BRANCH  12  17
ATOM     17  N   UNL A   1      31.347  30.070  24.080  1.00  0.00    -0.352 N 
ATOM     18  H   UNL A   1      31.751  30.780  23.532  1.00  0.00     0.167 HD
BRANCH  17  19
ATOM     19  C   UNL A   1      32.254  29.562  25.044  1.00  0.00     0.077 A 
ATOM     20  C   UNL A   1      34.424  26.497  25.857  1.00  0.00     0.046 C 
ATOM     21  C   UNL A   1      33.651  27.782  25.996  1.00  0.00    -0.030 A 
ATOM     22  C   UNL A   1      33.520  28.355  27.269  1.00  0.00     0.006 A 
ATOM     23  C   UNL A   1      33.055  28.414  24.880  1.00  0.00     0.069 A 
ATOM     24  C   UNL A   1      32.857  29.565  27.429  1.00  0.00     0.023 A 
ATOM     25  Cl  UNL A   1      33.446  27.828  23.291  1.00  0.00    -0.082 Cl
ATOM     26  C   UNL A   1      32.249  30.166  26.328  1.00  0.00     0.066 A 
ATOM     27  Cl  UNL A   1      31.442  31.678  26.595  1.00  0.00    -0.082 Cl
ENDBRANCH  17  19
ENDBRANCH  12  17
ENDBRANCH   8  11
ENDBRANCH   6   7
ENDBRANCH   4   6
ENDBRANCH   3   4
ENDBRANCH   2   3
ENDBRANCH   1   2
BRANCH   1  28
ATOM     28  O   UNL A   1      34.137  22.021  25.504  1.00  0.00    -0.374 OA
BRANCH  28  29
ATOM     29  C   UNL A   1      34.987  21.257  24.653  1.00  0.00     0.202 C 
BRANCH  29  30
ATOM     30  C   UNL A   1      36.329  20.757  25.224  1.00  0.00     0.261 C 
BRANCH  30  31
ATOM     31  O   UNL A   1      37.387  21.733  25.137  1.00  0.00    -0.460 OA
BRANCH  31  32
ATOM     32  C   UNL A   1      38.525  21.412  25.795  1.00  0.00     0.338 C 
ATOM     33  O   UNL A   1      39.136  20.351  25.743  1.00  0.00    -0.246 OA
BRANCH  32  34
ATOM     34  C   UNL A   1      39.083  22.589  26.480  1.00  0.00     0.060 A 
ATOM     35  C   UNL A   1      38.528  23.839  26.177  1.00  0.00     0.016 A 
ATOM     36  C   UNL A   1      40.228  22.498  27.275  1.00  0.00     0.016 A 
ATOM     37  C   UNL A   1      39.131  25.005  26.637  1.00  0.00     0.010 A 
ATOM     38  C   UNL A   1      40.847  23.675  27.722  1.00  0.00     0.010 A 
ATOM     39  C   UNL A   1      40.322  24.932  27.371  1.00  0.00    -0.014 A 
BRANCH  39  40
ATOM     40  C   UNL A   1      41.084  26.185  27.597  1.00  0.00     0.031 A 
ATOM     41  C   UNL A   1      40.422  27.320  28.327  1.00  0.00     0.074 A 
ATOM     42  C   UNL A   1      42.378  26.275  27.242  1.00  0.00     0.049 A 
ATOM     43  N   UNL A   1      40.921  28.470  28.707  1.00  0.00    -0.248 NA
ATOM     44  C   UNL A   1      39.008  27.129  28.684  1.00  0.00     0.031 C 
ATOM     45  C   UNL A   1      43.140  25.229  26.566  1.00  0.00     0.029 A 
ATOM     46  N   UNL A   1      43.279  27.295  27.416  1.00  0.00    -0.354 N 
ATOM     47  C   UNL A   1      39.887  29.132  29.357  1.00  0.00     0.074 A 
ATOM     48  C   UNL A   1      38.723  28.275  29.285  1.00  0.00     0.031 C 
ATOM     49  C   UNL A   1      44.398  25.664  26.375  1.00  0.00     0.029 A 
ATOM     50  C   UNL A   1      44.521  27.022  26.903  1.00  0.00     0.049 A 
ATOM     51  H   UNL A   1      43.056  28.142  27.866  1.00  0.00     0.167 HD
ATOM     52  C   UNL A   1      39.909  30.340  29.971  1.00  0.00     0.037 A 
ATOM     53  C   UNL A   1      45.630  27.786  26.857  1.00  0.00     0.037 A 
ATOM     54  C   UNL A   1      41.060  31.203  30.026  1.00  0.00     0.049 A 
ATOM     55  C   UNL A   1      45.615  29.151  27.494  1.00  0.00     0.074 A 
ATOM     56  C   UNL A   1      41.182  32.449  30.614  1.00  0.00     0.029 A 
ATOM     57  N   UNL A   1      42.292  30.909  29.459  1.00  0.00    -0.354 N 
ATOM     58  N   UNL A   1      44.640  29.760  28.126  1.00  0.00    -0.248 NA
ATOM     59  C   UNL A   1      46.861  29.927  27.424  1.00  0.00     0.031 C 
ATOM     60  C   UNL A   1      42.473  32.927  30.366  1.00  0.00     0.029 A 
ATOM     61  C   UNL A   1      43.174  31.957  29.667  1.00  0.00     0.049 A 
ATOM     62  H   UNL A   1      42.508  30.075  28.979  1.00  0.00     0.167 HD
ATOM     63  C   UNL A   1      45.158  30.980  28.542  1.00  0.00     0.074 A 
ATOM     64  C   UNL A   1      46.540  31.015  28.111  1.00  0.00     0.031 C 
ATOM     65  C   UNL A   1      44.544  31.981  29.222  1.00  0.00     0.037 A 
BRANCH  52  66
ATOM     66  C   UNL A   1      38.631  30.807  30.605  1.00  0.00     0.064 A 
ATOM     67  C   UNL A   1      37.595  31.372  29.844  1.00  0.00     0.173 A 
ATOM     68  C   UNL A   1      38.437  30.687  31.989  1.00  0.00     0.173 A 
ATOM     69  F   UNL A   1      37.737  31.523  28.518  1.00  0.00    -0.203 F 
ATOM     70  C   UNL A   1      36.428  31.830  30.450  1.00  0.00     0.198 A 
ATOM     71  C   UNL A   1      37.256  31.121  32.588  1.00  0.00     0.198 A 
ATOM     72  F   UNL A   1      39.393  30.153  32.762  1.00  0.00    -0.203 F 
ATOM     73  F   UNL A   1      35.476  32.415  29.711  1.00  0.00    -0.200 F 
ATOM     74  C   UNL A   1      36.258  31.700  31.821  1.00  0.00     0.200 A 
ATOM     75  F   UNL A   1      37.090  30.987  33.911  1.00  0.00    -0.200 F 
ATOM     76  F   UNL A   1      35.135  32.144  32.403  1.00  0.00    -0.200 F 
ENDBRANCH  52  66
BRANCH  53  77
ATOM     77  C   UNL A   1      46.849  27.271  26.181  1.00  0.00     0.064 A 
ATOM     78  C   UNL A   1      47.803  26.517  26.875  1.00  0.00     0.173 A 
ATOM     79  C   UNL A   1      47.078  27.526  24.821  1.00  0.00     0.173 A 
ATOM     80  F   UNL A   1      47.640  26.269  28.184  1.00  0.00    -0.203 F 
ATOM     81  C   UNL A   1      48.949  26.045  26.237  1.00  0.00     0.198 A 
ATOM     82  C   UNL A   1      48.210  27.032  24.178  1.00  0.00     0.198 A 
ATOM     83  F   UNL A   1      46.194  28.245  24.115  1.00  0.00    -0.203 F 
ATOM     84  F   UNL A   1      49.866  25.357  26.931  1.00  0.00    -0.200 F 
ATOM     85  C   UNL A   1      49.147  26.296  24.886  1.00  0.00     0.200 A 
ATOM     86  F   UNL A   1      48.391  27.267  22.871  1.00  0.00    -0.200 F 
ATOM     87  F   UNL A   1      50.244  25.835  24.271  1.00  0.00    -0.200 F 
ENDBRANCH  53  77
BRANCH  65  88
ATOM     88  C   UNL A   1      45.372  33.189  29.555  1.00  0.00     0.064 A 
ATOM     89  C   UNL A   1      45.447  34.292  28.691  1.00  0.00     0.173 A 
ATOM     90  C   UNL A   1      46.085  33.252  30.762  1.00  0.00     0.173 A 
ATOM     91  F   UNL A   1      44.795  34.274  27.518  1.00  0.00    -0.203 F 
ATOM     92  C   UNL A   1      46.231  35.398  29.007  1.00  0.00     0.198 A 
ATOM     93  C   UNL A   1      46.845  34.373  31.088  1.00  0.00     0.198 A 
ATOM     94  F   UNL A   1      46.042  32.229  31.629  1.00  0.00    -0.203 F 
ATOM     95  F   UNL A   1      46.332  36.416  28.140  1.00  0.00    -0.200 F 
ATOM     96  C   UNL A   1      46.926  35.439  30.207  1.00  0.00     0.200 A 
ATOM     97  F   UNL A   1      47.505  34.416  32.254  1.00  0.00    -0.200 F 
ATOM     98  F   UNL A   1      47.682  36.504  30.509  1.00  0.00    -0.200 F 
ENDBRANCH  65  88
ENDBRANCH  39  40
ENDBRANCH  32  34
ENDBRANCH  31  32
ENDBRANCH  30  31
ENDBRANCH  29  30
ENDBRANCH  28  29
ENDBRANCH   1  28
TORSDOF 18
ENDMDL
MODEL 3
REMARK VINA RESULT:     -11.9      4.354      9.839
REMARK SMILES Cc1ccc(Cl)c(Nc2ccccc2C(=O)NCC(=O)OCCOCCOC(=O)c2ccc(-c3c4nc(c(-c5c(F)c(F)c(F)c(F)c5F)c5ccc([nH]5)c(-c5c(F)c(F)c(F)c(F)c5F)c5nc(c(-c6c(F)c(F)c(F)c(F)c6F)c6ccc3[nH]6)C=C5)C=C4)cc2)c1Cl
REMARK SMILES IDX 23 1 22 2 21 3 19 4 20 5 18 6 17 7 15 8 16 9 14 11 9 12
REMARK SMILES IDX 10 13 11 14 13 15 12 16 8 17 7 19 1 20 2 21 3 22 93 23 4 24
REMARK SMILES IDX 94 25 5 26 6 27 24 28 25 29 26 30 27 31 28 32 29 33 30 34
REMARK SMILES IDX 31 35 92 36 32 37 91 38 33 39 34 40 35 41 85 42 36 43 90 44
REMARK SMILES IDX 84 45 86 46 37 47 89 48 83 49 82 50 38 52 70 53 50 54 69 55
REMARK SMILES IDX 51 56 54 57 68 58 87 59 52 60 53 61 67 63 88 64 55 65 39 66
REMARK SMILES IDX 40 67 48 68 41 69 42 70 46 71 49 72 43 73 44 74 47 75 45 76
REMARK SMILES IDX 71 77 72 78 80 79 73 80 74 81 78 82 81 83 75 84 76 85 79 86
REMARK SMILES IDX 77 87 56 88 57 89 65 90 58 91 59 92 63 93 66 94 60 95 61 96
REMARK SMILES IDX 64 97 62 98
REMARK H PARENT 17 10 8 18 86 51 54 62
REMARK Flexibility Score: inf
ROOT
ATOM      1  C   UNL A   1      33.628  30.341  26.593  1.00  0.00     0.202 C 
ENDROOT
BRANCH   1   2
ATOM      2  C   UNL A   1      33.912  28.833  26.678  1.00  0.00     0.261 C 
BRANCH   2   3
ATOM      3  O   UNL A   1      32.821  28.085  26.123  1.00  0.00    -0.462 OA
BRANCH   3   4
ATOM      4  C   UNL A   1      32.049  27.401  27.013  1.00  0.00     0.325 C 
ATOM      5  O   UNL A   1      31.355  27.908  27.882  1.00  0.00    -0.250 OA
BRANCH   4   6
ATOM      6  C   UNL A   1      32.054  25.925  26.652  1.00  0.00     0.239 C 
BRANCH   6   7
ATOM      7  N   UNL A   1      30.817  25.246  26.390  1.00  0.00    -0.341 N 
ATOM      8  C   UNL A   1      30.700  23.877  26.390  1.00  0.00     0.253 C 
ATOM      9  O   UNL A   1      29.858  23.372  27.130  1.00  0.00    -0.269 OA
ATOM     10  H   UNL A   1      30.015  25.786  26.201  1.00  0.00     0.164 HD
BRANCH   8  11
ATOM     11  C   UNL A   1      31.284  23.092  25.270  1.00  0.00     0.063 A 
ATOM     12  C   UNL A   1      31.175  23.301  23.882  1.00  0.00     0.051 A 
ATOM     13  C   UNL A   1      31.720  22.301  23.041  1.00  0.00     0.027 A 
ATOM     14  C   UNL A   1      32.394  21.181  23.536  1.00  0.00     0.002 A 
ATOM     15  C   UNL A   1      31.992  21.966  25.758  1.00  0.00     0.016 A 
ATOM     16  C   UNL A   1      32.551  21.024  24.902  1.00  0.00     0.001 A 
BRANCH  12  17
ATOM     17  N   UNL A   1      30.681  24.428  23.192  1.00  0.00    -0.352 N 
ATOM     18  H   UNL A   1      30.005  24.181  22.520  1.00  0.00     0.167 HD
BRANCH  17  19
ATOM     19  C   UNL A   1      30.912  25.827  23.221  1.00  0.00     0.077 A 
ATOM     20  C   UNL A   1      29.107  29.212  23.009  1.00  0.00     0.046 C 
ATOM     21  C   UNL A   1      30.185  28.161  22.999  1.00  0.00    -0.030 A 
ATOM     22  C   UNL A   1      31.489  28.537  22.645  1.00  0.00     0.006 A 
ATOM     23  C   UNL A   1      29.912  26.814  23.331  1.00  0.00     0.069 A 
ATOM     24  C   UNL A   1      32.519  27.606  22.672  1.00  0.00     0.023 A 
ATOM     25  Cl  UNL A   1      28.360  26.428  24.010  1.00  0.00    -0.082 Cl
ATOM     26  C   UNL A   1      32.235  26.275  22.974  1.00  0.00     0.066 A 
ATOM     27  Cl  UNL A   1      33.568  25.165  22.995  1.00  0.00    -0.082 Cl
ENDBRANCH  17  19
ENDBRANCH  12  17
ENDBRANCH   8  11
ENDBRANCH   6   7
ENDBRANCH   4   6
ENDBRANCH   3   4
ENDBRANCH   2   3
ENDBRANCH   1   2
BRANCH   1  28
ATOM     28  O   UNL A   1      32.581  30.866  27.407  1.00  0.00    -0.374 OA
BRANCH  28  29
ATOM     29  C   UNL A   1      31.776  31.923  26.892  1.00  0.00     0.202 C 
BRANCH  29  30
ATOM     30  C   UNL A   1      32.321  33.363  26.983  1.00  0.00     0.261 C 
BRANCH  30  31
ATOM     31  O   UNL A   1      32.346  33.881  28.328  1.00  0.00    -0.460 OA
BRANCH  31  32
ATOM     32  C   UNL A   1      33.452  34.589  28.654  1.00  0.00     0.338 C 
ATOM     33  O   UNL A   1      33.518  35.785  28.907  1.00  0.00    -0.246 OA
BRANCH  32  34
ATOM     34  C   UNL A   1      34.604  33.694  28.859  1.00  0.00     0.060 A 
ATOM     35  C   UNL A   1      34.452  32.642  29.770  1.00  0.00     0.016 A 
ATOM     36  C   UNL A   1      35.854  33.972  28.301  1.00  0.00     0.016 A 
ATOM     37  C   UNL A   1      35.553  31.882  30.154  1.00  0.00     0.010 A 
ATOM     38  C   UNL A   1      36.967  33.219  28.704  1.00  0.00     0.010 A 
ATOM     39  C   UNL A   1      36.825  32.197  29.661  1.00  0.00    -0.014 A 
BRANCH  39  40
ATOM     40  C   UNL A   1      38.002  31.563  30.303  1.00  0.00     0.031 A 
ATOM     41  C   UNL A   1      38.349  31.932  31.718  1.00  0.00     0.074 A 
ATOM     42  C   UNL A   1      38.695  30.600  29.669  1.00  0.00     0.049 A 
ATOM     43  N   UNL A   1      39.278  31.446  32.503  1.00  0.00    -0.248 NA
ATOM     44  C   UNL A   1      37.531  32.988  32.336  1.00  0.00     0.031 C 
ATOM     45  C   UNL A   1      38.430  30.128  28.313  1.00  0.00     0.029 A 
ATOM     46  N   UNL A   1      39.755  29.841  30.094  1.00  0.00    -0.354 N 
ATOM     47  C   UNL A   1      39.149  32.126  33.707  1.00  0.00     0.074 A 
ATOM     48  C   UNL A   1      38.080  33.087  33.538  1.00  0.00     0.031 C 
ATOM     49  C   UNL A   1      39.312  29.159  28.012  1.00  0.00     0.029 A 
ATOM     50  C   UNL A   1      40.210  28.957  29.148  1.00  0.00     0.049 A 
ATOM     51  H   UNL A   1      40.154  29.922  30.990  1.00  0.00     0.167 HD
ATOM     52  C   UNL A   1      39.848  31.957  34.855  1.00  0.00     0.037 A 
ATOM     53  C   UNL A   1      41.239  28.089  29.194  1.00  0.00     0.037 A 
ATOM     54  C   UNL A   1      40.925  31.016  35.019  1.00  0.00     0.049 A 
ATOM     55  C   UNL A   1      42.042  27.958  30.461  1.00  0.00     0.074 A 
ATOM     56  C   UNL A   1      41.703  30.774  36.138  1.00  0.00     0.029 A 
ATOM     57  N   UNL A   1      41.383  30.163  34.025  1.00  0.00    -0.354 N 
ATOM     58  N   UNL A   1      41.899  28.590  31.602  1.00  0.00    -0.248 NA
ATOM     59  C   UNL A   1      43.140  26.982  30.451  1.00  0.00     0.031 C 
ATOM     60  C   UNL A   1      42.659  29.807  35.808  1.00  0.00     0.029 A 
ATOM     61  C   UNL A   1      42.445  29.408  34.498  1.00  0.00     0.049 A 
ATOM     62  H   UNL A   1      41.008  30.103  33.116  1.00  0.00     0.167 HD
ATOM     63  C   UNL A   1      42.874  28.077  32.448  1.00  0.00     0.074 A 
ATOM     64  C   UNL A   1      43.588  27.066  31.696  1.00  0.00     0.031 C 
ATOM     65  C   UNL A   1      43.153  28.413  33.732  1.00  0.00     0.037 A 
BRANCH  52  66
ATOM     66  C   UNL A   1      39.482  32.838  36.015  1.00  0.00     0.064 A 
ATOM     67  C   UNL A   1      40.046  34.113  36.176  1.00  0.00     0.173 A 
ATOM     68  C   UNL A   1      38.555  32.404  36.974  1.00  0.00     0.173 A 
ATOM     69  F   UNL A   1      40.949  34.569  35.295  1.00  0.00    -0.203 F 
ATOM     70  C   UNL A   1      39.721  34.906  37.274  1.00  0.00     0.198 A 
ATOM     71  C   UNL A   1      38.212  33.212  38.055  1.00  0.00     0.198 A 
ATOM     72  F   UNL A   1      37.985  31.195  36.865  1.00  0.00    -0.203 F 
ATOM     73  F   UNL A   1      40.313  36.098  37.437  1.00  0.00    -0.200 F 
ATOM     74  C   UNL A   1      38.801  34.457  38.210  1.00  0.00     0.200 A 
ATOM     75  F   UNL A   1      37.317  32.781  38.954  1.00  0.00    -0.200 F 
ATOM     76  F   UNL A   1      38.492  35.221  39.267  1.00  0.00    -0.200 F 
ENDBRANCH  52  66
BRANCH  53  77
ATOM     77  C   UNL A   1      41.565  27.274  27.995  1.00  0.00     0.064 A 
ATOM     78  C   UNL A   1      41.030  25.992  27.818  1.00  0.00     0.173 A 
ATOM     79  C   UNL A   1      42.421  27.769  27.000  1.00  0.00     0.173 A 
ATOM     80  F   UNL A   1      40.226  25.465  28.755  1.00  0.00    -0.203 F 
ATOM     81  C   UNL A   1      41.347  25.229  26.695  1.00  0.00     0.198 A 
ATOM     82  C   UNL A   1      42.717  27.017  25.866  1.00  0.00     0.198 A 
ATOM     83  F   UNL A   1      42.961  28.990  27.126  1.00  0.00    -0.203 F 
ATOM     84  F   UNL A   1      40.852  23.991  26.566  1.00  0.00    -0.200 F 
ATOM     85  C   UNL A   1      42.185  25.746  25.716  1.00  0.00     0.200 A 
ATOM     86  F   UNL A   1      43.517  27.525  24.919  1.00  0.00    -0.200 F 
ATOM     87  F   UNL A   1      42.482  25.016  24.634  1.00  0.00    -0.200 F 
ENDBRANCH  53  77
BRANCH  65  88
ATOM     88  C   UNL A   1      44.266  27.665  34.409  1.00  0.00     0.064 A 
ATOM     89  C   UNL A   1      45.582  28.151  34.415  1.00  0.00     0.173 A 
ATOM     90  C   UNL A   1      44.010  26.456  35.075  1.00  0.00     0.173 A 
ATOM     91  F   UNL A   1      45.881  29.295  33.780  1.00  0.00    -0.203 F 
ATOM     92  C   UNL A   1      46.606  27.438  35.033  1.00  0.00     0.198 A 
ATOM     93  C   UNL A   1      45.031  25.761  35.717  1.00  0.00     0.198 A 
ATOM     94  F   UNL A   1      42.767  25.951  35.107  1.00  0.00    -0.203 F 
ATOM     95  F   UNL A   1      47.866  27.894  34.977  1.00  0.00    -0.200 F 
ATOM     96  C   UNL A   1      46.329  26.246  35.687  1.00  0.00     0.200 A 
ATOM     97  F   UNL A   1      44.760  24.617  36.359  1.00  0.00    -0.200 F 
ATOM     98  F   UNL A   1      47.316  25.561  36.279  1.00  0.00    -0.200 F 
ENDBRANCH  65  88
ENDBRANCH  39  40
ENDBRANCH  32  34
ENDBRANCH  31  32
ENDBRANCH  30  31
ENDBRANCH  29  30
ENDBRANCH  28  29
ENDBRANCH   1  28
TORSDOF 18
ENDMDL
