MODEL 1
REMARK VINA RESULT:      -9.7      0.000      0.000
REMARK SMILES O=C(OCCOCCOC(=O)c1cccc2nc(Cl)c(Cl)nc12)c1ccc(-c2c3nc(c(-c4c(F)c(F)c(F)c(F)c4F)c4ccc([nH]4)c(-c4c(F)c(F)c(F)c(F)c4F)c4nc(c(-c5c(F)c(F)c(F)c(F)c5F)c5ccc2[nH]5)C=C4)C=C3)cc1
REMARK SMILES IDX 5 1 4 2 3 3 2 4 1 5 24 6 25 7 86 8 26 9 85 10 27 11 28 12
REMARK SMILES IDX 29 13 79 14 30 15 84 16 78 17 80 18 31 19 83 20 77 21 76 22
REMARK SMILES IDX 32 24 64 25 44 26 63 27 45 28 48 29 62 30 81 31 46 32 47 33
REMARK SMILES IDX 61 35 82 36 49 37 33 38 34 39 42 40 35 41 36 42 40 43 43 44
REMARK SMILES IDX 37 45 38 46 41 47 39 48 65 49 66 50 74 51 67 52 68 53 72 54
REMARK SMILES IDX 75 55 69 56 70 57 73 58 71 59 50 60 51 61 59 62 52 63 53 64
REMARK SMILES IDX 57 65 60 66 54 67 55 68 58 69 56 70 6 71 7 72 8 73 9 74
REMARK SMILES IDX 10 75 11 76 12 77 13 78 23 79 14 80 16 81 22 82 15 83 17 84
REMARK SMILES IDX 20 85 18 86 21 87 19 88
REMARK H PARENT 80 23 48 34
REMARK Flexibility Score: inf
ROOT
ATOM      1  C   UNL A   1      44.097  19.119  24.910  1.00  0.00     0.202 C 
ENDROOT
BRANCH   1   2
ATOM      2  C   UNL A   1      43.418  18.035  25.750  1.00  0.00     0.261 C 
BRANCH   2   3
ATOM      3  O   UNL A   1      42.388  18.578  26.581  1.00  0.00    -0.460 OA
BRANCH   3   4
ATOM      4  C   UNL A   1      41.682  19.715  26.382  1.00  0.00     0.338 C 
ATOM      5  O   UNL A   1      40.601  19.615  25.803  1.00  0.00    -0.246 OA
BRANCH   4   6
ATOM      6  C   UNL A   1      42.106  21.091  26.826  1.00  0.00     0.060 A 
ATOM      7  C   UNL A   1      42.145  21.294  28.218  1.00  0.00     0.016 A 
ATOM      8  C   UNL A   1      42.382  22.194  26.010  1.00  0.00     0.016 A 
ATOM      9  C   UNL A   1      42.387  22.557  28.761  1.00  0.00     0.010 A 
ATOM     10  C   UNL A   1      42.613  23.459  26.537  1.00  0.00     0.010 A 
ATOM     11  C   UNL A   1      42.599  23.646  27.913  1.00  0.00    -0.014 A 
BRANCH  11  12
ATOM     12  C   UNL A   1      42.936  24.974  28.434  1.00  0.00     0.031 A 
ATOM     13  C   UNL A   1      44.332  25.304  28.848  1.00  0.00     0.074 A 
ATOM     14  C   UNL A   1      41.911  25.821  28.629  1.00  0.00     0.049 A 
ATOM     15  N   UNL A   1      44.817  26.449  29.246  1.00  0.00    -0.248 NA
ATOM     16  C   UNL A   1      45.308  24.202  28.845  1.00  0.00     0.031 C 
ATOM     17  C   UNL A   1      40.506  25.493  28.373  1.00  0.00     0.029 A 
ATOM     18  N   UNL A   1      41.881  27.102  29.096  1.00  0.00    -0.354 N 
ATOM     19  C   UNL A   1      46.158  26.217  29.515  1.00  0.00     0.074 A 
ATOM     20  C   UNL A   1      46.399  24.807  29.298  1.00  0.00     0.031 C 
ATOM     21  C   UNL A   1      39.750  26.560  28.666  1.00  0.00     0.029 A 
ATOM     22  C   UNL A   1      40.620  27.637  29.122  1.00  0.00     0.049 A 
ATOM     23  H   UNL A   1      42.685  27.593  29.384  1.00  0.00     0.167 HD
ATOM     24  C   UNL A   1      47.092  27.123  29.886  1.00  0.00     0.037 A 
ATOM     25  C   UNL A   1      40.223  28.879  29.449  1.00  0.00     0.037 A 
ATOM     26  C   UNL A   1      46.787  28.514  30.108  1.00  0.00     0.049 A 
ATOM     27  C   UNL A   1      41.281  29.880  29.801  1.00  0.00     0.074 A 
ATOM     28  C   UNL A   1      47.648  29.557  30.389  1.00  0.00     0.029 A 
ATOM     29  N   UNL A   1      45.502  29.047  30.089  1.00  0.00    -0.354 N 
ATOM     30  N   UNL A   1      42.578  29.703  29.896  1.00  0.00    -0.248 NA
ATOM     31  C   UNL A   1      40.836  31.251  30.066  1.00  0.00     0.031 C 
ATOM     32  C   UNL A   1      46.882  30.707  30.596  1.00  0.00     0.029 A 
ATOM     33  C   UNL A   1      45.544  30.398  30.390  1.00  0.00     0.049 A 
ATOM     34  H   UNL A   1      44.683  28.538  29.891  1.00  0.00     0.167 HD
ATOM     35  C   UNL A   1      43.110  30.937  30.228  1.00  0.00     0.074 A 
ATOM     36  C   UNL A   1      41.993  31.863  30.290  1.00  0.00     0.031 C 
ATOM     37  C   UNL A   1      44.402  31.276  30.465  1.00  0.00     0.037 A 
BRANCH  24  38
ATOM     38  C   UNL A   1      48.514  26.662  30.047  1.00  0.00     0.064 A 
ATOM     39  C   UNL A   1      49.521  27.072  29.159  1.00  0.00     0.173 A 
ATOM     40  C   UNL A   1      48.896  25.873  31.144  1.00  0.00     0.173 A 
ATOM     41  F   UNL A   1      49.216  27.825  28.091  1.00  0.00    -0.203 F 
ATOM     42  C   UNL A   1      50.849  26.699  29.353  1.00  0.00     0.198 A 
ATOM     43  C   UNL A   1      50.230  25.525  31.350  1.00  0.00     0.198 A 
ATOM     44  F   UNL A   1      47.980  25.457  32.030  1.00  0.00    -0.203 F 
ATOM     45  F   UNL A   1      51.787  27.082  28.474  1.00  0.00    -0.200 F 
ATOM     46  C   UNL A   1      51.204  25.935  30.453  1.00  0.00     0.200 A 
ATOM     47  F   UNL A   1      50.575  24.801  32.424  1.00  0.00    -0.200 F 
ATOM     48  F   UNL A   1      52.487  25.596  30.651  1.00  0.00    -0.200 F 
ENDBRANCH  24  38
BRANCH  25  49
ATOM     49  C   UNL A   1      38.784  29.218  29.332  1.00  0.00     0.064 A 
ATOM     50  C   UNL A   1      37.989  29.349  30.478  1.00  0.00     0.173 A 
ATOM     51  C   UNL A   1      38.213  29.561  28.096  1.00  0.00     0.173 A 
ATOM     52  F   UNL A   1      38.493  29.036  31.681  1.00  0.00    -0.203 F 
ATOM     53  C   UNL A   1      36.678  29.815  30.394  1.00  0.00     0.198 A 
ATOM     54  C   UNL A   1      36.911  30.049  28.017  1.00  0.00     0.198 A 
ATOM     55  F   UNL A   1      38.943  29.480  26.974  1.00  0.00    -0.203 F 
ATOM     56  F   UNL A   1      35.940  29.931  31.506  1.00  0.00    -0.200 F 
ATOM     57  C   UNL A   1      36.145  30.177  29.166  1.00  0.00     0.200 A 
ATOM     58  F   UNL A   1      36.409  30.426  26.833  1.00  0.00    -0.200 F 
ATOM     59  F   UNL A   1      34.898  30.660  29.092  1.00  0.00    -0.200 F 
ENDBRANCH  25  49
BRANCH  37  60
ATOM     60  C   UNL A   1      44.667  32.701  30.847  1.00  0.00     0.064 A 
ATOM     61  C   UNL A   1      44.896  33.679  29.870  1.00  0.00     0.173 A 
ATOM     62  C   UNL A   1      44.603  33.104  32.189  1.00  0.00     0.173 A 
ATOM     63  F   UNL A   1      44.976  33.335  28.575  1.00  0.00    -0.203 F 
ATOM     64  C   UNL A   1      45.062  35.013  30.224  1.00  0.00     0.198 A 
ATOM     65  C   UNL A   1      44.741  34.443  32.536  1.00  0.00     0.198 A 
ATOM     66  F   UNL A   1      44.378  32.203  33.157  1.00  0.00    -0.203 F 
ATOM     67  F   UNL A   1      45.310  35.929  29.278  1.00  0.00    -0.200 F 
ATOM     68  C   UNL A   1      44.973  35.396  31.555  1.00  0.00     0.200 A 
ATOM     69  F   UNL A   1      44.639  34.815  33.819  1.00  0.00    -0.200 F 
ATOM     70  F   UNL A   1      45.113  36.685  31.892  1.00  0.00    -0.200 F 
ENDBRANCH  37  60
ENDBRANCH  11  12
ENDBRANCH   4   6
ENDBRANCH   3   4
ENDBRANCH   2   3
ENDBRANCH   1   2
BRANCH   1  71
ATOM     71  O   UNL A   1      45.487  18.889  24.682  1.00  0.00    -0.374 OA
BRANCH  71  72
ATOM     72  C   UNL A   1      46.308  20.055  24.698  1.00  0.00     0.202 C 
BRANCH  72  73
ATOM     73  C   UNL A   1      45.630  21.188  25.468  1.00  0.00     0.261 C 
BRANCH  73  74
ATOM     74  O   UNL A   1      46.366  22.409  25.287  1.00  0.00    -0.460 OA
BRANCH  74  75
ATOM     75  C   UNL A   1      45.773  23.375  24.537  1.00  0.00     0.340 C 
ATOM     76  O   UNL A   1      44.958  23.225  23.646  1.00  0.00    -0.246 OA
BRANCH  75  77
ATOM     77  C   UNL A   1      46.257  24.676  25.044  1.00  0.00     0.088 A 
ATOM     78  C   UNL A   1      47.622  24.794  25.348  1.00  0.00     0.018 A 
ATOM     79  C   UNL A   1      45.349  25.724  25.268  1.00  0.00     0.105 A 
ATOM     80  C   UNL A   1      48.102  25.980  25.877  1.00  0.00     0.003 A 
ATOM     81  C   UNL A   1      45.864  26.927  25.819  1.00  0.00     0.091 A 
ATOM     82  N   UNL A   1      44.016  25.619  25.040  1.00  0.00    -0.230 NA
ATOM     83  C   UNL A   1      47.218  27.033  26.102  1.00  0.00     0.031 A 
ATOM     84  N   UNL A   1      45.075  27.978  26.117  1.00  0.00    -0.231 NA
ATOM     85  C   UNL A   1      43.229  26.673  25.360  1.00  0.00     0.167 A 
ATOM     86  C   UNL A   1      43.751  27.834  25.886  1.00  0.00     0.167 A 
ATOM     87  Cl  UNL A   1      41.553  26.375  25.136  1.00  0.00    -0.059 Cl
ATOM     88  Cl  UNL A   1      42.810  29.188  26.357  1.00  0.00    -0.059 Cl
ENDBRANCH  75  77
ENDBRANCH  74  75
ENDBRANCH  73  74
ENDBRANCH  72  73
ENDBRANCH  71  72
ENDBRANCH   1  71
TORSDOF 14
ENDMDL
MODEL 2
REMARK VINA RESULT:      -9.7      4.525      6.498
REMARK SMILES O=C(OCCOCCOC(=O)c1cccc2nc(Cl)c(Cl)nc12)c1ccc(-c2c3nc(c(-c4c(F)c(F)c(F)c(F)c4F)c4ccc([nH]4)c(-c4c(F)c(F)c(F)c(F)c4F)c4nc(c(-c5c(F)c(F)c(F)c(F)c5F)c5ccc2[nH]5)C=C4)C=C3)cc1
REMARK SMILES IDX 5 1 4 2 3 3 2 4 1 5 24 6 25 7 86 8 26 9 85 10 27 11 28 12
REMARK SMILES IDX 29 13 79 14 30 15 84 16 78 17 80 18 31 19 83 20 77 21 76 22
REMARK SMILES IDX 32 24 64 25 44 26 63 27 45 28 48 29 62 30 81 31 46 32 47 33
REMARK SMILES IDX 61 35 82 36 49 37 33 38 34 39 42 40 35 41 36 42 40 43 43 44
REMARK SMILES IDX 37 45 38 46 41 47 39 48 65 49 66 50 74 51 67 52 68 53 72 54
REMARK SMILES IDX 75 55 69 56 70 57 73 58 71 59 50 60 51 61 59 62 52 63 53 64
REMARK SMILES IDX 57 65 60 66 54 67 55 68 58 69 56 70 6 71 7 72 8 73 9 74
REMARK SMILES IDX 10 75 11 76 12 77 13 78 23 79 14 80 16 81 22 82 15 83 17 84
REMARK SMILES IDX 20 85 18 86 21 87 19 88
REMARK H PARENT 80 23 48 34
REMARK Flexibility Score: inf
ROOT
ATOM      1  C   UNL A   1      45.141  21.588  24.590  1.00  0.00     0.202 C 
ENDROOT
BRANCH   1   2
ATOM      2  C   UNL A   1      45.146  22.953  23.899  1.00  0.00     0.261 C 
BRANCH   2   3
ATOM      3  O   UNL A   1      44.287  23.885  24.562  1.00  0.00    -0.460 OA
BRANCH   3   4
ATOM      4  C   UNL A   1      44.630  25.067  25.124  1.00  0.00     0.338 C 
ATOM      5  O   UNL A   1      45.578  25.675  24.626  1.00  0.00    -0.246 OA
BRANCH   4   6
ATOM      6  C   UNL A   1      43.937  25.706  26.298  1.00  0.00     0.060 A 
ATOM      7  C   UNL A   1      44.266  27.055  26.536  1.00  0.00     0.016 A 
ATOM      8  C   UNL A   1      43.076  25.087  27.212  1.00  0.00     0.016 A 
ATOM      9  C   UNL A   1      43.802  27.726  27.669  1.00  0.00     0.010 A 
ATOM     10  C   UNL A   1      42.618  25.741  28.349  1.00  0.00     0.010 A 
ATOM     11  C   UNL A   1      42.993  27.056  28.588  1.00  0.00    -0.014 A 
BRANCH  11  12
ATOM     12  C   UNL A   1      42.417  27.740  29.750  1.00  0.00     0.031 A 
ATOM     13  C   UNL A   1      43.011  27.576  31.109  1.00  0.00     0.074 A 
ATOM     14  C   UNL A   1      41.272  28.412  29.543  1.00  0.00     0.049 A 
ATOM     15  N   UNL A   1      42.682  28.174  32.222  1.00  0.00    -0.248 NA
ATOM     16  C   UNL A   1      44.099  26.593  31.249  1.00  0.00     0.031 C 
ATOM     17  C   UNL A   1      40.573  28.483  28.258  1.00  0.00     0.029 A 
ATOM     18  N   UNL A   1      40.492  29.138  30.395  1.00  0.00    -0.354 N 
ATOM     19  C   UNL A   1      43.535  27.663  33.190  1.00  0.00     0.074 A 
ATOM     20  C   UNL A   1      44.355  26.659  32.549  1.00  0.00     0.031 C 
ATOM     21  C   UNL A   1      39.474  29.235  28.401  1.00  0.00     0.029 A 
ATOM     22  C   UNL A   1      39.401  29.697  29.782  1.00  0.00     0.049 A 
ATOM     23  H   UNL A   1      40.692  29.249  31.353  1.00  0.00     0.167 HD
ATOM     24  C   UNL A   1      43.622  28.034  34.489  1.00  0.00     0.037 A 
ATOM     25  C   UNL A   1      38.466  30.521  30.284  1.00  0.00     0.037 A 
ATOM     26  C   UNL A   1      42.760  29.028  35.077  1.00  0.00     0.049 A 
ATOM     27  C   UNL A   1      38.616  30.963  31.708  1.00  0.00     0.074 A 
ATOM     28  C   UNL A   1      42.802  29.569  36.348  1.00  0.00     0.029 A 
ATOM     29  N   UNL A   1      41.682  29.616  34.424  1.00  0.00    -0.354 N 
ATOM     30  N   UNL A   1      39.525  30.607  32.585  1.00  0.00    -0.248 NA
ATOM     31  C   UNL A   1      37.638  31.932  32.209  1.00  0.00     0.031 C 
ATOM     32  C   UNL A   1      41.717  30.441  36.482  1.00  0.00     0.029 A 
ATOM     33  C   UNL A   1      41.028  30.488  35.278  1.00  0.00     0.049 A 
ATOM     34  H   UNL A   1      41.421  29.437  33.492  1.00  0.00     0.167 HD
ATOM     35  C   UNL A   1      39.235  31.309  33.743  1.00  0.00     0.074 A 
ATOM     36  C   UNL A   1      38.079  32.135  33.445  1.00  0.00     0.031 C 
ATOM     37  C   UNL A   1      39.863  31.272  34.945  1.00  0.00     0.037 A 
BRANCH  24  38
ATOM     38  C   UNL A   1      44.682  27.399  35.346  1.00  0.00     0.064 A 
ATOM     39  C   UNL A   1      45.962  27.964  35.464  1.00  0.00     0.173 A 
ATOM     40  C   UNL A   1      44.397  26.266  36.123  1.00  0.00     0.173 A 
ATOM     41  F   UNL A   1      46.293  29.046  34.744  1.00  0.00    -0.203 F 
ATOM     42  C   UNL A   1      46.918  27.412  36.314  1.00  0.00     0.198 A 
ATOM     43  C   UNL A   1      45.347  25.732  36.994  1.00  0.00     0.198 A 
ATOM     44  F   UNL A   1      43.189  25.686  36.059  1.00  0.00    -0.203 F 
ATOM     45  F   UNL A   1      48.142  27.956  36.387  1.00  0.00    -0.200 F 
ATOM     46  C   UNL A   1      46.606  26.304  37.086  1.00  0.00     0.200 A 
ATOM     47  F   UNL A   1      45.039  24.671  37.752  1.00  0.00    -0.200 F 
ATOM     48  F   UNL A   1      47.521  25.787  37.920  1.00  0.00    -0.200 F 
ENDBRANCH  24  38
BRANCH  25  49
ATOM     49  C   UNL A   1      37.412  31.036  29.377  1.00  0.00     0.064 A 
ATOM     50  C   UNL A   1      36.313  30.235  29.037  1.00  0.00     0.173 A 
ATOM     51  C   UNL A   1      37.403  32.373  28.951  1.00  0.00     0.173 A 
ATOM     52  F   UNL A   1      36.275  28.952  29.423  1.00  0.00    -0.203 F 
ATOM     53  C   UNL A   1      35.243  30.755  28.311  1.00  0.00     0.198 A 
ATOM     54  C   UNL A   1      36.322  32.897  28.247  1.00  0.00     0.198 A 
ATOM     55  F   UNL A   1      38.419  33.187  29.276  1.00  0.00    -0.203 F 
ATOM     56  F   UNL A   1      34.203  29.968  28.001  1.00  0.00    -0.200 F 
ATOM     57  C   UNL A   1      35.241  32.088  27.929  1.00  0.00     0.200 A 
ATOM     58  F   UNL A   1      36.311  34.193  27.906  1.00  0.00    -0.200 F 
ATOM     59  F   UNL A   1      34.195  32.595  27.265  1.00  0.00    -0.200 F 
ENDBRANCH  25  49
BRANCH  37  60
ATOM     60  C   UNL A   1      39.287  32.125  36.034  1.00  0.00     0.064 A 
ATOM     61  C   UNL A   1      38.297  31.627  36.891  1.00  0.00     0.173 A 
ATOM     62  C   UNL A   1      39.790  33.412  36.275  1.00  0.00     0.173 A 
ATOM     63  F   UNL A   1      37.778  30.407  36.690  1.00  0.00    -0.203 F 
ATOM     64  C   UNL A   1      37.821  32.394  37.950  1.00  0.00     0.198 A 
ATOM     65  C   UNL A   1      39.334  34.163  37.352  1.00  0.00     0.198 A 
ATOM     66  F   UNL A   1      40.745  33.924  35.485  1.00  0.00    -0.203 F 
ATOM     67  F   UNL A   1      36.853  31.913  38.741  1.00  0.00    -0.200 F 
ATOM     68  C   UNL A   1      38.348  33.656  38.186  1.00  0.00     0.200 A 
ATOM     69  F   UNL A   1      39.854  35.375  37.590  1.00  0.00    -0.200 F 
ATOM     70  F   UNL A   1      37.904  34.385  39.219  1.00  0.00    -0.200 F 
ENDBRANCH  37  60
ENDBRANCH  11  12
ENDBRANCH   4   6
ENDBRANCH   3   4
ENDBRANCH   2   3
ENDBRANCH   1   2
BRANCH   1  71
ATOM     71  O   UNL A   1      43.838  21.108  24.917  1.00  0.00    -0.374 OA
BRANCH  71  72
ATOM     72  C   UNL A   1      43.763  19.722  25.244  1.00  0.00     0.202 C 
BRANCH  72  73
ATOM     73  C   UNL A   1      42.368  19.358  25.751  1.00  0.00     0.261 C 
BRANCH  73  74
ATOM     74  O   UNL A   1      41.535  20.531  25.770  1.00  0.00    -0.460 OA
BRANCH  74  75
ATOM     75  C   UNL A   1      40.753  20.706  26.867  1.00  0.00     0.340 C 
ATOM     76  O   UNL A   1      40.778  20.071  27.904  1.00  0.00    -0.246 OA
BRANCH  75  77
ATOM     77  C   UNL A   1      39.886  21.873  26.598  1.00  0.00     0.088 A 
ATOM     78  C   UNL A   1      40.311  23.126  27.062  1.00  0.00     0.018 A 
ATOM     79  C   UNL A   1      38.650  21.695  25.954  1.00  0.00     0.105 A 
ATOM     80  C   UNL A   1      39.500  24.233  26.876  1.00  0.00     0.003 A 
ATOM     81  C   UNL A   1      37.832  22.843  25.782  1.00  0.00     0.091 A 
ATOM     82  N   UNL A   1      38.187  20.486  25.548  1.00  0.00    -0.230 NA
ATOM     83  C   UNL A   1      38.273  24.078  26.235  1.00  0.00     0.031 A 
ATOM     84  N   UNL A   1      36.609  22.778  25.220  1.00  0.00    -0.231 NA
ATOM     85  C   UNL A   1      36.949  20.428  25.001  1.00  0.00     0.167 A 
ATOM     86  C   UNL A   1      36.175  21.557  24.837  1.00  0.00     0.167 A 
ATOM     87  Cl  UNL A   1      36.430  18.833  24.637  1.00  0.00    -0.059 Cl
ATOM     88  Cl  UNL A   1      34.585  21.550  24.197  1.00  0.00    -0.059 Cl
ENDBRANCH  75  77
ENDBRANCH  74  75
ENDBRANCH  73  74
ENDBRANCH  72  73
ENDBRANCH  71  72
ENDBRANCH   1  71
TORSDOF 14
ENDMDL
MODEL 3
REMARK VINA RESULT:      -9.6      6.549     11.766
REMARK SMILES O=C(OCCOCCOC(=O)c1cccc2nc(Cl)c(Cl)nc12)c1ccc(-c2c3nc(c(-c4c(F)c(F)c(F)c(F)c4F)c4ccc([nH]4)c(-c4c(F)c(F)c(F)c(F)c4F)c4nc(c(-c5c(F)c(F)c(F)c(F)c5F)c5ccc2[nH]5)C=C4)C=C3)cc1
REMARK SMILES IDX 5 1 4 2 3 3 2 4 1 5 24 6 25 7 86 8 26 9 85 10 27 11 28 12
REMARK SMILES IDX 29 13 79 14 30 15 84 16 78 17 80 18 31 19 83 20 77 21 76 22
REMARK SMILES IDX 32 24 64 25 44 26 63 27 45 28 48 29 62 30 81 31 46 32 47 33
REMARK SMILES IDX 61 35 82 36 49 37 33 38 34 39 42 40 35 41 36 42 40 43 43 44
REMARK SMILES IDX 37 45 38 46 41 47 39 48 65 49 66 50 74 51 67 52 68 53 72 54
REMARK SMILES IDX 75 55 69 56 70 57 73 58 71 59 50 60 51 61 59 62 52 63 53 64
REMARK SMILES IDX 57 65 60 66 54 67 55 68 58 69 56 70 6 71 7 72 8 73 9 74
REMARK SMILES IDX 10 75 11 76 12 77 13 78 23 79 14 80 16 81 22 82 15 83 17 84
REMARK SMILES IDX 20 85 18 86 21 87 19 88
REMARK H PARENT 80 23 48 34
REMARK Flexibility Score: inf
ROOT
ATOM      1  C   UNL A   1      32.531  31.530  26.670  1.00  0.00     0.202 C 
ENDROOT
BRANCH   1   2
ATOM      2  C   UNL A   1      31.672  32.656  27.248  1.00  0.00     0.261 C 
BRANCH   2   3
ATOM      3  O   UNL A   1      32.391  33.890  27.314  1.00  0.00    -0.460 OA
BRANCH   3   4
ATOM      4  C   UNL A   1      32.988  34.441  28.396  1.00  0.00     0.338 C 
ATOM      5  O   UNL A   1      32.536  35.509  28.810  1.00  0.00    -0.246 OA
BRANCH   4   6
ATOM      6  C   UNL A   1      34.151  33.845  29.145  1.00  0.00     0.060 A 
ATOM      7  C   UNL A   1      35.426  34.159  28.636  1.00  0.00     0.016 A 
ATOM      8  C   UNL A   1      34.095  32.962  30.230  1.00  0.00     0.016 A 
ATOM      9  C   UNL A   1      36.579  33.564  29.150  1.00  0.00     0.010 A 
ATOM     10  C   UNL A   1      35.235  32.356  30.743  1.00  0.00     0.010 A 
ATOM     11  C   UNL A   1      36.477  32.643  30.193  1.00  0.00    -0.014 A 
BRANCH  11  12
ATOM     12  C   UNL A   1      37.665  32.053  30.820  1.00  0.00     0.031 A 
ATOM     13  C   UNL A   1      38.155  32.540  32.143  1.00  0.00     0.074 A 
ATOM     14  C   UNL A   1      38.343  31.152  30.090  1.00  0.00     0.049 A 
ATOM     15  N   UNL A   1      39.131  32.074  32.874  1.00  0.00    -0.248 NA
ATOM     16  C   UNL A   1      37.485  33.721  32.711  1.00  0.00     0.031 C 
ATOM     17  C   UNL A   1      37.983  30.747  28.729  1.00  0.00     0.029 A 
ATOM     18  N   UNL A   1      39.469  30.434  30.371  1.00  0.00    -0.354 N 
ATOM     19  C   UNL A   1      39.178  32.883  33.999  1.00  0.00     0.074 A 
ATOM     20  C   UNL A   1      38.176  33.912  33.828  1.00  0.00     0.031 C 
ATOM     21  C   UNL A   1      38.862  29.831  28.300  1.00  0.00     0.029 A 
ATOM     22  C   UNL A   1      39.836  29.588  29.357  1.00  0.00     0.049 A 
ATOM     23  H   UNL A   1      39.967  30.516  31.216  1.00  0.00     0.167 HD
ATOM     24  C   UNL A   1      39.982  32.746  35.079  1.00  0.00     0.037 A 
ATOM     25  C   UNL A   1      40.834  28.690  29.310  1.00  0.00     0.037 A 
ATOM     26  C   UNL A   1      40.980  31.711  35.184  1.00  0.00     0.049 A 
ATOM     27  C   UNL A   1      41.675  28.515  30.539  1.00  0.00     0.074 A 
ATOM     28  C   UNL A   1      41.792  31.395  36.256  1.00  0.00     0.029 A 
ATOM     29  N   UNL A   1      41.310  30.833  34.157  1.00  0.00    -0.354 N 
ATOM     30  N   UNL A   1      41.613  29.172  31.674  1.00  0.00    -0.248 NA
ATOM     31  C   UNL A   1      42.700  27.469  30.499  1.00  0.00     0.031 C 
ATOM     32  C   UNL A   1      42.651  30.365  35.860  1.00  0.00     0.029 A 
ATOM     33  C   UNL A   1      42.339  29.998  34.558  1.00  0.00     0.049 A 
ATOM     34  H   UNL A   1      40.875  30.810  33.274  1.00  0.00     0.167 HD
ATOM     35  C   UNL A   1      42.587  28.620  32.489  1.00  0.00     0.074 A 
ATOM     36  C   UNL A   1      43.206  27.552  31.723  1.00  0.00     0.031 C 
ATOM     37  C   UNL A   1      42.942  28.964  33.752  1.00  0.00     0.037 A 
BRANCH  24  38
ATOM     38  C   UNL A   1      39.806  33.698  36.230  1.00  0.00     0.064 A 
ATOM     39  C   UNL A   1      38.969  33.388  37.314  1.00  0.00     0.173 A 
ATOM     40  C   UNL A   1      40.542  34.892  36.296  1.00  0.00     0.173 A 
ATOM     41  F   UNL A   1      38.240  32.262  37.305  1.00  0.00    -0.203 F 
ATOM     42  C   UNL A   1      38.864  34.241  38.410  1.00  0.00     0.198 A 
ATOM     43  C   UNL A   1      40.455  35.730  37.408  1.00  0.00     0.198 A 
ATOM     44  F   UNL A   1      41.363  35.238  35.295  1.00  0.00    -0.203 F 
ATOM     45  F   UNL A   1      38.036  33.934  39.420  1.00  0.00    -0.200 F 
ATOM     46  C   UNL A   1      39.614  35.405  38.461  1.00  0.00     0.200 A 
ATOM     47  F   UNL A   1      41.194  36.846  37.463  1.00  0.00    -0.200 F 
ATOM     48  F   UNL A   1      39.529  36.214  39.527  1.00  0.00    -0.200 F 
ENDBRANCH  24  38
BRANCH  25  49
ATOM     49  C   UNL A   1      40.976  27.848  28.098  1.00  0.00     0.064 A 
ATOM     50  C   UNL A   1      41.768  28.275  27.024  1.00  0.00     0.173 A 
ATOM     51  C   UNL A   1      40.449  26.548  28.046  1.00  0.00     0.173 A 
ATOM     52  F   UNL A   1      42.296  29.507  27.031  1.00  0.00    -0.203 F 
ATOM     53  C   UNL A   1      42.033  27.431  25.947  1.00  0.00     0.198 A 
ATOM     54  C   UNL A   1      40.734  25.698  26.981  1.00  0.00     0.198 A 
ATOM     55  F   UNL A   1      39.708  26.084  29.064  1.00  0.00    -0.203 F 
ATOM     56  F   UNL A   1      42.795  27.864  24.933  1.00  0.00    -0.200 F 
ATOM     57  C   UNL A   1      41.528  26.140  25.932  1.00  0.00     0.200 A 
ATOM     58  F   UNL A   1      40.269  24.442  26.984  1.00  0.00    -0.200 F 
ATOM     59  F   UNL A   1      41.814  25.318  24.914  1.00  0.00    -0.200 F 
ENDBRANCH  25  49
BRANCH  37  60
ATOM     60  C   UNL A   1      44.074  28.200  34.367  1.00  0.00     0.064 A 
ATOM     61  C   UNL A   1      43.849  26.984  35.025  1.00  0.00     0.173 A 
ATOM     62  C   UNL A   1      45.397  28.642  34.221  1.00  0.00     0.173 A 
ATOM     63  F   UNL A   1      42.598  26.530  35.199  1.00  0.00    -0.203 F 
ATOM     64  C   UNL A   1      44.911  26.238  35.526  1.00  0.00     0.198 A 
ATOM     65  C   UNL A   1      46.458  27.880  34.696  1.00  0.00     0.198 A 
ATOM     66  F   UNL A   1      45.660  29.796  33.590  1.00  0.00    -0.203 F 
ATOM     67  F   UNL A   1      44.674  25.092  36.179  1.00  0.00    -0.200 F 
ATOM     68  C   UNL A   1      46.214  26.681  35.351  1.00  0.00     0.200 A 
ATOM     69  F   UNL A   1      47.718  28.298  34.513  1.00  0.00    -0.200 F 
ATOM     70  F   UNL A   1      47.238  25.951  35.815  1.00  0.00    -0.200 F 
ENDBRANCH  37  60
ENDBRANCH  11  12
ENDBRANCH   4   6
ENDBRANCH   3   4
ENDBRANCH   2   3
ENDBRANCH   1   2
BRANCH   1  71
ATOM     71  O   UNL A   1      33.286  30.816  27.647  1.00  0.00    -0.374 OA
BRANCH  71  72
ATOM     72  C   UNL A   1      34.559  30.345  27.211  1.00  0.00     0.202 C 
BRANCH  72  73
ATOM     73  C   UNL A   1      34.567  28.821  27.102  1.00  0.00     0.261 C 
BRANCH  73  74
ATOM     74  O   UNL A   1      33.905  28.415  25.891  1.00  0.00    -0.460 OA
BRANCH  74  75
ATOM     75  C   UNL A   1      32.693  27.818  26.029  1.00  0.00     0.340 C 
ATOM     76  O   UNL A   1      32.040  27.693  27.048  1.00  0.00    -0.246 OA
BRANCH  75  77
ATOM     77  C   UNL A   1      32.266  27.389  24.681  1.00  0.00     0.088 A 
ATOM     78  C   UNL A   1      32.878  26.252  24.131  1.00  0.00     0.018 A 
ATOM     79  C   UNL A   1      31.324  28.148  23.967  1.00  0.00     0.105 A 
ATOM     80  C   UNL A   1      32.543  25.852  22.848  1.00  0.00     0.003 A 
ATOM     81  C   UNL A   1      31.003  27.722  22.651  1.00  0.00     0.091 A 
ATOM     82  N   UNL A   1      30.760  29.284  24.450  1.00  0.00    -0.230 NA
ATOM     83  C   UNL A   1      31.607  26.589  22.126  1.00  0.00     0.031 A 
ATOM     84  N   UNL A   1      30.149  28.402  21.862  1.00  0.00    -0.231 NA
ATOM     85  C   UNL A   1      29.917  29.971  23.644  1.00  0.00     0.167 A 
ATOM     86  C   UNL A   1      29.614  29.535  22.372  1.00  0.00     0.167 A 
ATOM     87  Cl  UNL A   1      29.363  31.447  24.322  1.00  0.00    -0.059 Cl
ATOM     88  Cl  UNL A   1      28.594  30.377  21.281  1.00  0.00    -0.059 Cl
ENDBRANCH  75  77
ENDBRANCH  74  75
ENDBRANCH  73  74
ENDBRANCH  72  73
ENDBRANCH  71  72
ENDBRANCH   1  71
TORSDOF 14
ENDMDL
