MODEL 1
REMARK VINA RESULT:     -10.6      0.000      0.000
REMARK SMILES CC(C)[C@@H](C)C(=O)N[C@@](C)(C(=O)OCCOCCOC(=O)c1ccc(-c2c3nc(c(-c4c(F)c(F)c(F)c(F)c4F)c4ccc([nH]4)c(-c4c(F)c(F)c(F)c(F)c4F)c4nc(c(-c5c(F)c(F)c(F)c(F)c5F)c5ccc2[nH]5)C=C4)C=C3)cc1)C(F)(F)F
REMARK SMILES IDX 15 1 14 2 13 3 11 4 12 5 9 6 10 7 8 8 6 9 7 10 4 12 5 13
REMARK SMILES IDX 2 14 1 15 3 16 85 17 86 18 87 19 88 20 16 21 17 22 18 23
REMARK SMILES IDX 19 24 20 25 21 26 22 27 23 28 84 29 24 30 83 31 25 32 26 33
REMARK SMILES IDX 27 34 77 35 28 36 82 37 76 38 78 39 29 40 81 41 75 42 74 43
REMARK SMILES IDX 30 45 62 46 42 47 61 48 43 49 46 50 60 51 79 52 44 53 45 54
REMARK SMILES IDX 59 56 80 57 47 58 31 59 32 60 40 61 33 62 34 63 38 64 41 65
REMARK SMILES IDX 35 66 36 67 39 68 37 69 63 70 64 71 72 72 65 73 66 74 70 75
REMARK SMILES IDX 73 76 67 77 68 78 71 79 69 80 48 81 49 82 57 83 50 84 51 85
REMARK SMILES IDX 55 86 58 87 52 88 53 89 56 90 54 91
REMARK H PARENT 8 11 78 44 46 55
REMARK Flexibility Score: inf
ROOT
ATOM      1  C   UNL A   1      33.131  30.340  26.668  1.00  0.00     0.202 C 
ENDROOT
BRANCH   1   2
ATOM      2  C   UNL A   1      33.364  29.090  25.804  1.00  0.00     0.261 C 
BRANCH   2   3
ATOM      3  O   UNL A   1      32.422  28.952  24.731  1.00  0.00    -0.461 OA
BRANCH   3   4
ATOM      4  C   UNL A   1      31.483  27.970  24.889  1.00  0.00     0.341 C 
ATOM      5  O   UNL A   1      31.163  27.516  25.980  1.00  0.00    -0.249 OA
BRANCH   4   6
ATOM      6  C   UNL A   1      30.927  27.470  23.536  1.00  0.00     0.231 C 
ATOM      7  C   UNL A   1      30.073  26.237  23.858  1.00  0.00     0.058 C 
BRANCH   6   8
ATOM      8  N   UNL A   1      32.096  27.001  22.686  1.00  0.00    -0.333 N 
ATOM      9  C   UNL A   1      33.176  26.195  22.699  1.00  0.00     0.224 C 
ATOM     10  O   UNL A   1      33.958  26.375  21.755  1.00  0.00    -0.275 OA
ATOM     11  H   UNL A   1      32.047  27.447  21.809  1.00  0.00     0.164 HD
BRANCH   9  12
ATOM     12  C   UNL A   1      33.448  25.031  23.648  1.00  0.00     0.078 C 
ATOM     13  C   UNL A   1      34.179  25.567  24.881  1.00  0.00     0.018 C 
BRANCH  12  14
ATOM     14  C   UNL A   1      33.987  23.762  22.958  1.00  0.00    -0.005 C 
ATOM     15  C   UNL A   1      34.667  22.768  23.905  1.00  0.00     0.008 C 
ATOM     16  C   UNL A   1      32.860  23.037  22.207  1.00  0.00     0.008 C 
ENDBRANCH  12  14
ENDBRANCH   9  12
ENDBRANCH   6   8
BRANCH   6  17
ATOM     17  C   UNL A   1      30.050  28.652  23.088  1.00  0.00     0.422 C 
ATOM     18  F   UNL A   1      28.814  28.257  22.717  1.00  0.00    -0.168 F 
ATOM     19  F   UNL A   1      29.903  29.570  24.065  1.00  0.00    -0.168 F 
ATOM     20  F   UNL A   1      30.578  29.343  22.051  1.00  0.00    -0.168 F 
ENDBRANCH   6  17
ENDBRANCH   4   6
ENDBRANCH   3   4
ENDBRANCH   2   3
ENDBRANCH   1   2
BRANCH   1  21
ATOM     21  O   UNL A   1      31.795  30.769  26.892  1.00  0.00    -0.374 OA
BRANCH  21  22
ATOM     22  C   UNL A   1      31.487  32.155  26.734  1.00  0.00     0.202 C 
BRANCH  22  23
ATOM     23  C   UNL A   1      32.550  33.202  27.094  1.00  0.00     0.261 C 
BRANCH  23  24
ATOM     24  O   UNL A   1      32.167  34.035  28.203  1.00  0.00    -0.460 OA
BRANCH  24  25
ATOM     25  C   UNL A   1      33.122  34.909  28.611  1.00  0.00     0.338 C 
ATOM     26  O   UNL A   1      33.025  36.115  28.746  1.00  0.00    -0.246 OA
BRANCH  25  27
ATOM     27  C   UNL A   1      34.306  34.163  29.068  1.00  0.00     0.060 A 
ATOM     28  C   UNL A   1      34.118  33.129  29.992  1.00  0.00     0.016 A 
ATOM     29  C   UNL A   1      35.588  34.542  28.668  1.00  0.00     0.016 A 
ATOM     30  C   UNL A   1      35.220  32.468  30.531  1.00  0.00     0.010 A 
ATOM     31  C   UNL A   1      36.692  33.892  29.225  1.00  0.00     0.010 A 
ATOM     32  C   UNL A   1      36.514  32.866  30.171  1.00  0.00    -0.014 A 
BRANCH  32  33
ATOM     33  C   UNL A   1      37.685  32.282  30.863  1.00  0.00     0.031 A 
ATOM     34  C   UNL A   1      38.457  31.180  30.198  1.00  0.00     0.074 A 
ATOM     35  C   UNL A   1      38.053  32.736  32.074  1.00  0.00     0.049 A 
ATOM     36  N   UNL A   1      39.459  30.474  30.657  1.00  0.00    -0.248 NA
ATOM     37  C   UNL A   1      38.044  30.825  28.831  1.00  0.00     0.031 C 
ATOM     38  C   UNL A   1      37.408  33.833  32.792  1.00  0.00     0.029 A 
ATOM     39  N   UNL A   1      39.051  32.319  32.918  1.00  0.00    -0.354 N 
ATOM     40  C   UNL A   1      39.793  29.591  29.640  1.00  0.00     0.074 A 
ATOM     41  C   UNL A   1      38.875  29.833  28.548  1.00  0.00     0.031 C 
ATOM     42  C   UNL A   1      38.015  33.990  33.982  1.00  0.00     0.029 A 
ATOM     43  C   UNL A   1      39.062  32.979  34.121  1.00  0.00     0.049 A 
ATOM     44  H   UNL A   1      39.696  31.614  32.683  1.00  0.00     0.167 HD
ATOM     45  C   UNL A   1      40.781  28.665  29.620  1.00  0.00     0.037 A 
ATOM     46  C   UNL A   1      39.810  32.766  35.220  1.00  0.00     0.037 A 
ATOM     47  C   UNL A   1      41.687  28.425  30.713  1.00  0.00     0.049 A 
ATOM     48  C   UNL A   1      40.839  31.666  35.207  1.00  0.00     0.074 A 
ATOM     49  C   UNL A   1      42.737  27.526  30.785  1.00  0.00     0.029 A 
ATOM     50  N   UNL A   1      41.640  29.083  31.934  1.00  0.00    -0.354 N 
ATOM     51  N   UNL A   1      41.167  30.849  34.235  1.00  0.00    -0.248 NA
ATOM     52  C   UNL A   1      41.599  31.454  36.449  1.00  0.00     0.031 C 
ATOM     53  C   UNL A   1      43.291  27.603  32.066  1.00  0.00     0.029 A 
ATOM     54  C   UNL A   1      42.620  28.586  32.778  1.00  0.00     0.049 A 
ATOM     55  H   UNL A   1      41.005  29.799  32.166  1.00  0.00     0.167 HD
ATOM     56  C   UNL A   1      42.180  30.043  34.738  1.00  0.00     0.074 A 
ATOM     57  C   UNL A   1      42.425  30.479  36.097  1.00  0.00     0.031 C 
ATOM     58  C   UNL A   1      42.848  29.032  34.129  1.00  0.00     0.037 A 
BRANCH  45  59
ATOM     59  C   UNL A   1      40.914  27.818  28.390  1.00  0.00     0.064 A 
ATOM     60  C   UNL A   1      41.733  28.200  27.317  1.00  0.00     0.173 A 
ATOM     61  C   UNL A   1      40.240  26.591  28.297  1.00  0.00     0.173 A 
ATOM     62  F   UNL A   1      42.389  29.370  27.351  1.00  0.00    -0.203 F 
ATOM     63  C   UNL A   1      41.854  27.395  26.186  1.00  0.00     0.198 A 
ATOM     64  C   UNL A   1      40.382  25.776  27.177  1.00  0.00     0.198 A 
ATOM     65  F   UNL A   1      39.447  26.178  29.297  1.00  0.00    -0.203 F 
ATOM     66  F   UNL A   1      42.609  27.799  25.156  1.00  0.00    -0.200 F 
ATOM     67  C   UNL A   1      41.184  26.181  26.120  1.00  0.00     0.200 A 
ATOM     68  F   UNL A   1      39.745  24.600  27.119  1.00  0.00    -0.200 F 
ATOM     69  F   UNL A   1      41.306  25.405  25.035  1.00  0.00    -0.200 F 
ENDBRANCH  45  59
BRANCH  46  70
ATOM     70  C   UNL A   1      39.594  33.591  36.436  1.00  0.00     0.064 A 
ATOM     71  C   UNL A   1      38.733  33.166  37.457  1.00  0.00     0.173 A 
ATOM     72  C   UNL A   1      40.234  34.829  36.596  1.00  0.00     0.173 A 
ATOM     73  F   UNL A   1      38.079  32.003  37.337  1.00  0.00    -0.203 F 
ATOM     74  C   UNL A   1      38.509  33.954  38.584  1.00  0.00     0.198 A 
ATOM     75  C   UNL A   1      40.030  35.605  37.736  1.00  0.00     0.198 A 
ATOM     76  F   UNL A   1      41.066  35.284  35.647  1.00  0.00    -0.203 F 
ATOM     77  F   UNL A   1      37.647  33.545  39.524  1.00  0.00    -0.200 F 
ATOM     78  C   UNL A   1      39.163  35.170  38.725  1.00  0.00     0.200 A 
ATOM     79  F   UNL A   1      40.673  36.773  37.872  1.00  0.00    -0.200 F 
ATOM     80  F   UNL A   1      38.949  35.926  39.811  1.00  0.00    -0.200 F 
ENDBRANCH  46  70
BRANCH  58  81
ATOM     81  C   UNL A   1      43.919  28.339  34.920  1.00  0.00     0.064 A 
ATOM     82  C   UNL A   1      45.237  28.818  34.945  1.00  0.00     0.173 A 
ATOM     83  C   UNL A   1      43.613  27.213  35.700  1.00  0.00     0.173 A 
ATOM     84  F   UNL A   1      45.583  29.881  34.203  1.00  0.00    -0.203 F 
ATOM     85  C   UNL A   1      46.214  28.183  35.707  1.00  0.00     0.198 A 
ATOM     86  C   UNL A   1      44.586  26.599  36.483  1.00  0.00     0.198 A 
ATOM     87  F   UNL A   1      42.365  26.720  35.715  1.00  0.00    -0.203 F 
ATOM     88  F   UNL A   1      47.476  28.633  35.683  1.00  0.00    -0.200 F 
ATOM     89  C   UNL A   1      45.887  27.080  36.481  1.00  0.00     0.200 A 
ATOM     90  F   UNL A   1      44.265  25.541  37.240  1.00  0.00    -0.200 F 
ATOM     91  F   UNL A   1      46.826  26.476  37.221  1.00  0.00    -0.200 F 
ENDBRANCH  58  81
ENDBRANCH  32  33
ENDBRANCH  25  27
ENDBRANCH  24  25
ENDBRANCH  23  24
ENDBRANCH  22  23
ENDBRANCH  21  22
ENDBRANCH   1  21
TORSDOF 18
ENDMDL
MODEL 2
REMARK VINA RESULT:     -10.2      1.397      7.750
REMARK SMILES CC(C)[C@@H](C)C(=O)N[C@@](C)(C(=O)OCCOCCOC(=O)c1ccc(-c2c3nc(c(-c4c(F)c(F)c(F)c(F)c4F)c4ccc([nH]4)c(-c4c(F)c(F)c(F)c(F)c4F)c4nc(c(-c5c(F)c(F)c(F)c(F)c5F)c5ccc2[nH]5)C=C4)C=C3)cc1)C(F)(F)F
REMARK SMILES IDX 15 1 14 2 13 3 11 4 12 5 9 6 10 7 8 8 6 9 7 10 4 12 5 13
REMARK SMILES IDX 2 14 1 15 3 16 85 17 86 18 87 19 88 20 16 21 17 22 18 23
REMARK SMILES IDX 19 24 20 25 21 26 22 27 23 28 84 29 24 30 83 31 25 32 26 33
REMARK SMILES IDX 27 34 77 35 28 36 82 37 76 38 78 39 29 40 81 41 75 42 74 43
REMARK SMILES IDX 30 45 62 46 42 47 61 48 43 49 46 50 60 51 79 52 44 53 45 54
REMARK SMILES IDX 59 56 80 57 47 58 31 59 32 60 40 61 33 62 34 63 38 64 41 65
REMARK SMILES IDX 35 66 36 67 39 68 37 69 63 70 64 71 72 72 65 73 66 74 70 75
REMARK SMILES IDX 73 76 67 77 68 78 71 79 69 80 48 81 49 82 57 83 50 84 51 85
REMARK SMILES IDX 55 86 58 87 52 88 53 89 56 90 54 91
REMARK H PARENT 8 11 78 44 46 55
REMARK Flexibility Score: inf
ROOT
ATOM      1  C   UNL A   1      34.372  29.845  27.314  1.00  0.00     0.202 C 
ENDROOT
BRANCH   1   2
ATOM      2  C   UNL A   1      34.026  28.615  26.461  1.00  0.00     0.261 C 
BRANCH   2   3
ATOM      3  O   UNL A   1      33.861  28.912  25.068  1.00  0.00    -0.461 OA
BRANCH   3   4
ATOM      4  C   UNL A   1      32.628  28.635  24.544  1.00  0.00     0.341 C 
ATOM      5  O   UNL A   1      31.601  28.628  25.211  1.00  0.00    -0.249 OA
BRANCH   4   6
ATOM      6  C   UNL A   1      32.698  28.278  23.042  1.00  0.00     0.231 C 
ATOM      7  C   UNL A   1      34.070  28.761  22.554  1.00  0.00     0.058 C 
BRANCH   6   8
ATOM      8  N   UNL A   1      31.645  29.094  22.310  1.00  0.00    -0.333 N 
ATOM      9  C   UNL A   1      30.313  29.261  22.186  1.00  0.00     0.224 C 
ATOM     10  O   UNL A   1      29.975  29.959  21.220  1.00  0.00    -0.275 OA
ATOM     11  H   UNL A   1      32.099  29.729  21.710  1.00  0.00     0.164 HD
BRANCH   9  12
ATOM     12  C   UNL A   1      29.231  28.809  23.163  1.00  0.00     0.078 C 
ATOM     13  C   UNL A   1      29.318  27.290  23.319  1.00  0.00     0.018 C 
BRANCH  12  14
ATOM     14  C   UNL A   1      27.850  29.453  22.923  1.00  0.00    -0.005 C 
ATOM     15  C   UNL A   1      26.669  28.630  23.445  1.00  0.00     0.008 C 
ATOM     16  C   UNL A   1      27.793  30.854  23.552  1.00  0.00     0.008 C 
ENDBRANCH  12  14
ENDBRANCH   9  12
ENDBRANCH   6   8
BRANCH   6  17
ATOM     17  C   UNL A   1      32.625  26.741  23.068  1.00  0.00     0.422 C 
ATOM     18  F   UNL A   1      32.181  26.273  24.254  1.00  0.00    -0.168 F 
ATOM     19  F   UNL A   1      31.805  26.259  22.112  1.00  0.00    -0.168 F 
ATOM     20  F   UNL A   1      33.816  26.147  22.824  1.00  0.00    -0.168 F 
ENDBRANCH   6  17
ENDBRANCH   4   6
ENDBRANCH   3   4
ENDBRANCH   2   3
ENDBRANCH   1   2
BRANCH   1  21
ATOM     21  O   UNL A   1      33.342  30.779  27.608  1.00  0.00    -0.374 OA
BRANCH  21  22
ATOM     22  C   UNL A   1      33.619  32.172  27.458  1.00  0.00     0.202 C 
BRANCH  22  23
ATOM     23  C   UNL A   1      32.533  33.193  27.824  1.00  0.00     0.261 C 
BRANCH  23  24
ATOM     24  O   UNL A   1      32.960  34.557  27.647  1.00  0.00    -0.460 OA
BRANCH  24  25
ATOM     25  C   UNL A   1      33.128  35.252  28.801  1.00  0.00     0.338 C 
ATOM     26  O   UNL A   1      32.417  36.129  29.256  1.00  0.00    -0.246 OA
BRANCH  25  27
ATOM     27  C   UNL A   1      34.237  34.666  29.569  1.00  0.00     0.060 A 
ATOM     28  C   UNL A   1      35.515  34.680  28.997  1.00  0.00     0.016 A 
ATOM     29  C   UNL A   1      34.005  34.027  30.787  1.00  0.00     0.016 A 
ATOM     30  C   UNL A   1      36.573  34.042  29.642  1.00  0.00     0.010 A 
ATOM     31  C   UNL A   1      35.063  33.372  31.423  1.00  0.00     0.010 A 
ATOM     32  C   UNL A   1      36.346  33.361  30.845  1.00  0.00    -0.014 A 
BRANCH  32  33
ATOM     33  C   UNL A   1      37.424  32.544  31.447  1.00  0.00     0.031 A 
ATOM     34  C   UNL A   1      37.948  32.907  32.805  1.00  0.00     0.074 A 
ATOM     35  C   UNL A   1      37.927  31.489  30.783  1.00  0.00     0.049 A 
ATOM     36  N   UNL A   1      38.939  32.383  33.480  1.00  0.00    -0.248 NA
ATOM     37  C   UNL A   1      37.263  34.011  33.497  1.00  0.00     0.031 C 
ATOM     38  C   UNL A   1      37.462  31.016  29.480  1.00  0.00     0.029 A 
ATOM     39  N   UNL A   1      38.951  30.635  31.108  1.00  0.00    -0.354 N 
ATOM     40  C   UNL A   1      38.999  33.093  34.672  1.00  0.00     0.074 A 
ATOM     41  C   UNL A   1      37.961  34.099  34.620  1.00  0.00     0.031 C 
ATOM     42  C   UNL A   1      38.214  29.966  29.106  1.00  0.00     0.029 A 
ATOM     43  C   UNL A   1      39.234  29.721  30.125  1.00  0.00     0.049 A 
ATOM     44  H   UNL A   1      39.434  30.675  31.965  1.00  0.00     0.167 HD
ATOM     45  C   UNL A   1      39.845  32.915  35.715  1.00  0.00     0.037 A 
ATOM     46  C   UNL A   1      40.227  28.816  30.043  1.00  0.00     0.037 A 
ATOM     47  C   UNL A   1      40.880  31.916  35.757  1.00  0.00     0.049 A 
ATOM     48  C   UNL A   1      41.213  28.702  31.177  1.00  0.00     0.074 A 
ATOM     49  C   UNL A   1      41.774  31.639  36.776  1.00  0.00     0.029 A 
ATOM     50  N   UNL A   1      41.167  31.035  34.723  1.00  0.00    -0.354 N 
ATOM     51  N   UNL A   1      41.252  29.358  32.311  1.00  0.00    -0.248 NA
ATOM     52  C   UNL A   1      42.299  27.722  31.015  1.00  0.00     0.031 C 
ATOM     53  C   UNL A   1      42.635  30.627  36.339  1.00  0.00     0.029 A 
ATOM     54  C   UNL A   1      42.247  30.238  35.066  1.00  0.00     0.049 A 
ATOM     55  H   UNL A   1      40.676  30.985  33.871  1.00  0.00     0.167 HD
ATOM     56  C   UNL A   1      42.348  28.862  33.004  1.00  0.00     0.074 A 
ATOM     57  C   UNL A   1      42.939  27.836  32.171  1.00  0.00     0.031 C 
ATOM     58  C   UNL A   1      42.823  29.222  34.222  1.00  0.00     0.037 A 
BRANCH  45  59
ATOM     59  C   UNL A   1      39.706  33.843  36.885  1.00  0.00     0.064 A 
ATOM     60  C   UNL A   1      38.921  33.512  37.999  1.00  0.00     0.173 A 
ATOM     61  C   UNL A   1      40.396  35.064  36.908  1.00  0.00     0.173 A 
ATOM     62  F   UNL A   1      38.231  32.362  38.022  1.00  0.00    -0.203 F 
ATOM     63  C   UNL A   1      38.813  34.381  39.083  1.00  0.00     0.198 A 
ATOM     64  C   UNL A   1      40.308  35.919  38.002  1.00  0.00     0.198 A 
ATOM     65  F   UNL A   1      41.164  35.426  35.868  1.00  0.00    -0.203 F 
ATOM     66  F   UNL A   1      38.025  34.064  40.119  1.00  0.00    -0.200 F 
ATOM     67  C   UNL A   1      39.512  35.580  39.087  1.00  0.00     0.200 A 
ATOM     68  F   UNL A   1      40.992  37.071  38.010  1.00  0.00    -0.200 F 
ATOM     69  F   UNL A   1      39.412  36.412  40.132  1.00  0.00    -0.200 F 
ENDBRANCH  45  59
BRANCH  46  70
ATOM     70  C   UNL A   1      40.358  27.964  28.833  1.00  0.00     0.064 A 
ATOM     71  C   UNL A   1      39.733  26.712  28.756  1.00  0.00     0.173 A 
ATOM     72  C   UNL A   1      41.124  28.380  27.733  1.00  0.00     0.173 A 
ATOM     73  F   UNL A   1      39.013  26.261  29.792  1.00  0.00    -0.203 F 
ATOM     74  C   UNL A   1      39.880  25.903  27.632  1.00  0.00     0.198 A 
ATOM     75  C   UNL A   1      41.248  27.581  26.598  1.00  0.00     0.198 A 
ATOM     76  F   UNL A   1      41.745  29.568  27.757  1.00  0.00    -0.203 F 
ATOM     77  F   UNL A   1      39.308  24.692  27.603  1.00  0.00    -0.200 F 
ATOM     78  C   UNL A   1      40.633  26.340  26.551  1.00  0.00     0.200 A 
ATOM     79  F   UNL A   1      41.966  28.013  25.553  1.00  0.00    -0.200 F 
ATOM     80  F   UNL A   1      40.771  25.562  25.470  1.00  0.00    -0.200 F 
ENDBRANCH  46  70
BRANCH  58  81
ATOM     81  C   UNL A   1      44.029  28.492  34.735  1.00  0.00     0.064 A 
ATOM     82  C   UNL A   1      45.328  28.964  34.497  1.00  0.00     0.173 A 
ATOM     83  C   UNL A   1      43.882  27.334  35.515  1.00  0.00     0.173 A 
ATOM     84  F   UNL A   1      45.521  30.056  33.743  1.00  0.00    -0.203 F 
ATOM     85  C   UNL A   1      46.437  28.291  35.005  1.00  0.00     0.198 A 
ATOM     86  C   UNL A   1      44.991  26.681  36.044  1.00  0.00     0.198 A 
ATOM     87  F   UNL A   1      42.660  26.845  35.776  1.00  0.00    -0.203 F 
ATOM     88  F   UNL A   1      47.671  28.737  34.730  1.00  0.00    -0.200 F 
ATOM     89  C   UNL A   1      46.268  27.157  35.785  1.00  0.00     0.200 A 
ATOM     90  F   UNL A   1      44.825  25.593  36.808  1.00  0.00    -0.200 F 
ATOM     91  F   UNL A   1      47.335  26.518  36.280  1.00  0.00    -0.200 F 
ENDBRANCH  58  81
ENDBRANCH  32  33
ENDBRANCH  25  27
ENDBRANCH  24  25
ENDBRANCH  23  24
ENDBRANCH  22  23
ENDBRANCH  21  22
ENDBRANCH   1  21
TORSDOF 18
ENDMDL
MODEL 3
REMARK VINA RESULT:     -10.2      5.329      9.404
REMARK SMILES CC(C)[C@@H](C)C(=O)N[C@@](C)(C(=O)OCCOCCOC(=O)c1ccc(-c2c3nc(c(-c4c(F)c(F)c(F)c(F)c4F)c4ccc([nH]4)c(-c4c(F)c(F)c(F)c(F)c4F)c4nc(c(-c5c(F)c(F)c(F)c(F)c5F)c5ccc2[nH]5)C=C4)C=C3)cc1)C(F)(F)F
REMARK SMILES IDX 15 1 14 2 13 3 11 4 12 5 9 6 10 7 8 8 6 9 7 10 4 12 5 13
REMARK SMILES IDX 2 14 1 15 3 16 85 17 86 18 87 19 88 20 16 21 17 22 18 23
REMARK SMILES IDX 19 24 20 25 21 26 22 27 23 28 84 29 24 30 83 31 25 32 26 33
REMARK SMILES IDX 27 34 77 35 28 36 82 37 76 38 78 39 29 40 81 41 75 42 74 43
REMARK SMILES IDX 30 45 62 46 42 47 61 48 43 49 46 50 60 51 79 52 44 53 45 54
REMARK SMILES IDX 59 56 80 57 47 58 31 59 32 60 40 61 33 62 34 63 38 64 41 65
REMARK SMILES IDX 35 66 36 67 39 68 37 69 63 70 64 71 72 72 65 73 66 74 70 75
REMARK SMILES IDX 73 76 67 77 68 78 71 79 69 80 48 81 49 82 57 83 50 84 51 85
REMARK SMILES IDX 55 86 58 87 52 88 53 89 56 90 54 91
REMARK H PARENT 8 11 78 44 46 55
REMARK Flexibility Score: inf
ROOT
ATOM      1  C   UNL A   1      36.069  21.531  25.626  1.00  0.00     0.202 C 
ENDROOT
BRANCH   1   2
ATOM      2  C   UNL A   1      34.655  21.614  25.030  1.00  0.00     0.261 C 
BRANCH   2   3
ATOM      3  O   UNL A   1      34.156  22.954  24.921  1.00  0.00    -0.461 OA
BRANCH   3   4
ATOM      4  C   UNL A   1      33.918  23.397  23.649  1.00  0.00     0.341 C 
ATOM      5  O   UNL A   1      34.662  23.161  22.706  1.00  0.00    -0.249 OA
BRANCH   4   6
ATOM      6  C   UNL A   1      32.645  24.269  23.562  1.00  0.00     0.231 C 
ATOM      7  C   UNL A   1      32.716  24.990  22.210  1.00  0.00     0.058 C 
BRANCH   6   8
ATOM      8  N   UNL A   1      32.721  25.331  24.646  1.00  0.00    -0.333 N 
ATOM      9  C   UNL A   1      32.001  26.295  25.254  1.00  0.00     0.224 C 
ATOM     10  O   UNL A   1      32.670  27.056  25.968  1.00  0.00    -0.275 OA
ATOM     11  H   UNL A   1      33.619  25.307  25.049  1.00  0.00     0.164 HD
BRANCH   9  12
ATOM     12  C   UNL A   1      30.483  26.448  25.262  1.00  0.00     0.078 C 
ATOM     13  C   UNL A   1      29.888  25.356  26.152  1.00  0.00     0.018 C 
BRANCH  12  14
ATOM     14  C   UNL A   1      29.862  26.695  23.872  1.00  0.00    -0.005 C 
ATOM     15  C   UNL A   1      28.331  26.718  23.859  1.00  0.00     0.008 C 
ATOM     16  C   UNL A   1      30.381  28.012  23.276  1.00  0.00     0.008 C 
ENDBRANCH  12  14
ENDBRANCH   9  12
ENDBRANCH   6   8
BRANCH   6  17
ATOM     17  C   UNL A   1      31.526  23.212  23.571  1.00  0.00     0.422 C 
ATOM     18  F   UNL A   1      30.389  23.671  23.008  1.00  0.00    -0.168 F 
ATOM     19  F   UNL A   1      31.883  22.095  22.905  1.00  0.00    -0.168 F 
ATOM     20  F   UNL A   1      31.212  22.780  24.814  1.00  0.00    -0.168 F 
ENDBRANCH   6  17
ENDBRANCH   4   6
ENDBRANCH   3   4
ENDBRANCH   2   3
ENDBRANCH   1   2
BRANCH   1  21
ATOM     21  O   UNL A   1      37.025  20.695  24.989  1.00  0.00    -0.374 OA
BRANCH  21  22
ATOM     22  C   UNL A   1      38.402  20.844  25.336  1.00  0.00     0.202 C 
BRANCH  22  23
ATOM     23  C   UNL A   1      39.297  19.598  25.398  1.00  0.00     0.261 C 
BRANCH  23  24
ATOM     24  O   UNL A   1      40.171  19.589  26.542  1.00  0.00    -0.460 OA
BRANCH  24  25
ATOM     25  C   UNL A   1      41.494  19.552  26.242  1.00  0.00     0.338 C 
ATOM     26  O   UNL A   1      42.121  18.643  25.730  1.00  0.00    -0.246 OA
BRANCH  25  27
ATOM     27  C   UNL A   1      42.084  20.883  26.459  1.00  0.00     0.060 A 
ATOM     28  C   UNL A   1      42.294  21.304  27.778  1.00  0.00     0.016 A 
ATOM     29  C   UNL A   1      42.331  21.740  25.387  1.00  0.00     0.016 A 
ATOM     30  C   UNL A   1      42.749  22.596  28.032  1.00  0.00     0.010 A 
ATOM     31  C   UNL A   1      42.770  23.041  25.644  1.00  0.00     0.010 A 
ATOM     32  C   UNL A   1      42.963  23.481  26.967  1.00  0.00    -0.014 A 
BRANCH  32  33
ATOM     33  C   UNL A   1      43.285  24.900  27.239  1.00  0.00     0.031 A 
ATOM     34  C   UNL A   1      44.681  25.395  26.997  1.00  0.00     0.074 A 
ATOM     35  C   UNL A   1      42.337  25.735  27.696  1.00  0.00     0.049 A 
ATOM     36  N   UNL A   1      45.199  26.571  27.243  1.00  0.00    -0.248 NA
ATOM     37  C   UNL A   1      45.620  24.435  26.395  1.00  0.00     0.031 C 
ATOM     38  C   UNL A   1      40.938  25.377  27.921  1.00  0.00     0.029 A 
ATOM     39  N   UNL A   1      42.412  27.054  28.067  1.00  0.00    -0.354 N 
ATOM     40  C   UNL A   1      46.523  26.491  26.832  1.00  0.00     0.074 A 
ATOM     41  C   UNL A   1      46.736  25.147  26.341  1.00  0.00     0.031 C 
ATOM     42  C   UNL A   1      40.289  26.446  28.413  1.00  0.00     0.029 A 
ATOM     43  C   UNL A   1      41.236  27.548  28.572  1.00  0.00     0.049 A 
ATOM     44  H   UNL A   1      43.232  27.592  27.980  1.00  0.00     0.167 HD
ATOM     45  C   UNL A   1      47.472  27.458  26.860  1.00  0.00     0.037 A 
ATOM     46  C   UNL A   1      40.968  28.744  29.131  1.00  0.00     0.037 A 
ATOM     47  C   UNL A   1      47.255  28.791  27.357  1.00  0.00     0.049 A 
ATOM     48  C   UNL A   1      42.066  29.770  29.237  1.00  0.00     0.074 A 
ATOM     49  C   UNL A   1      48.143  29.851  27.407  1.00  0.00     0.029 A 
ATOM     50  N   UNL A   1      46.061  29.244  27.902  1.00  0.00    -0.354 N 
ATOM     51  N   UNL A   1      43.309  29.699  28.826  1.00  0.00    -0.248 NA
ATOM     52  C   UNL A   1      41.724  31.041  29.892  1.00  0.00     0.031 C 
ATOM     53  C   UNL A   1      47.505  30.927  28.031  1.00  0.00     0.029 A 
ATOM     54  C   UNL A   1      46.201  30.556  28.324  1.00  0.00     0.049 A 
ATOM     55  H   UNL A   1      45.237  28.711  27.978  1.00  0.00     0.167 HD
ATOM     56  C   UNL A   1      43.890  30.916  29.152  1.00  0.00     0.074 A 
ATOM     57  C   UNL A   1      42.860  31.716  29.781  1.00  0.00     0.031 C 
ATOM     58  C   UNL A   1      45.164  31.336  28.950  1.00  0.00     0.037 A 
BRANCH  45  59
ATOM     59  C   UNL A   1      48.843  27.097  26.369  1.00  0.00     0.064 A 
ATOM     60  C   UNL A   1      49.821  26.578  27.230  1.00  0.00     0.173 A 
ATOM     61  C   UNL A   1      49.171  27.241  25.013  1.00  0.00     0.173 A 
ATOM     62  F   UNL A   1      49.561  26.433  28.538  1.00  0.00    -0.203 F 
ATOM     63  C   UNL A   1      51.085  26.237  26.754  1.00  0.00     0.198 A 
ATOM     64  C   UNL A   1      50.426  26.875  24.535  1.00  0.00     0.198 A 
ATOM     65  F   UNL A   1      48.270  27.730  24.148  1.00  0.00    -0.203 F 
ATOM     66  F   UNL A   1      52.018  25.781  27.602  1.00  0.00    -0.200 F 
ATOM     67  C   UNL A   1      51.385  26.379  25.407  1.00  0.00     0.200 A 
ATOM     68  F   UNL A   1      50.710  27.003  23.233  1.00  0.00    -0.200 F 
ATOM     69  F   UNL A   1      52.599  26.045  24.950  1.00  0.00    -0.200 F 
ENDBRANCH  45  59
BRANCH  46  70
ATOM     70  C   UNL A   1      39.609  29.027  29.661  1.00  0.00     0.064 A 
ATOM     71  C   UNL A   1      39.267  28.713  30.984  1.00  0.00     0.173 A 
ATOM     72  C   UNL A   1      38.619  29.603  28.851  1.00  0.00     0.173 A 
ATOM     73  F   UNL A   1      40.171  28.136  31.788  1.00  0.00    -0.203 F 
ATOM     74  C   UNL A   1      37.984  28.952  31.471  1.00  0.00     0.198 A 
ATOM     75  C   UNL A   1      37.344  29.867  29.348  1.00  0.00     0.198 A 
ATOM     76  F   UNL A   1      38.893  29.920  27.577  1.00  0.00    -0.203 F 
ATOM     77  F   UNL A   1      37.671  28.602  32.726  1.00  0.00    -0.200 F 
ATOM     78  C   UNL A   1      37.025  29.535  30.655  1.00  0.00     0.200 A 
ATOM     79  F   UNL A   1      36.426  30.440  28.558  1.00  0.00    -0.200 F 
ATOM     80  F   UNL A   1      35.793  29.767  31.126  1.00  0.00    -0.200 F 
ENDBRANCH  46  70
BRANCH  58  81
ATOM     81  C   UNL A   1      45.510  32.726  29.395  1.00  0.00     0.064 A 
ATOM     82  C   UNL A   1      45.305  33.836  28.562  1.00  0.00     0.173 A 
ATOM     83  C   UNL A   1      46.006  32.957  30.688  1.00  0.00     0.173 A 
ATOM     84  F   UNL A   1      44.850  33.665  27.312  1.00  0.00    -0.203 F 
ATOM     85  C   UNL A   1      45.603  35.124  28.999  1.00  0.00     0.198 A 
ATOM     86  C   UNL A   1      46.276  34.249  31.131  1.00  0.00     0.198 A 
ATOM     87  F   UNL A   1      46.214  31.930  31.526  1.00  0.00    -0.203 F 
ATOM     88  F   UNL A   1      45.439  36.164  28.171  1.00  0.00    -0.200 F 
ATOM     89  C   UNL A   1      46.079  35.330  30.285  1.00  0.00     0.200 A 
ATOM     90  F   UNL A   1      46.723  34.448  32.379  1.00  0.00    -0.200 F 
ATOM     91  F   UNL A   1      46.356  36.571  30.708  1.00  0.00    -0.200 F 
ENDBRANCH  58  81
ENDBRANCH  32  33
ENDBRANCH  25  27
ENDBRANCH  24  25
ENDBRANCH  23  24
ENDBRANCH  22  23
ENDBRANCH  21  22
ENDBRANCH   1  21
TORSDOF 18
ENDMDL
