MODEL 1
REMARK VINA RESULT:     -12.3      0.000      0.000
REMARK SMILES Cc1ccc2nc(C(=O)OCCOCCOC(=O)c3ccc(-c4c5nc(c(-c6c(F)c(F)c(F)c(F)c6F)c6ccc([nH]6)c(-c6c(F)c(F)c(F)c(F)c6F)c6nc(c(-c7c(F)c(F)c(F)c(F)c7F)c7ccc4[nH]7)C=C6)C=C5)cc3)cc(N3CCOCC3)c2c1
REMARK SMILES IDX 14 1 13 2 12 3 11 4 10 5 8 6 9 7 7 8 1 9 2 10 3 11 91 12
REMARK SMILES IDX 4 13 90 14 5 15 83 16 6 17 82 18 84 19 85 20 89 21 86 22
REMARK SMILES IDX 88 23 87 24 15 25 16 26 17 27 18 28 19 29 20 30 81 31 21 32
REMARK SMILES IDX 80 33 22 34 23 35 24 36 74 37 25 38 79 39 73 40 75 41 26 42
REMARK SMILES IDX 78 43 72 44 71 45 27 47 59 48 39 49 58 50 40 51 43 52 57 53
REMARK SMILES IDX 76 54 41 55 42 56 56 58 77 59 44 60 28 61 29 62 37 63 30 64
REMARK SMILES IDX 31 65 35 66 38 67 32 68 33 69 36 70 34 71 60 72 61 73 69 74
REMARK SMILES IDX 62 75 63 76 67 77 70 78 64 79 65 80 68 81 66 82 45 83 46 84
REMARK SMILES IDX 54 85 47 86 48 87 52 88 55 89 49 90 50 91 53 92 51 93
REMARK H PARENT 75 46 43 57
REMARK Flexibility Score: inf
ROOT
ATOM      1  C   UNL A   1      35.574  20.350  25.006  1.00  0.00     0.202 C 
ENDROOT
BRANCH   1   2
ATOM      2  O   UNL A   1      34.785  21.446  25.474  1.00  0.00    -0.374 OA
BRANCH   2   3
ATOM      3  C   UNL A   1      33.694  21.864  24.655  1.00  0.00     0.202 C 
BRANCH   3   4
ATOM      4  C   UNL A   1      32.452  22.368  25.396  1.00  0.00     0.261 C 
BRANCH   4   5
ATOM      5  O   UNL A   1      32.184  23.745  25.073  1.00  0.00    -0.459 OA
BRANCH   5   6
ATOM      6  C   UNL A   1      31.698  24.478  26.109  1.00  0.00     0.357 C 
ATOM      7  O   UNL A   1      31.416  24.052  27.219  1.00  0.00    -0.244 OA
BRANCH   6   8
ATOM      8  C   UNL A   1      31.656  25.925  25.752  1.00  0.00     0.151 A 
ATOM      9  C   UNL A   1      31.689  32.294  26.613  1.00  0.00     0.044 C 
ATOM     10  C   UNL A   1      31.964  30.824  26.513  1.00  0.00    -0.050 A 
ATOM     11  C   UNL A   1      32.874  30.200  27.358  1.00  0.00     0.005 A 
ATOM     12  C   UNL A   1      31.265  30.042  25.585  1.00  0.00     0.016 A 
ATOM     13  C   UNL A   1      33.021  28.815  27.312  1.00  0.00     0.029 A 
ATOM     14  C   UNL A   1      31.441  28.638  25.488  1.00  0.00     0.024 A 
ATOM     15  C   UNL A   1      32.295  28.030  26.431  1.00  0.00     0.073 A 
ATOM     16  C   UNL A   1      30.761  27.800  24.549  1.00  0.00     0.049 A 
ATOM     17  N   UNL A   1      32.408  26.709  26.557  1.00  0.00    -0.241 NA
ATOM     18  C   UNL A   1      30.870  26.412  24.719  1.00  0.00     0.062 A 
BRANCH  16  19
ATOM     19  N   UNL A   1      29.978  28.337  23.532  1.00  0.00    -0.366 N 
ATOM     20  C   UNL A   1      30.619  28.967  22.358  1.00  0.00     0.145 C 
ATOM     21  C   UNL A   1      28.611  27.868  23.260  1.00  0.00     0.145 C 
ATOM     22  C   UNL A   1      29.714  30.103  21.850  1.00  0.00     0.181 C 
ATOM     23  C   UNL A   1      27.783  29.038  22.696  1.00  0.00     0.181 C 
ATOM     24  O   UNL A   1      28.398  29.619  21.533  1.00  0.00    -0.378 OA
ENDBRANCH  16  19
ENDBRANCH   6   8
ENDBRANCH   5   6
ENDBRANCH   4   5
ENDBRANCH   3   4
ENDBRANCH   2   3
ENDBRANCH   1   2
BRANCH   1  25
ATOM     25  C   UNL A   1      37.059  20.649  24.767  1.00  0.00     0.261 C 
BRANCH  25  26
ATOM     26  O   UNL A   1      37.586  21.569  25.743  1.00  0.00    -0.460 OA
BRANCH  26  27
ATOM     27  C   UNL A   1      38.877  21.360  26.087  1.00  0.00     0.338 C 
ATOM     28  O   UNL A   1      39.560  20.371  25.853  1.00  0.00    -0.246 OA
BRANCH  27  29
ATOM     29  C   UNL A   1      39.452  22.590  26.660  1.00  0.00     0.060 A 
ATOM     30  C   UNL A   1      38.961  23.816  26.190  1.00  0.00     0.016 A 
ATOM     31  C   UNL A   1      40.495  22.553  27.588  1.00  0.00     0.016 A 
ATOM     32  C   UNL A   1      39.544  25.009  26.609  1.00  0.00     0.010 A 
ATOM     33  C   UNL A   1      41.085  23.753  28.001  1.00  0.00     0.010 A 
ATOM     34  C   UNL A   1      40.635  24.983  27.488  1.00  0.00    -0.014 A 
BRANCH  34  35
ATOM     35  C   UNL A   1      41.390  26.231  27.754  1.00  0.00     0.031 A 
ATOM     36  C   UNL A   1      40.719  27.344  28.510  1.00  0.00     0.074 A 
ATOM     37  C   UNL A   1      42.665  26.363  27.350  1.00  0.00     0.049 A 
ATOM     38  N   UNL A   1      41.179  28.527  28.832  1.00  0.00    -0.248 NA
ATOM     39  C   UNL A   1      39.344  27.089  28.963  1.00  0.00     0.031 C 
ATOM     40  C   UNL A   1      43.436  25.343  26.644  1.00  0.00     0.029 A 
ATOM     41  N   UNL A   1      43.535  27.418  27.477  1.00  0.00    -0.354 N 
ATOM     42  C   UNL A   1      40.151  29.156  29.521  1.00  0.00     0.074 A 
ATOM     43  C   UNL A   1      39.031  28.238  29.543  1.00  0.00     0.031 C 
ATOM     44  C   UNL A   1      44.664  25.825  26.389  1.00  0.00     0.029 A 
ATOM     45  C   UNL A   1      44.755  27.195  26.890  1.00  0.00     0.049 A 
ATOM     46  H   UNL A   1      43.305  28.253  27.944  1.00  0.00     0.167 HD
ATOM     47  C   UNL A   1      40.143  30.384  30.091  1.00  0.00     0.037 A 
ATOM     48  C   UNL A   1      45.817  28.015  26.757  1.00  0.00     0.037 A 
ATOM     49  C   UNL A   1      41.256  31.297  30.069  1.00  0.00     0.049 A 
ATOM     50  C   UNL A   1      45.759  29.403  27.338  1.00  0.00     0.074 A 
ATOM     51  C   UNL A   1      41.355  32.554  30.640  1.00  0.00     0.029 A 
ATOM     52  N   UNL A   1      42.464  31.051  29.432  1.00  0.00    -0.354 N 
ATOM     53  N   UNL A   1      44.795  29.980  28.012  1.00  0.00    -0.248 NA
ATOM     54  C   UNL A   1      46.942  30.253  27.140  1.00  0.00     0.031 C 
ATOM     55  C   UNL A   1      42.604  33.089  30.306  1.00  0.00     0.029 A 
ATOM     56  C   UNL A   1      43.303  32.145  29.571  1.00  0.00     0.049 A 
ATOM     57  H   UNL A   1      42.691  30.222  28.953  1.00  0.00     0.167 HD
ATOM     58  C   UNL A   1      45.261  31.246  28.342  1.00  0.00     0.074 A 
ATOM     59  C   UNL A   1      46.600  31.351  27.802  1.00  0.00     0.031 C 
ATOM     60  C   UNL A   1      44.636  32.233  29.031  1.00  0.00     0.037 A 
BRANCH  47  61
ATOM     61  C   UNL A   1      38.877  30.823  30.766  1.00  0.00     0.064 A 
ATOM     62  C   UNL A   1      37.802  31.358  30.041  1.00  0.00     0.173 A 
ATOM     63  C   UNL A   1      38.729  30.684  32.154  1.00  0.00     0.173 A 
ATOM     64  F   UNL A   1      37.899  31.525  28.714  1.00  0.00    -0.203 F 
ATOM     65  C   UNL A   1      36.636  31.765  30.686  1.00  0.00     0.198 A 
ATOM     66  C   UNL A   1      37.551  31.066  32.791  1.00  0.00     0.198 A 
ATOM     67  F   UNL A   1      39.725  30.174  32.894  1.00  0.00    -0.203 F 
ATOM     68  F   UNL A   1      35.641  32.319  29.979  1.00  0.00    -0.200 F 
ATOM     69  C   UNL A   1      36.509  31.613  32.058  1.00  0.00     0.200 A 
ATOM     70  F   UNL A   1      37.426  30.909  34.117  1.00  0.00    -0.200 F 
ATOM     71  F   UNL A   1      35.385  32.002  32.676  1.00  0.00    -0.200 F 
ENDBRANCH  47  61
BRANCH  48  72
ATOM     72  C   UNL A   1      47.028  27.543  26.036  1.00  0.00     0.064 A 
ATOM     73  C   UNL A   1      47.130  27.657  24.643  1.00  0.00     0.173 A 
ATOM     74  C   UNL A   1      48.101  26.961  26.725  1.00  0.00     0.173 A 
ATOM     75  F   UNL A   1      46.117  28.183  23.939  1.00  0.00    -0.203 F 
ATOM     76  C   UNL A   1      48.256  27.196  23.965  1.00  0.00     0.198 A 
ATOM     77  C   UNL A   1      49.238  26.524  26.048  1.00  0.00     0.198 A 
ATOM     78  F   UNL A   1      48.051  26.826  28.059  1.00  0.00    -0.203 F 
ATOM     79  F   UNL A   1      48.312  27.280  22.629  1.00  0.00    -0.200 F 
ATOM     80  C   UNL A   1      49.312  26.635  24.669  1.00  0.00     0.200 A 
ATOM     81  F   UNL A   1      50.261  25.993  26.733  1.00  0.00    -0.200 F 
ATOM     82  F   UNL A   1      50.397  26.197  24.015  1.00  0.00    -0.200 F 
ENDBRANCH  48  72
BRANCH  60  83
ATOM     83  C   UNL A   1      45.404  33.501  29.269  1.00  0.00     0.064 A 
ATOM     84  C   UNL A   1      45.339  34.580  28.374  1.00  0.00     0.173 A 
ATOM     85  C   UNL A   1      46.180  33.655  30.427  1.00  0.00     0.173 A 
ATOM     86  F   UNL A   1      44.623  34.478  27.245  1.00  0.00    -0.203 F 
ATOM     87  C   UNL A   1      46.042  35.756  28.620  1.00  0.00     0.198 A 
ATOM     88  C   UNL A   1      46.859  34.843  30.683  1.00  0.00     0.198 A 
ATOM     89  F   UNL A   1      46.271  32.656  31.318  1.00  0.00    -0.203 F 
ATOM     90  F   UNL A   1      46.001  36.758  27.729  1.00  0.00    -0.200 F 
ATOM     91  C   UNL A   1      46.795  35.890  29.777  1.00  0.00     0.200 A 
ATOM     92  F   UNL A   1      47.576  34.975  31.808  1.00  0.00    -0.200 F 
ATOM     93  F   UNL A   1      47.465  37.026  30.015  1.00  0.00    -0.200 F 
ENDBRANCH  60  83
ENDBRANCH  34  35
ENDBRANCH  27  29
ENDBRANCH  26  27
ENDBRANCH  25  26
ENDBRANCH   1  25
TORSDOF 15
ENDMDL
MODEL 2
REMARK VINA RESULT:     -12.1      4.164      7.586
REMARK SMILES Cc1ccc2nc(C(=O)OCCOCCOC(=O)c3ccc(-c4c5nc(c(-c6c(F)c(F)c(F)c(F)c6F)c6ccc([nH]6)c(-c6c(F)c(F)c(F)c(F)c6F)c6nc(c(-c7c(F)c(F)c(F)c(F)c7F)c7ccc4[nH]7)C=C6)C=C5)cc3)cc(N3CCOCC3)c2c1
REMARK SMILES IDX 14 1 13 2 12 3 11 4 10 5 8 6 9 7 7 8 1 9 2 10 3 11 91 12
REMARK SMILES IDX 4 13 90 14 5 15 83 16 6 17 82 18 84 19 85 20 89 21 86 22
REMARK SMILES IDX 88 23 87 24 15 25 16 26 17 27 18 28 19 29 20 30 81 31 21 32
REMARK SMILES IDX 80 33 22 34 23 35 24 36 74 37 25 38 79 39 73 40 75 41 26 42
REMARK SMILES IDX 78 43 72 44 71 45 27 47 59 48 39 49 58 50 40 51 43 52 57 53
REMARK SMILES IDX 76 54 41 55 42 56 56 58 77 59 44 60 28 61 29 62 37 63 30 64
REMARK SMILES IDX 31 65 35 66 38 67 32 68 33 69 36 70 34 71 60 72 61 73 69 74
REMARK SMILES IDX 62 75 63 76 67 77 70 78 64 79 65 80 68 81 66 82 45 83 46 84
REMARK SMILES IDX 54 85 47 86 48 87 52 88 55 89 49 90 50 91 53 92 51 93
REMARK H PARENT 75 46 43 57
REMARK Flexibility Score: inf
ROOT
ATOM      1  C   UNL A   1      32.383  29.332  25.087  1.00  0.00     0.202 C 
ENDROOT
BRANCH   1   2
ATOM      2  O   UNL A   1      31.393  28.390  24.668  1.00  0.00    -0.374 OA
BRANCH   2   3
ATOM      3  C   UNL A   1      31.451  27.939  23.316  1.00  0.00     0.202 C 
BRANCH   3   4
ATOM      4  C   UNL A   1      31.345  26.425  23.107  1.00  0.00     0.261 C 
BRANCH   4   5
ATOM      5  O   UNL A   1      32.421  25.738  23.772  1.00  0.00    -0.459 OA
BRANCH   5   6
ATOM      6  C   UNL A   1      33.295  25.122  22.932  1.00  0.00     0.357 C 
ATOM      7  O   UNL A   1      33.649  25.534  21.837  1.00  0.00    -0.244 OA
BRANCH   6   8
ATOM      8  C   UNL A   1      33.870  23.907  23.576  1.00  0.00     0.151 A 
ATOM      9  C   UNL A   1      38.305  19.569  25.259  1.00  0.00     0.044 C 
ATOM     10  C   UNL A   1      37.433  20.768  25.035  1.00  0.00    -0.050 A 
ATOM     11  C   UNL A   1      37.954  22.056  25.072  1.00  0.00     0.005 A 
ATOM     12  C   UNL A   1      36.075  20.602  24.737  1.00  0.00     0.016 A 
ATOM     13  C   UNL A   1      37.139  23.140  24.748  1.00  0.00     0.029 A 
ATOM     14  C   UNL A   1      35.219  21.697  24.457  1.00  0.00     0.024 A 
ATOM     15  C   UNL A   1      35.807  22.977  24.403  1.00  0.00     0.073 A 
ATOM     16  C   UNL A   1      33.824  21.579  24.161  1.00  0.00     0.049 A 
ATOM     17  N   UNL A   1      35.151  24.057  23.982  1.00  0.00    -0.241 NA
ATOM     18  C   UNL A   1      33.160  22.721  23.691  1.00  0.00     0.062 A 
BRANCH  16  19
ATOM     19  N   UNL A   1      33.156  20.364  24.286  1.00  0.00    -0.366 N 
ATOM     20  C   UNL A   1      32.744  19.880  25.620  1.00  0.00     0.145 C 
ATOM     21  C   UNL A   1      32.363  19.786  23.192  1.00  0.00     0.145 C 
ATOM     22  C   UNL A   1      32.794  18.342  25.627  1.00  0.00     0.181 C 
ATOM     23  C   UNL A   1      32.405  18.250  23.298  1.00  0.00     0.181 C 
ATOM     24  O   UNL A   1      31.966  17.789  24.588  1.00  0.00    -0.378 OA
ENDBRANCH  16  19
ENDBRANCH   6   8
ENDBRANCH   5   6
ENDBRANCH   4   5
ENDBRANCH   3   4
ENDBRANCH   2   3
ENDBRANCH   1   2
BRANCH   1  25
ATOM     25  C   UNL A   1      31.884  30.470  25.987  1.00  0.00     0.261 C 
BRANCH  25  26
ATOM     26  O   UNL A   1      32.593  30.515  27.240  1.00  0.00    -0.460 OA
BRANCH  26  27
ATOM     27  C   UNL A   1      33.371  31.607  27.416  1.00  0.00     0.338 C 
ATOM     28  O   UNL A   1      33.028  32.782  27.376  1.00  0.00    -0.246 OA
BRANCH  27  29
ATOM     29  C   UNL A   1      34.720  31.201  27.848  1.00  0.00     0.060 A 
ATOM     30  C   UNL A   1      34.943  29.837  28.081  1.00  0.00     0.016 A 
ATOM     31  C   UNL A   1      35.731  32.135  28.088  1.00  0.00     0.016 A 
ATOM     32  C   UNL A   1      36.161  29.407  28.601  1.00  0.00     0.010 A 
ATOM     33  C   UNL A   1      36.951  31.702  28.618  1.00  0.00     0.010 A 
ATOM     34  C   UNL A   1      37.159  30.341  28.908  1.00  0.00    -0.014 A 
BRANCH  34  35
ATOM     35  C   UNL A   1      38.359  29.907  29.664  1.00  0.00     0.031 A 
ATOM     36  C   UNL A   1      38.578  30.436  31.054  1.00  0.00     0.074 A 
ATOM     37  C   UNL A   1      39.231  29.034  29.129  1.00  0.00     0.049 A 
ATOM     38  N   UNL A   1      39.566  30.212  31.884  1.00  0.00    -0.248 NA
ATOM     39  C   UNL A   1      37.543  31.339  31.579  1.00  0.00     0.031 C 
ATOM     40  C   UNL A   1      39.109  28.423  27.808  1.00  0.00     0.029 A 
ATOM     41  N   UNL A   1      40.395  28.514  29.637  1.00  0.00    -0.354 N 
ATOM     42  C   UNL A   1      39.274  30.947  33.024  1.00  0.00     0.074 A 
ATOM     43  C   UNL A   1      38.034  31.650  32.770  1.00  0.00     0.031 C 
ATOM     44  C   UNL A   1      40.164  27.616  27.603  1.00  0.00     0.029 A 
ATOM     45  C   UNL A   1      41.047  27.677  28.767  1.00  0.00     0.049 A 
ATOM     46  H   UNL A   1      40.731  28.723  30.538  1.00  0.00     0.167 HD
ATOM     47  C   UNL A   1      39.972  31.023  34.182  1.00  0.00     0.037 A 
ATOM     48  C   UNL A   1      42.232  27.047  28.891  1.00  0.00     0.037 A 
ATOM     49  C   UNL A   1      41.205  30.325  34.436  1.00  0.00     0.049 A 
ATOM     50  C   UNL A   1      43.024  27.203  30.162  1.00  0.00     0.074 A 
ATOM     51  C   UNL A   1      41.973  30.317  35.586  1.00  0.00     0.029 A 
ATOM     52  N   UNL A   1      41.854  29.515  33.516  1.00  0.00    -0.354 N 
ATOM     53  N   UNL A   1      42.729  27.877  31.246  1.00  0.00    -0.248 NA
ATOM     54  C   UNL A   1      44.318  26.507  30.225  1.00  0.00     0.031 C 
ATOM     55  C   UNL A   1      43.113  29.542  35.346  1.00  0.00     0.029 A 
ATOM     56  C   UNL A   1      43.029  29.025  34.063  1.00  0.00     0.049 A 
ATOM     57  H   UNL A   1      41.527  29.316  32.609  1.00  0.00     0.167 HD
ATOM     58  C   UNL A   1      43.780  27.667  32.128  1.00  0.00     0.074 A 
ATOM     59  C   UNL A   1      44.719  26.793  31.457  1.00  0.00     0.031 C 
ATOM     60  C   UNL A   1      43.952  28.152  33.383  1.00  0.00     0.037 A 
BRANCH  47  61
ATOM     61  C   UNL A   1      39.428  31.918  35.257  1.00  0.00     0.064 A 
ATOM     62  C   UNL A   1      38.570  31.434  36.256  1.00  0.00     0.173 A 
ATOM     63  C   UNL A   1      39.789  33.273  35.303  1.00  0.00     0.173 A 
ATOM     64  F   UNL A   1      38.183  30.150  36.249  1.00  0.00    -0.203 F 
ATOM     65  C   UNL A   1      38.070  32.280  37.243  1.00  0.00     0.198 A 
ATOM     66  C   UNL A   1      39.310  34.109  36.307  1.00  0.00     0.198 A 
ATOM     67  F   UNL A   1      40.611  33.786  34.374  1.00  0.00    -0.203 F 
ATOM     68  F   UNL A   1      37.214  31.807  38.158  1.00  0.00    -0.200 F 
ATOM     69  C   UNL A   1      38.445  33.615  37.272  1.00  0.00     0.200 A 
ATOM     70  F   UNL A   1      39.682  35.397  36.339  1.00  0.00    -0.200 F 
ATOM     71  F   UNL A   1      37.967  34.427  38.224  1.00  0.00    -0.200 F 
ENDBRANCH  47  61
BRANCH  48  72
ATOM     72  C   UNL A   1      42.744  26.211  27.774  1.00  0.00     0.064 A 
ATOM     73  C   UNL A   1      43.597  26.750  26.801  1.00  0.00     0.173 A 
ATOM     74  C   UNL A   1      42.385  24.861  27.654  1.00  0.00     0.173 A 
ATOM     75  F   UNL A   1      43.947  28.043  26.860  1.00  0.00    -0.203 F 
ATOM     76  C   UNL A   1      44.060  25.972  25.742  1.00  0.00     0.198 A 
ATOM     77  C   UNL A   1      42.870  24.078  26.609  1.00  0.00     0.198 A 
ATOM     78  F   UNL A   1      41.569  24.299  28.558  1.00  0.00    -0.203 F 
ATOM     79  F   UNL A   1      44.842  26.522  24.803  1.00  0.00    -0.200 F 
ATOM     80  C   UNL A   1      43.702  24.635  25.651  1.00  0.00     0.200 A 
ATOM     81  F   UNL A   1      42.530  22.784  26.530  1.00  0.00    -0.200 F 
ATOM     82  F   UNL A   1      44.153  23.887  24.635  1.00  0.00    -0.200 F 
ENDBRANCH  48  72
BRANCH  60  83
ATOM     83  C   UNL A   1      45.186  27.726  34.125  1.00  0.00     0.064 A 
ATOM     84  C   UNL A   1      45.213  26.556  34.897  1.00  0.00     0.173 A 
ATOM     85  C   UNL A   1      46.368  28.476  34.028  1.00  0.00     0.173 A 
ATOM     86  F   UNL A   1      44.106  25.812  35.034  1.00  0.00    -0.203 F 
ATOM     87  C   UNL A   1      46.372  26.165  35.563  1.00  0.00     0.198 A 
ATOM     88  C   UNL A   1      47.532  28.068  34.672  1.00  0.00     0.198 A 
ATOM     89  F   UNL A   1      46.396  29.601  33.297  1.00  0.00    -0.203 F 
ATOM     90  F   UNL A   1      46.363  25.067  36.332  1.00  0.00    -0.200 F 
ATOM     91  C   UNL A   1      47.532  26.917  35.444  1.00  0.00     0.200 A 
ATOM     92  F   UNL A   1      48.655  28.789  34.545  1.00  0.00    -0.200 F 
ATOM     93  F   UNL A   1      48.648  26.535  36.080  1.00  0.00    -0.200 F 
ENDBRANCH  60  83
ENDBRANCH  34  35
ENDBRANCH  27  29
ENDBRANCH  26  27
ENDBRANCH  25  26
ENDBRANCH   1  25
TORSDOF 15
ENDMDL
MODEL 3
REMARK VINA RESULT:     -12.1      4.157     10.046
REMARK SMILES Cc1ccc2nc(C(=O)OCCOCCOC(=O)c3ccc(-c4c5nc(c(-c6c(F)c(F)c(F)c(F)c6F)c6ccc([nH]6)c(-c6c(F)c(F)c(F)c(F)c6F)c6nc(c(-c7c(F)c(F)c(F)c(F)c7F)c7ccc4[nH]7)C=C6)C=C5)cc3)cc(N3CCOCC3)c2c1
REMARK SMILES IDX 14 1 13 2 12 3 11 4 10 5 8 6 9 7 7 8 1 9 2 10 3 11 91 12
REMARK SMILES IDX 4 13 90 14 5 15 83 16 6 17 82 18 84 19 85 20 89 21 86 22
REMARK SMILES IDX 88 23 87 24 15 25 16 26 17 27 18 28 19 29 20 30 81 31 21 32
REMARK SMILES IDX 80 33 22 34 23 35 24 36 74 37 25 38 79 39 73 40 75 41 26 42
REMARK SMILES IDX 78 43 72 44 71 45 27 47 59 48 39 49 58 50 40 51 43 52 57 53
REMARK SMILES IDX 76 54 41 55 42 56 56 58 77 59 44 60 28 61 29 62 37 63 30 64
REMARK SMILES IDX 31 65 35 66 38 67 32 68 33 69 36 70 34 71 60 72 61 73 69 74
REMARK SMILES IDX 62 75 63 76 67 77 70 78 64 79 65 80 68 81 66 82 45 83 46 84
REMARK SMILES IDX 54 85 47 86 48 87 52 88 55 89 49 90 50 91 53 92 51 93
REMARK H PARENT 75 46 43 57
REMARK Flexibility Score: inf
ROOT
ATOM      1  C   UNL A   1      31.218  29.345  24.770  1.00  0.00     0.202 C 
ENDROOT
BRANCH   1   2
ATOM      2  O   UNL A   1      32.331  28.506  24.455  1.00  0.00    -0.374 OA
BRANCH   2   3
ATOM      3  C   UNL A   1      33.197  28.935  23.406  1.00  0.00     0.202 C 
BRANCH   3   4
ATOM      4  C   UNL A   1      33.659  27.849  22.430  1.00  0.00     0.261 C 
BRANCH   4   5
ATOM      5  O   UNL A   1      33.447  26.537  22.983  1.00  0.00    -0.459 OA
BRANCH   5   6
ATOM      6  C   UNL A   1      33.434  25.537  22.062  1.00  0.00     0.357 C 
ATOM      7  O   UNL A   1      33.231  25.669  20.864  1.00  0.00    -0.244 OA
BRANCH   6   8
ATOM      8  C   UNL A   1      33.818  24.241  22.691  1.00  0.00     0.151 A 
ATOM      9  C   UNL A   1      33.073  18.539  25.562  1.00  0.00     0.044 C 
ATOM     10  C   UNL A   1      33.111  19.736  24.660  1.00  0.00    -0.050 A 
ATOM     11  C   UNL A   1      32.145  19.933  23.680  1.00  0.00     0.005 A 
ATOM     12  C   UNL A   1      34.107  20.706  24.825  1.00  0.00     0.016 A 
ATOM     13  C   UNL A   1      32.147  21.111  22.935  1.00  0.00     0.029 A 
ATOM     14  C   UNL A   1      34.155  21.887  24.040  1.00  0.00     0.024 A 
ATOM     15  C   UNL A   1      33.100  22.098  23.129  1.00  0.00     0.073 A 
ATOM     16  C   UNL A   1      35.159  22.899  24.163  1.00  0.00     0.049 A 
ATOM     17  N   UNL A   1      32.938  23.241  22.465  1.00  0.00    -0.241 NA
ATOM     18  C   UNL A   1      34.952  24.105  23.477  1.00  0.00     0.062 A 
BRANCH  16  19
ATOM     19  N   UNL A   1      36.278  22.718  24.970  1.00  0.00    -0.366 N 
ATOM     20  C   UNL A   1      36.564  23.670  26.064  1.00  0.00     0.145 C 
ATOM     21  C   UNL A   1      36.893  21.399  25.178  1.00  0.00     0.145 C 
ATOM     22  C   UNL A   1      38.088  23.772  26.247  1.00  0.00     0.181 C 
ATOM     23  C   UNL A   1      38.403  21.582  25.417  1.00  0.00     0.181 C 
ATOM     24  O   UNL A   1      38.668  22.482  26.508  1.00  0.00    -0.378 OA
ENDBRANCH  16  19
ENDBRANCH   6   8
ENDBRANCH   5   6
ENDBRANCH   4   5
ENDBRANCH   3   4
ENDBRANCH   2   3
ENDBRANCH   1   2
BRANCH   1  25
ATOM     25  C   UNL A   1      31.526  30.563  25.651  1.00  0.00     0.261 C 
BRANCH  25  26
ATOM     26  O   UNL A   1      32.647  30.326  26.524  1.00  0.00    -0.460 OA
BRANCH  26  27
ATOM     27  C   UNL A   1      33.190  31.437  27.071  1.00  0.00     0.338 C 
ATOM     28  O   UNL A   1      32.649  32.521  27.248  1.00  0.00    -0.246 OA
BRANCH  27  29
ATOM     29  C   UNL A   1      34.525  31.131  27.614  1.00  0.00     0.060 A 
ATOM     30  C   UNL A   1      34.832  29.786  27.862  1.00  0.00     0.016 A 
ATOM     31  C   UNL A   1      35.438  32.137  27.938  1.00  0.00     0.016 A 
ATOM     32  C   UNL A   1      36.032  29.445  28.480  1.00  0.00     0.010 A 
ATOM     33  C   UNL A   1      36.640  31.794  28.568  1.00  0.00     0.010 A 
ATOM     34  C   UNL A   1      36.927  30.450  28.871  1.00  0.00    -0.014 A 
BRANCH  34  35
ATOM     35  C   UNL A   1      38.090  30.104  29.723  1.00  0.00     0.031 A 
ATOM     36  C   UNL A   1      39.124  29.149  29.195  1.00  0.00     0.074 A 
ATOM     37  C   UNL A   1      38.238  30.651  30.942  1.00  0.00     0.049 A 
ATOM     38  N   UNL A   1      40.204  28.687  29.774  1.00  0.00    -0.248 NA
ATOM     39  C   UNL A   1      38.911  28.645  27.830  1.00  0.00     0.031 C 
ATOM     40  C   UNL A   1      37.326  31.618  31.548  1.00  0.00     0.029 A 
ATOM     41  N   UNL A   1      39.215  30.468  31.888  1.00  0.00    -0.354 N 
ATOM     42  C   UNL A   1      40.795  27.840  28.847  1.00  0.00     0.074 A 
ATOM     43  C   UNL A   1      39.939  27.824  27.680  1.00  0.00     0.031 C 
ATOM     44  C   UNL A   1      37.780  31.936  32.772  1.00  0.00     0.029 A 
ATOM     45  C   UNL A   1      38.999  31.175  33.044  1.00  0.00     0.049 A 
ATOM     46  H   UNL A   1      39.995  29.884  31.751  1.00  0.00     0.167 HD
ATOM     47  C   UNL A   1      41.953  27.144  28.956  1.00  0.00     0.037 A 
ATOM     48  C   UNL A   1      39.697  31.190  34.197  1.00  0.00     0.037 A 
ATOM     49  C   UNL A   1      42.804  27.160  30.116  1.00  0.00     0.049 A 
ATOM     50  C   UNL A   1      40.942  30.352  34.319  1.00  0.00     0.074 A 
ATOM     51  C   UNL A   1      44.010  26.509  30.312  1.00  0.00     0.029 A 
ATOM     52  N   UNL A   1      42.532  27.860  31.283  1.00  0.00    -0.354 N 
ATOM     53  N   UNL A   1      41.510  29.575  33.430  1.00  0.00    -0.248 NA
ATOM     54  C   UNL A   1      41.646  30.396  35.610  1.00  0.00     0.031 C 
ATOM     55  C   UNL A   1      44.443  26.775  31.617  1.00  0.00     0.029 A 
ATOM     56  C   UNL A   1      43.533  27.633  32.214  1.00  0.00     0.049 A 
ATOM     57  H   UNL A   1      41.746  28.433  31.427  1.00  0.00     0.167 HD
ATOM     58  C   UNL A   1      42.647  29.061  34.039  1.00  0.00     0.074 A 
ATOM     59  C   UNL A   1      42.696  29.622  35.373  1.00  0.00     0.031 C 
ATOM     60  C   UNL A   1      43.570  28.202  33.537  1.00  0.00     0.037 A 
BRANCH  47  61
ATOM     61  C   UNL A   1      42.351  26.283  27.793  1.00  0.00     0.064 A 
ATOM     62  C   UNL A   1      41.801  25.007  27.598  1.00  0.00     0.173 A 
ATOM     63  C   UNL A   1      43.277  26.750  26.849  1.00  0.00     0.173 A 
ATOM     64  F   UNL A   1      40.922  24.509  28.480  1.00  0.00    -0.203 F 
ATOM     65  C   UNL A   1      42.187  24.219  26.516  1.00  0.00     0.198 A 
ATOM     66  C   UNL A   1      43.639  25.972  25.753  1.00  0.00     0.198 A 
ATOM     67  F   UNL A   1      43.829  27.966  26.986  1.00  0.00    -0.203 F 
ATOM     68  F   UNL A   1      41.685  22.985  26.376  1.00  0.00    -0.200 F 
ATOM     69  C   UNL A   1      43.099  24.704  25.591  1.00  0.00     0.200 A 
ATOM     70  F   UNL A   1      44.514  26.446  24.855  1.00  0.00    -0.200 F 
ATOM     71  F   UNL A   1      43.467  23.947  24.549  1.00  0.00    -0.200 F 
ENDBRANCH  47  61
BRANCH  48  72
ATOM     72  C   UNL A   1      39.229  32.025  35.333  1.00  0.00     0.064 A 
ATOM     73  C   UNL A   1      39.582  33.378  35.428  1.00  0.00     0.173 A 
ATOM     74  C   UNL A   1      38.428  31.484  36.349  1.00  0.00     0.173 A 
ATOM     75  F   UNL A   1      40.367  33.932  34.494  1.00  0.00    -0.203 F 
ATOM     76  C   UNL A   1      39.160  34.156  36.505  1.00  0.00     0.198 A 
ATOM     77  C   UNL A   1      37.986  32.270  37.411  1.00  0.00     0.198 A 
ATOM     78  F   UNL A   1      38.066  30.194  36.305  1.00  0.00    -0.203 F 
ATOM     79  F   UNL A   1      39.545  35.437  36.594  1.00  0.00    -0.200 F 
ATOM     80  C   UNL A   1      38.358  33.603  37.492  1.00  0.00     0.200 A 
ATOM     81  F   UNL A   1      37.201  31.735  38.357  1.00  0.00    -0.200 F 
ATOM     82  F   UNL A   1      37.948  34.354  38.524  1.00  0.00    -0.200 F 
ENDBRANCH  48  72
BRANCH  60  83
ATOM     83  C   UNL A   1      44.727  27.839  34.422  1.00  0.00     0.064 A 
ATOM     84  C   UNL A   1      44.691  26.713  35.257  1.00  0.00     0.173 A 
ATOM     85  C   UNL A   1      45.904  28.603  34.402  1.00  0.00     0.173 A 
ATOM     86  F   UNL A   1      43.585  25.958  35.324  1.00  0.00    -0.203 F 
ATOM     87  C   UNL A   1      45.781  26.379  36.057  1.00  0.00     0.198 A 
ATOM     88  C   UNL A   1      47.002  28.251  35.182  1.00  0.00     0.198 A 
ATOM     89  F   UNL A   1      45.992  29.687  33.616  1.00  0.00    -0.203 F 
ATOM     90  F   UNL A   1      45.708  25.325  36.881  1.00  0.00    -0.200 F 
ATOM     91  C   UNL A   1      46.938  27.144  36.013  1.00  0.00     0.200 A 
ATOM     92  F   UNL A   1      48.123  28.984  35.128  1.00  0.00    -0.200 F 
ATOM     93  F   UNL A   1      47.989  26.818  36.778  1.00  0.00    -0.200 F 
ENDBRANCH  60  83
ENDBRANCH  34  35
ENDBRANCH  27  29
ENDBRANCH  26  27
ENDBRANCH  25  26
ENDBRANCH   1  25
TORSDOF 15
ENDMDL
