MODEL 1
REMARK VINA RESULT:     -10.8      0.000      0.000
REMARK SMILES CCC[NH2+][C@]1(C(=O)OCCOCCOC(=O)c2ccc(-c3c4nc(c(-c5c(F)c(F)c(F)c(F)c5F)c5ccc([nH]5)c(-c5c(F)c(F)c(F)c(F)c5F)c5nc(c(-c6c(F)c(F)c(F)c(F)c6F)c6ccc3[nH]6)C=C5)C=C4)cc2)CCC[C@H](OC(C)(C)C)C1
REMARK SMILES IDX 10 1 9 2 8 3 6 4 7 5 5 6 80 7 89 8 81 9 83 10 82 11 4 12
REMARK SMILES IDX 3 15 2 16 1 17 84 18 85 19 86 20 87 21 88 22 11 23 12 24
REMARK SMILES IDX 13 25 14 26 15 27 16 28 17 29 18 30 79 31 19 32 78 33 20 34
REMARK SMILES IDX 21 35 22 36 72 37 23 38 77 39 71 40 73 41 24 42 76 43 70 44
REMARK SMILES IDX 69 45 25 47 57 48 37 49 56 50 38 51 41 52 55 53 74 54 39 55
REMARK SMILES IDX 40 56 54 58 75 59 42 60 26 61 27 62 35 63 28 64 29 65 33 66
REMARK SMILES IDX 36 67 30 68 31 69 34 70 32 71 58 72 59 73 67 74 60 75 61 76
REMARK SMILES IDX 65 77 68 78 62 79 63 80 66 81 64 82 43 83 44 84 52 85 45 86
REMARK SMILES IDX 46 87 50 88 53 89 47 90 48 91 51 92 49 93
REMARK H PARENT 4 13 4 14 73 46 41 57
REMARK Flexibility Score: inf
ROOT
ATOM      1  C   UNL A   1      33.270  27.725  23.293  1.00  0.00     0.202 C 
ENDROOT
BRANCH   1   2
ATOM      2  C   UNL A   1      33.322  26.247  22.897  1.00  0.00     0.261 C 
BRANCH   2   3
ATOM      3  O   UNL A   1      34.062  25.426  23.812  1.00  0.00    -0.459 OA
BRANCH   3   4
ATOM      4  C   UNL A   1      34.134  24.125  23.424  1.00  0.00     0.368 C 
ATOM      5  O   UNL A   1      34.008  23.742  22.259  1.00  0.00    -0.245 OA
BRANCH   4   6
ATOM      6  C   UNL A   1      34.312  23.125  24.599  1.00  0.00     0.196 C 
ATOM      7  C   UNL A   1      34.381  23.724  26.013  1.00  0.00     0.081 C 
ATOM      8  C   UNL A   1      32.989  22.321  24.568  1.00  0.00     0.113 C 
ATOM      9  C   UNL A   1      34.321  22.654  27.118  1.00  0.00     0.010 C 
ATOM     10  C   UNL A   1      33.032  21.072  25.430  1.00  0.00     0.125 C 
ATOM     11  C   UNL A   1      33.351  21.478  26.891  1.00  0.00     0.032 C 
BRANCH   6  12
ATOM     12  N   UNL A   1      35.485  22.289  24.215  1.00  0.00    -0.332 N 
ATOM     13  H   UNL A   1      35.578  21.569  24.931  1.00  0.00     0.347 HD
ATOM     14  H   UNL A   1      35.255  21.988  23.269  1.00  0.00     0.347 HD
BRANCH  12  15
ATOM     15  C   UNL A   1      36.796  22.893  24.060  1.00  0.00     0.261 C 
BRANCH  15  16
ATOM     16  C   UNL A   1      37.718  22.543  25.235  1.00  0.00     0.058 C 
ATOM     17  C   UNL A   1      38.014  23.729  26.138  1.00  0.00     0.010 C 
ENDBRANCH  15  16
ENDBRANCH  12  15
ENDBRANCH   6  12
BRANCH  10  18
ATOM     18  O   UNL A   1      33.968  20.094  24.974  1.00  0.00    -0.372 OA
BRANCH  18  19
ATOM     19  C   UNL A   1      33.536  18.780  24.569  1.00  0.00     0.060 C 
ATOM     20  C   UNL A   1      32.582  18.848  23.372  1.00  0.00     0.042 C 
ATOM     21  C   UNL A   1      34.641  17.750  24.270  1.00  0.00     0.042 C 
ATOM     22  C   UNL A   1      32.773  18.244  25.793  1.00  0.00     0.042 C 
ENDBRANCH  18  19
ENDBRANCH  10  18
ENDBRANCH   4   6
ENDBRANCH   3   4
ENDBRANCH   2   3
ENDBRANCH   1   2
BRANCH   1  23
ATOM     23  O   UNL A   1      32.103  28.216  23.940  1.00  0.00    -0.374 OA
BRANCH  23  24
ATOM     24  C   UNL A   1      32.165  28.565  25.322  1.00  0.00     0.202 C 
BRANCH  24  25
ATOM     25  C   UNL A   1      32.040  30.042  25.705  1.00  0.00     0.261 C 
BRANCH  25  26
ATOM     26  O   UNL A   1      32.420  30.293  27.070  1.00  0.00    -0.460 OA
BRANCH  26  27
ATOM     27  C   UNL A   1      33.143  31.425  27.245  1.00  0.00     0.338 C 
ATOM     28  O   UNL A   1      32.730  32.577  27.244  1.00  0.00    -0.246 OA
BRANCH  27  29
ATOM     29  C   UNL A   1      34.525  31.105  27.637  1.00  0.00     0.060 A 
ATOM     30  C   UNL A   1      34.839  29.756  27.840  1.00  0.00     0.016 A 
ATOM     31  C   UNL A   1      35.454  32.104  27.933  1.00  0.00     0.016 A 
ATOM     32  C   UNL A   1      36.060  29.400  28.405  1.00  0.00     0.010 A 
ATOM     33  C   UNL A   1      36.678  31.747  28.511  1.00  0.00     0.010 A 
ATOM     34  C   UNL A   1      36.962  30.398  28.793  1.00  0.00    -0.014 A 
BRANCH  34  35
ATOM     35  C   UNL A   1      38.109  30.027  29.656  1.00  0.00     0.031 A 
ATOM     36  C   UNL A   1      39.133  29.062  29.127  1.00  0.00     0.074 A 
ATOM     37  C   UNL A   1      38.270  30.590  30.866  1.00  0.00     0.049 A 
ATOM     38  N   UNL A   1      40.221  28.607  29.695  1.00  0.00    -0.248 NA
ATOM     39  C   UNL A   1      38.902  28.539  27.770  1.00  0.00     0.031 C 
ATOM     40  C   UNL A   1      37.370  31.570  31.466  1.00  0.00     0.029 A 
ATOM     41  N   UNL A   1      39.257  30.415  31.803  1.00  0.00    -0.354 N 
ATOM     42  C   UNL A   1      40.800  27.749  28.770  1.00  0.00     0.074 A 
ATOM     43  C   UNL A   1      39.931  27.719  27.614  1.00  0.00     0.031 C 
ATOM     44  C   UNL A   1      37.841  31.907  32.680  1.00  0.00     0.029 A 
ATOM     45  C   UNL A   1      39.062  31.148  32.947  1.00  0.00     0.049 A 
ATOM     46  H   UNL A   1      40.030  29.821  31.669  1.00  0.00     0.167 HD
ATOM     47  C   UNL A   1      41.959  27.055  28.871  1.00  0.00     0.037 A 
ATOM     48  C   UNL A   1      39.782  31.187  34.086  1.00  0.00     0.037 A 
ATOM     49  C   UNL A   1      42.827  27.088  30.017  1.00  0.00     0.049 A 
ATOM     50  C   UNL A   1      41.036  30.359  34.196  1.00  0.00     0.074 A 
ATOM     51  C   UNL A   1      44.030  26.433  30.210  1.00  0.00     0.029 A 
ATOM     52  N   UNL A   1      42.577  27.816  31.172  1.00  0.00    -0.354 N 
ATOM     53  N   UNL A   1      41.587  29.567  33.308  1.00  0.00    -0.248 NA
ATOM     54  C   UNL A   1      41.771  30.436  35.467  1.00  0.00     0.031 C 
ATOM     55  C   UNL A   1      44.487  26.729  31.498  1.00  0.00     0.029 A 
ATOM     56  C   UNL A   1      43.593  27.607  32.090  1.00  0.00     0.049 A 
ATOM     57  H   UNL A   1      41.795  28.395  31.317  1.00  0.00     0.167 HD
ATOM     58  C   UNL A   1      42.743  29.074  33.900  1.00  0.00     0.074 A 
ATOM     59  C   UNL A   1      42.820  29.665  35.219  1.00  0.00     0.031 C 
ATOM     60  C   UNL A   1      43.657  28.208  33.397  1.00  0.00     0.037 A 
BRANCH  47  61
ATOM     61  C   UNL A   1      42.345  26.181  27.715  1.00  0.00     0.064 A 
ATOM     62  C   UNL A   1      43.323  26.573  26.789  1.00  0.00     0.173 A 
ATOM     63  C   UNL A   1      41.751  24.920  27.550  1.00  0.00     0.173 A 
ATOM     64  F   UNL A   1      43.909  27.775  26.894  1.00  0.00    -0.203 F 
ATOM     65  C   UNL A   1      43.678  25.743  25.728  1.00  0.00     0.198 A 
ATOM     66  C   UNL A   1      42.127  24.083  26.503  1.00  0.00     0.198 A 
ATOM     67  F   UNL A   1      40.811  24.498  28.409  1.00  0.00    -0.203 F 
ATOM     68  F   UNL A   1      44.586  26.154  24.832  1.00  0.00    -0.200 F 
ATOM     69  C   UNL A   1      43.084  24.496  25.590  1.00  0.00     0.200 A 
ATOM     70  F   UNL A   1      41.559  22.875  26.376  1.00  0.00    -0.200 F 
ATOM     71  F   UNL A   1      43.432  23.696  24.572  1.00  0.00    -0.200 F 
ENDBRANCH  47  61
BRANCH  48  72
ATOM     72  C   UNL A   1      39.331  32.036  35.217  1.00  0.00     0.064 A 
ATOM     73  C   UNL A   1      38.537  31.513  36.246  1.00  0.00     0.173 A 
ATOM     74  C   UNL A   1      39.676  33.394  35.285  1.00  0.00     0.173 A 
ATOM     75  F   UNL A   1      38.161  30.226  36.213  1.00  0.00    -0.203 F 
ATOM     76  C   UNL A   1      38.092  32.319  37.291  1.00  0.00     0.198 A 
ATOM     77  C   UNL A   1      39.252  34.193  36.344  1.00  0.00     0.198 A 
ATOM     78  F   UNL A   1      40.432  33.944  34.323  1.00  0.00    -0.203 F 
ATOM     79  F   UNL A   1      37.299  31.804  38.241  1.00  0.00    -0.200 F 
ATOM     80  C   UNL A   1      38.455  33.657  37.343  1.00  0.00     0.200 A 
ATOM     81  F   UNL A   1      39.614  35.482  36.394  1.00  0.00    -0.200 F 
ATOM     82  F   UNL A   1      38.029  34.431  38.350  1.00  0.00    -0.200 F 
ENDBRANCH  48  72
BRANCH  60  83
ATOM     83  C   UNL A   1      44.837  27.873  34.262  1.00  0.00     0.064 A 
ATOM     84  C   UNL A   1      45.999  28.657  34.255  1.00  0.00     0.173 A 
ATOM     85  C   UNL A   1      44.786  26.780  35.141  1.00  0.00     0.173 A 
ATOM     86  F   UNL A   1      46.102  29.703  33.421  1.00  0.00    -0.203 F 
ATOM     87  C   UNL A   1      47.079  28.344  35.078  1.00  0.00     0.198 A 
ATOM     88  C   UNL A   1      45.854  26.487  35.983  1.00  0.00     0.198 A 
ATOM     89  F   UNL A   1      43.692  26.005  35.192  1.00  0.00    -0.203 F 
ATOM     90  F   UNL A   1      48.196  29.081  35.022  1.00  0.00    -0.200 F 
ATOM     91  C   UNL A   1      47.002  27.265  35.946  1.00  0.00     0.200 A 
ATOM     92  F   UNL A   1      45.774  25.452  36.830  1.00  0.00    -0.200 F 
ATOM     93  F   UNL A   1      48.038  26.970  36.742  1.00  0.00    -0.200 F 
ENDBRANCH  60  83
ENDBRANCH  34  35
ENDBRANCH  27  29
ENDBRANCH  26  27
ENDBRANCH  25  26
ENDBRANCH  24  25
ENDBRANCH  23  24
ENDBRANCH   1  23
TORSDOF 19
ENDMDL
MODEL 2
REMARK VINA RESULT:     -10.7      2.898      7.915
REMARK SMILES CCC[NH2+][C@]1(C(=O)OCCOCCOC(=O)c2ccc(-c3c4nc(c(-c5c(F)c(F)c(F)c(F)c5F)c5ccc([nH]5)c(-c5c(F)c(F)c(F)c(F)c5F)c5nc(c(-c6c(F)c(F)c(F)c(F)c6F)c6ccc3[nH]6)C=C5)C=C4)cc2)CCC[C@H](OC(C)(C)C)C1
REMARK SMILES IDX 10 1 9 2 8 3 6 4 7 5 5 6 80 7 89 8 81 9 83 10 82 11 4 12
REMARK SMILES IDX 3 15 2 16 1 17 84 18 85 19 86 20 87 21 88 22 11 23 12 24
REMARK SMILES IDX 13 25 14 26 15 27 16 28 17 29 18 30 79 31 19 32 78 33 20 34
REMARK SMILES IDX 21 35 22 36 72 37 23 38 77 39 71 40 73 41 24 42 76 43 70 44
REMARK SMILES IDX 69 45 25 47 57 48 37 49 56 50 38 51 41 52 55 53 74 54 39 55
REMARK SMILES IDX 40 56 54 58 75 59 42 60 26 61 27 62 35 63 28 64 29 65 33 66
REMARK SMILES IDX 36 67 30 68 31 69 34 70 32 71 58 72 59 73 67 74 60 75 61 76
REMARK SMILES IDX 65 77 68 78 62 79 63 80 66 81 64 82 43 83 44 84 52 85 45 86
REMARK SMILES IDX 46 87 50 88 53 89 47 90 48 91 51 92 49 93
REMARK H PARENT 4 13 4 14 73 46 41 57
REMARK Flexibility Score: inf
ROOT
ATOM      1  C   UNL A   1      40.006  21.754  26.307  1.00  0.00     0.202 C 
ENDROOT
BRANCH   1   2
ATOM      2  C   UNL A   1      38.627  21.418  25.732  1.00  0.00     0.261 C 
BRANCH   2   3
ATOM      3  O   UNL A   1      37.685  22.497  25.816  1.00  0.00    -0.459 OA
BRANCH   3   4
ATOM      4  C   UNL A   1      36.726  22.444  24.853  1.00  0.00     0.368 C 
ATOM      5  O   UNL A   1      36.959  22.447  23.643  1.00  0.00    -0.245 OA
BRANCH   4   6
ATOM      6  C   UNL A   1      35.275  22.459  25.407  1.00  0.00     0.196 C 
ATOM      7  C   UNL A   1      35.089  22.038  26.874  1.00  0.00     0.081 C 
ATOM      8  C   UNL A   1      34.910  23.962  25.372  1.00  0.00     0.113 C 
ATOM      9  C   UNL A   1      33.667  22.307  27.397  1.00  0.00     0.010 C 
ATOM     10  C   UNL A   1      33.429  24.220  25.581  1.00  0.00     0.125 C 
ATOM     11  C   UNL A   1      33.001  23.621  26.944  1.00  0.00     0.032 C 
BRANCH   6  12
ATOM     12  N   UNL A   1      34.482  21.666  24.424  1.00  0.00    -0.332 N 
ATOM     13  H   UNL A   1      33.550  22.079  24.399  1.00  0.00     0.347 HD
ATOM     14  H   UNL A   1      35.046  21.720  23.576  1.00  0.00     0.347 HD
BRANCH  12  15
ATOM     15  C   UNL A   1      34.301  20.237  24.610  1.00  0.00     0.261 C 
BRANCH  15  16
ATOM     16  C   UNL A   1      32.855  19.814  24.325  1.00  0.00     0.058 C 
ATOM     17  C   UNL A   1      32.608  18.332  24.559  1.00  0.00     0.010 C 
ENDBRANCH  15  16
ENDBRANCH  12  15
ENDBRANCH   6  12
BRANCH  10  18
ATOM     18  O   UNL A   1      32.605  23.705  24.535  1.00  0.00    -0.372 OA
BRANCH  18  19
ATOM     19  C   UNL A   1      32.200  24.534  23.427  1.00  0.00     0.060 C 
ATOM     20  C   UNL A   1      32.400  26.021  23.739  1.00  0.00     0.042 C 
ATOM     21  C   UNL A   1      32.836  24.221  22.060  1.00  0.00     0.042 C 
ATOM     22  C   UNL A   1      30.696  24.247  23.275  1.00  0.00     0.042 C 
ENDBRANCH  18  19
ENDBRANCH  10  18
ENDBRANCH   4   6
ENDBRANCH   3   4
ENDBRANCH   2   3
ENDBRANCH   1   2
BRANCH   1  23
ATOM     23  O   UNL A   1      41.159  21.458  25.529  1.00  0.00    -0.374 OA
BRANCH  23  24
ATOM     24  C   UNL A   1      42.448  21.530  26.136  1.00  0.00     0.202 C 
BRANCH  24  25
ATOM     25  C   UNL A   1      43.545  22.320  25.417  1.00  0.00     0.261 C 
BRANCH  25  26
ATOM     26  O   UNL A   1      43.041  23.497  24.762  1.00  0.00    -0.460 OA
BRANCH  26  27
ATOM     27  C   UNL A   1      43.728  24.629  25.047  1.00  0.00     0.338 C 
ATOM     28  O   UNL A   1      44.806  24.978  24.586  1.00  0.00    -0.246 OA
BRANCH  27  29
ATOM     29  C   UNL A   1      42.920  25.533  25.880  1.00  0.00     0.060 A 
ATOM     30  C   UNL A   1      43.459  26.794  26.168  1.00  0.00     0.016 A 
ATOM     31  C   UNL A   1      41.730  25.115  26.479  1.00  0.00     0.016 A 
ATOM     32  C   UNL A   1      42.849  27.616  27.109  1.00  0.00     0.010 A 
ATOM     33  C   UNL A   1      41.122  25.938  27.434  1.00  0.00     0.010 A 
ATOM     34  C   UNL A   1      41.707  27.169  27.786  1.00  0.00    -0.014 A 
BRANCH  34  35
ATOM     35  C   UNL A   1      41.249  27.913  28.983  1.00  0.00     0.031 A 
ATOM     36  C   UNL A   1      42.018  27.766  30.267  1.00  0.00     0.074 A 
ATOM     37  C   UNL A   1      40.205  28.757  28.912  1.00  0.00     0.049 A 
ATOM     38  N   UNL A   1      41.812  28.330  31.430  1.00  0.00    -0.248 NA
ATOM     39  C   UNL A   1      43.180  26.862  30.236  1.00  0.00     0.031 C 
ATOM     40  C   UNL A   1      39.412  29.017  27.714  1.00  0.00     0.029 A 
ATOM     41  N   UNL A   1      39.639  29.554  29.875  1.00  0.00    -0.354 N 
ATOM     42  C   UNL A   1      42.813  27.851  32.264  1.00  0.00     0.074 A 
ATOM     43  C   UNL A   1      43.609  26.926  31.487  1.00  0.00     0.031 C 
ATOM     44  C   UNL A   1      38.451  29.908  28.014  1.00  0.00     0.029 A 
ATOM     45  C   UNL A   1      38.550  30.261  29.429  1.00  0.00     0.049 A 
ATOM     46  H   UNL A   1      39.979  29.612  30.796  1.00  0.00     0.167 HD
ATOM     47  C   UNL A   1      43.053  28.160  33.561  1.00  0.00     0.037 A 
ATOM     48  C   UNL A   1      37.721  31.089  30.096  1.00  0.00     0.037 A 
ATOM     49  C   UNL A   1      42.266  29.084  34.333  1.00  0.00     0.049 A 
ATOM     50  C   UNL A   1      37.974  31.372  31.554  1.00  0.00     0.074 A 
ATOM     51  C   UNL A   1      42.437  29.477  35.649  1.00  0.00     0.029 A 
ATOM     52  N   UNL A   1      41.148  29.755  33.857  1.00  0.00    -0.354 N 
ATOM     53  N   UNL A   1      38.936  30.931  32.329  1.00  0.00    -0.248 NA
ATOM     54  C   UNL A   1      37.028  32.273  32.228  1.00  0.00     0.031 C 
ATOM     55  C   UNL A   1      41.398  30.352  35.982  1.00  0.00     0.029 A 
ATOM     56  C   UNL A   1      40.608  30.542  34.860  1.00  0.00     0.049 A 
ATOM     57  H   UNL A   1      40.794  29.684  32.942  1.00  0.00     0.167 HD
ATOM     58  C   UNL A   1      38.727  31.518  33.570  1.00  0.00     0.074 A 
ATOM     59  C   UNL A   1      37.555  32.357  33.442  1.00  0.00     0.031 C 
ATOM     60  C   UNL A   1      39.443  31.376  34.714  1.00  0.00     0.037 A 
BRANCH  47  61
ATOM     61  C   UNL A   1      44.206  27.477  34.234  1.00  0.00     0.064 A 
ATOM     62  C   UNL A   1      44.059  26.232  34.864  1.00  0.00     0.173 A 
ATOM     63  C   UNL A   1      45.482  28.061  34.220  1.00  0.00     0.173 A 
ATOM     64  F   UNL A   1      42.856  25.641  34.918  1.00  0.00    -0.203 F 
ATOM     65  C   UNL A   1      45.144  25.606  35.474  1.00  0.00     0.198 A 
ATOM     66  C   UNL A   1      46.569  27.420  34.808  1.00  0.00     0.198 A 
ATOM     67  F   UNL A   1      45.675  29.249  33.629  1.00  0.00    -0.203 F 
ATOM     68  F   UNL A   1      44.973  24.436  36.105  1.00  0.00    -0.200 F 
ATOM     69  C   UNL A   1      46.399  26.197  35.439  1.00  0.00     0.200 A 
ATOM     70  F   UNL A   1      47.783  27.987  34.766  1.00  0.00    -0.200 F 
ATOM     71  F   UNL A   1      47.443  25.591  36.020  1.00  0.00    -0.200 F 
ENDBRANCH  47  61
BRANCH  48  72
ATOM     72  C   UNL A   1      36.568  31.705  29.393  1.00  0.00     0.064 A 
ATOM     73  C   UNL A   1      35.468  30.937  28.989  1.00  0.00     0.173 A 
ATOM     74  C   UNL A   1      36.549  33.077  29.098  1.00  0.00     0.173 A 
ATOM     75  F   UNL A   1      35.452  29.616  29.226  1.00  0.00    -0.203 F 
ATOM     76  C   UNL A   1      34.401  31.513  28.304  1.00  0.00     0.198 A 
ATOM     77  C   UNL A   1      35.469  33.657  28.437  1.00  0.00     0.198 A 
ATOM     78  F   UNL A   1      37.579  33.856  29.461  1.00  0.00    -0.203 F 
ATOM     79  F   UNL A   1      33.381  30.747  27.892  1.00  0.00    -0.200 F 
ATOM     80  C   UNL A   1      34.399  32.873  28.034  1.00  0.00     0.200 A 
ATOM     81  F   UNL A   1      35.468  34.973  28.188  1.00  0.00    -0.200 F 
ATOM     82  F   UNL A   1      33.371  33.428  27.378  1.00  0.00    -0.200 F 
ENDBRANCH  48  72
BRANCH  60  83
ATOM     83  C   UNL A   1      38.997  32.167  35.908  1.00  0.00     0.064 A 
ATOM     84  C   UNL A   1      38.214  31.592  36.920  1.00  0.00     0.173 A 
ATOM     85  C   UNL A   1      39.394  33.504  36.063  1.00  0.00     0.173 A 
ATOM     86  F   UNL A   1      37.797  30.322  36.810  1.00  0.00    -0.203 F 
ATOM     87  C   UNL A   1      37.824  32.334  38.032  1.00  0.00     0.198 A 
ATOM     88  C   UNL A   1      39.027  34.235  37.189  1.00  0.00     0.198 A 
ATOM     89  F   UNL A   1      40.150  34.097  35.127  1.00  0.00    -0.203 F 
ATOM     90  F   UNL A   1      37.040  31.778  38.965  1.00  0.00    -0.200 F 
ATOM     91  C   UNL A   1      38.237  33.651  38.169  1.00  0.00     0.200 A 
ATOM     92  F   UNL A   1      39.436  35.503  37.326  1.00  0.00    -0.200 F 
ATOM     93  F   UNL A   1      37.867  34.363  39.243  1.00  0.00    -0.200 F 
ENDBRANCH  60  83
ENDBRANCH  34  35
ENDBRANCH  27  29
ENDBRANCH  26  27
ENDBRANCH  25  26
ENDBRANCH  24  25
ENDBRANCH  23  24
ENDBRANCH   1  23
TORSDOF 19
ENDMDL
MODEL 3
REMARK VINA RESULT:     -10.7      0.452      7.501
REMARK SMILES CCC[NH2+][C@]1(C(=O)OCCOCCOC(=O)c2ccc(-c3c4nc(c(-c5c(F)c(F)c(F)c(F)c5F)c5ccc([nH]5)c(-c5c(F)c(F)c(F)c(F)c5F)c5nc(c(-c6c(F)c(F)c(F)c(F)c6F)c6ccc3[nH]6)C=C5)C=C4)cc2)CCC[C@H](OC(C)(C)C)C1
REMARK SMILES IDX 10 1 9 2 8 3 6 4 7 5 5 6 80 7 89 8 81 9 83 10 82 11 4 12
REMARK SMILES IDX 3 15 2 16 1 17 84 18 85 19 86 20 87 21 88 22 11 23 12 24
REMARK SMILES IDX 13 25 14 26 15 27 16 28 17 29 18 30 79 31 19 32 78 33 20 34
REMARK SMILES IDX 21 35 22 36 72 37 23 38 77 39 71 40 73 41 24 42 76 43 70 44
REMARK SMILES IDX 69 45 25 47 57 48 37 49 56 50 38 51 41 52 55 53 74 54 39 55
REMARK SMILES IDX 40 56 54 58 75 59 42 60 26 61 27 62 35 63 28 64 29 65 33 66
REMARK SMILES IDX 36 67 30 68 31 69 34 70 32 71 58 72 59 73 67 74 60 75 61 76
REMARK SMILES IDX 65 77 68 78 62 79 63 80 66 81 64 82 43 83 44 84 52 85 45 86
REMARK SMILES IDX 46 87 50 88 53 89 47 90 48 91 51 92 49 93
REMARK H PARENT 4 13 4 14 73 46 41 57
REMARK Flexibility Score: inf
ROOT
ATOM      1  C   UNL A   1      33.198  27.789  23.314  1.00  0.00     0.202 C 
ENDROOT
BRANCH   1   2
ATOM      2  C   UNL A   1      33.167  26.323  22.872  1.00  0.00     0.261 C 
BRANCH   2   3
ATOM      3  O   UNL A   1      34.025  25.467  23.639  1.00  0.00    -0.459 OA
BRANCH   3   4
ATOM      4  C   UNL A   1      33.979  24.168  23.239  1.00  0.00     0.368 C 
ATOM      5  O   UNL A   1      33.682  23.804  22.099  1.00  0.00    -0.245 OA
BRANCH   4   6
ATOM      6  C   UNL A   1      34.257  23.147  24.376  1.00  0.00     0.196 C 
ATOM      7  C   UNL A   1      34.479  23.724  25.784  1.00  0.00     0.081 C 
ATOM      8  C   UNL A   1      32.924  22.366  24.470  1.00  0.00     0.113 C 
ATOM      9  C   UNL A   1      34.513  22.639  26.876  1.00  0.00     0.010 C 
ATOM     10  C   UNL A   1      33.031  21.105  25.306  1.00  0.00     0.125 C 
ATOM     11  C   UNL A   1      33.504  21.483  26.732  1.00  0.00     0.032 C 
BRANCH   6  12
ATOM     12  N   UNL A   1      35.370  22.298  23.864  1.00  0.00    -0.332 N 
ATOM     13  H   UNL A   1      35.190  21.350  24.195  1.00  0.00     0.347 HD
ATOM     14  H   UNL A   1      35.341  22.461  22.858  1.00  0.00     0.347 HD
BRANCH  12  15
ATOM     15  C   UNL A   1      36.746  22.607  24.210  1.00  0.00     0.261 C 
BRANCH  15  16
ATOM     16  C   UNL A   1      37.432  21.419  24.898  1.00  0.00     0.058 C 
ATOM     17  C   UNL A   1      38.621  21.828  25.751  1.00  0.00     0.010 C 
ENDBRANCH  15  16
ENDBRANCH  12  15
ENDBRANCH   6  12
BRANCH  10  18
ATOM     18  O   UNL A   1      33.898  20.118  24.745  1.00  0.00    -0.372 OA
BRANCH  18  19
ATOM     19  C   UNL A   1      33.461  18.756  24.565  1.00  0.00     0.060 C 
ATOM     20  C   UNL A   1      34.638  17.827  24.251  1.00  0.00     0.042 C 
ATOM     21  C   UNL A   1      32.629  18.141  25.705  1.00  0.00     0.042 C 
ATOM     22  C   UNL A   1      32.528  18.821  23.343  1.00  0.00     0.042 C 
ENDBRANCH  18  19
ENDBRANCH  10  18
ENDBRANCH   4   6
ENDBRANCH   3   4
ENDBRANCH   2   3
ENDBRANCH   1   2
BRANCH   1  23
ATOM     23  O   UNL A   1      32.051  28.331  23.957  1.00  0.00    -0.374 OA
BRANCH  23  24
ATOM     24  C   UNL A   1      32.113  28.643  25.347  1.00  0.00     0.202 C 
BRANCH  24  25
ATOM     25  C   UNL A   1      32.160  30.117  25.758  1.00  0.00     0.261 C 
BRANCH  25  26
ATOM     26  O   UNL A   1      32.564  30.297  27.127  1.00  0.00    -0.460 OA
BRANCH  26  27
ATOM     27  C   UNL A   1      33.292  31.417  27.349  1.00  0.00     0.338 C 
ATOM     28  O   UNL A   1      32.877  32.565  27.444  1.00  0.00    -0.246 OA
BRANCH  27  29
ATOM     29  C   UNL A   1      34.690  31.079  27.659  1.00  0.00     0.060 A 
ATOM     30  C   UNL A   1      35.020  29.720  27.736  1.00  0.00     0.016 A 
ATOM     31  C   UNL A   1      35.625  32.058  28.001  1.00  0.00     0.016 A 
ATOM     32  C   UNL A   1      36.263  29.328  28.222  1.00  0.00     0.010 A 
ATOM     33  C   UNL A   1      36.872  31.664  28.500  1.00  0.00     0.010 A 
ATOM     34  C   UNL A   1      37.175  30.299  28.657  1.00  0.00    -0.014 A 
BRANCH  34  35
ATOM     35  C   UNL A   1      38.356  29.867  29.442  1.00  0.00     0.031 A 
ATOM     36  C   UNL A   1      38.533  30.399  30.838  1.00  0.00     0.074 A 
ATOM     37  C   UNL A   1      39.221  28.967  28.945  1.00  0.00     0.049 A 
ATOM     38  N   UNL A   1      39.477  30.149  31.710  1.00  0.00    -0.248 NA
ATOM     39  C   UNL A   1      37.506  31.338  31.317  1.00  0.00     0.031 C 
ATOM     40  C   UNL A   1      39.129  28.348  27.626  1.00  0.00     0.029 A 
ATOM     41  N   UNL A   1      40.348  28.416  29.501  1.00  0.00    -0.354 N 
ATOM     42  C   UNL A   1      39.157  30.897  32.836  1.00  0.00     0.074 A 
ATOM     43  C   UNL A   1      37.952  31.635  32.528  1.00  0.00     0.031 C 
ATOM     44  C   UNL A   1      40.165  27.506  27.468  1.00  0.00     0.029 A 
ATOM     45  C   UNL A   1      41.002  27.545  28.666  1.00  0.00     0.049 A 
ATOM     46  H   UNL A   1      40.659  28.626  30.411  1.00  0.00     0.167 HD
ATOM     47  C   UNL A   1      39.806  30.957  34.023  1.00  0.00     0.037 A 
ATOM     48  C   UNL A   1      42.154  26.869  28.846  1.00  0.00     0.037 A 
ATOM     49  C   UNL A   1      41.003  30.219  34.331  1.00  0.00     0.049 A 
ATOM     50  C   UNL A   1      42.890  26.999  30.155  1.00  0.00     0.074 A 
ATOM     51  C   UNL A   1      41.726  30.199  35.510  1.00  0.00     0.029 A 
ATOM     52  N   UNL A   1      41.655  29.373  33.445  1.00  0.00    -0.354 N 
ATOM     53  N   UNL A   1      42.569  27.691  31.221  1.00  0.00    -0.248 NA
ATOM     54  C   UNL A   1      44.146  26.246  30.285  1.00  0.00     0.031 C 
ATOM     55  C   UNL A   1      42.842  29.376  35.323  1.00  0.00     0.029 A 
ATOM     56  C   UNL A   1      42.786  28.844  34.045  1.00  0.00     0.049 A 
ATOM     57  H   UNL A   1      41.358  29.177  32.528  1.00  0.00     0.167 HD
ATOM     58  C   UNL A   1      43.565  27.439  32.155  1.00  0.00     0.074 A 
ATOM     59  C   UNL A   1      44.495  26.520  31.534  1.00  0.00     0.031 C 
ATOM     60  C   UNL A   1      43.698  27.926  33.414  1.00  0.00     0.037 A 
BRANCH  47  61
ATOM     61  C   UNL A   1      39.246  31.869  35.073  1.00  0.00     0.064 A 
ATOM     62  C   UNL A   1      38.462  31.382  36.129  1.00  0.00     0.173 A 
ATOM     63  C   UNL A   1      39.525  33.243  35.040  1.00  0.00     0.173 A 
ATOM     64  F   UNL A   1      38.155  30.078  36.197  1.00  0.00    -0.203 F 
ATOM     65  C   UNL A   1      37.960  32.242  37.104  1.00  0.00     0.198 A 
ATOM     66  C   UNL A   1      39.042  34.096  36.029  1.00  0.00     0.198 A 
ATOM     67  F   UNL A   1      40.271  33.758  34.051  1.00  0.00    -0.203 F 
ATOM     68  F   UNL A   1      37.179  31.762  38.081  1.00  0.00    -0.200 F 
ATOM     69  C   UNL A   1      38.256  33.597  37.056  1.00  0.00     0.200 A 
ATOM     70  F   UNL A   1      39.336  35.403  35.987  1.00  0.00    -0.200 F 
ATOM     71  F   UNL A   1      37.777  34.422  37.997  1.00  0.00    -0.200 F 
ENDBRANCH  47  61
BRANCH  48  72
ATOM     72  C   UNL A   1      42.688  26.014  27.756  1.00  0.00     0.064 A 
ATOM     73  C   UNL A   1      43.635  26.503  26.847  1.00  0.00     0.173 A 
ATOM     74  C   UNL A   1      42.251  24.691  27.595  1.00  0.00     0.173 A 
ATOM     75  F   UNL A   1      44.064  27.770  26.945  1.00  0.00    -0.203 F 
ATOM     76  C   UNL A   1      44.112  25.707  25.808  1.00  0.00     0.198 A 
ATOM     77  C   UNL A   1      42.749  23.887  26.573  1.00  0.00     0.198 A 
ATOM     78  F   UNL A   1      41.344  24.176  28.439  1.00  0.00    -0.203 F 
ATOM     79  F   UNL A   1      44.986  26.213  24.927  1.00  0.00    -0.200 F 
ATOM     80  C   UNL A   1      43.674  24.398  25.676  1.00  0.00     0.200 A 
ATOM     81  F   UNL A   1      42.330  22.620  26.456  1.00  0.00    -0.200 F 
ATOM     82  F   UNL A   1      44.136  23.632  24.679  1.00  0.00    -0.200 F 
ENDBRANCH  48  72
BRANCH  60  83
ATOM     83  C   UNL A   1      44.874  27.449  34.216  1.00  0.00     0.064 A 
ATOM     84  C   UNL A   1      44.809  26.283  34.992  1.00  0.00     0.173 A 
ATOM     85  C   UNL A   1      46.093  28.142  34.171  1.00  0.00     0.173 A 
ATOM     86  F   UNL A   1      43.661  25.593  35.079  1.00  0.00    -0.203 F 
ATOM     87  C   UNL A   1      45.914  25.842  35.715  1.00  0.00     0.198 A 
ATOM     88  C   UNL A   1      47.204  27.684  34.872  1.00  0.00     0.198 A 
ATOM     89  F   UNL A   1      46.208  29.258  33.436  1.00  0.00    -0.203 F 
ATOM     90  F   UNL A   1      45.817  24.750  36.486  1.00  0.00    -0.200 F 
ATOM     91  C   UNL A   1      47.112  26.538  35.648  1.00  0.00     0.200 A 
ATOM     92  F   UNL A   1      48.364  28.350  34.797  1.00  0.00    -0.200 F 
ATOM     93  F   UNL A   1      48.177  26.109  36.339  1.00  0.00    -0.200 F 
ENDBRANCH  60  83
ENDBRANCH  34  35
ENDBRANCH  27  29
ENDBRANCH  26  27
ENDBRANCH  25  26
ENDBRANCH  24  25
ENDBRANCH  23  24
ENDBRANCH   1  23
TORSDOF 19
ENDMDL
