MODEL 1
REMARK VINA RESULT:     -12.2      0.000      0.000
REMARK SMILES COc1ccc(NC(=O)N[C@@H]2C=C[C@H](C(=O)OCCOCCOC(=O)c3ccc(-c4c5nc(c(-c6c(F)c(F)c(F)c(F)c6F)c6ccc([nH]6)c(-c6c(F)c(F)c(F)c(F)c6F)c6nc(c(-c7c(F)c(F)c(F)c(F)c7F)c7ccc4[nH]7)C=C6)C=C5)cc3)C2)c(C)c1
REMARK SMILES IDX 19 1 18 2 17 3 15 4 16 5 14 6 11 7 12 8 89 9 13 10 10 11
REMARK SMILES IDX 7 12 8 13 9 15 6 17 3 18 4 19 92 20 5 21 90 22 91 23 2 24
REMARK SMILES IDX 1 25 20 26 21 27 22 28 23 29 24 30 25 31 26 32 27 33 88 34
REMARK SMILES IDX 28 35 87 36 29 37 30 38 31 39 81 40 32 41 86 42 80 43 82 44
REMARK SMILES IDX 33 45 85 46 79 47 78 48 34 50 66 51 46 52 65 53 47 54 50 55
REMARK SMILES IDX 64 56 83 57 48 58 49 59 63 61 84 62 51 63 35 64 36 65 44 66
REMARK SMILES IDX 37 67 38 68 42 69 45 70 39 71 40 72 43 73 41 74 67 75 68 76
REMARK SMILES IDX 76 77 69 78 70 79 74 80 77 81 71 82 72 83 75 84 73 85 52 86
REMARK SMILES IDX 53 87 61 88 54 89 55 90 59 91 62 92 56 93 57 94 60 95 58 96
REMARK H PARENT 7 14 10 16 82 49 50 60
REMARK Flexibility Score: inf
ROOT
ATOM      1  C   UNL A   1      29.759  30.357  23.792  1.00  0.00     0.202 C 
ENDROOT
BRANCH   1   2
ATOM      2  C   UNL A   1      29.076  29.377  22.866  1.00  0.00     0.261 C 
BRANCH   2   3
ATOM      3  O   UNL A   1      29.859  28.211  22.583  1.00  0.00    -0.463 OA
BRANCH   3   4
ATOM      4  C   UNL A   1      29.678  27.021  23.248  1.00  0.00     0.312 C 
ATOM      5  O   UNL A   1      28.687  26.616  23.811  1.00  0.00    -0.252 OA
BRANCH   4   6
ATOM      6  C   UNL A   1      30.890  26.160  23.003  1.00  0.00     0.124 C 
ATOM      7  C   UNL A   1      31.104  24.553  24.813  1.00  0.00     0.107 C 
ATOM      8  C   UNL A   1      31.808  25.834  25.107  1.00  0.00    -0.006 C 
ATOM      9  C   UNL A   1      30.621  24.697  23.368  1.00  0.00     0.048 C 
ATOM     10  C   UNL A   1      31.819  26.662  24.064  1.00  0.00    -0.014 C 
BRANCH   7  11
ATOM     11  N   UNL A   1      30.235  24.202  25.894  1.00  0.00    -0.332 N 
ATOM     12  N   UNL A   1      31.307  22.191  26.700  1.00  0.00    -0.308 N 
ATOM     13  C   UNL A   1      30.309  23.130  26.726  1.00  0.00     0.319 C 
ATOM     14  H   UNL A   1      31.233  21.521  27.417  1.00  0.00     0.171 HD
ATOM     15  O   UNL A   1      29.478  23.065  27.638  1.00  0.00    -0.248 OA
ATOM     16  H   UNL A   1      29.484  24.819  26.055  1.00  0.00     0.165 HD
BRANCH  12  17
ATOM     17  C   UNL A   1      32.425  21.986  25.852  1.00  0.00     0.046 A 
ATOM     18  C   UNL A   1      34.319  22.524  23.868  1.00  0.00     0.119 A 
ATOM     19  C   UNL A   1      33.196  21.772  23.560  1.00  0.00     0.048 A 
ATOM     20  C   UNL A   1      34.625  22.761  25.208  1.00  0.00     0.052 A 
ATOM     21  C   UNL A   1      32.286  21.440  24.575  1.00  0.00     0.030 A 
ATOM     22  C   UNL A   1      33.687  22.475  26.224  1.00  0.00    -0.024 A 
ATOM     23  C   UNL A   1      34.095  22.671  27.655  1.00  0.00     0.047 C 
BRANCH  18  24
ATOM     24  O   UNL A   1      35.194  22.942  22.904  1.00  0.00    -0.497 OA
ATOM     25  C   UNL A   1      36.559  22.898  23.338  1.00  0.00     0.278 C 
ENDBRANCH  18  24
ENDBRANCH  12  17
ENDBRANCH   7  11
ENDBRANCH   4   6
ENDBRANCH   3   4
ENDBRANCH   2   3
ENDBRANCH   1   2
BRANCH   1  26
ATOM     26  O   UNL A   1      30.673  29.630  24.589  1.00  0.00    -0.374 OA
BRANCH  26  27
ATOM     27  C   UNL A   1      31.482  30.380  25.476  1.00  0.00     0.202 C 
BRANCH  27  28
ATOM     28  C   UNL A   1      31.805  29.622  26.770  1.00  0.00     0.261 C 
BRANCH  28  29
ATOM     29  O   UNL A   1      33.077  30.063  27.302  1.00  0.00    -0.460 OA
BRANCH  29  30
ATOM     30  C   UNL A   1      34.119  29.191  27.173  1.00  0.00     0.338 C 
ATOM     31  O   UNL A   1      34.022  28.036  26.792  1.00  0.00    -0.246 OA
BRANCH  30  32
ATOM     32  C   UNL A   1      35.350  29.763  27.800  1.00  0.00     0.060 A 
ATOM     33  C   UNL A   1      36.498  30.035  27.028  1.00  0.00     0.016 A 
ATOM     34  C   UNL A   1      35.460  29.704  29.181  1.00  0.00     0.016 A 
ATOM     35  C   UNL A   1      37.778  30.067  27.626  1.00  0.00     0.010 A 
ATOM     36  C   UNL A   1      36.719  29.601  29.732  1.00  0.00     0.010 A 
ATOM     37  C   UNL A   1      37.900  29.750  28.975  1.00  0.00    -0.014 A 
BRANCH  37  38
ATOM     38  C   UNL A   1      39.133  29.474  29.745  1.00  0.00     0.031 A 
ATOM     39  C   UNL A   1      39.906  28.256  29.356  1.00  0.00     0.074 A 
ATOM     40  C   UNL A   1      39.787  30.414  30.480  1.00  0.00     0.049 A 
ATOM     41  N   UNL A   1      41.055  27.939  29.843  1.00  0.00    -0.248 NA
ATOM     42  C   UNL A   1      39.426  27.262  28.397  1.00  0.00     0.031 C 
ATOM     43  C   UNL A   1      41.253  30.573  30.543  1.00  0.00     0.029 A 
ATOM     44  N   UNL A   1      39.335  31.497  31.253  1.00  0.00    -0.354 N 
ATOM     45  C   UNL A   1      41.604  26.964  29.048  1.00  0.00     0.074 A 
ATOM     46  C   UNL A   1      40.502  26.482  28.256  1.00  0.00     0.031 C 
ATOM     47  C   UNL A   1      41.583  31.494  31.455  1.00  0.00     0.029 A 
ATOM     48  C   UNL A   1      40.374  31.837  32.162  1.00  0.00     0.049 A 
ATOM     49  H   UNL A   1      38.459  31.939  31.179  1.00  0.00     0.167 HD
ATOM     50  C   UNL A   1      42.954  26.773  29.110  1.00  0.00     0.037 A 
ATOM     51  C   UNL A   1      40.195  31.798  33.514  1.00  0.00     0.037 A 
ATOM     52  C   UNL A   1      43.548  27.573  30.191  1.00  0.00     0.049 A 
ATOM     53  C   UNL A   1      41.079  30.774  34.184  1.00  0.00     0.074 A 
ATOM     54  C   UNL A   1      44.371  28.681  30.282  1.00  0.00     0.029 A 
ATOM     55  N   UNL A   1      43.083  27.353  31.473  1.00  0.00    -0.354 N 
ATOM     56  N   UNL A   1      42.014  30.119  33.554  1.00  0.00    -0.248 NA
ATOM     57  C   UNL A   1      40.925  30.318  35.562  1.00  0.00     0.031 C 
ATOM     58  C   UNL A   1      44.401  29.096  31.654  1.00  0.00     0.029 A 
ATOM     59  C   UNL A   1      43.622  28.221  32.394  1.00  0.00     0.049 A 
ATOM     60  H   UNL A   1      42.434  26.649  31.704  1.00  0.00     0.167 HD
ATOM     61  C   UNL A   1      42.428  29.065  34.311  1.00  0.00     0.074 A 
ATOM     62  C   UNL A   1      41.757  29.259  35.585  1.00  0.00     0.031 C 
ATOM     63  C   UNL A   1      43.220  28.081  33.791  1.00  0.00     0.037 A 
BRANCH  50  64
ATOM     64  C   UNL A   1      43.802  25.930  28.179  1.00  0.00     0.064 A 
ATOM     65  C   UNL A   1      44.298  24.682  28.626  1.00  0.00     0.173 A 
ATOM     66  C   UNL A   1      44.220  26.285  26.879  1.00  0.00     0.173 A 
ATOM     67  F   UNL A   1      43.972  24.191  29.830  1.00  0.00    -0.203 F 
ATOM     68  C   UNL A   1      45.153  23.887  27.857  1.00  0.00     0.198 A 
ATOM     69  C   UNL A   1      45.040  25.468  26.095  1.00  0.00     0.198 A 
ATOM     70  F   UNL A   1      43.896  27.447  26.312  1.00  0.00    -0.203 F 
ATOM     71  F   UNL A   1      45.623  22.738  28.363  1.00  0.00    -0.200 F 
ATOM     72  C   UNL A   1      45.520  24.277  26.588  1.00  0.00     0.200 A 
ATOM     73  F   UNL A   1      45.377  25.863  24.858  1.00  0.00    -0.200 F 
ATOM     74  F   UNL A   1      46.338  23.516  25.850  1.00  0.00    -0.200 F 
ENDBRANCH  50  64
BRANCH  51  75
ATOM     75  C   UNL A   1      38.797  32.178  33.868  1.00  0.00     0.064 A 
ATOM     76  C   UNL A   1      38.488  33.545  33.713  1.00  0.00     0.173 A 
ATOM     77  C   UNL A   1      37.772  31.245  33.651  1.00  0.00     0.173 A 
ATOM     78  F   UNL A   1      39.433  34.474  33.930  1.00  0.00    -0.203 F 
ATOM     79  C   UNL A   1      37.290  33.940  33.123  1.00  0.00     0.198 A 
ATOM     80  C   UNL A   1      36.573  31.649  33.062  1.00  0.00     0.198 A 
ATOM     81  F   UNL A   1      38.015  29.933  33.792  1.00  0.00    -0.203 F 
ATOM     82  F   UNL A   1      37.100  35.226  32.794  1.00  0.00    -0.200 F 
ATOM     83  C   UNL A   1      36.359  32.985  32.747  1.00  0.00     0.200 A 
ATOM     84  F   UNL A   1      35.679  30.729  32.672  1.00  0.00    -0.200 F 
ATOM     85  F   UNL A   1      35.295  33.342  32.013  1.00  0.00    -0.200 F 
ENDBRANCH  51  75
BRANCH  63  86
ATOM     86  C   UNL A   1      43.621  26.855  34.565  1.00  0.00     0.064 A 
ATOM     87  C   UNL A   1      44.960  26.584  34.876  1.00  0.00     0.173 A 
ATOM     88  C   UNL A   1      42.687  25.863  34.943  1.00  0.00     0.173 A 
ATOM     89  F   UNL A   1      45.936  27.419  34.490  1.00  0.00    -0.203 F 
ATOM     90  C   UNL A   1      45.330  25.435  35.578  1.00  0.00     0.198 A 
ATOM     91  C   UNL A   1      43.067  24.686  35.580  1.00  0.00     0.198 A 
ATOM     92  F   UNL A   1      41.371  26.013  34.748  1.00  0.00    -0.203 F 
ATOM     93  F   UNL A   1      46.611  25.254  35.924  1.00  0.00    -0.200 F 
ATOM     94  C   UNL A   1      44.386  24.482  35.920  1.00  0.00     0.200 A 
ATOM     95  F   UNL A   1      42.141  23.762  35.873  1.00  0.00    -0.200 F 
ATOM     96  F   UNL A   1      44.745  23.374  36.580  1.00  0.00    -0.200 F 
ENDBRANCH  63  86
ENDBRANCH  37  38
ENDBRANCH  30  32
ENDBRANCH  29  30
ENDBRANCH  28  29
ENDBRANCH  27  28
ENDBRANCH  26  27
ENDBRANCH   1  26
TORSDOF 17
ENDMDL
MODEL 2
REMARK VINA RESULT:     -12.1      2.206      3.028
REMARK SMILES COc1ccc(NC(=O)N[C@@H]2C=C[C@H](C(=O)OCCOCCOC(=O)c3ccc(-c4c5nc(c(-c6c(F)c(F)c(F)c(F)c6F)c6ccc([nH]6)c(-c6c(F)c(F)c(F)c(F)c6F)c6nc(c(-c7c(F)c(F)c(F)c(F)c7F)c7ccc4[nH]7)C=C6)C=C5)cc3)C2)c(C)c1
REMARK SMILES IDX 19 1 18 2 17 3 15 4 16 5 14 6 11 7 12 8 89 9 13 10 10 11
REMARK SMILES IDX 7 12 8 13 9 15 6 17 3 18 4 19 92 20 5 21 90 22 91 23 2 24
REMARK SMILES IDX 1 25 20 26 21 27 22 28 23 29 24 30 25 31 26 32 27 33 88 34
REMARK SMILES IDX 28 35 87 36 29 37 30 38 31 39 81 40 32 41 86 42 80 43 82 44
REMARK SMILES IDX 33 45 85 46 79 47 78 48 34 50 66 51 46 52 65 53 47 54 50 55
REMARK SMILES IDX 64 56 83 57 48 58 49 59 63 61 84 62 51 63 35 64 36 65 44 66
REMARK SMILES IDX 37 67 38 68 42 69 45 70 39 71 40 72 43 73 41 74 67 75 68 76
REMARK SMILES IDX 76 77 69 78 70 79 74 80 77 81 71 82 72 83 75 84 73 85 52 86
REMARK SMILES IDX 53 87 61 88 54 89 55 90 59 91 62 92 56 93 57 94 60 95 58 96
REMARK H PARENT 7 14 10 16 82 49 50 60
REMARK Flexibility Score: inf
ROOT
ATOM      1  C   UNL A   1      31.305  28.573  24.347  1.00  0.00     0.202 C 
ENDROOT
BRANCH   1   2
ATOM      2  C   UNL A   1      32.448  27.777  23.758  1.00  0.00     0.261 C 
BRANCH   2   3
ATOM      3  O   UNL A   1      32.026  26.747  22.855  1.00  0.00    -0.463 OA
BRANCH   3   4
ATOM      4  C   UNL A   1      32.884  25.783  22.382  1.00  0.00     0.312 C 
ATOM      5  O   UNL A   1      33.892  25.927  21.729  1.00  0.00    -0.252 OA
BRANCH   4   6
ATOM      6  C   UNL A   1      32.477  24.461  22.979  1.00  0.00     0.124 C 
ATOM      7  C   UNL A   1      34.254  23.662  24.431  1.00  0.00     0.107 C 
ATOM      8  C   UNL A   1      34.430  23.213  23.020  1.00  0.00    -0.006 C 
ATOM      9  C   UNL A   1      32.892  24.360  24.450  1.00  0.00     0.048 C 
ATOM     10  C   UNL A   1      33.388  23.522  22.251  1.00  0.00    -0.014 C 
BRANCH   7  11
ATOM     11  N   UNL A   1      35.452  24.279  24.911  1.00  0.00    -0.332 N 
ATOM     12  N   UNL A   1      36.370  22.494  26.259  1.00  0.00    -0.308 N 
ATOM     13  C   UNL A   1      36.391  23.767  25.751  1.00  0.00     0.319 C 
ATOM     14  H   UNL A   1      37.163  22.275  26.798  1.00  0.00     0.171 HD
ATOM     15  O   UNL A   1      37.385  24.464  25.979  1.00  0.00    -0.248 OA
ATOM     16  H   UNL A   1      35.619  25.196  24.591  1.00  0.00     0.165 HD
BRANCH  12  17
ATOM     17  C   UNL A   1      35.440  21.428  26.166  1.00  0.00     0.046 A 
ATOM     18  C   UNL A   1      33.239  19.966  25.254  1.00  0.00     0.119 A 
ATOM     19  C   UNL A   1      33.114  20.765  26.380  1.00  0.00     0.048 A 
ATOM     20  C   UNL A   1      34.513  19.687  24.763  1.00  0.00     0.052 A 
ATOM     21  C   UNL A   1      34.240  21.437  26.880  1.00  0.00     0.030 A 
ATOM     22  C   UNL A   1      35.639  20.402  25.229  1.00  0.00    -0.024 A 
ATOM     23  C   UNL A   1      36.998  20.008  24.729  1.00  0.00     0.047 C 
BRANCH  18  24
ATOM     24  O   UNL A   1      32.158  19.355  24.682  1.00  0.00    -0.497 OA
ATOM     25  C   UNL A   1      32.517  18.520  23.573  1.00  0.00     0.278 C 
ENDBRANCH  18  24
ENDBRANCH  12  17
ENDBRANCH   7  11
ENDBRANCH   4   6
ENDBRANCH   3   4
ENDBRANCH   2   3
ENDBRANCH   1   2
BRANCH   1  26
ATOM     26  O   UNL A   1      31.863  29.596  25.150  1.00  0.00    -0.374 OA
BRANCH  26  27
ATOM     27  C   UNL A   1      32.440  29.197  26.379  1.00  0.00     0.202 C 
BRANCH  27  28
ATOM     28  C   UNL A   1      32.731  30.380  27.310  1.00  0.00     0.261 C 
BRANCH  28  29
ATOM     29  O   UNL A   1      33.980  31.011  26.942  1.00  0.00    -0.460 OA
BRANCH  29  30
ATOM     30  C   UNL A   1      34.788  31.394  27.972  1.00  0.00     0.338 C 
ATOM     31  O   UNL A   1      34.859  32.525  28.424  1.00  0.00    -0.246 OA
BRANCH  30  32
ATOM     32  C   UNL A   1      35.755  30.302  28.302  1.00  0.00     0.060 A 
ATOM     33  C   UNL A   1      35.884  29.820  29.621  1.00  0.00     0.016 A 
ATOM     34  C   UNL A   1      36.746  30.013  27.375  1.00  0.00     0.016 A 
ATOM     35  C   UNL A   1      37.082  29.208  30.052  1.00  0.00     0.010 A 
ATOM     36  C   UNL A   1      37.956  29.543  27.838  1.00  0.00     0.010 A 
ATOM     37  C   UNL A   1      38.165  29.158  29.179  1.00  0.00    -0.014 A 
BRANCH  37  38
ATOM     38  C   UNL A   1      39.570  28.805  29.479  1.00  0.00     0.031 A 
ATOM     39  C   UNL A   1      40.000  27.417  29.134  1.00  0.00     0.074 A 
ATOM     40  C   UNL A   1      40.551  29.728  29.673  1.00  0.00     0.049 A 
ATOM     41  N   UNL A   1      41.211  26.989  29.222  1.00  0.00    -0.248 NA
ATOM     42  C   UNL A   1      39.082  26.370  28.687  1.00  0.00     0.031 C 
ATOM     43  C   UNL A   1      41.927  29.625  29.149  1.00  0.00     0.029 A 
ATOM     44  N   UNL A   1      40.555  30.997  30.276  1.00  0.00    -0.354 N 
ATOM     45  C   UNL A   1      41.298  25.803  28.536  1.00  0.00     0.074 A 
ATOM     46  C   UNL A   1      39.930  25.395  28.348  1.00  0.00     0.031 C 
ATOM     47  C   UNL A   1      42.683  30.621  29.626  1.00  0.00     0.029 A 
ATOM     48  C   UNL A   1      41.899  31.300  30.626  1.00  0.00     0.049 A 
ATOM     49  H   UNL A   1      39.770  31.571  30.429  1.00  0.00     0.167 HD
ATOM     50  C   UNL A   1      42.534  25.383  28.137  1.00  0.00     0.037 A 
ATOM     51  C   UNL A   1      42.275  31.541  31.916  1.00  0.00     0.037 A 
ATOM     52  C   UNL A   1      43.586  26.243  28.697  1.00  0.00     0.049 A 
ATOM     53  C   UNL A   1      43.250  30.512  32.434  1.00  0.00     0.074 A 
ATOM     54  C   UNL A   1      44.480  27.181  28.210  1.00  0.00     0.029 A 
ATOM     55  N   UNL A   1      43.657  26.348  30.073  1.00  0.00    -0.354 N 
ATOM     56  N   UNL A   1      43.786  29.594  31.678  1.00  0.00    -0.248 NA
ATOM     57  C   UNL A   1      43.619  30.348  33.837  1.00  0.00     0.031 C 
ATOM     58  C   UNL A   1      45.098  27.825  29.332  1.00  0.00     0.029 A 
ATOM     59  C   UNL A   1      44.601  27.256  30.493  1.00  0.00     0.049 A 
ATOM     60  H   UNL A   1      43.090  25.828  30.688  1.00  0.00     0.167 HD
ATOM     61  C   UNL A   1      44.365  28.637  32.455  1.00  0.00     0.074 A 
ATOM     62  C   UNL A   1      44.284  29.177  33.802  1.00  0.00     0.031 C 
ATOM     63  C   UNL A   1      44.783  27.447  31.930  1.00  0.00     0.037 A 
BRANCH  50  64
ATOM     64  C   UNL A   1      42.851  24.245  27.188  1.00  0.00     0.064 A 
ATOM     65  C   UNL A   1      42.562  22.915  27.574  1.00  0.00     0.173 A 
ATOM     66  C   UNL A   1      43.481  24.358  25.931  1.00  0.00     0.173 A 
ATOM     67  F   UNL A   1      41.943  22.641  28.731  1.00  0.00    -0.203 F 
ATOM     68  C   UNL A   1      42.900  21.808  26.790  1.00  0.00     0.198 A 
ATOM     69  C   UNL A   1      43.779  23.252  25.128  1.00  0.00     0.198 A 
ATOM     70  F   UNL A   1      43.876  25.527  25.426  1.00  0.00    -0.203 F 
ATOM     71  F   UNL A   1      42.639  20.572  27.239  1.00  0.00    -0.200 F 
ATOM     72  C   UNL A   1      43.504  21.976  25.563  1.00  0.00     0.200 A 
ATOM     73  F   UNL A   1      44.357  23.441  23.932  1.00  0.00    -0.200 F 
ATOM     74  F   UNL A   1      43.827  20.917  24.810  1.00  0.00    -0.200 F 
ENDBRANCH  50  64
BRANCH  51  75
ATOM     75  C   UNL A   1      41.181  32.227  32.661  1.00  0.00     0.064 A 
ATOM     76  C   UNL A   1      40.863  33.522  32.204  1.00  0.00     0.173 A 
ATOM     77  C   UNL A   1      40.146  31.449  33.202  1.00  0.00     0.173 A 
ATOM     78  F   UNL A   1      41.826  34.309  31.698  1.00  0.00    -0.203 F 
ATOM     79  C   UNL A   1      39.535  33.919  32.059  1.00  0.00     0.198 A 
ATOM     80  C   UNL A   1      38.819  31.854  33.054  1.00  0.00     0.198 A 
ATOM     81  F   UNL A   1      40.400  30.213  33.655  1.00  0.00    -0.203 F 
ATOM     82  F   UNL A   1      39.247  35.068  31.432  1.00  0.00    -0.200 F 
ATOM     83  C   UNL A   1      38.515  33.059  32.432  1.00  0.00     0.200 A 
ATOM     84  F   UNL A   1      37.825  31.018  33.389  1.00  0.00    -0.200 F 
ATOM     85  F   UNL A   1      37.245  33.356  32.123  1.00  0.00    -0.200 F 
ENDBRANCH  51  75
BRANCH  63  86
ATOM     86  C   UNL A   1      45.340  26.330  32.768  1.00  0.00     0.064 A 
ATOM     87  C   UNL A   1      46.683  25.940  32.680  1.00  0.00     0.173 A 
ATOM     88  C   UNL A   1      44.526  25.550  33.622  1.00  0.00     0.173 A 
ATOM     89  F   UNL A   1      47.523  26.560  31.838  1.00  0.00    -0.203 F 
ATOM     90  C   UNL A   1      47.192  24.890  33.446  1.00  0.00     0.198 A 
ATOM     91  C   UNL A   1      45.021  24.459  34.330  1.00  0.00     0.198 A 
ATOM     92  F   UNL A   1      43.236  25.837  33.834  1.00  0.00    -0.203 F 
ATOM     93  F   UNL A   1      48.499  24.602  33.391  1.00  0.00    -0.200 F 
ATOM     94  C   UNL A   1      46.359  24.143  34.262  1.00  0.00     0.200 A 
ATOM     95  F   UNL A   1      44.189  23.730  35.089  1.00  0.00    -0.200 F 
ATOM     96  F   UNL A   1      46.847  23.127  34.984  1.00  0.00    -0.200 F 
ENDBRANCH  63  86
ENDBRANCH  37  38
ENDBRANCH  30  32
ENDBRANCH  29  30
ENDBRANCH  28  29
ENDBRANCH  27  28
ENDBRANCH  26  27
ENDBRANCH   1  26
TORSDOF 17
ENDMDL
MODEL 3
REMARK VINA RESULT:     -12.1      1.795      2.564
REMARK SMILES COc1ccc(NC(=O)N[C@@H]2C=C[C@H](C(=O)OCCOCCOC(=O)c3ccc(-c4c5nc(c(-c6c(F)c(F)c(F)c(F)c6F)c6ccc([nH]6)c(-c6c(F)c(F)c(F)c(F)c6F)c6nc(c(-c7c(F)c(F)c(F)c(F)c7F)c7ccc4[nH]7)C=C6)C=C5)cc3)C2)c(C)c1
REMARK SMILES IDX 19 1 18 2 17 3 15 4 16 5 14 6 11 7 12 8 89 9 13 10 10 11
REMARK SMILES IDX 7 12 8 13 9 15 6 17 3 18 4 19 92 20 5 21 90 22 91 23 2 24
REMARK SMILES IDX 1 25 20 26 21 27 22 28 23 29 24 30 25 31 26 32 27 33 88 34
REMARK SMILES IDX 28 35 87 36 29 37 30 38 31 39 81 40 32 41 86 42 80 43 82 44
REMARK SMILES IDX 33 45 85 46 79 47 78 48 34 50 66 51 46 52 65 53 47 54 50 55
REMARK SMILES IDX 64 56 83 57 48 58 49 59 63 61 84 62 51 63 35 64 36 65 44 66
REMARK SMILES IDX 37 67 38 68 42 69 45 70 39 71 40 72 43 73 41 74 67 75 68 76
REMARK SMILES IDX 76 77 69 78 70 79 74 80 77 81 71 82 72 83 75 84 73 85 52 86
REMARK SMILES IDX 53 87 61 88 54 89 55 90 59 91 62 92 56 93 57 94 60 95 58 96
REMARK H PARENT 7 14 10 16 82 49 50 60
REMARK Flexibility Score: inf
ROOT
ATOM      1  C   UNL A   1      31.407  30.257  25.275  1.00  0.00     0.202 C 
ENDROOT
BRANCH   1   2
ATOM      2  C   UNL A   1      30.507  29.743  24.174  1.00  0.00     0.261 C 
BRANCH   2   3
ATOM      3  O   UNL A   1      30.990  28.548  23.548  1.00  0.00    -0.463 OA
BRANCH   3   4
ATOM      4  C   UNL A   1      30.230  27.407  23.449  1.00  0.00     0.312 C 
ATOM      5  O   UNL A   1      29.032  27.287  23.568  1.00  0.00    -0.252 OA
BRANCH   4   6
ATOM      6  C   UNL A   1      31.119  26.295  22.957  1.00  0.00     0.124 C 
ATOM      7  C   UNL A   1      31.048  24.456  24.544  1.00  0.00     0.107 C 
ATOM      8  C   UNL A   1      32.111  25.448  24.873  1.00  0.00    -0.006 C 
ATOM      9  C   UNL A   1      30.485  24.921  23.199  1.00  0.00     0.048 C 
ATOM     10  C   UNL A   1      32.252  26.378  23.930  1.00  0.00    -0.014 C 
BRANCH   7  11
ATOM     11  N   UNL A   1      30.226  24.207  25.689  1.00  0.00    -0.332 N 
ATOM     12  N   UNL A   1      31.383  22.326  26.672  1.00  0.00    -0.308 N 
ATOM     13  C   UNL A   1      30.359  23.237  26.631  1.00  0.00     0.319 C 
ATOM     14  H   UNL A   1      31.353  21.738  27.461  1.00  0.00     0.171 HD
ATOM     15  O   UNL A   1      29.562  23.253  27.575  1.00  0.00    -0.248 OA
ATOM     16  H   UNL A   1      29.464  24.819  25.809  1.00  0.00     0.165 HD
BRANCH  12  17
ATOM     17  C   UNL A   1      32.476  22.055  25.811  1.00  0.00     0.046 A 
ATOM     18  C   UNL A   1      34.400  22.495  23.831  1.00  0.00     0.119 A 
ATOM     19  C   UNL A   1      33.218  21.846  23.508  1.00  0.00     0.048 A 
ATOM     20  C   UNL A   1      34.730  22.667  25.174  1.00  0.00     0.052 A 
ATOM     21  C   UNL A   1      32.288  21.559  24.520  1.00  0.00     0.030 A 
ATOM     22  C   UNL A   1      33.776  22.429  26.188  1.00  0.00    -0.024 A 
ATOM     23  C   UNL A   1      34.205  22.550  27.621  1.00  0.00     0.047 C 
BRANCH  18  24
ATOM     24  O   UNL A   1      35.301  22.868  22.873  1.00  0.00    -0.497 OA
ATOM     25  C   UNL A   1      36.658  22.780  23.325  1.00  0.00     0.278 C 
ENDBRANCH  18  24
ENDBRANCH  12  17
ENDBRANCH   7  11
ENDBRANCH   4   6
ENDBRANCH   3   4
ENDBRANCH   2   3
ENDBRANCH   1   2
BRANCH   1  26
ATOM     26  O   UNL A   1      31.892  29.139  25.992  1.00  0.00    -0.374 OA
BRANCH  26  27
ATOM     27  C   UNL A   1      32.578  29.406  27.201  1.00  0.00     0.202 C 
BRANCH  27  28
ATOM     28  C   UNL A   1      33.058  30.859  27.303  1.00  0.00     0.261 C 
BRANCH  28  29
ATOM     29  O   UNL A   1      34.470  30.941  26.996  1.00  0.00    -0.460 OA
BRANCH  29  30
ATOM     30  C   UNL A   1      35.294  31.275  28.031  1.00  0.00     0.338 C 
ATOM     31  O   UNL A   1      35.422  32.399  28.488  1.00  0.00    -0.246 OA
BRANCH  30  32
ATOM     32  C   UNL A   1      36.200  30.132  28.358  1.00  0.00     0.060 A 
ATOM     33  C   UNL A   1      36.271  29.614  29.668  1.00  0.00     0.016 A 
ATOM     34  C   UNL A   1      37.201  29.819  27.449  1.00  0.00     0.016 A 
ATOM     35  C   UNL A   1      37.429  28.937  30.113  1.00  0.00     0.010 A 
ATOM     36  C   UNL A   1      38.375  29.282  27.931  1.00  0.00     0.010 A 
ATOM     37  C   UNL A   1      38.531  28.856  29.267  1.00  0.00    -0.014 A 
BRANCH  37  38
ATOM     38  C   UNL A   1      39.909  28.432  29.594  1.00  0.00     0.031 A 
ATOM     39  C   UNL A   1      40.311  27.063  29.151  1.00  0.00     0.074 A 
ATOM     40  C   UNL A   1      40.910  29.301  29.905  1.00  0.00     0.049 A 
ATOM     41  N   UNL A   1      41.503  26.588  29.252  1.00  0.00    -0.248 NA
ATOM     42  C   UNL A   1      39.381  26.089  28.580  1.00  0.00     0.031 C 
ATOM     43  C   UNL A   1      42.303  29.194  29.431  1.00  0.00     0.029 A 
ATOM     44  N   UNL A   1      40.926  30.514  30.613  1.00  0.00    -0.354 N 
ATOM     45  C   UNL A   1      41.583  25.460  28.473  1.00  0.00     0.074 A 
ATOM     46  C   UNL A   1      40.213  25.117  28.195  1.00  0.00     0.031 C 
ATOM     47  C   UNL A   1      43.068  30.120  30.021  1.00  0.00     0.029 A 
ATOM     48  C   UNL A   1      42.263  30.741  31.042  1.00  0.00     0.049 A 
ATOM     49  H   UNL A   1      40.154  31.101  30.781  1.00  0.00     0.167 HD
ATOM     50  C   UNL A   1      42.821  25.032  28.091  1.00  0.00     0.037 A 
ATOM     51  C   UNL A   1      42.589  30.860  32.362  1.00  0.00     0.037 A 
ATOM     52  C   UNL A   1      43.875  25.806  28.764  1.00  0.00     0.049 A 
ATOM     53  C   UNL A   1      43.508  29.759  32.831  1.00  0.00     0.074 A 
ATOM     54  C   UNL A   1      44.818  26.750  28.395  1.00  0.00     0.029 A 
ATOM     55  N   UNL A   1      43.888  25.794  30.145  1.00  0.00    -0.354 N 
ATOM     56  N   UNL A   1      44.048  28.888  32.023  1.00  0.00    -0.248 NA
ATOM     57  C   UNL A   1      43.810  29.467  34.229  1.00  0.00     0.031 C 
ATOM     58  C   UNL A   1      45.406  27.276  29.592  1.00  0.00     0.029 A 
ATOM     59  C   UNL A   1      44.841  26.631  30.679  1.00  0.00     0.049 A 
ATOM     60  H   UNL A   1      43.279  25.245  30.691  1.00  0.00     0.167 HD
ATOM     61  C   UNL A   1      44.562  27.851  32.740  1.00  0.00     0.074 A 
ATOM     62  C   UNL A   1      44.439  28.280  34.122  1.00  0.00     0.031 C 
ATOM     63  C   UNL A   1      44.965  26.695  32.133  1.00  0.00     0.037 A 
BRANCH  50  64
ATOM     64  C   UNL A   1      43.145  23.967  27.063  1.00  0.00     0.064 A 
ATOM     65  C   UNL A   1      42.759  22.627  27.303  1.00  0.00     0.173 A 
ATOM     66  C   UNL A   1      43.867  24.154  25.866  1.00  0.00     0.173 A 
ATOM     67  F   UNL A   1      42.045  22.288  28.386  1.00  0.00    -0.203 F 
ATOM     68  C   UNL A   1      43.092  21.576  26.443  1.00  0.00     0.198 A 
ATOM     69  C   UNL A   1      44.162  23.108  24.985  1.00  0.00     0.198 A 
ATOM     70  F   UNL A   1      44.358  25.338  25.499  1.00  0.00    -0.203 F 
ATOM     71  F   UNL A   1      42.735  20.322  26.758  1.00  0.00    -0.200 F 
ATOM     72  C   UNL A   1      43.790  21.817  25.280  1.00  0.00     0.200 A 
ATOM     73  F   UNL A   1      44.833  23.368  23.853  1.00  0.00    -0.200 F 
ATOM     74  F   UNL A   1      44.109  20.812  24.455  1.00  0.00    -0.200 F 
ENDBRANCH  50  64
BRANCH  51  75
ATOM     75  C   UNL A   1      41.485  31.519  33.117  1.00  0.00     0.064 A 
ATOM     76  C   UNL A   1      41.316  32.895  32.855  1.00  0.00     0.173 A 
ATOM     77  C   UNL A   1      40.344  30.767  33.433  1.00  0.00     0.173 A 
ATOM     78  F   UNL A   1      42.383  33.658  32.568  1.00  0.00    -0.203 F 
ATOM     79  C   UNL A   1      40.044  33.432  32.668  1.00  0.00     0.198 A 
ATOM     80  C   UNL A   1      39.074  31.312  33.245  1.00  0.00     0.198 A 
ATOM     81  F   UNL A   1      40.455  29.456  33.696  1.00  0.00    -0.203 F 
ATOM     82  F   UNL A   1      39.910  34.687  32.218  1.00  0.00    -0.200 F 
ATOM     83  C   UNL A   1      38.928  32.623  32.808  1.00  0.00     0.200 A 
ATOM     84  F   UNL A   1      37.990  30.530  33.353  1.00  0.00    -0.200 F 
ATOM     85  F   UNL A   1      37.721  33.083  32.447  1.00  0.00    -0.200 F 
ENDBRANCH  51  75
BRANCH  63  86
ATOM     86  C   UNL A   1      45.450  25.494  32.897  1.00  0.00     0.064 A 
ATOM     87  C   UNL A   1      44.582  24.465  33.283  1.00  0.00     0.173 A 
ATOM     88  C   UNL A   1      46.785  25.376  33.348  1.00  0.00     0.173 A 
ATOM     89  F   UNL A   1      43.277  24.518  32.979  1.00  0.00    -0.203 F 
ATOM     90  C   UNL A   1      45.032  23.360  34.009  1.00  0.00     0.198 A 
ATOM     91  C   UNL A   1      47.215  24.310  34.132  1.00  0.00     0.198 A 
ATOM     92  F   UNL A   1      47.730  26.264  33.015  1.00  0.00    -0.203 F 
ATOM     93  F   UNL A   1      44.185  22.361  34.289  1.00  0.00    -0.200 F 
ATOM     94  C   UNL A   1      46.345  23.288  34.442  1.00  0.00     0.200 A 
ATOM     95  F   UNL A   1      48.483  24.277  34.567  1.00  0.00    -0.200 F 
ATOM     96  F   UNL A   1      46.771  22.235  35.151  1.00  0.00    -0.200 F 
ENDBRANCH  63  86
ENDBRANCH  37  38
ENDBRANCH  30  32
ENDBRANCH  29  30
ENDBRANCH  28  29
ENDBRANCH  27  28
ENDBRANCH  26  27
ENDBRANCH   1  26
TORSDOF 17
ENDMDL
