MODEL 1
REMARK VINA RESULT:      -9.0      0.000      0.000
REMARK SMILES O=C(C[C@@H]1S/C(=[NH+]\c2ccccc2)N(CCO)C1=O)Nc1ccc(C(=O)OCCOCCOC(=O)c2ccc(-c3c4nc(c(-c5c(F)c(F)c(F)c(F)c5F)c5ccc([nH]5)c(-c5c(F)c(F)c(F)c(F)c5F)c5nc(c(-c6c(F)c(F)c(F)c(F)c6F)c6ccc3[nH]6)C=C5)C=C4)cc2)cc1
REMARK SMILES IDX 28 1 27 2 25 3 26 4 24 5 21 6 22 7 100 8 23 9 99 10 20 11
REMARK SMILES IDX 1 12 2 13 3 15 4 16 5 17 18 18 6 19 14 20 19 21 7 22 15 24
REMARK SMILES IDX 16 25 17 26 8 28 9 29 13 30 10 31 12 32 11 33 29 34 30 35
REMARK SMILES IDX 31 36 32 37 33 38 34 39 35 40 36 41 37 42 98 43 38 44 97 45
REMARK SMILES IDX 39 46 40 47 41 48 91 49 42 50 96 51 90 52 92 53 43 54 95 55
REMARK SMILES IDX 89 56 88 57 44 59 76 60 56 61 75 62 57 63 60 64 74 65 93 66
REMARK SMILES IDX 58 67 59 68 73 70 94 71 61 72 45 73 46 74 54 75 47 76 48 77
REMARK SMILES IDX 52 78 55 79 49 80 50 81 53 82 51 83 77 84 78 85 86 86 79 87
REMARK SMILES IDX 80 88 84 89 87 90 81 91 82 92 85 93 83 94 62 95 63 96 71 97
REMARK SMILES IDX 64 98 65 99 69 100 72 101 66 102 67 103 70 104 68 105
REMARK H PARENT 20 14 7 23 17 27 92 58 60 69
REMARK Flexibility Score: inf
ROOT
ATOM      1  C   UNL A   1      46.153  23.047  25.377  1.00  0.00     0.261 C 
ENDROOT
BRANCH   1   2
ATOM      2  O   UNL A   1      45.690  24.210  24.671  1.00  0.00    -0.460 OA
BRANCH   2   3
ATOM      3  C   UNL A   1      46.607  25.198  24.549  1.00  0.00     0.338 C 
ATOM      4  O   UNL A   1      47.580  25.209  23.810  1.00  0.00    -0.246 OA
BRANCH   3   5
ATOM      5  C   UNL A   1      46.197  26.382  25.334  1.00  0.00     0.060 A 
ATOM      6  C   UNL A   1      45.300  28.701  26.612  1.00  0.00     0.041 A 
ATOM      7  C   UNL A   1      44.382  27.813  26.043  1.00  0.00     0.027 A 
ATOM      8  C   UNL A   1      46.660  28.379  26.617  1.00  0.00     0.027 A 
ATOM      9  C   UNL A   1      44.830  26.673  25.382  1.00  0.00     0.018 A 
ATOM     10  C   UNL A   1      47.112  27.210  25.992  1.00  0.00     0.018 A 
BRANCH   6  11
ATOM     11  N   UNL A   1      44.777  29.900  27.126  1.00  0.00    -0.326 N 
ATOM     12  O   UNL A   1      45.543  31.428  25.557  1.00  0.00    -0.275 OA
ATOM     13  C   UNL A   1      44.924  31.161  26.583  1.00  0.00     0.226 C 
ATOM     14  H   UNL A   1      44.252  29.835  27.956  1.00  0.00     0.169 HD
BRANCH  13  15
ATOM     15  C   UNL A   1      44.229  32.265  27.367  1.00  0.00     0.128 C 
BRANCH  15  16
ATOM     16  C   UNL A   1      44.200  33.595  26.617  1.00  0.00     0.183 C 
ATOM     17  S   UNL A   1      45.888  34.117  26.177  1.00  0.00    -0.022 SA
ATOM     18  C   UNL A   1      43.688  34.702  27.522  1.00  0.00     0.324 C 
ATOM     19  C   UNL A   1      45.827  35.561  27.143  1.00  0.00     0.319 C 
ATOM     20  N   UNL A   1      44.599  35.707  27.725  1.00  0.00    -0.188 N 
ATOM     21  O   UNL A   1      42.581  34.652  28.057  1.00  0.00    -0.245 OA
ATOM     22  N   UNL A   1      46.764  36.418  27.371  1.00  0.00    -0.235 N 
ATOM     23  H   UNL A   1      46.573  37.192  27.949  1.00  0.00     0.313 HD
BRANCH  20  24
ATOM     24  C   UNL A   1      44.283  36.826  28.616  1.00  0.00     0.275 C 
BRANCH  24  25
ATOM     25  C   UNL A   1      43.337  37.830  27.947  1.00  0.00     0.202 C 
BRANCH  25  26
ATOM     26  O   UNL A   1      43.779  38.219  26.648  1.00  0.00    -0.392 OA
ATOM     27  H   UNL A   1      43.631  37.491  26.024  1.00  0.00     0.210 HD
ENDBRANCH  25  26
ENDBRANCH  24  25
ENDBRANCH  20  24
BRANCH  22  28
ATOM     28  C   UNL A   1      48.046  36.283  26.821  1.00  0.00     0.125 A 
ATOM     29  C   UNL A   1      49.020  35.590  27.548  1.00  0.00     0.051 A 
ATOM     30  C   UNL A   1      48.411  36.910  25.627  1.00  0.00     0.051 A 
ATOM     31  C   UNL A   1      50.329  35.497  27.075  1.00  0.00     0.004 A 
ATOM     32  C   UNL A   1      49.717  36.807  25.143  1.00  0.00     0.004 A 
ATOM     33  C   UNL A   1      50.676  36.101  25.868  1.00  0.00     0.000 A 
ENDBRANCH  22  28
ENDBRANCH  15  16
ENDBRANCH  13  15
ENDBRANCH   6  11
ENDBRANCH   3   5
ENDBRANCH   2   3
ENDBRANCH   1   2
BRANCH   1  34
ATOM     34  C   UNL A   1      46.173  21.819  24.463  1.00  0.00     0.202 C 
BRANCH  34  35
ATOM     35  O   UNL A   1      46.513  20.582  25.088  1.00  0.00    -0.374 OA
BRANCH  35  36
ATOM     36  C   UNL A   1      45.852  19.411  24.603  1.00  0.00     0.202 C 
BRANCH  36  37
ATOM     37  C   UNL A   1      44.562  19.024  25.334  1.00  0.00     0.261 C 
BRANCH  37  38
ATOM     38  O   UNL A   1      43.452  19.835  24.908  1.00  0.00    -0.460 OA
BRANCH  38  39
ATOM     39  C   UNL A   1      42.427  19.912  25.786  1.00  0.00     0.338 C 
ATOM     40  O   UNL A   1      41.660  19.016  26.115  1.00  0.00    -0.246 OA
BRANCH  39  41
ATOM     41  C   UNL A   1      42.446  21.221  26.463  1.00  0.00     0.060 A 
ATOM     42  C   UNL A   1      42.586  22.361  25.661  1.00  0.00     0.016 A 
ATOM     43  C   UNL A   1      42.394  21.334  27.854  1.00  0.00     0.016 A 
ATOM     44  C   UNL A   1      42.727  23.615  26.248  1.00  0.00     0.010 A 
ATOM     45  C   UNL A   1      42.544  22.593  28.443  1.00  0.00     0.010 A 
ATOM     46  C   UNL A   1      42.749  23.733  27.644  1.00  0.00    -0.014 A 
BRANCH  46  47
ATOM     47  C   UNL A   1      43.142  25.022  28.261  1.00  0.00     0.031 A 
ATOM     48  C   UNL A   1      42.089  26.070  28.487  1.00  0.00     0.074 A 
ATOM     49  C   UNL A   1      44.409  25.243  28.647  1.00  0.00     0.049 A 
ATOM     50  N   UNL A   1      42.203  27.271  28.996  1.00  0.00    -0.248 NA
ATOM     51  C   UNL A   1      40.719  25.715  28.083  1.00  0.00     0.031 C 
ATOM     52  C   UNL A   1      45.507  24.289  28.524  1.00  0.00     0.029 A 
ATOM     53  N   UNL A   1      44.983  26.349  29.223  1.00  0.00    -0.354 N 
ATOM     54  C   UNL A   1      40.924  27.814  28.972  1.00  0.00     0.074 A 
ATOM     55  C   UNL A   1      40.057  26.827  28.365  1.00  0.00     0.031 C 
ATOM     56  C   UNL A   1      46.627  24.850  29.012  1.00  0.00     0.029 A 
ATOM     57  C   UNL A   1      46.329  26.212  29.452  1.00  0.00     0.049 A 
ATOM     58  H   UNL A   1      44.477  27.163  29.451  1.00  0.00     0.167 HD
ATOM     59  C   UNL A   1      40.510  29.020  29.426  1.00  0.00     0.037 A 
ATOM     60  C   UNL A   1      47.218  27.093  29.947  1.00  0.00     0.037 A 
ATOM     61  C   UNL A   1      41.377  30.003  30.022  1.00  0.00     0.049 A 
ATOM     62  C   UNL A   1      46.751  28.464  30.361  1.00  0.00     0.074 A 
ATOM     63  C   UNL A   1      41.052  31.251  30.524  1.00  0.00     0.029 A 
ATOM     64  N   UNL A   1      42.746  29.850  30.186  1.00  0.00    -0.354 N 
ATOM     65  N   UNL A   1      45.538  28.964  30.356  1.00  0.00    -0.248 NA
ATOM     66  C   UNL A   1      47.779  29.393  30.849  1.00  0.00     0.031 C 
ATOM     67  C   UNL A   1      42.233  31.873  30.945  1.00  0.00     0.029 A 
ATOM     68  C   UNL A   1      43.286  30.992  30.755  1.00  0.00     0.049 A 
ATOM     69  H   UNL A   1      43.258  29.048  29.934  1.00  0.00     0.167 HD
ATOM     70  C   UNL A   1      45.651  30.250  30.866  1.00  0.00     0.074 A 
ATOM     71  C   UNL A   1      47.051  30.452  31.178  1.00  0.00     0.031 C 
ATOM     72  C   UNL A   1      44.682  31.177  31.064  1.00  0.00     0.037 A 
BRANCH  59  73
ATOM     73  C   UNL A   1      39.054  29.350  29.262  1.00  0.00     0.064 A 
ATOM     74  C   UNL A   1      38.181  29.399  30.359  1.00  0.00     0.173 A 
ATOM     75  C   UNL A   1      38.526  29.618  27.991  1.00  0.00     0.173 A 
ATOM     76  F   UNL A   1      38.632  29.135  31.594  1.00  0.00    -0.203 F 
ATOM     77  C   UNL A   1      36.825  29.667  30.184  1.00  0.00     0.198 A 
ATOM     78  C   UNL A   1      37.176  29.916  27.823  1.00  0.00     0.198 A 
ATOM     79  F   UNL A   1      39.317  29.588  26.908  1.00  0.00    -0.203 F 
ATOM     80  F   UNL A   1      35.999  29.649  31.239  1.00  0.00    -0.200 F 
ATOM     81  C   UNL A   1      36.325  29.930  28.918  1.00  0.00     0.200 A 
ATOM     82  F   UNL A   1      36.696  30.180  26.600  1.00  0.00    -0.200 F 
ATOM     83  F   UNL A   1      35.020  30.184  28.750  1.00  0.00    -0.200 F 
ENDBRANCH  59  73
BRANCH  60  84
ATOM     84  C   UNL A   1      48.644  26.702  30.087  1.00  0.00     0.064 A 
ATOM     85  C   UNL A   1      49.605  27.154  29.173  1.00  0.00     0.173 A 
ATOM     86  C   UNL A   1      49.074  25.873  31.133  1.00  0.00     0.173 A 
ATOM     87  F   UNL A   1      49.237  27.926  28.141  1.00  0.00    -0.203 F 
ATOM     88  C   UNL A   1      50.943  26.786  29.297  1.00  0.00     0.198 A 
ATOM     89  C   UNL A   1      50.416  25.526  31.270  1.00  0.00     0.198 A 
ATOM     90  F   UNL A   1      48.191  25.412  32.030  1.00  0.00    -0.203 F 
ATOM     91  F   UNL A   1      51.837  27.203  28.390  1.00  0.00    -0.200 F 
ATOM     92  C   UNL A   1      51.349  25.978  30.350  1.00  0.00     0.200 A 
ATOM     93  F   UNL A   1      50.806  24.754  32.294  1.00  0.00    -0.200 F 
ATOM     94  F   UNL A   1      52.638  25.631  30.472  1.00  0.00    -0.200 F 
ENDBRANCH  60  84
BRANCH  72  95
ATOM     95  C   UNL A   1      45.093  32.485  31.679  1.00  0.00     0.064 A 
ATOM     96  C   UNL A   1      44.945  32.733  33.051  1.00  0.00     0.173 A 
ATOM     97  C   UNL A   1      45.677  33.488  30.889  1.00  0.00     0.173 A 
ATOM     98  F   UNL A   1      44.378  31.813  33.847  1.00  0.00    -0.203 F 
ATOM     99  C   UNL A   1      45.346  33.946  33.606  1.00  0.00     0.198 A 
ATOM    100  C   UNL A   1      46.103  34.687  31.452  1.00  0.00     0.198 A 
ATOM    101  F   UNL A   1      45.846  33.299  29.572  1.00  0.00    -0.203 F 
ATOM    102  F   UNL A   1      45.154  34.179  34.913  1.00  0.00    -0.200 F 
ATOM    103  C   UNL A   1      45.932  34.918  32.809  1.00  0.00     0.200 A 
ATOM    104  F   UNL A   1      46.680  35.619  30.683  1.00  0.00    -0.200 F 
ATOM    105  F   UNL A   1      46.323  36.081  33.347  1.00  0.00    -0.200 F 
ENDBRANCH  72  95
ENDBRANCH  46  47
ENDBRANCH  39  41
ENDBRANCH  38  39
ENDBRANCH  37  38
ENDBRANCH  36  37
ENDBRANCH  35  36
ENDBRANCH  34  35
ENDBRANCH   1  34
TORSDOF 21
ENDMDL
MODEL 2
REMARK VINA RESULT:      -8.7      6.257     12.761
REMARK SMILES O=C(C[C@@H]1S/C(=[NH+]\c2ccccc2)N(CCO)C1=O)Nc1ccc(C(=O)OCCOCCOC(=O)c2ccc(-c3c4nc(c(-c5c(F)c(F)c(F)c(F)c5F)c5ccc([nH]5)c(-c5c(F)c(F)c(F)c(F)c5F)c5nc(c(-c6c(F)c(F)c(F)c(F)c6F)c6ccc3[nH]6)C=C5)C=C4)cc2)cc1
REMARK SMILES IDX 28 1 27 2 25 3 26 4 24 5 21 6 22 7 100 8 23 9 99 10 20 11
REMARK SMILES IDX 1 12 2 13 3 15 4 16 5 17 18 18 6 19 14 20 19 21 7 22 15 24
REMARK SMILES IDX 16 25 17 26 8 28 9 29 13 30 10 31 12 32 11 33 29 34 30 35
REMARK SMILES IDX 31 36 32 37 33 38 34 39 35 40 36 41 37 42 98 43 38 44 97 45
REMARK SMILES IDX 39 46 40 47 41 48 91 49 42 50 96 51 90 52 92 53 43 54 95 55
REMARK SMILES IDX 89 56 88 57 44 59 76 60 56 61 75 62 57 63 60 64 74 65 93 66
REMARK SMILES IDX 58 67 59 68 73 70 94 71 61 72 45 73 46 74 54 75 47 76 48 77
REMARK SMILES IDX 52 78 55 79 49 80 50 81 53 82 51 83 77 84 78 85 86 86 79 87
REMARK SMILES IDX 80 88 84 89 87 90 81 91 82 92 85 93 83 94 62 95 63 96 71 97
REMARK SMILES IDX 64 98 65 99 69 100 72 101 66 102 67 103 70 104 68 105
REMARK H PARENT 20 14 7 23 17 27 92 58 60 69
REMARK Flexibility Score: inf
ROOT
ATOM      1  C   UNL A   1      33.660  33.817  27.681  1.00  0.00     0.261 C 
ENDROOT
BRANCH   1   2
ATOM      2  O   UNL A   1      34.732  32.863  27.596  1.00  0.00    -0.460 OA
BRANCH   2   3
ATOM      3  C   UNL A   1      34.547  31.739  28.327  1.00  0.00     0.338 C 
ATOM      4  O   UNL A   1      34.822  31.576  29.506  1.00  0.00    -0.246 OA
BRANCH   3   5
ATOM      5  C   UNL A   1      33.800  30.732  27.544  1.00  0.00     0.060 A 
ATOM      6  C   UNL A   1      32.193  28.867  26.218  1.00  0.00     0.041 A 
ATOM      7  C   UNL A   1      31.761  30.189  26.363  1.00  0.00     0.027 A 
ATOM      8  C   UNL A   1      33.468  28.506  26.660  1.00  0.00     0.027 A 
ATOM      9  C   UNL A   1      32.548  31.111  27.048  1.00  0.00     0.018 A 
ATOM     10  C   UNL A   1      34.283  29.441  27.309  1.00  0.00     0.018 A 
BRANCH   6  11
ATOM     11  N   UNL A   1      31.275  27.967  25.650  1.00  0.00    -0.326 N 
ATOM     12  O   UNL A   1      31.407  26.196  27.143  1.00  0.00    -0.275 OA
ATOM     13  C   UNL A   1      30.943  26.717  26.133  1.00  0.00     0.226 C 
ATOM     14  H   UNL A   1      30.822  28.256  24.826  1.00  0.00     0.169 HD
BRANCH  13  15
ATOM     15  C   UNL A   1      29.904  25.980  25.300  1.00  0.00     0.128 C 
BRANCH  15  16
ATOM     16  C   UNL A   1      30.499  25.324  24.055  1.00  0.00     0.183 C 
ATOM     17  S   UNL A   1      31.865  24.210  24.512  1.00  0.00    -0.022 SA
ATOM     18  C   UNL A   1      31.147  26.369  23.165  1.00  0.00     0.324 C 
ATOM     19  C   UNL A   1      33.063  25.120  23.641  1.00  0.00     0.319 C 
ATOM     20  N   UNL A   1      32.492  26.172  22.980  1.00  0.00    -0.188 N 
ATOM     21  O   UNL A   1      30.519  27.324  22.711  1.00  0.00    -0.245 OA
ATOM     22  N   UNL A   1      34.339  24.934  23.592  1.00  0.00    -0.235 N 
ATOM     23  H   UNL A   1      34.891  25.544  23.050  1.00  0.00     0.313 HD
BRANCH  20  24
ATOM     24  C   UNL A   1      33.280  27.120  22.189  1.00  0.00     0.275 C 
BRANCH  24  25
ATOM     25  C   UNL A   1      33.518  28.429  22.953  1.00  0.00     0.202 C 
BRANCH  25  26
ATOM     26  O   UNL A   1      34.828  28.953  22.749  1.00  0.00    -0.392 OA
ATOM     27  H   UNL A   1      35.115  28.761  21.842  1.00  0.00     0.210 HD
ENDBRANCH  25  26
ENDBRANCH  24  25
ENDBRANCH  20  24
BRANCH  22  28
ATOM     28  C   UNL A   1      34.965  23.889  24.285  1.00  0.00     0.125 A 
ATOM     29  C   UNL A   1      35.675  24.187  25.453  1.00  0.00     0.051 A 
ATOM     30  C   UNL A   1      34.996  22.583  23.790  1.00  0.00     0.051 A 
ATOM     31  C   UNL A   1      36.377  23.191  26.133  1.00  0.00     0.004 A 
ATOM     32  C   UNL A   1      35.686  21.580  24.475  1.00  0.00     0.004 A 
ATOM     33  C   UNL A   1      36.377  21.885  25.646  1.00  0.00     0.000 A 
ENDBRANCH  22  28
ENDBRANCH  15  16
ENDBRANCH  13  15
ENDBRANCH   6  11
ENDBRANCH   3   5
ENDBRANCH   2   3
ENDBRANCH   1   2
BRANCH   1  34
ATOM     34  C   UNL A   1      34.047  35.004  28.567  1.00  0.00     0.202 C 
BRANCH  34  35
ATOM     35  O   UNL A   1      32.984  35.600  29.309  1.00  0.00    -0.374 OA
BRANCH  35  36
ATOM     36  C   UNL A   1      33.230  36.895  29.861  1.00  0.00     0.202 C 
BRANCH  36  37
ATOM     37  C   UNL A   1      32.918  37.052  31.354  1.00  0.00     0.261 C 
BRANCH  37  38
ATOM     38  O   UNL A   1      33.894  36.376  32.169  1.00  0.00    -0.460 OA
BRANCH  38  39
ATOM     39  C   UNL A   1      33.593  35.095  32.479  1.00  0.00     0.338 C 
ATOM     40  O   UNL A   1      32.492  34.633  32.746  1.00  0.00    -0.246 OA
BRANCH  39  41
ATOM     41  C   UNL A   1      34.779  34.242  32.282  1.00  0.00     0.060 A 
ATOM     42  C   UNL A   1      34.838  33.042  33.003  1.00  0.00     0.016 A 
ATOM     43  C   UNL A   1      35.840  34.630  31.462  1.00  0.00     0.016 A 
ATOM     44  C   UNL A   1      35.983  32.251  32.949  1.00  0.00     0.010 A 
ATOM     45  C   UNL A   1      36.992  33.838  31.414  1.00  0.00     0.010 A 
ATOM     46  C   UNL A   1      37.082  32.666  32.186  1.00  0.00    -0.014 A 
BRANCH  46  47
ATOM     47  C   UNL A   1      38.375  31.955  32.323  1.00  0.00     0.031 A 
ATOM     48  C   UNL A   1      39.318  32.366  33.419  1.00  0.00     0.074 A 
ATOM     49  C   UNL A   1      38.691  30.936  31.507  1.00  0.00     0.049 A 
ATOM     50  N   UNL A   1      40.503  31.897  33.719  1.00  0.00    -0.248 NA
ATOM     51  C   UNL A   1      38.861  33.455  34.297  1.00  0.00     0.031 C 
ATOM     52  C   UNL A   1      37.842  30.415  30.440  1.00  0.00     0.029 A 
ATOM     53  N   UNL A   1      39.819  30.155  31.455  1.00  0.00    -0.354 N 
ATOM     54  C   UNL A   1      40.933  32.633  34.817  1.00  0.00     0.074 A 
ATOM     55  C   UNL A   1      39.899  33.604  35.106  1.00  0.00     0.031 C 
ATOM     56  C   UNL A   1      38.479  29.398  29.835  1.00  0.00     0.029 A 
ATOM     57  C   UNL A   1      39.791  29.218  30.453  1.00  0.00     0.049 A 
ATOM     58  H   UNL A   1      40.576  30.258  32.077  1.00  0.00     0.167 HD
ATOM     59  C   UNL A   1      42.080  32.503  35.525  1.00  0.00     0.037 A 
ATOM     60  C   UNL A   1      40.726  28.327  30.074  1.00  0.00     0.037 A 
ATOM     61  C   UNL A   1      43.110  31.542  35.229  1.00  0.00     0.049 A 
ATOM     62  C   UNL A   1      42.034  28.262  30.819  1.00  0.00     0.074 A 
ATOM     63  C   UNL A   1      44.304  31.323  35.894  1.00  0.00     0.029 A 
ATOM     64  N   UNL A   1      43.070  30.645  34.171  1.00  0.00    -0.354 N 
ATOM     65  N   UNL A   1      42.425  28.945  31.868  1.00  0.00    -0.248 NA
ATOM     66  C   UNL A   1      43.029  27.300  30.325  1.00  0.00     0.031 C 
ATOM     67  C   UNL A   1      45.010  30.328  35.206  1.00  0.00     0.029 A 
ATOM     68  C   UNL A   1      44.231  29.890  34.146  1.00  0.00     0.049 A 
ATOM     69  H   UNL A   1      42.327  30.559  33.532  1.00  0.00     0.167 HD
ATOM     70  C   UNL A   1      43.695  28.477  32.178  1.00  0.00     0.074 A 
ATOM     71  C   UNL A   1      44.006  27.446  31.210  1.00  0.00     0.031 C 
ATOM     72  C   UNL A   1      44.526  28.863  33.177  1.00  0.00     0.037 A 
BRANCH  59  73
ATOM     73  C   UNL A   1      42.287  33.450  36.671  1.00  0.00     0.064 A 
ATOM     74  C   UNL A   1      41.887  33.127  37.977  1.00  0.00     0.173 A 
ATOM     75  C   UNL A   1      42.892  34.698  36.461  1.00  0.00     0.173 A 
ATOM     76  F   UNL A   1      41.291  31.952  38.229  1.00  0.00    -0.203 F 
ATOM     77  C   UNL A   1      42.051  34.034  39.021  1.00  0.00     0.198 A 
ATOM     78  C   UNL A   1      43.081  35.590  37.513  1.00  0.00     0.198 A 
ATOM     79  F   UNL A   1      43.295  35.056  35.233  1.00  0.00    -0.203 F 
ATOM     80  F   UNL A   1      41.607  33.727  40.248  1.00  0.00    -0.200 F 
ATOM     81  C   UNL A   1      42.651  35.262  38.790  1.00  0.00     0.200 A 
ATOM     82  F   UNL A   1      43.671  36.773  37.290  1.00  0.00    -0.200 F 
ATOM     83  F   UNL A   1      42.805  36.135  39.794  1.00  0.00    -0.200 F 
ENDBRANCH  59  73
BRANCH  60  84
ATOM     84  C   UNL A   1      40.456  27.415  28.933  1.00  0.00     0.064 A 
ATOM     85  C   UNL A   1      39.585  26.325  29.076  1.00  0.00     0.173 A 
ATOM     86  C   UNL A   1      41.056  27.613  27.681  1.00  0.00     0.173 A 
ATOM     87  F   UNL A   1      39.009  26.081  30.261  1.00  0.00    -0.203 F 
ATOM     88  C   UNL A   1      39.332  25.465  28.010  1.00  0.00     0.198 A 
ATOM     89  C   UNL A   1      40.783  26.765  26.611  1.00  0.00     0.198 A 
ATOM     90  F   UNL A   1      41.899  28.639  27.497  1.00  0.00    -0.203 F 
ATOM     91  F   UNL A   1      38.523  24.410  28.183  1.00  0.00    -0.200 F 
ATOM     92  C   UNL A   1      39.925  25.689  26.776  1.00  0.00     0.200 A 
ATOM     93  F   UNL A   1      41.350  26.992  25.418  1.00  0.00    -0.200 F 
ATOM     94  F   UNL A   1      39.674  24.864  25.751  1.00  0.00    -0.200 F 
ENDBRANCH  60  84
BRANCH  72  95
ATOM     95  C   UNL A   1      45.839  28.144  33.301  1.00  0.00     0.064 A 
ATOM     96  C   UNL A   1      47.002  28.619  32.677  1.00  0.00     0.173 A 
ATOM     97  C   UNL A   1      45.942  26.985  34.086  1.00  0.00     0.173 A 
ATOM     98  F   UNL A   1      46.954  29.714  31.903  1.00  0.00    -0.203 F 
ATOM     99  C   UNL A   1      48.214  27.948  32.816  1.00  0.00     0.198 A 
ATOM    100  C   UNL A   1      47.160  26.333  34.246  1.00  0.00     0.198 A 
ATOM    101  F   UNL A   1      44.860  26.491  34.708  1.00  0.00    -0.203 F 
ATOM    102  F   UNL A   1      49.303  28.394  32.174  1.00  0.00    -0.200 F 
ATOM    103  C   UNL A   1      48.294  26.810  33.606  1.00  0.00     0.200 A 
ATOM    104  F   UNL A   1      47.239  25.242  35.019  1.00  0.00    -0.200 F 
ATOM    105  F   UNL A   1      49.463  26.170  33.744  1.00  0.00    -0.200 F 
ENDBRANCH  72  95
ENDBRANCH  46  47
ENDBRANCH  39  41
ENDBRANCH  38  39
ENDBRANCH  37  38
ENDBRANCH  36  37
ENDBRANCH  35  36
ENDBRANCH  34  35
ENDBRANCH   1  34
TORSDOF 21
ENDMDL
MODEL 3
REMARK VINA RESULT:      -8.5      4.495     11.443
REMARK SMILES O=C(C[C@@H]1S/C(=[NH+]\c2ccccc2)N(CCO)C1=O)Nc1ccc(C(=O)OCCOCCOC(=O)c2ccc(-c3c4nc(c(-c5c(F)c(F)c(F)c(F)c5F)c5ccc([nH]5)c(-c5c(F)c(F)c(F)c(F)c5F)c5nc(c(-c6c(F)c(F)c(F)c(F)c6F)c6ccc3[nH]6)C=C5)C=C4)cc2)cc1
REMARK SMILES IDX 28 1 27 2 25 3 26 4 24 5 21 6 22 7 100 8 23 9 99 10 20 11
REMARK SMILES IDX 1 12 2 13 3 15 4 16 5 17 18 18 6 19 14 20 19 21 7 22 15 24
REMARK SMILES IDX 16 25 17 26 8 28 9 29 13 30 10 31 12 32 11 33 29 34 30 35
REMARK SMILES IDX 31 36 32 37 33 38 34 39 35 40 36 41 37 42 98 43 38 44 97 45
REMARK SMILES IDX 39 46 40 47 41 48 91 49 42 50 96 51 90 52 92 53 43 54 95 55
REMARK SMILES IDX 89 56 88 57 44 59 76 60 56 61 75 62 57 63 60 64 74 65 93 66
REMARK SMILES IDX 58 67 59 68 73 70 94 71 61 72 45 73 46 74 54 75 47 76 48 77
REMARK SMILES IDX 52 78 55 79 49 80 50 81 53 82 51 83 77 84 78 85 86 86 79 87
REMARK SMILES IDX 80 88 84 89 87 90 81 91 82 92 85 93 83 94 62 95 63 96 71 97
REMARK SMILES IDX 64 98 65 99 69 100 72 101 66 102 67 103 70 104 68 105
REMARK H PARENT 20 14 7 23 17 27 92 58 60 69
REMARK Flexibility Score: inf
ROOT
ATOM      1  C   UNL A   1      37.966  32.867  34.693  1.00  0.00     0.261 C 
ENDROOT
BRANCH   1   2
ATOM      2  O   UNL A   1      37.467  31.577  34.300  1.00  0.00    -0.460 OA
BRANCH   2   3
ATOM      3  C   UNL A   1      38.333  30.555  34.489  1.00  0.00     0.338 C 
ATOM      4  O   UNL A   1      38.702  30.094  35.558  1.00  0.00    -0.246 OA
BRANCH   3   5
ATOM      5  C   UNL A   1      38.683  29.930  33.196  1.00  0.00     0.060 A 
ATOM      6  C   UNL A   1      39.363  28.530  30.873  1.00  0.00     0.041 A 
ATOM      7  C   UNL A   1      38.248  28.145  31.625  1.00  0.00     0.027 A 
ATOM      8  C   UNL A   1      40.081  29.670  31.240  1.00  0.00     0.027 A 
ATOM      9  C   UNL A   1      37.927  28.824  32.797  1.00  0.00     0.018 A 
ATOM     10  C   UNL A   1      39.734  30.385  32.393  1.00  0.00     0.018 A 
BRANCH   6  11
ATOM     11  N   UNL A   1      39.707  27.700  29.792  1.00  0.00    -0.326 N 
ATOM     12  O   UNL A   1      38.385  28.592  28.108  1.00  0.00    -0.275 OA
ATOM     13  C   UNL A   1      39.211  27.777  28.506  1.00  0.00     0.226 C 
ATOM     14  H   UNL A   1      40.368  26.992  29.969  1.00  0.00     0.169 HD
BRANCH  13  15
ATOM     15  C   UNL A   1      39.787  26.741  27.551  1.00  0.00     0.128 C 
BRANCH  15  16
ATOM     16  C   UNL A   1      40.175  25.441  28.251  1.00  0.00     0.183 C 
ATOM     17  S   UNL A   1      41.986  25.251  28.287  1.00  0.00    -0.022 SA
ATOM     18  C   UNL A   1      39.687  24.244  27.454  1.00  0.00     0.324 C 
ATOM     19  C   UNL A   1      41.978  23.806  27.320  1.00  0.00     0.319 C 
ATOM     20  N   UNL A   1      40.700  23.424  27.024  1.00  0.00    -0.188 N 
ATOM     21  O   UNL A   1      38.499  24.078  27.182  1.00  0.00    -0.245 OA
ATOM     22  N   UNL A   1      42.983  23.136  26.864  1.00  0.00    -0.235 N 
ATOM     23  H   UNL A   1      42.813  22.331  26.322  1.00  0.00     0.313 HD
BRANCH  20  24
ATOM     24  C   UNL A   1      40.405  22.252  26.196  1.00  0.00     0.275 C 
BRANCH  24  25
ATOM     25  C   UNL A   1      40.589  20.947  26.981  1.00  0.00     0.202 C 
BRANCH  25  26
ATOM     26  O   UNL A   1      40.783  21.168  28.376  1.00  0.00    -0.392 OA
ATOM     27  H   UNL A   1      40.890  22.118  28.541  1.00  0.00     0.210 HD
ENDBRANCH  25  26
ENDBRANCH  24  25
ENDBRANCH  20  24
BRANCH  22  28
ATOM     28  C   UNL A   1      44.307  23.517  27.116  1.00  0.00     0.125 A 
ATOM     29  C   UNL A   1      44.597  24.195  28.304  1.00  0.00     0.051 A 
ATOM     30  C   UNL A   1      45.323  23.341  26.172  1.00  0.00     0.051 A 
ATOM     31  C   UNL A   1      45.888  24.661  28.561  1.00  0.00     0.004 A 
ATOM     32  C   UNL A   1      46.618  23.794  26.432  1.00  0.00     0.004 A 
ATOM     33  C   UNL A   1      46.900  24.454  27.626  1.00  0.00     0.000 A 
ENDBRANCH  22  28
ENDBRANCH  15  16
ENDBRANCH  13  15
ENDBRANCH   6  11
ENDBRANCH   3   5
ENDBRANCH   2   3
ENDBRANCH   1   2
BRANCH   1  34
ATOM     34  C   UNL A   1      37.486  33.239  36.098  1.00  0.00     0.202 C 
BRANCH  34  35
ATOM     35  O   UNL A   1      38.449  33.107  37.142  1.00  0.00    -0.374 OA
BRANCH  35  36
ATOM     36  C   UNL A   1      38.163  33.775  38.372  1.00  0.00     0.202 C 
BRANCH  36  37
ATOM     37  C   UNL A   1      39.325  34.567  38.985  1.00  0.00     0.261 C 
BRANCH  37  38
ATOM     38  O   UNL A   1      39.272  35.955  38.608  1.00  0.00    -0.460 OA
BRANCH  38  39
ATOM     39  C   UNL A   1      40.472  36.531  38.374  1.00  0.00     0.338 C 
ATOM     40  O   UNL A   1      41.066  37.329  39.088  1.00  0.00    -0.246 OA
BRANCH  39  41
ATOM     41  C   UNL A   1      41.094  35.927  37.182  1.00  0.00     0.060 A 
ATOM     42  C   UNL A   1      40.302  35.809  36.032  1.00  0.00     0.016 A 
ATOM     43  C   UNL A   1      42.398  35.429  37.200  1.00  0.00     0.016 A 
ATOM     44  C   UNL A   1      40.793  35.143  34.912  1.00  0.00     0.010 A 
ATOM     45  C   UNL A   1      42.887  34.753  36.078  1.00  0.00     0.010 A 
ATOM     46  C   UNL A   1      42.074  34.575  34.944  1.00  0.00    -0.014 A 
BRANCH  46  47
ATOM     47  C   UNL A   1      42.496  33.665  33.853  1.00  0.00     0.031 A 
ATOM     48  C   UNL A   1      42.801  34.245  32.500  1.00  0.00     0.074 A 
ATOM     49  C   UNL A   1      42.638  32.348  34.071  1.00  0.00     0.049 A 
ATOM     50  N   UNL A   1      43.172  33.642  31.399  1.00  0.00    -0.248 NA
ATOM     51  C   UNL A   1      42.669  35.705  32.373  1.00  0.00     0.031 C 
ATOM     52  C   UNL A   1      42.418  31.675  35.348  1.00  0.00     0.029 A 
ATOM     53  N   UNL A   1      43.006  31.339  33.215  1.00  0.00    -0.354 N 
ATOM     54  C   UNL A   1      43.316  34.647  30.450  1.00  0.00     0.074 A 
ATOM     55  C   UNL A   1      42.957  35.892  31.094  1.00  0.00     0.031 C 
ATOM     56  C   UNL A   1      42.655  30.361  35.194  1.00  0.00     0.029 A 
ATOM     57  C   UNL A   1      43.014  30.099  33.801  1.00  0.00     0.049 A 
ATOM     58  H   UNL A   1      43.242  31.492  32.271  1.00  0.00     0.167 HD
ATOM     59  C   UNL A   1      43.723  34.541  29.162  1.00  0.00     0.037 A 
ATOM     60  C   UNL A   1      43.269  28.889  33.266  1.00  0.00     0.037 A 
ATOM     61  C   UNL A   1      44.071  33.300  28.522  1.00  0.00     0.049 A 
ATOM     62  C   UNL A   1      43.630  28.786  31.808  1.00  0.00     0.074 A 
ATOM     63  C   UNL A   1      44.505  33.088  27.225  1.00  0.00     0.029 A 
ATOM     64  N   UNL A   1      44.013  32.055  29.133  1.00  0.00    -0.354 N 
ATOM     65  N   UNL A   1      43.786  29.740  30.921  1.00  0.00    -0.248 NA
ATOM     66  C   UNL A   1      43.850  27.433  31.276  1.00  0.00     0.031 C 
ATOM     67  C   UNL A   1      44.661  31.709  27.037  1.00  0.00     0.029 A 
ATOM     68  C   UNL A   1      44.376  31.067  28.232  1.00  0.00     0.049 A 
ATOM     69  H   UNL A   1      43.752  31.897  30.069  1.00  0.00     0.167 HD
ATOM     70  C   UNL A   1      44.150  29.109  29.739  1.00  0.00     0.074 A 
ATOM     71  C   UNL A   1      44.200  27.690  30.023  1.00  0.00     0.031 C 
ATOM     72  C   UNL A   1      44.425  29.657  28.530  1.00  0.00     0.037 A 
BRANCH  59  73
ATOM     73  C   UNL A   1      43.779  35.806  28.356  1.00  0.00     0.064 A 
ATOM     74  C   UNL A   1      44.982  36.501  28.158  1.00  0.00     0.173 A 
ATOM     75  C   UNL A   1      42.614  36.332  27.777  1.00  0.00     0.173 A 
ATOM     76  F   UNL A   1      46.121  36.049  28.702  1.00  0.00    -0.203 F 
ATOM     77  C   UNL A   1      45.009  37.695  27.440  1.00  0.00     0.198 A 
ATOM     78  C   UNL A   1      42.651  37.510  27.036  1.00  0.00     0.198 A 
ATOM     79  F   UNL A   1      41.439  35.706  27.934  1.00  0.00    -0.203 F 
ATOM     80  F   UNL A   1      46.159  38.372  27.314  1.00  0.00    -0.200 F 
ATOM     81  C   UNL A   1      43.846  38.196  26.877  1.00  0.00     0.200 A 
ATOM     82  F   UNL A   1      41.527  37.988  26.483  1.00  0.00    -0.200 F 
ATOM     83  F   UNL A   1      43.873  39.346  26.191  1.00  0.00    -0.200 F 
ENDBRANCH  59  73
BRANCH  60  84
ATOM     84  C   UNL A   1      43.200  27.676  34.121  1.00  0.00     0.064 A 
ATOM     85  C   UNL A   1      41.973  27.048  34.376  1.00  0.00     0.173 A 
ATOM     86  C   UNL A   1      44.352  27.122  34.696  1.00  0.00     0.173 A 
ATOM     87  F   UNL A   1      40.842  27.558  33.870  1.00  0.00    -0.203 F 
ATOM     88  C   UNL A   1      41.902  25.912  35.181  1.00  0.00     0.198 A 
ATOM     89  C   UNL A   1      44.282  25.973  35.480  1.00  0.00     0.198 A 
ATOM     90  F   UNL A   1      45.548  27.690  34.484  1.00  0.00    -0.203 F 
ATOM     91  F   UNL A   1      40.713  25.350  35.438  1.00  0.00    -0.200 F 
ATOM     92  C   UNL A   1      43.058  25.371  35.726  1.00  0.00     0.200 A 
ATOM     93  F   UNL A   1      45.402  25.447  35.997  1.00  0.00    -0.200 F 
ATOM     94  F   UNL A   1      42.989  24.275  36.493  1.00  0.00    -0.200 F 
ENDBRANCH  60  84
BRANCH  72  95
ATOM     95  C   UNL A   1      44.840  28.726  27.428  1.00  0.00     0.064 A 
ATOM     96  C   UNL A   1      43.897  28.065  26.626  1.00  0.00     0.173 A 
ATOM     97  C   UNL A   1      46.199  28.521  27.146  1.00  0.00     0.173 A 
ATOM     98  F   UNL A   1      42.585  28.214  26.863  1.00  0.00    -0.203 F 
ATOM     99  C   UNL A   1      44.301  27.217  25.598  1.00  0.00     0.198 A 
ATOM    100  C   UNL A   1      46.599  27.696  26.099  1.00  0.00     0.198 A 
ATOM    101  F   UNL A   1      47.142  29.133  27.879  1.00  0.00    -0.203 F 
ATOM    102  F   UNL A   1      43.384  26.561  24.873  1.00  0.00    -0.200 F 
ATOM    103  C   UNL A   1      45.651  27.039  25.330  1.00  0.00     0.200 A 
ATOM    104  F   UNL A   1      47.903  27.535  25.834  1.00  0.00    -0.200 F 
ATOM    105  F   UNL A   1      46.036  26.228  24.335  1.00  0.00    -0.200 F 
ENDBRANCH  72  95
ENDBRANCH  46  47
ENDBRANCH  39  41
ENDBRANCH  38  39
ENDBRANCH  37  38
ENDBRANCH  36  37
ENDBRANCH  35  36
ENDBRANCH  34  35
ENDBRANCH   1  34
TORSDOF 21
ENDMDL
