MODEL 1
REMARK VINA RESULT:     -12.5      0.000      0.000
REMARK SMILES Cc1ccc(-c2csc(NC(=O)[C@H]3[C@@H](C(=O)OCCOCCOC(=O)c4ccc(-c5c6nc(c(-c7c(F)c(F)c(F)c(F)c7F)c7ccc([nH]7)c(-c7c(F)c(F)c(F)c(F)c7F)c7nc(c(-c8c(F)c(F)c(F)c(F)c8F)c8ccc5[nH]8)C=C7)C=C6)cc4)[C@H]4C=C[C@@H]3C4)c2C(=O)NC2CC2)cc1
REMARK SMILES IDX 19 1 18 2 17 3 15 4 16 5 14 6 13 7 92 8 89 9 91 10 93 11
REMARK SMILES IDX 90 12 11 13 10 14 12 16 9 17 6 18 7 19 94 20 8 21 5 22 1 23
REMARK SMILES IDX 2 24 3 25 102 26 4 27 101 28 95 29 96 30 97 31 98 33 99 34
REMARK SMILES IDX 100 35 20 36 21 37 22 38 23 39 24 40 25 41 26 42 27 43 88 44
REMARK SMILES IDX 28 45 87 46 29 47 30 48 31 49 81 50 32 51 86 52 80 53 82 54
REMARK SMILES IDX 33 55 85 56 79 57 78 58 34 60 66 61 46 62 65 63 47 64 50 65
REMARK SMILES IDX 64 66 83 67 48 68 49 69 63 71 84 72 51 73 35 74 36 75 44 76
REMARK SMILES IDX 37 77 38 78 42 79 45 80 39 81 40 82 43 83 41 84 67 85 68 86
REMARK SMILES IDX 76 87 69 88 70 89 74 90 77 91 71 92 72 93 75 94 73 95 52 96
REMARK SMILES IDX 53 97 61 98 54 99 55 100 59 101 62 102 56 103 57 104 60 105
REMARK SMILES IDX 58 106
REMARK H PARENT 10 15 97 32 82 59 50 70
REMARK Flexibility Score: inf
ROOT
ATOM      1  C   UNL A   1      33.328  27.460  26.622  1.00  0.00     0.202 C 
ENDROOT
BRANCH   1   2
ATOM      2  C   UNL A   1      33.749  26.162  26.017  1.00  0.00     0.261 C 
BRANCH   2   3
ATOM      3  O   UNL A   1      33.423  25.007  26.815  1.00  0.00    -0.463 OA
BRANCH   3   4
ATOM      4  C   UNL A   1      34.110  23.842  26.575  1.00  0.00     0.310 C 
ATOM      5  O   UNL A   1      34.505  23.068  27.418  1.00  0.00    -0.252 OA
BRANCH   4   6
ATOM      6  C   UNL A   1      34.397  23.733  25.089  1.00  0.00     0.119 C 
ATOM      7  C   UNL A   1      33.976  22.367  24.457  1.00  0.00     0.100 C 
ATOM      8  C   UNL A   1      35.343  21.860  23.906  1.00  0.00     0.025 C 
ATOM      9  C   UNL A   1      35.908  23.839  24.744  1.00  0.00     0.027 C 
ATOM     10  C   UNL A   1      36.337  21.602  25.009  1.00  0.00    -0.027 C 
ATOM     11  C   UNL A   1      35.926  23.175  23.372  1.00  0.00     0.017 C 
ATOM     12  C   UNL A   1      36.709  22.796  25.485  1.00  0.00    -0.027 C 
BRANCH   7  13
ATOM     13  C   UNL A   1      33.108  21.547  25.421  1.00  0.00     0.229 C 
ATOM     14  N   UNL A   1      31.760  21.716  25.453  1.00  0.00    -0.317 N 
ATOM     15  H   UNL A   1      31.200  20.907  25.489  1.00  0.00     0.170 HD
ATOM     16  O   UNL A   1      33.631  20.713  26.167  1.00  0.00    -0.274 OA
BRANCH  14  17
ATOM     17  C   UNL A   1      31.119  22.933  25.440  1.00  0.00     0.108 A 
ATOM     18  C   UNL A   1      30.425  25.071  24.972  1.00  0.00     0.007 A 
ATOM     19  C   UNL A   1      30.241  24.965  26.346  1.00  0.00     0.076 A 
ATOM     20  C   UNL A   1      30.934  23.823  24.380  1.00  0.00     0.082 A 
ATOM     21  S   UNL A   1      30.236  23.353  26.836  1.00  0.00    -0.125 S 
BRANCH  18  22
ATOM     22  C   UNL A   1      29.903  26.318  24.439  1.00  0.00    -0.017 A 
ATOM     23  C   UNL A   1      28.165  29.469  22.148  1.00  0.00     0.044 C 
ATOM     24  C   UNL A   1      28.722  28.485  23.132  1.00  0.00    -0.051 A 
ATOM     25  C   UNL A   1      27.942  27.384  23.479  1.00  0.00     0.004 A 
ATOM     26  C   UNL A   1      30.054  28.559  23.579  1.00  0.00     0.004 A 
ATOM     27  C   UNL A   1      28.524  26.326  24.154  1.00  0.00     0.009 A 
ATOM     28  C   UNL A   1      30.651  27.476  24.243  1.00  0.00     0.009 A 
ENDBRANCH  18  22
BRANCH  20  29
ATOM     29  C   UNL A   1      31.416  23.383  23.049  1.00  0.00     0.255 C 
ATOM     30  O   UNL A   1      31.271  22.196  22.721  1.00  0.00    -0.269 OA
ATOM     31  N   UNL A   1      31.884  24.159  22.012  1.00  0.00    -0.349 N 
ATOM     32  H   UNL A   1      32.106  23.608  21.226  1.00  0.00     0.164 HD
BRANCH  31  33
ATOM     33  C   UNL A   1      32.134  25.532  21.762  1.00  0.00     0.082 C 
ATOM     34  C   UNL A   1      33.414  26.227  22.039  1.00  0.00     0.027 C 
ATOM     35  C   UNL A   1      32.994  25.930  20.616  1.00  0.00     0.027 C 
ENDBRANCH  31  33
ENDBRANCH  20  29
ENDBRANCH  14  17
ENDBRANCH   7  13
ENDBRANCH   4   6
ENDBRANCH   3   4
ENDBRANCH   2   3
ENDBRANCH   1   2
BRANCH   1  36
ATOM     36  O   UNL A   1      33.744  28.398  25.649  1.00  0.00    -0.374 OA
BRANCH  36  37
ATOM     37  C   UNL A   1      33.297  29.717  25.814  1.00  0.00     0.202 C 
BRANCH  37  38
ATOM     38  C   UNL A   1      33.448  30.174  27.261  1.00  0.00     0.261 C 
BRANCH  38  39
ATOM     39  O   UNL A   1      34.535  31.124  27.376  1.00  0.00    -0.460 OA
BRANCH  39  40
ATOM     40  C   UNL A   1      35.214  31.099  28.559  1.00  0.00     0.338 C 
ATOM     41  O   UNL A   1      35.150  31.967  29.419  1.00  0.00    -0.246 OA
BRANCH  40  42
ATOM     42  C   UNL A   1      36.245  30.018  28.544  1.00  0.00     0.060 A 
ATOM     43  C   UNL A   1      36.606  29.377  29.746  1.00  0.00     0.016 A 
ATOM     44  C   UNL A   1      37.086  29.942  27.438  1.00  0.00     0.016 A 
ATOM     45  C   UNL A   1      37.883  28.811  29.887  1.00  0.00     0.010 A 
ATOM     46  C   UNL A   1      38.388  29.537  27.641  1.00  0.00     0.010 A 
ATOM     47  C   UNL A   1      38.805  28.965  28.852  1.00  0.00    -0.014 A 
BRANCH  47  48
ATOM     48  C   UNL A   1      40.220  28.587  28.897  1.00  0.00     0.031 A 
ATOM     49  C   UNL A   1      40.555  27.237  28.391  1.00  0.00     0.074 A 
ATOM     50  C   UNL A   1      41.233  29.397  29.296  1.00  0.00     0.049 A 
ATOM     51  N   UNL A   1      41.437  26.481  28.951  1.00  0.00    -0.248 NA
ATOM     52  C   UNL A   1      39.879  26.586  27.266  1.00  0.00     0.031 C 
ATOM     53  C   UNL A   1      42.661  29.203  29.057  1.00  0.00     0.029 A 
ATOM     54  N   UNL A   1      41.195  30.613  29.990  1.00  0.00    -0.354 N 
ATOM     55  C   UNL A   1      41.656  25.434  28.091  1.00  0.00     0.074 A 
ATOM     56  C   UNL A   1      40.560  25.445  27.159  1.00  0.00     0.031 C 
ATOM     57  C   UNL A   1      43.366  30.104  29.764  1.00  0.00     0.029 A 
ATOM     58  C   UNL A   1      42.436  30.879  30.569  1.00  0.00     0.049 A 
ATOM     59  H   UNL A   1      40.405  31.197  30.059  1.00  0.00     0.167 HD
ATOM     60  C   UNL A   1      42.856  24.796  28.085  1.00  0.00     0.037 A 
ATOM     61  C   UNL A   1      42.552  31.210  31.881  1.00  0.00     0.037 A 
ATOM     62  C   UNL A   1      43.815  25.503  28.934  1.00  0.00     0.049 A 
ATOM     63  C   UNL A   1      43.246  30.068  32.560  1.00  0.00     0.074 A 
ATOM     64  C   UNL A   1      44.828  26.400  28.628  1.00  0.00     0.029 A 
ATOM     65  N   UNL A   1      43.560  25.663  30.296  1.00  0.00    -0.354 N 
ATOM     66  N   UNL A   1      43.277  28.877  32.025  1.00  0.00    -0.248 NA
ATOM     67  C   UNL A   1      44.021  30.154  33.788  1.00  0.00     0.031 C 
ATOM     68  C   UNL A   1      45.192  27.084  29.817  1.00  0.00     0.029 A 
ATOM     69  C   UNL A   1      44.404  26.608  30.852  1.00  0.00     0.049 A 
ATOM     70  H   UNL A   1      42.869  25.170  30.795  1.00  0.00     0.167 HD
ATOM     71  C   UNL A   1      44.131  28.090  32.721  1.00  0.00     0.074 A 
ATOM     72  C   UNL A   1      44.535  28.910  33.850  1.00  0.00     0.031 C 
ATOM     73  C   UNL A   1      44.443  26.836  32.292  1.00  0.00     0.037 A 
BRANCH  60  74
ATOM     74  C   UNL A   1      43.203  23.774  27.029  1.00  0.00     0.064 A 
ATOM     75  C   UNL A   1      42.863  22.416  27.170  1.00  0.00     0.173 A 
ATOM     76  C   UNL A   1      43.887  24.100  25.838  1.00  0.00     0.173 A 
ATOM     77  F   UNL A   1      42.145  21.977  28.209  1.00  0.00    -0.203 F 
ATOM     78  C   UNL A   1      43.253  21.449  26.239  1.00  0.00     0.198 A 
ATOM     79  C   UNL A   1      44.325  23.125  24.935  1.00  0.00     0.198 A 
ATOM     80  F   UNL A   1      44.131  25.377  25.508  1.00  0.00    -0.203 F 
ATOM     81  F   UNL A   1      42.895  20.170  26.424  1.00  0.00    -0.200 F 
ATOM     82  C   UNL A   1      44.007  21.798  25.138  1.00  0.00     0.200 A 
ATOM     83  F   UNL A   1      45.054  23.482  23.868  1.00  0.00    -0.200 F 
ATOM     84  F   UNL A   1      44.407  20.862  24.265  1.00  0.00    -0.200 F 
ENDBRANCH  60  74
BRANCH  61  85
ATOM     85  C   UNL A   1      41.459  32.083  32.395  1.00  0.00     0.064 A 
ATOM     86  C   UNL A   1      40.412  31.466  33.116  1.00  0.00     0.173 A 
ATOM     87  C   UNL A   1      41.604  33.469  32.549  1.00  0.00     0.173 A 
ATOM     88  F   UNL A   1      40.254  30.133  33.055  1.00  0.00    -0.203 F 
ATOM     89  C   UNL A   1      39.606  32.181  34.008  1.00  0.00     0.198 A 
ATOM     90  C   UNL A   1      40.808  34.182  33.459  1.00  0.00     0.198 A 
ATOM     91  F   UNL A   1      42.592  34.117  31.918  1.00  0.00    -0.203 F 
ATOM     92  F   UNL A   1      38.737  31.531  34.796  1.00  0.00    -0.200 F 
ATOM     93  C   UNL A   1      39.824  33.536  34.198  1.00  0.00     0.200 A 
ATOM     94  F   UNL A   1      41.077  35.471  33.711  1.00  0.00    -0.200 F 
ATOM     95  F   UNL A   1      39.193  34.183  35.191  1.00  0.00    -0.200 F 
ENDBRANCH  61  85
BRANCH  73  96
ATOM     96  C   UNL A   1      44.925  25.740  33.190  1.00  0.00     0.064 A 
ATOM     97  C   UNL A   1      46.251  25.279  33.184  1.00  0.00     0.173 A 
ATOM     98  C   UNL A   1      44.106  25.250  34.232  1.00  0.00     0.173 A 
ATOM     99  F   UNL A   1      47.164  25.772  32.335  1.00  0.00    -0.203 F 
ATOM    100  C   UNL A   1      46.701  24.336  34.101  1.00  0.00     0.198 A 
ATOM    101  C   UNL A   1      44.584  24.371  35.196  1.00  0.00     0.198 A 
ATOM    102  F   UNL A   1      42.829  25.634  34.376  1.00  0.00    -0.203 F 
ATOM    103  F   UNL A   1      47.959  23.881  34.013  1.00  0.00    -0.200 F 
ATOM    104  C   UNL A   1      45.875  23.894  35.115  1.00  0.00     0.200 A 
ATOM    105  F   UNL A   1      43.793  24.011  36.215  1.00  0.00    -0.200 F 
ATOM    106  F   UNL A   1      46.329  23.026  36.026  1.00  0.00    -0.200 F 
ENDBRANCH  73  96
ENDBRANCH  47  48
ENDBRANCH  40  42
ENDBRANCH  39  40
ENDBRANCH  38  39
ENDBRANCH  37  38
ENDBRANCH  36  37
ENDBRANCH   1  36
TORSDOF 19
ENDMDL
MODEL 2
REMARK VINA RESULT:     -12.5      1.721      4.618
REMARK SMILES Cc1ccc(-c2csc(NC(=O)[C@H]3[C@@H](C(=O)OCCOCCOC(=O)c4ccc(-c5c6nc(c(-c7c(F)c(F)c(F)c(F)c7F)c7ccc([nH]7)c(-c7c(F)c(F)c(F)c(F)c7F)c7nc(c(-c8c(F)c(F)c(F)c(F)c8F)c8ccc5[nH]8)C=C7)C=C6)cc4)[C@H]4C=C[C@@H]3C4)c2C(=O)NC2CC2)cc1
REMARK SMILES IDX 19 1 18 2 17 3 15 4 16 5 14 6 13 7 92 8 89 9 91 10 93 11
REMARK SMILES IDX 90 12 11 13 10 14 12 16 9 17 6 18 7 19 94 20 8 21 5 22 1 23
REMARK SMILES IDX 2 24 3 25 102 26 4 27 101 28 95 29 96 30 97 31 98 33 99 34
REMARK SMILES IDX 100 35 20 36 21 37 22 38 23 39 24 40 25 41 26 42 27 43 88 44
REMARK SMILES IDX 28 45 87 46 29 47 30 48 31 49 81 50 32 51 86 52 80 53 82 54
REMARK SMILES IDX 33 55 85 56 79 57 78 58 34 60 66 61 46 62 65 63 47 64 50 65
REMARK SMILES IDX 64 66 83 67 48 68 49 69 63 71 84 72 51 73 35 74 36 75 44 76
REMARK SMILES IDX 37 77 38 78 42 79 45 80 39 81 40 82 43 83 41 84 67 85 68 86
REMARK SMILES IDX 76 87 69 88 70 89 74 90 77 91 71 92 72 93 75 94 73 95 52 96
REMARK SMILES IDX 53 97 61 98 54 99 55 100 59 101 62 102 56 103 57 104 60 105
REMARK SMILES IDX 58 106
REMARK H PARENT 10 15 97 32 82 59 50 70
REMARK Flexibility Score: inf
ROOT
ATOM      1  C   UNL A   1      34.364  28.748  23.190  1.00  0.00     0.202 C 
ENDROOT
BRANCH   1   2
ATOM      2  C   UNL A   1      33.462  27.880  22.377  1.00  0.00     0.261 C 
BRANCH   2   3
ATOM      3  O   UNL A   1      33.471  26.491  22.766  1.00  0.00    -0.463 OA
BRANCH   3   4
ATOM      4  C   UNL A   1      32.269  25.895  23.058  1.00  0.00     0.310 C 
ATOM      5  O   UNL A   1      31.443  25.537  22.249  1.00  0.00    -0.252 OA
BRANCH   4   6
ATOM      6  C   UNL A   1      32.087  25.858  24.564  1.00  0.00     0.119 C 
ATOM      7  C   UNL A   1      31.358  24.578  25.086  1.00  0.00     0.100 C 
ATOM      8  C   UNL A   1      30.119  25.206  25.792  1.00  0.00     0.025 C 
ATOM      9  C   UNL A   1      31.208  27.019  25.107  1.00  0.00     0.027 C 
ATOM     10  C   UNL A   1      29.215  25.920  24.820  1.00  0.00    -0.027 C 
ATOM     11  C   UNL A   1      30.771  26.433  26.445  1.00  0.00     0.017 C 
ATOM     12  C   UNL A   1      29.854  27.033  24.439  1.00  0.00    -0.027 C 
BRANCH   7  13
ATOM     13  C   UNL A   1      31.242  23.512  23.989  1.00  0.00     0.229 C 
ATOM     14  N   UNL A   1      32.131  22.485  23.923  1.00  0.00    -0.317 N 
ATOM     15  H   UNL A   1      31.774  21.583  23.759  1.00  0.00     0.170 HD
ATOM     16  O   UNL A   1      30.326  23.572  23.162  1.00  0.00    -0.274 OA
BRANCH  14  17
ATOM     17  C   UNL A   1      33.492  22.613  24.069  1.00  0.00     0.108 A 
ATOM     18  C   UNL A   1      35.627  22.820  24.888  1.00  0.00     0.007 A 
ATOM     19  C   UNL A   1      35.664  23.546  23.704  1.00  0.00     0.076 A 
ATOM     20  C   UNL A   1      34.310  22.205  25.124  1.00  0.00     0.082 A 
ATOM     21  S   UNL A   1      34.365  23.150  22.707  1.00  0.00    -0.125 S 
BRANCH  18  22
ATOM     22  C   UNL A   1      36.938  22.699  25.504  1.00  0.00    -0.017 A 
ATOM     23  C   UNL A   1      41.004  23.026  26.754  1.00  0.00     0.044 C 
ATOM     24  C   UNL A   1      39.537  22.825  26.517  1.00  0.00    -0.051 A 
ATOM     25  C   UNL A   1      38.687  23.917  26.672  1.00  0.00     0.004 A 
ATOM     26  C   UNL A   1      39.031  21.620  25.995  1.00  0.00     0.004 A 
ATOM     27  C   UNL A   1      37.390  23.839  26.196  1.00  0.00     0.009 A 
ATOM     28  C   UNL A   1      37.723  21.549  25.491  1.00  0.00     0.009 A 
ENDBRANCH  18  22
BRANCH  20  29
ATOM     29  C   UNL A   1      33.657  21.451  26.220  1.00  0.00     0.255 C 
ATOM     30  O   UNL A   1      33.478  22.013  27.311  1.00  0.00    -0.269 OA
ATOM     31  N   UNL A   1      33.051  20.215  26.163  1.00  0.00    -0.349 N 
ATOM     32  H   UNL A   1      32.667  19.965  27.035  1.00  0.00     0.164 HD
BRANCH  31  33
ATOM     33  C   UNL A   1      32.829  19.202  25.196  1.00  0.00     0.082 C 
ATOM     34  C   UNL A   1      33.895  18.449  24.493  1.00  0.00     0.027 C 
ATOM     35  C   UNL A   1      33.052  17.776  25.555  1.00  0.00     0.027 C 
ENDBRANCH  31  33
ENDBRANCH  20  29
ENDBRANCH  14  17
ENDBRANCH   7  13
ENDBRANCH   4   6
ENDBRANCH   3   4
ENDBRANCH   2   3
ENDBRANCH   1   2
BRANCH   1  36
ATOM     36  O   UNL A   1      33.498  29.224  24.200  1.00  0.00    -0.374 OA
BRANCH  36  37
ATOM     37  C   UNL A   1      33.908  29.026  25.527  1.00  0.00     0.202 C 
BRANCH  37  38
ATOM     38  C   UNL A   1      33.358  30.114  26.443  1.00  0.00     0.261 C 
BRANCH  38  39
ATOM     39  O   UNL A   1      33.956  30.015  27.757  1.00  0.00    -0.460 OA
BRANCH  39  40
ATOM     40  C   UNL A   1      35.094  30.745  27.942  1.00  0.00     0.338 C 
ATOM     41  O   UNL A   1      35.205  31.939  27.700  1.00  0.00    -0.246 OA
BRANCH  40  42
ATOM     42  C   UNL A   1      36.251  29.841  28.218  1.00  0.00     0.060 A 
ATOM     43  C   UNL A   1      36.496  29.398  29.534  1.00  0.00     0.016 A 
ATOM     44  C   UNL A   1      37.263  29.777  27.266  1.00  0.00     0.016 A 
ATOM     45  C   UNL A   1      37.797  29.056  29.932  1.00  0.00     0.010 A 
ATOM     46  C   UNL A   1      38.557  29.602  27.707  1.00  0.00     0.010 A 
ATOM     47  C   UNL A   1      38.846  29.238  29.030  1.00  0.00    -0.014 A 
BRANCH  47  48
ATOM     48  C   UNL A   1      40.273  29.090  29.329  1.00  0.00     0.031 A 
ATOM     49  C   UNL A   1      40.974  27.980  28.648  1.00  0.00     0.074 A 
ATOM     50  C   UNL A   1      40.996  29.926  30.116  1.00  0.00     0.049 A 
ATOM     51  N   UNL A   1      41.871  27.258  29.231  1.00  0.00    -0.248 NA
ATOM     52  C   UNL A   1      40.681  27.530  27.284  1.00  0.00     0.031 C 
ATOM     53  C   UNL A   1      42.451  30.027  30.187  1.00  0.00     0.029 A 
ATOM     54  N   UNL A   1      40.570  30.908  31.018  1.00  0.00    -0.354 N 
ATOM     55  C   UNL A   1      42.466  26.508  28.248  1.00  0.00     0.074 A 
ATOM     56  C   UNL A   1      41.594  26.575  27.107  1.00  0.00     0.031 C 
ATOM     57  C   UNL A   1      42.802  30.824  31.213  1.00  0.00     0.029 A 
ATOM     58  C   UNL A   1      41.592  31.216  31.917  1.00  0.00     0.049 A 
ATOM     59  H   UNL A   1      39.677  31.324  31.018  1.00  0.00     0.167 HD
ATOM     60  C   UNL A   1      43.752  26.090  28.394  1.00  0.00     0.037 A 
ATOM     61  C   UNL A   1      41.380  31.224  33.259  1.00  0.00     0.037 A 
ATOM     62  C   UNL A   1      44.358  26.707  29.574  1.00  0.00     0.049 A 
ATOM     63  C   UNL A   1      42.154  30.074  33.830  1.00  0.00     0.074 A 
ATOM     64  C   UNL A   1      45.200  27.801  29.710  1.00  0.00     0.029 A 
ATOM     65  N   UNL A   1      43.817  26.480  30.840  1.00  0.00    -0.354 N 
ATOM     66  N   UNL A   1      42.537  29.075  33.082  1.00  0.00    -0.248 NA
ATOM     67  C   UNL A   1      42.642  29.974  35.197  1.00  0.00     0.031 C 
ATOM     68  C   UNL A   1      45.176  28.217  31.067  1.00  0.00     0.029 A 
ATOM     69  C   UNL A   1      44.321  27.378  31.764  1.00  0.00     0.049 A 
ATOM     70  H   UNL A   1      43.163  25.775  31.047  1.00  0.00     0.167 HD
ATOM     71  C   UNL A   1      43.387  28.286  33.781  1.00  0.00     0.074 A 
ATOM     72  C   UNL A   1      43.384  28.852  35.119  1.00  0.00     0.031 C 
ATOM     73  C   UNL A   1      44.032  27.244  33.187  1.00  0.00     0.037 A 
BRANCH  60  74
ATOM     74  C   UNL A   1      44.503  25.432  27.262  1.00  0.00     0.064 A 
ATOM     75  C   UNL A   1      44.609  24.033  27.155  1.00  0.00     0.173 A 
ATOM     76  C   UNL A   1      45.148  26.161  26.240  1.00  0.00     0.173 A 
ATOM     77  F   UNL A   1      43.982  23.215  28.008  1.00  0.00    -0.203 F 
ATOM     78  C   UNL A   1      45.372  23.416  26.159  1.00  0.00     0.198 A 
ATOM     79  C   UNL A   1      45.956  25.547  25.277  1.00  0.00     0.198 A 
ATOM     80  F   UNL A   1      44.995  27.490  26.136  1.00  0.00    -0.203 F 
ATOM     81  F   UNL A   1      45.432  22.078  26.105  1.00  0.00    -0.200 F 
ATOM     82  C   UNL A   1      46.068  24.172  25.239  1.00  0.00     0.200 A 
ATOM     83  F   UNL A   1      46.622  26.297  24.387  1.00  0.00    -0.200 F 
ATOM     84  F   UNL A   1      46.824  23.578  24.306  1.00  0.00    -0.200 F 
ENDBRANCH  60  74
BRANCH  61  85
ATOM     85  C   UNL A   1      40.050  31.757  33.669  1.00  0.00     0.064 A 
ATOM     86  C   UNL A   1      39.905  33.160  33.752  1.00  0.00     0.173 A 
ATOM     87  C   UNL A   1      38.872  31.001  33.588  1.00  0.00     0.173 A 
ATOM     88  F   UNL A   1      40.995  33.944  33.776  1.00  0.00    -0.203 F 
ATOM     89  C   UNL A   1      38.653  33.779  33.675  1.00  0.00     0.198 A 
ATOM     90  C   UNL A   1      37.619  31.624  33.491  1.00  0.00     0.198 A 
ATOM     91  F   UNL A   1      38.935  29.667  33.478  1.00  0.00    -0.203 F 
ATOM     92  F   UNL A   1      38.570  35.116  33.589  1.00  0.00    -0.200 F 
ATOM     93  C   UNL A   1      37.512  33.009  33.518  1.00  0.00     0.200 A 
ATOM     94  F   UNL A   1      36.526  30.887  33.248  1.00  0.00    -0.200 F 
ATOM     95  F   UNL A   1      36.338  33.600  33.245  1.00  0.00    -0.200 F 
ENDBRANCH  61  85
BRANCH  73  96
ATOM     96  C   UNL A   1      44.551  26.050  33.925  1.00  0.00     0.064 A 
ATOM     97  C   UNL A   1      43.708  25.104  34.528  1.00  0.00     0.173 A 
ATOM     98  C   UNL A   1      45.923  25.714  33.879  1.00  0.00     0.173 A 
ATOM     99  F   UNL A   1      42.374  25.237  34.514  1.00  0.00    -0.203 F 
ATOM    100  C   UNL A   1      44.209  23.947  35.115  1.00  0.00     0.198 A 
ATOM    101  C   UNL A   1      46.408  24.517  34.392  1.00  0.00     0.198 A 
ATOM    102  F   UNL A   1      46.833  26.511  33.301  1.00  0.00    -0.203 F 
ATOM    103  F   UNL A   1      43.369  23.106  35.734  1.00  0.00    -0.200 F 
ATOM    104  C   UNL A   1      45.554  23.645  35.033  1.00  0.00     0.200 A 
ATOM    105  F   UNL A   1      47.702  24.207  34.237  1.00  0.00    -0.200 F 
ATOM    106  F   UNL A   1      46.024  22.506  35.553  1.00  0.00    -0.200 F 
ENDBRANCH  73  96
ENDBRANCH  47  48
ENDBRANCH  40  42
ENDBRANCH  39  40
ENDBRANCH  38  39
ENDBRANCH  37  38
ENDBRANCH  36  37
ENDBRANCH   1  36
TORSDOF 19
ENDMDL
MODEL 3
REMARK VINA RESULT:     -12.4      2.121      4.682
REMARK SMILES Cc1ccc(-c2csc(NC(=O)[C@H]3[C@@H](C(=O)OCCOCCOC(=O)c4ccc(-c5c6nc(c(-c7c(F)c(F)c(F)c(F)c7F)c7ccc([nH]7)c(-c7c(F)c(F)c(F)c(F)c7F)c7nc(c(-c8c(F)c(F)c(F)c(F)c8F)c8ccc5[nH]8)C=C7)C=C6)cc4)[C@H]4C=C[C@@H]3C4)c2C(=O)NC2CC2)cc1
REMARK SMILES IDX 19 1 18 2 17 3 15 4 16 5 14 6 13 7 92 8 89 9 91 10 93 11
REMARK SMILES IDX 90 12 11 13 10 14 12 16 9 17 6 18 7 19 94 20 8 21 5 22 1 23
REMARK SMILES IDX 2 24 3 25 102 26 4 27 101 28 95 29 96 30 97 31 98 33 99 34
REMARK SMILES IDX 100 35 20 36 21 37 22 38 23 39 24 40 25 41 26 42 27 43 88 44
REMARK SMILES IDX 28 45 87 46 29 47 30 48 31 49 81 50 32 51 86 52 80 53 82 54
REMARK SMILES IDX 33 55 85 56 79 57 78 58 34 60 66 61 46 62 65 63 47 64 50 65
REMARK SMILES IDX 64 66 83 67 48 68 49 69 63 71 84 72 51 73 35 74 36 75 44 76
REMARK SMILES IDX 37 77 38 78 42 79 45 80 39 81 40 82 43 83 41 84 67 85 68 86
REMARK SMILES IDX 76 87 69 88 70 89 74 90 77 91 71 92 72 93 75 94 73 95 52 96
REMARK SMILES IDX 53 97 61 98 54 99 55 100 59 101 62 102 56 103 57 104 60 105
REMARK SMILES IDX 58 106
REMARK H PARENT 10 15 97 32 82 59 50 70
REMARK Flexibility Score: inf
ROOT
ATOM      1  C   UNL A   1      33.304  31.061  27.377  1.00  0.00     0.202 C 
ENDROOT
BRANCH   1   2
ATOM      2  C   UNL A   1      32.621  30.758  26.084  1.00  0.00     0.261 C 
BRANCH   2   3
ATOM      3  O   UNL A   1      31.885  29.518  26.083  1.00  0.00    -0.463 OA
BRANCH   3   4
ATOM      4  C   UNL A   1      31.880  28.772  24.931  1.00  0.00     0.310 C 
ATOM      5  O   UNL A   1      32.599  28.948  23.972  1.00  0.00    -0.252 OA
BRANCH   4   6
ATOM      6  C   UNL A   1      30.753  27.759  25.001  1.00  0.00     0.119 C 
ATOM      7  C   UNL A   1      31.221  26.307  25.339  1.00  0.00     0.100 C 
ATOM      8  C   UNL A   1      30.718  25.531  24.085  1.00  0.00     0.025 C 
ATOM      9  C   UNL A   1      29.994  27.588  23.656  1.00  0.00     0.027 C 
ATOM     10  C   UNL A   1      31.408  25.985  22.824  1.00  0.00    -0.027 C 
ATOM     11  C   UNL A   1      29.363  26.216  23.867  1.00  0.00     0.017 C 
ATOM     12  C   UNL A   1      30.940  27.207  22.543  1.00  0.00    -0.027 C 
BRANCH   7  13
ATOM     13  C   UNL A   1      32.683  26.283  25.804  1.00  0.00     0.229 C 
ATOM     14  N   UNL A   1      33.515  25.278  25.423  1.00  0.00    -0.317 N 
ATOM     15  H   UNL A   1      34.422  25.523  25.128  1.00  0.00     0.170 HD
ATOM     16  O   UNL A   1      33.120  27.191  26.519  1.00  0.00    -0.274 OA
BRANCH  14  17
ATOM     17  C   UNL A   1      33.185  23.943  25.417  1.00  0.00     0.108 A 
ATOM     18  C   UNL A   1      32.760  21.764  24.832  1.00  0.00     0.007 A 
ATOM     19  C   UNL A   1      31.849  22.007  25.853  1.00  0.00     0.076 A 
ATOM     20  C   UNL A   1      33.620  22.928  24.563  1.00  0.00     0.082 A 
ATOM     21  S   UNL A   1      32.286  23.368  26.747  1.00  0.00    -0.125 S 
BRANCH  18  22
ATOM     22  C   UNL A   1      32.758  20.374  24.409  1.00  0.00    -0.017 A 
ATOM     23  C   UNL A   1      33.647  16.343  23.331  1.00  0.00     0.044 C 
ATOM     24  C   UNL A   1      33.129  17.684  23.753  1.00  0.00    -0.051 A 
ATOM     25  C   UNL A   1      33.394  18.117  25.050  1.00  0.00     0.004 A 
ATOM     26  C   UNL A   1      32.531  18.569  22.836  1.00  0.00     0.004 A 
ATOM     27  C   UNL A   1      33.180  19.444  25.379  1.00  0.00     0.009 A 
ATOM     28  C   UNL A   1      32.337  19.920  23.162  1.00  0.00     0.009 A 
ENDBRANCH  18  22
BRANCH  20  29
ATOM     29  C   UNL A   1      34.648  23.297  23.560  1.00  0.00     0.255 C 
ATOM     30  O   UNL A   1      34.362  24.129  22.687  1.00  0.00    -0.269 OA
ATOM     31  N   UNL A   1      35.982  22.955  23.541  1.00  0.00    -0.349 N 
ATOM     32  H   UNL A   1      36.444  23.366  22.773  1.00  0.00     0.164 HD
BRANCH  31  33
ATOM     33  C   UNL A   1      36.874  22.175  24.319  1.00  0.00     0.082 C 
ATOM     34  C   UNL A   1      36.663  21.807  25.739  1.00  0.00     0.027 C 
ATOM     35  C   UNL A   1      36.530  20.767  24.648  1.00  0.00     0.027 C 
ENDBRANCH  31  33
ENDBRANCH  20  29
ENDBRANCH  14  17
ENDBRANCH   7  13
ENDBRANCH   4   6
ENDBRANCH   3   4
ENDBRANCH   2   3
ENDBRANCH   1   2
BRANCH   1  36
ATOM     36  O   UNL A   1      32.779  32.331  27.708  1.00  0.00    -0.374 OA
BRANCH  36  37
ATOM     37  C   UNL A   1      33.660  33.419  27.626  1.00  0.00     0.202 C 
BRANCH  37  38
ATOM     38  C   UNL A   1      33.537  34.321  28.849  1.00  0.00     0.261 C 
BRANCH  38  39
ATOM     39  O   UNL A   1      34.712  34.197  29.685  1.00  0.00    -0.460 OA
BRANCH  39  40
ATOM     40  C   UNL A   1      34.717  33.131  30.538  1.00  0.00     0.338 C 
ATOM     41  O   UNL A   1      34.091  33.074  31.588  1.00  0.00    -0.246 OA
BRANCH  40  42
ATOM     42  C   UNL A   1      35.791  32.166  30.157  1.00  0.00     0.060 A 
ATOM     43  C   UNL A   1      35.905  30.938  30.839  1.00  0.00     0.016 A 
ATOM     44  C   UNL A   1      36.869  32.653  29.424  1.00  0.00     0.016 A 
ATOM     45  C   UNL A   1      37.148  30.292  30.927  1.00  0.00     0.010 A 
ATOM     46  C   UNL A   1      38.111  32.103  29.656  1.00  0.00     0.010 A 
ATOM     47  C   UNL A   1      38.273  30.924  30.398  1.00  0.00    -0.014 A 
BRANCH  47  48
ATOM     48  C   UNL A   1      39.660  30.476  30.544  1.00  0.00     0.031 A 
ATOM     49  C   UNL A   1      40.062  29.308  29.730  1.00  0.00     0.074 A 
ATOM     50  C   UNL A   1      40.602  31.088  31.306  1.00  0.00     0.049 A 
ATOM     51  N   UNL A   1      40.839  28.380  30.176  1.00  0.00    -0.248 NA
ATOM     52  C   UNL A   1      39.569  29.035  28.377  1.00  0.00     0.031 C 
ATOM     53  C   UNL A   1      42.048  30.896  31.239  1.00  0.00     0.029 A 
ATOM     54  N   UNL A   1      40.462  32.059  32.305  1.00  0.00    -0.354 N 
ATOM     55  C   UNL A   1      41.185  27.609  29.095  1.00  0.00     0.074 A 
ATOM     56  C   UNL A   1      40.251  27.938  28.051  1.00  0.00     0.031 C 
ATOM     57  C   UNL A   1      42.638  31.524  32.272  1.00  0.00     0.029 A 
ATOM     58  C   UNL A   1      41.598  32.087  33.115  1.00  0.00     0.049 A 
ATOM     59  H   UNL A   1      39.675  32.641  32.419  1.00  0.00     0.167 HD
ATOM     60  C   UNL A   1      42.366  26.936  29.087  1.00  0.00     0.037 A 
ATOM     61  C   UNL A   1      41.506  32.029  34.469  1.00  0.00     0.037 A 
ATOM     62  C   UNL A   1      43.183  27.326  30.236  1.00  0.00     0.049 A 
ATOM     63  C   UNL A   1      42.076  30.708  34.889  1.00  0.00     0.074 A 
ATOM     64  C   UNL A   1      44.237  28.220  30.356  1.00  0.00     0.029 A 
ATOM     65  N   UNL A   1      42.716  27.109  31.533  1.00  0.00    -0.354 N 
ATOM     66  N   UNL A   1      42.184  29.716  34.047  1.00  0.00    -0.248 NA
ATOM     67  C   UNL A   1      42.648  30.405  36.192  1.00  0.00     0.031 C 
ATOM     68  C   UNL A   1      44.413  28.521  31.731  1.00  0.00     0.029 A 
ATOM     69  C   UNL A   1      43.468  27.814  32.456  1.00  0.00     0.049 A 
ATOM     70  H   UNL A   1      41.953  26.532  31.760  1.00  0.00     0.167 HD
ATOM     71  C   UNL A   1      42.912  28.722  34.608  1.00  0.00     0.074 A 
ATOM     72  C   UNL A   1      43.137  29.169  35.972  1.00  0.00     0.031 C 
ATOM     73  C   UNL A   1      43.280  27.625  33.890  1.00  0.00     0.037 A 
BRANCH  60  74
ATOM     74  C   UNL A   1      42.870  26.237  27.847  1.00  0.00     0.064 A 
ATOM     75  C   UNL A   1      43.648  26.904  26.883  1.00  0.00     0.173 A 
ATOM     76  C   UNL A   1      42.603  24.880  27.566  1.00  0.00     0.173 A 
ATOM     77  F   UNL A   1      44.045  28.170  27.055  1.00  0.00    -0.203 F 
ATOM     78  C   UNL A   1      44.048  26.290  25.693  1.00  0.00     0.198 A 
ATOM     79  C   UNL A   1      42.957  24.282  26.352  1.00  0.00     0.198 A 
ATOM     80  F   UNL A   1      42.009  24.090  28.474  1.00  0.00    -0.203 F 
ATOM     81  F   UNL A   1      44.792  26.975  24.812  1.00  0.00    -0.200 F 
ATOM     82  C   UNL A   1      43.679  24.991  25.414  1.00  0.00     0.200 A 
ATOM     83  F   UNL A   1      42.593  23.017  26.099  1.00  0.00    -0.200 F 
ATOM     84  F   UNL A   1      44.037  24.417  24.257  1.00  0.00    -0.200 F 
ENDBRANCH  60  74
BRANCH  61  85
ATOM     85  C   UNL A   1      40.351  32.778  35.041  1.00  0.00     0.064 A 
ATOM     86  C   UNL A   1      39.246  32.025  35.500  1.00  0.00     0.173 A 
ATOM     87  C   UNL A   1      40.455  34.097  35.503  1.00  0.00     0.173 A 
ATOM     88  F   UNL A   1      39.118  30.738  35.138  1.00  0.00    -0.203 F 
ATOM     89  C   UNL A   1      38.341  32.537  36.435  1.00  0.00     0.198 A 
ATOM     90  C   UNL A   1      39.558  34.602  36.456  1.00  0.00     0.198 A 
ATOM     91  F   UNL A   1      41.493  34.860  35.133  1.00  0.00    -0.203 F 
ATOM     92  F   UNL A   1      37.406  31.736  36.971  1.00  0.00    -0.200 F 
ATOM     93  C   UNL A   1      38.514  33.818  36.933  1.00  0.00     0.200 A 
ATOM     94  F   UNL A   1      39.777  35.805  37.005  1.00  0.00    -0.200 F 
ATOM     95  F   UNL A   1      37.773  34.239  37.970  1.00  0.00    -0.200 F 
ENDBRANCH  61  85
BRANCH  73  96
ATOM     96  C   UNL A   1      43.606  26.297  34.499  1.00  0.00     0.064 A 
ATOM     97  C   UNL A   1      42.621  25.399  34.937  1.00  0.00     0.173 A 
ATOM     98  C   UNL A   1      44.929  25.800  34.478  1.00  0.00     0.173 A 
ATOM     99  F   UNL A   1      41.315  25.698  34.873  1.00  0.00    -0.203 F 
ATOM    100  C   UNL A   1      42.943  24.128  35.398  1.00  0.00     0.198 A 
ATOM    101  C   UNL A   1      45.236  24.501  34.861  1.00  0.00     0.198 A 
ATOM    102  F   UNL A   1      45.962  26.540  34.050  1.00  0.00    -0.203 F 
ATOM    103  F   UNL A   1      41.972  23.331  35.865  1.00  0.00    -0.200 F 
ATOM    104  C   UNL A   1      44.246  23.673  35.346  1.00  0.00     0.200 A 
ATOM    105  F   UNL A   1      46.492  24.052  34.733  1.00  0.00    -0.200 F 
ATOM    106  F   UNL A   1      44.544  22.431  35.743  1.00  0.00    -0.200 F 
ENDBRANCH  73  96
ENDBRANCH  47  48
ENDBRANCH  40  42
ENDBRANCH  39  40
ENDBRANCH  38  39
ENDBRANCH  37  38
ENDBRANCH  36  37
ENDBRANCH   1  36
TORSDOF 19
ENDMDL
