MODEL 1
REMARK VINA RESULT:     -12.7      0.000      0.000
REMARK SMILES O=C(OCCOCCOC(=O)[C@H]1[C@H]2CC[C@H](C2)[C@@H]1C(=O)N1CC[NH+](C2CCCCC2)CC1)c1ccc(-c2c3nc(c(-c4c(F)c(F)c(F)c(F)c4F)c4ccc([nH]4)c(-c4c(F)c(F)c(F)c(F)c4F)c4nc(c(-c5c(F)c(F)c(F)c(F)c5F)c5ccc2[nH]5)C=C4)C=C3)cc1
REMARK SMILES IDX 6 1 5 2 4 3 3 4 2 5 1 6 33 7 34 8 95 9 35 10 94 11 36 12
REMARK SMILES IDX 37 13 38 14 88 15 39 16 93 17 87 18 89 19 40 20 92 21 86 22
REMARK SMILES IDX 85 23 41 25 73 26 53 27 72 28 54 29 57 30 71 31 90 32 55 33
REMARK SMILES IDX 56 34 70 36 91 37 58 38 42 39 43 40 51 41 44 42 45 43 49 44
REMARK SMILES IDX 52 45 46 46 47 47 50 48 48 49 74 50 75 51 83 52 76 53 77 54
REMARK SMILES IDX 81 55 84 56 78 57 79 58 82 59 80 60 59 61 60 62 68 63 61 64
REMARK SMILES IDX 62 65 66 66 69 67 63 68 64 69 67 70 65 71 7 72 8 73 9 74
REMARK SMILES IDX 10 75 11 76 12 77 13 78 18 79 14 80 17 81 16 82 15 83 19 84
REMARK SMILES IDX 20 85 21 86 22 87 32 88 23 89 31 90 24 91 25 93 26 94 30 95
REMARK SMILES IDX 27 96 29 97 28 98
REMARK H PARENT 89 24 57 35 24 92
REMARK Flexibility Score: inf
ROOT
ATOM      1  O   UNL A   1      32.131  29.820  26.488  1.00  0.00    -0.374 OA
ENDROOT
BRANCH   1   2
ATOM      2  C   UNL A   1      32.796  30.962  27.029  1.00  0.00     0.202 C 
BRANCH   2   3
ATOM      3  C   UNL A   1      31.911  32.202  27.176  1.00  0.00     0.261 C 
BRANCH   3   4
ATOM      4  O   UNL A   1      32.705  33.393  27.192  1.00  0.00    -0.460 OA
BRANCH   4   5
ATOM      5  C   UNL A   1      33.173  34.049  28.276  1.00  0.00     0.338 C 
ATOM      6  O   UNL A   1      32.542  35.025  28.683  1.00  0.00    -0.246 OA
BRANCH   5   7
ATOM      7  C   UNL A   1      34.405  33.659  29.035  1.00  0.00     0.060 A 
ATOM      8  C   UNL A   1      35.684  34.202  28.872  1.00  0.00     0.016 A 
ATOM      9  C   UNL A   1      34.220  32.727  30.070  1.00  0.00     0.016 A 
ATOM     10  C   UNL A   1      36.738  33.868  29.700  1.00  0.00     0.010 A 
ATOM     11  C   UNL A   1      35.279  32.358  30.898  1.00  0.00     0.010 A 
ATOM     12  C   UNL A   1      36.538  32.933  30.703  1.00  0.00    -0.014 A 
BRANCH  12  13
ATOM     13  C   UNL A   1      37.724  32.430  31.392  1.00  0.00     0.031 A 
ATOM     14  C   UNL A   1      38.525  31.390  30.687  1.00  0.00     0.074 A 
ATOM     15  C   UNL A   1      38.106  32.982  32.551  1.00  0.00     0.049 A 
ATOM     16  N   UNL A   1      39.524  30.676  31.121  1.00  0.00    -0.248 NA
ATOM     17  C   UNL A   1      38.147  31.120  29.288  1.00  0.00     0.031 C 
ATOM     18  C   UNL A   1      37.450  34.121  33.196  1.00  0.00     0.029 A 
ATOM     19  N   UNL A   1      39.135  32.662  33.388  1.00  0.00    -0.354 N 
ATOM     20  C   UNL A   1      39.861  29.840  30.067  1.00  0.00     0.074 A 
ATOM     21  C   UNL A   1      38.975  30.142  28.968  1.00  0.00     0.031 C 
ATOM     22  C   UNL A   1      38.080  34.385  34.352  1.00  0.00     0.029 A 
ATOM     23  C   UNL A   1      39.127  33.389  34.550  1.00  0.00     0.049 A 
ATOM     24  H   UNL A   1      39.813  31.980  33.178  1.00  0.00     0.167 HD
ATOM     25  C   UNL A   1      40.819  28.887  30.051  1.00  0.00     0.037 A 
ATOM     26  C   UNL A   1      39.851  33.206  35.670  1.00  0.00     0.037 A 
ATOM     27  C   UNL A   1      41.659  28.626  31.187  1.00  0.00     0.049 A 
ATOM     28  C   UNL A   1      40.845  32.076  35.674  1.00  0.00     0.074 A 
ATOM     29  C   UNL A   1      42.630  27.660  31.347  1.00  0.00     0.029 A 
ATOM     30  N   UNL A   1      41.605  29.351  32.375  1.00  0.00    -0.354 N 
ATOM     31  N   UNL A   1      41.124  31.221  34.715  1.00  0.00    -0.248 NA
ATOM     32  C   UNL A   1      41.613  31.869  36.905  1.00  0.00     0.031 C 
ATOM     33  C   UNL A   1      43.123  27.764  32.653  1.00  0.00     0.029 A 
ATOM     34  C   UNL A   1      42.510  28.839  33.284  1.00  0.00     0.049 A 
ATOM     35  H   UNL A   1      41.010  30.118  32.542  1.00  0.00     0.167 HD
ATOM     36  C   UNL A   1      42.116  30.390  35.213  1.00  0.00     0.074 A 
ATOM     37  C   UNL A   1      42.388  30.846  36.565  1.00  0.00     0.031 C 
ATOM     38  C   UNL A   1      42.748  29.350  34.615  1.00  0.00     0.037 A 
BRANCH  25  39
ATOM     39  C   UNL A   1      40.891  28.021  28.829  1.00  0.00     0.064 A 
ATOM     40  C   UNL A   1      41.695  28.344  27.724  1.00  0.00     0.173 A 
ATOM     41  C   UNL A   1      40.061  26.893  28.724  1.00  0.00     0.173 A 
ATOM     42  F   UNL A   1      42.482  29.430  27.755  1.00  0.00    -0.203 F 
ATOM     43  C   UNL A   1      41.624  27.605  26.545  1.00  0.00     0.198 A 
ATOM     44  C   UNL A   1      40.019  26.136  27.557  1.00  0.00     0.198 A 
ATOM     45  F   UNL A   1      39.264  26.543  29.744  1.00  0.00    -0.203 F 
ATOM     46  F   UNL A   1      42.331  27.987  25.472  1.00  0.00    -0.200 F 
ATOM     47  C   UNL A   1      40.787  26.502  26.463  1.00  0.00     0.200 A 
ATOM     48  F   UNL A   1      39.212  25.070  27.481  1.00  0.00    -0.200 F 
ATOM     49  F   UNL A   1      40.703  25.806  25.321  1.00  0.00    -0.200 F 
ENDBRANCH  25  39
BRANCH  26  50
ATOM     50  C   UNL A   1      39.598  34.063  36.855  1.00  0.00     0.064 A 
ATOM     51  C   UNL A   1      38.777  33.636  37.906  1.00  0.00     0.173 A 
ATOM     52  C   UNL A   1      40.223  35.316  36.987  1.00  0.00     0.173 A 
ATOM     53  F   UNL A   1      38.144  32.457  37.823  1.00  0.00    -0.203 F 
ATOM     54  C   UNL A   1      38.592  34.425  39.041  1.00  0.00     0.198 A 
ATOM     55  C   UNL A   1      40.061  36.090  38.134  1.00  0.00     0.198 A 
ATOM     56  F   UNL A   1      41.022  35.774  36.012  1.00  0.00    -0.203 F 
ATOM     57  F   UNL A   1      37.784  34.002  40.023  1.00  0.00    -0.200 F 
ATOM     58  C   UNL A   1      39.242  35.645  39.160  1.00  0.00     0.200 A 
ATOM     59  F   UNL A   1      40.706  37.259  38.248  1.00  0.00    -0.200 F 
ATOM     60  F   UNL A   1      39.078  36.392  40.259  1.00  0.00    -0.200 F 
ENDBRANCH  26  50
BRANCH  38  61
ATOM     61  C   UNL A   1      43.830  28.670  35.396  1.00  0.00     0.064 A 
ATOM     62  C   UNL A   1      45.168  29.073  35.305  1.00  0.00     0.173 A 
ATOM     63  C   UNL A   1      43.495  27.679  36.332  1.00  0.00     0.173 A 
ATOM     64  F   UNL A   1      45.533  30.009  34.414  1.00  0.00    -0.203 F 
ATOM     65  C   UNL A   1      46.137  28.506  36.126  1.00  0.00     0.198 A 
ATOM     66  C   UNL A   1      44.460  27.137  37.171  1.00  0.00     0.198 A 
ATOM     67  F   UNL A   1      42.223  27.270  36.458  1.00  0.00    -0.203 F 
ATOM     68  F   UNL A   1      47.416  28.887  36.011  1.00  0.00    -0.200 F 
ATOM     69  C   UNL A   1      45.780  27.550  37.066  1.00  0.00     0.200 A 
ATOM     70  F   UNL A   1      44.111  26.229  38.092  1.00  0.00    -0.200 F 
ATOM     71  F   UNL A   1      46.710  27.027  37.877  1.00  0.00    -0.200 F 
ENDBRANCH  38  61
ENDBRANCH  12  13
ENDBRANCH   5   7
ENDBRANCH   4   5
ENDBRANCH   3   4
ENDBRANCH   2   3
ENDBRANCH   1   2
BRANCH   1  72
ATOM     72  C   UNL A   1      32.864  29.011  25.569  1.00  0.00     0.202 C 
BRANCH  72  73
ATOM     73  C   UNL A   1      33.541  27.879  26.336  1.00  0.00     0.261 C 
BRANCH  73  74
ATOM     74  O   UNL A   1      33.291  26.668  25.616  1.00  0.00    -0.463 OA
BRANCH  74  75
ATOM     75  C   UNL A   1      32.225  25.947  26.072  1.00  0.00     0.310 C 
ATOM     76  O   UNL A   1      31.680  26.073  27.155  1.00  0.00    -0.252 OA
BRANCH  75  77
ATOM     77  C   UNL A   1      31.820  24.987  24.979  1.00  0.00     0.115 C 
ATOM     78  C   UNL A   1      30.354  25.266  24.575  1.00  0.00     0.004 C 
ATOM     79  C   UNL A   1      32.620  25.141  23.665  1.00  0.00     0.096 C 
ATOM     80  C   UNL A   1      30.151  26.733  24.173  1.00  0.00     0.005 C 
ATOM     81  C   UNL A   1      30.295  24.600  23.216  1.00  0.00     0.009 C 
ATOM     82  C   UNL A   1      31.484  25.394  22.655  1.00  0.00     0.003 C 
ATOM     83  C   UNL A   1      30.975  26.843  22.879  1.00  0.00     0.005 C 
BRANCH  79  84
ATOM     84  C   UNL A   1      33.657  24.006  23.466  1.00  0.00     0.227 C 
ATOM     85  O   UNL A   1      34.736  24.289  22.931  1.00  0.00    -0.275 OA
ATOM     86  N   UNL A   1      33.502  22.760  24.030  1.00  0.00    -0.331 N 
ATOM     87  C   UNL A   1      34.693  21.960  24.360  1.00  0.00     0.181 C 
ATOM     88  C   UNL A   1      32.305  21.943  23.915  1.00  0.00     0.181 C 
ATOM     89  C   UNL A   1      34.458  21.018  25.575  1.00  0.00     0.284 C 
ATOM     90  C   UNL A   1      32.072  21.181  25.223  1.00  0.00     0.284 C 
ATOM     91  N   UNL A   1      33.175  20.282  25.600  1.00  0.00    -0.330 N 
ATOM     92  H   UNL A   1      32.987  20.009  26.565  1.00  0.00     0.348 HD
BRANCH  91  93
ATOM     93  C   UNL A   1      33.195  18.927  25.009  1.00  0.00     0.184 C 
ATOM     94  C   UNL A   1      34.613  18.531  24.531  1.00  0.00     0.065 C 
ATOM     95  C   UNL A   1      32.532  17.810  25.843  1.00  0.00     0.065 C 
ATOM     96  C   UNL A   1      34.682  17.135  23.924  1.00  0.00     0.006 C 
ATOM     97  C   UNL A   1      32.693  16.414  25.241  1.00  0.00     0.006 C 
ATOM     98  C   UNL A   1      34.147  16.109  24.911  1.00  0.00     0.000 C 
ENDBRANCH  91  93
ENDBRANCH  79  84
ENDBRANCH  75  77
ENDBRANCH  74  75
ENDBRANCH  73  74
ENDBRANCH  72  73
ENDBRANCH   1  72
TORSDOF 16
ENDMDL
MODEL 2
REMARK VINA RESULT:     -12.6      0.645      2.051
REMARK SMILES O=C(OCCOCCOC(=O)[C@H]1[C@H]2CC[C@H](C2)[C@@H]1C(=O)N1CC[NH+](C2CCCCC2)CC1)c1ccc(-c2c3nc(c(-c4c(F)c(F)c(F)c(F)c4F)c4ccc([nH]4)c(-c4c(F)c(F)c(F)c(F)c4F)c4nc(c(-c5c(F)c(F)c(F)c(F)c5F)c5ccc2[nH]5)C=C4)C=C3)cc1
REMARK SMILES IDX 6 1 5 2 4 3 3 4 2 5 1 6 33 7 34 8 95 9 35 10 94 11 36 12
REMARK SMILES IDX 37 13 38 14 88 15 39 16 93 17 87 18 89 19 40 20 92 21 86 22
REMARK SMILES IDX 85 23 41 25 73 26 53 27 72 28 54 29 57 30 71 31 90 32 55 33
REMARK SMILES IDX 56 34 70 36 91 37 58 38 42 39 43 40 51 41 44 42 45 43 49 44
REMARK SMILES IDX 52 45 46 46 47 47 50 48 48 49 74 50 75 51 83 52 76 53 77 54
REMARK SMILES IDX 81 55 84 56 78 57 79 58 82 59 80 60 59 61 60 62 68 63 61 64
REMARK SMILES IDX 62 65 66 66 69 67 63 68 64 69 67 70 65 71 7 72 8 73 9 74
REMARK SMILES IDX 10 75 11 76 12 77 13 78 18 79 14 80 17 81 16 82 15 83 19 84
REMARK SMILES IDX 20 85 21 86 22 87 32 88 23 89 31 90 24 91 25 93 26 94 30 95
REMARK SMILES IDX 27 96 29 97 28 98
REMARK H PARENT 89 24 57 35 24 92
REMARK Flexibility Score: inf
ROOT
ATOM      1  O   UNL A   1      31.703  30.466  25.745  1.00  0.00    -0.374 OA
ENDROOT
BRANCH   1   2
ATOM      2  C   UNL A   1      31.427  31.711  26.388  1.00  0.00     0.202 C 
BRANCH   2   3
ATOM      3  C   UNL A   1      32.578  32.254  27.239  1.00  0.00     0.261 C 
BRANCH   3   4
ATOM      4  O   UNL A   1      32.354  33.628  27.577  1.00  0.00    -0.460 OA
BRANCH   4   5
ATOM      5  C   UNL A   1      33.057  34.378  28.454  1.00  0.00     0.338 C 
ATOM      6  O   UNL A   1      32.639  35.504  28.721  1.00  0.00    -0.246 OA
BRANCH   5   7
ATOM      7  C   UNL A   1      34.310  33.925  29.141  1.00  0.00     0.060 A 
ATOM      8  C   UNL A   1      35.617  34.295  28.807  1.00  0.00     0.016 A 
ATOM      9  C   UNL A   1      34.129  33.132  30.287  1.00  0.00     0.016 A 
ATOM     10  C   UNL A   1      36.706  33.926  29.573  1.00  0.00     0.010 A 
ATOM     11  C   UNL A   1      35.219  32.728  31.056  1.00  0.00     0.010 A 
ATOM     12  C   UNL A   1      36.507  33.127  30.687  1.00  0.00    -0.014 A 
BRANCH  12  13
ATOM     13  C   UNL A   1      37.695  32.562  31.323  1.00  0.00     0.031 A 
ATOM     14  C   UNL A   1      38.437  31.518  30.560  1.00  0.00     0.074 A 
ATOM     15  C   UNL A   1      38.131  33.062  32.487  1.00  0.00     0.049 A 
ATOM     16  N   UNL A   1      39.423  30.757  30.940  1.00  0.00    -0.248 NA
ATOM     17  C   UNL A   1      38.008  31.308  29.166  1.00  0.00     0.031 C 
ATOM     18  C   UNL A   1      37.536  34.200  33.188  1.00  0.00     0.029 A 
ATOM     19  N   UNL A   1      39.173  32.680  33.280  1.00  0.00    -0.354 N 
ATOM     20  C   UNL A   1      39.698  29.945  29.850  1.00  0.00     0.074 A 
ATOM     21  C   UNL A   1      38.790  30.313  28.789  1.00  0.00     0.031 C 
ATOM     22  C   UNL A   1      38.209  34.405  34.332  1.00  0.00     0.029 A 
ATOM     23  C   UNL A   1      39.226  33.367  34.465  1.00  0.00     0.049 A 
ATOM     24  H   UNL A   1      39.820  31.981  33.027  1.00  0.00     0.167 HD
ATOM     25  C   UNL A   1      40.621  28.961  29.774  1.00  0.00     0.037 A 
ATOM     26  C   UNL A   1      39.977  33.123  35.554  1.00  0.00     0.037 A 
ATOM     27  C   UNL A   1      41.485  28.634  30.874  1.00  0.00     0.049 A 
ATOM     28  C   UNL A   1      40.930  31.960  35.491  1.00  0.00     0.074 A 
ATOM     29  C   UNL A   1      42.426  27.630  30.972  1.00  0.00     0.029 A 
ATOM     30  N   UNL A   1      41.493  29.321  32.085  1.00  0.00    -0.354 N 
ATOM     31  N   UNL A   1      41.150  31.128  34.498  1.00  0.00    -0.248 NA
ATOM     32  C   UNL A   1      41.727  31.686  36.691  1.00  0.00     0.031 C 
ATOM     33  C   UNL A   1      42.962  27.674  32.265  1.00  0.00     0.029 A 
ATOM     34  C   UNL A   1      42.406  28.748  32.948  1.00  0.00     0.049 A 
ATOM     35  H   UNL A   1      40.931  30.101  32.296  1.00  0.00     0.167 HD
ATOM     36  C   UNL A   1      42.126  30.248  34.937  1.00  0.00     0.074 A 
ATOM     37  C   UNL A   1      42.455  30.650  36.294  1.00  0.00     0.031 C 
ATOM     38  C   UNL A   1      42.702  29.207  34.287  1.00  0.00     0.037 A 
BRANCH  25  39
ATOM     39  C   UNL A   1      40.626  28.133  28.522  1.00  0.00     0.064 A 
ATOM     40  C   UNL A   1      39.935  26.915  28.423  1.00  0.00     0.173 A 
ATOM     41  C   UNL A   1      41.421  28.523  27.433  1.00  0.00     0.173 A 
ATOM     42  F   UNL A   1      39.187  26.477  29.447  1.00  0.00    -0.203 F 
ATOM     43  C   UNL A   1      40.083  26.096  27.306  1.00  0.00     0.198 A 
ATOM     44  C   UNL A   1      41.539  27.719  26.304  1.00  0.00     0.198 A 
ATOM     45  F   UNL A   1      42.112  29.672  27.476  1.00  0.00    -0.203 F 
ATOM     46  F   UNL A   1      39.488  24.895  27.273  1.00  0.00    -0.200 F 
ATOM     47  C   UNL A   1      40.885  26.498  26.248  1.00  0.00     0.200 A 
ATOM     48  F   UNL A   1      42.311  28.111  25.281  1.00  0.00    -0.200 F 
ATOM     49  F   UNL A   1      41.044  25.699  25.184  1.00  0.00    -0.200 F 
ENDBRANCH  25  39
BRANCH  26  50
ATOM     50  C   UNL A   1      39.790  33.949  36.773  1.00  0.00     0.064 A 
ATOM     51  C   UNL A   1      40.411  35.197  36.913  1.00  0.00     0.173 A 
ATOM     52  C   UNL A   1      38.936  33.530  37.808  1.00  0.00     0.173 A 
ATOM     53  F   UNL A   1      41.248  35.639  35.963  1.00  0.00    -0.203 F 
ATOM     54  C   UNL A   1      40.183  35.992  38.037  1.00  0.00     0.198 A 
ATOM     55  C   UNL A   1      38.688  34.336  38.916  1.00  0.00     0.198 A 
ATOM     56  F   UNL A   1      38.314  32.344  37.726  1.00  0.00    -0.203 F 
ATOM     57  F   UNL A   1      40.807  37.173  38.156  1.00  0.00    -0.200 F 
ATOM     58  C   UNL A   1      39.315  35.567  39.031  1.00  0.00     0.200 A 
ATOM     59  F   UNL A   1      37.834  33.926  39.864  1.00  0.00    -0.200 F 
ATOM     60  F   UNL A   1      39.083  36.340  40.100  1.00  0.00    -0.200 F 
ENDBRANCH  26  50
BRANCH  38  61
ATOM     61  C   UNL A   1      43.783  28.465  35.011  1.00  0.00     0.064 A 
ATOM     62  C   UNL A   1      43.510  27.315  35.763  1.00  0.00     0.173 A 
ATOM     63  C   UNL A   1      45.122  28.852  34.848  1.00  0.00     0.173 A 
ATOM     64  F   UNL A   1      42.243  26.917  35.954  1.00  0.00    -0.203 F 
ATOM     65  C   UNL A   1      44.544  26.576  36.329  1.00  0.00     0.198 A 
ATOM     66  C   UNL A   1      46.153  28.094  35.389  1.00  0.00     0.198 A 
ATOM     67  F   UNL A   1      45.428  29.942  34.127  1.00  0.00    -0.203 F 
ATOM     68  F   UNL A   1      44.265  25.491  37.064  1.00  0.00    -0.200 F 
ATOM     69  C   UNL A   1      45.863  26.959  36.130  1.00  0.00     0.200 A 
ATOM     70  F   UNL A   1      47.427  28.453  35.179  1.00  0.00    -0.200 F 
ATOM     71  F   UNL A   1      46.859  26.228  36.651  1.00  0.00    -0.200 F 
ENDBRANCH  38  61
ENDBRANCH  12  13
ENDBRANCH   5   7
ENDBRANCH   4   5
ENDBRANCH   3   4
ENDBRANCH   2   3
ENDBRANCH   1   2
BRANCH   1  72
ATOM     72  C   UNL A   1      32.242  29.419  26.550  1.00  0.00     0.202 C 
BRANCH  72  73
ATOM     73  C   UNL A   1      33.614  29.032  26.008  1.00  0.00     0.261 C 
BRANCH  73  74
ATOM     74  O   UNL A   1      33.656  27.604  25.934  1.00  0.00    -0.463 OA
BRANCH  74  75
ATOM     75  C   UNL A   1      33.255  27.087  24.735  1.00  0.00     0.310 C 
ATOM     76  O   UNL A   1      33.336  27.636  23.651  1.00  0.00    -0.252 OA
BRANCH  75  77
ATOM     77  C   UNL A   1      32.723  25.698  24.991  1.00  0.00     0.115 C 
ATOM     78  C   UNL A   1      31.405  25.797  25.792  1.00  0.00     0.004 C 
ATOM     79  C   UNL A   1      32.341  24.913  23.714  1.00  0.00     0.096 C 
ATOM     80  C   UNL A   1      30.382  26.695  25.083  1.00  0.00     0.005 C 
ATOM     81  C   UNL A   1      30.799  24.434  25.529  1.00  0.00     0.009 C 
ATOM     82  C   UNL A   1      30.864  24.581  24.001  1.00  0.00     0.003 C 
ATOM     83  C   UNL A   1      30.048  25.888  23.817  1.00  0.00     0.005 C 
BRANCH  79  84
ATOM     84  C   UNL A   1      33.376  23.814  23.362  1.00  0.00     0.227 C 
ATOM     85  O   UNL A   1      34.348  24.130  22.664  1.00  0.00    -0.275 OA
ATOM     86  N   UNL A   1      33.357  22.569  23.950  1.00  0.00    -0.331 N 
ATOM     87  C   UNL A   1      34.614  21.817  24.094  1.00  0.00     0.181 C 
ATOM     88  C   UNL A   1      32.189  21.708  24.027  1.00  0.00     0.181 C 
ATOM     89  C   UNL A   1      34.606  20.880  25.336  1.00  0.00     0.284 C 
ATOM     90  C   UNL A   1      32.191  20.953  25.359  1.00  0.00     0.284 C 
ATOM     91  N   UNL A   1      33.372  20.099  25.564  1.00  0.00    -0.330 N 
ATOM     92  H   UNL A   1      33.346  19.829  26.548  1.00  0.00     0.348 HD
BRANCH  91  93
ATOM     93  C   UNL A   1      33.350  18.739  24.985  1.00  0.00     0.184 C 
ATOM     94  C   UNL A   1      34.764  18.276  24.559  1.00  0.00     0.065 C 
ATOM     95  C   UNL A   1      32.610  17.660  25.804  1.00  0.00     0.065 C 
ATOM     96  C   UNL A   1      34.791  16.873  23.965  1.00  0.00     0.006 C 
ATOM     97  C   UNL A   1      32.727  16.253  25.219  1.00  0.00     0.006 C 
ATOM     98  C   UNL A   1      34.176  15.881  24.940  1.00  0.00     0.000 C 
ENDBRANCH  91  93
ENDBRANCH  79  84
ENDBRANCH  75  77
ENDBRANCH  74  75
ENDBRANCH  73  74
ENDBRANCH  72  73
ENDBRANCH   1  72
TORSDOF 16
ENDMDL
MODEL 3
REMARK VINA RESULT:     -12.6      1.604      7.460
REMARK SMILES O=C(OCCOCCOC(=O)[C@H]1[C@H]2CC[C@H](C2)[C@@H]1C(=O)N1CC[NH+](C2CCCCC2)CC1)c1ccc(-c2c3nc(c(-c4c(F)c(F)c(F)c(F)c4F)c4ccc([nH]4)c(-c4c(F)c(F)c(F)c(F)c4F)c4nc(c(-c5c(F)c(F)c(F)c(F)c5F)c5ccc2[nH]5)C=C4)C=C3)cc1
REMARK SMILES IDX 6 1 5 2 4 3 3 4 2 5 1 6 33 7 34 8 95 9 35 10 94 11 36 12
REMARK SMILES IDX 37 13 38 14 88 15 39 16 93 17 87 18 89 19 40 20 92 21 86 22
REMARK SMILES IDX 85 23 41 25 73 26 53 27 72 28 54 29 57 30 71 31 90 32 55 33
REMARK SMILES IDX 56 34 70 36 91 37 58 38 42 39 43 40 51 41 44 42 45 43 49 44
REMARK SMILES IDX 52 45 46 46 47 47 50 48 48 49 74 50 75 51 83 52 76 53 77 54
REMARK SMILES IDX 81 55 84 56 78 57 79 58 82 59 80 60 59 61 60 62 68 63 61 64
REMARK SMILES IDX 62 65 66 66 69 67 63 68 64 69 67 70 65 71 7 72 8 73 9 74
REMARK SMILES IDX 10 75 11 76 12 77 13 78 18 79 14 80 17 81 16 82 15 83 19 84
REMARK SMILES IDX 20 85 21 86 22 87 32 88 23 89 31 90 24 91 25 93 26 94 30 95
REMARK SMILES IDX 27 96 29 97 28 98
REMARK H PARENT 89 24 57 35 24 92
REMARK Flexibility Score: inf
ROOT
ATOM      1  O   UNL A   1      32.254  30.961  26.311  1.00  0.00    -0.374 OA
ENDROOT
BRANCH   1   2
ATOM      2  C   UNL A   1      31.408  31.963  26.877  1.00  0.00     0.202 C 
BRANCH   2   3
ATOM      3  C   UNL A   1      31.933  33.393  26.732  1.00  0.00     0.261 C 
BRANCH   3   4
ATOM      4  O   UNL A   1      32.646  33.793  27.908  1.00  0.00    -0.460 OA
BRANCH   4   5
ATOM      5  C   UNL A   1      33.958  34.103  28.002  1.00  0.00     0.338 C 
ATOM      6  O   UNL A   1      34.336  35.180  27.545  1.00  0.00    -0.246 OA
BRANCH   5   7
ATOM      7  C   UNL A   1      34.990  33.226  28.646  1.00  0.00     0.060 A 
ATOM      8  C   UNL A   1      34.780  31.943  29.162  1.00  0.00     0.016 A 
ATOM      9  C   UNL A   1      36.306  33.717  28.635  1.00  0.00     0.016 A 
ATOM     10  C   UNL A   1      35.816  31.158  29.628  1.00  0.00     0.010 A 
ATOM     11  C   UNL A   1      37.360  32.949  29.127  1.00  0.00     0.010 A 
ATOM     12  C   UNL A   1      37.104  31.669  29.626  1.00  0.00    -0.014 A 
BRANCH  12  13
ATOM     13  C   UNL A   1      38.124  30.909  30.346  1.00  0.00     0.031 A 
ATOM     14  C   UNL A   1      38.264  31.180  31.804  1.00  0.00     0.074 A 
ATOM     15  C   UNL A   1      38.806  29.943  29.715  1.00  0.00     0.049 A 
ATOM     16  N   UNL A   1      39.170  30.764  32.642  1.00  0.00    -0.248 NA
ATOM     17  C   UNL A   1      37.229  32.041  32.405  1.00  0.00     0.031 C 
ATOM     18  C   UNL A   1      38.583  29.523  28.331  1.00  0.00     0.029 A 
ATOM     19  N   UNL A   1      39.817  29.141  30.156  1.00  0.00    -0.354 N 
ATOM     20  C   UNL A   1      38.842  31.351  33.856  1.00  0.00     0.074 A 
ATOM     21  C   UNL A   1      37.650  32.139  33.653  1.00  0.00     0.031 C 
ATOM     22  C   UNL A   1      39.462  28.556  28.025  1.00  0.00     0.029 A 
ATOM     23  C   UNL A   1      40.343  28.349  29.168  1.00  0.00     0.049 A 
ATOM     24  H   UNL A   1      40.136  29.132  31.088  1.00  0.00     0.167 HD
ATOM     25  C   UNL A   1      39.514  31.247  35.023  1.00  0.00     0.037 A 
ATOM     26  C   UNL A   1      41.461  27.600  29.187  1.00  0.00     0.037 A 
ATOM     27  C   UNL A   1      40.707  30.457  35.154  1.00  0.00     0.049 A 
ATOM     28  C   UNL A   1      42.255  27.573  30.466  1.00  0.00     0.074 A 
ATOM     29  C   UNL A   1      41.529  30.299  36.250  1.00  0.00     0.029 A 
ATOM     30  N   UNL A   1      41.247  29.692  34.123  1.00  0.00    -0.354 N 
ATOM     31  N   UNL A   1      42.007  28.186  31.602  1.00  0.00    -0.248 NA
ATOM     32  C   UNL A   1      43.483  26.774  30.470  1.00  0.00     0.031 C 
ATOM     33  C   UNL A   1      42.601  29.484  35.864  1.00  0.00     0.029 A 
ATOM     34  C   UNL A   1      42.409  29.078  34.549  1.00  0.00     0.049 A 
ATOM     35  H   UNL A   1      40.859  29.601  33.223  1.00  0.00     0.167 HD
ATOM     36  C   UNL A   1      43.029  27.828  32.467  1.00  0.00     0.074 A 
ATOM     37  C   UNL A   1      43.904  26.943  31.718  1.00  0.00     0.031 C 
ATOM     38  C   UNL A   1      43.231  28.190  33.758  1.00  0.00     0.037 A 
BRANCH  25  39
ATOM     39  C   UNL A   1      39.028  32.096  36.161  1.00  0.00     0.064 A 
ATOM     40  C   UNL A   1      39.489  33.405  36.374  1.00  0.00     0.173 A 
ATOM     41  C   UNL A   1      38.154  31.549  37.114  1.00  0.00     0.173 A 
ATOM     42  F   UNL A   1      40.352  33.966  35.514  1.00  0.00    -0.203 F 
ATOM     43  C   UNL A   1      39.138  34.111  37.523  1.00  0.00     0.198 A 
ATOM     44  C   UNL A   1      37.777  32.270  38.243  1.00  0.00     0.198 A 
ATOM     45  F   UNL A   1      37.690  30.299  36.968  1.00  0.00    -0.203 F 
ATOM     46  F   UNL A   1      39.664  35.322  37.751  1.00  0.00    -0.200 F 
ATOM     47  C   UNL A   1      38.283  33.543  38.456  1.00  0.00     0.200 A 
ATOM     48  F   UNL A   1      36.949  31.721  39.141  1.00  0.00    -0.200 F 
ATOM     49  F   UNL A   1      37.964  34.214  39.571  1.00  0.00    -0.200 F 
ENDBRANCH  25  39
BRANCH  26  50
ATOM     50  C   UNL A   1      41.895  26.899  27.953  1.00  0.00     0.064 A 
ATOM     51  C   UNL A   1      42.754  27.508  27.029  1.00  0.00     0.173 A 
ATOM     52  C   UNL A   1      41.500  25.574  27.697  1.00  0.00     0.173 A 
ATOM     53  F   UNL A   1      43.148  28.775  27.216  1.00  0.00    -0.203 F 
ATOM     54  C   UNL A   1      43.202  26.819  25.901  1.00  0.00     0.198 A 
ATOM     55  C   UNL A   1      41.970  24.879  26.586  1.00  0.00     0.198 A 
ATOM     56  F   UNL A   1      40.679  24.942  28.549  1.00  0.00    -0.203 F 
ATOM     57  F   UNL A   1      44.007  27.432  25.022  1.00  0.00    -0.200 F 
ATOM     58  C   UNL A   1      42.819  25.503  25.686  1.00  0.00     0.200 A 
ATOM     59  F   UNL A   1      41.611  23.602  26.394  1.00  0.00    -0.200 F 
ATOM     60  F   UNL A   1      43.267  24.838  24.613  1.00  0.00    -0.200 F 
ENDBRANCH  26  50
BRANCH  38  61
ATOM     61  C   UNL A   1      44.410  27.588  34.458  1.00  0.00     0.064 A 
ATOM     62  C   UNL A   1      44.326  26.352  35.111  1.00  0.00     0.173 A 
ATOM     63  C   UNL A   1      45.665  28.211  34.369  1.00  0.00     0.173 A 
ATOM     64  F   UNL A   1      43.144  25.729  35.231  1.00  0.00    -0.203 F 
ATOM     65  C   UNL A   1      45.462  25.758  35.653  1.00  0.00     0.198 A 
ATOM     66  C   UNL A   1      46.801  27.601  34.884  1.00  0.00     0.198 A 
ATOM     67  F   UNL A   1      45.790  29.392  33.743  1.00  0.00    -0.203 F 
ATOM     68  F   UNL A   1      45.361  24.586  36.295  1.00  0.00    -0.200 F 
ATOM     69  C   UNL A   1      46.698  26.376  35.527  1.00  0.00     0.200 A 
ATOM     70  F   UNL A   1      47.997  28.188  34.743  1.00  0.00    -0.200 F 
ATOM     71  F   UNL A   1      47.795  25.788  36.023  1.00  0.00    -0.200 F 
ENDBRANCH  38  61
ENDBRANCH  12  13
ENDBRANCH   5   7
ENDBRANCH   4   5
ENDBRANCH   3   4
ENDBRANCH   2   3
ENDBRANCH   1   2
BRANCH   1  72
ATOM     72  C   UNL A   1      32.733  29.940  27.184  1.00  0.00     0.202 C 
BRANCH  72  73
ATOM     73  C   UNL A   1      33.945  29.269  26.546  1.00  0.00     0.261 C 
BRANCH  73  74
ATOM     74  O   UNL A   1      33.499  28.031  25.983  1.00  0.00    -0.463 OA
BRANCH  74  75
ATOM     75  C   UNL A   1      33.399  28.032  24.621  1.00  0.00     0.310 C 
ATOM     76  O   UNL A   1      34.053  28.715  23.851  1.00  0.00    -0.252 OA
BRANCH  75  77
ATOM     77  C   UNL A   1      32.358  27.009  24.238  1.00  0.00     0.115 C 
ATOM     78  C   UNL A   1      30.966  27.506  24.690  1.00  0.00     0.004 C 
ATOM     79  C   UNL A   1      32.212  26.784  22.714  1.00  0.00     0.096 C 
ATOM     80  C   UNL A   1      30.655  28.899  24.126  1.00  0.00     0.005 C 
ATOM     81  C   UNL A   1      30.058  26.654  23.829  1.00  0.00     0.009 C 
ATOM     82  C   UNL A   1      30.716  27.092  22.512  1.00  0.00     0.003 C 
ATOM     83  C   UNL A   1      30.539  28.631  22.616  1.00  0.00     0.005 C 
BRANCH  79  84
ATOM     84  C   UNL A   1      32.845  25.447  22.249  1.00  0.00     0.227 C 
ATOM     85  O   UNL A   1      33.565  25.462  21.244  1.00  0.00    -0.275 OA
ATOM     86  N   UNL A   1      32.794  24.303  23.014  1.00  0.00    -0.331 N 
ATOM     87  C   UNL A   1      33.863  23.299  22.887  1.00  0.00     0.181 C 
ATOM     88  C   UNL A   1      31.581  23.746  23.590  1.00  0.00     0.181 C 
ATOM     89  C   UNL A   1      34.100  22.515  24.209  1.00  0.00     0.284 C 
ATOM     90  C   UNL A   1      31.891  23.144  24.963  1.00  0.00     0.284 C 
ATOM     91  N   UNL A   1      32.892  22.065  24.934  1.00  0.00    -0.330 N 
ATOM     92  H   UNL A   1      33.150  21.905  25.908  1.00  0.00     0.348 HD
BRANCH  91  93
ATOM     93  C   UNL A   1      32.424  20.696  24.625  1.00  0.00     0.184 C 
ATOM     94  C   UNL A   1      32.613  20.351  23.128  1.00  0.00     0.065 C 
ATOM     95  C   UNL A   1      32.942  19.573  25.548  1.00  0.00     0.065 C 
ATOM     96  C   UNL A   1      32.153  18.944  22.766  1.00  0.00     0.006 C 
ATOM     97  C   UNL A   1      32.526  18.171  25.106  1.00  0.00     0.006 C 
ATOM     98  C   UNL A   1      32.859  17.922  23.642  1.00  0.00     0.000 C 
ENDBRANCH  91  93
ENDBRANCH  79  84
ENDBRANCH  75  77
ENDBRANCH  74  75
ENDBRANCH  73  74
ENDBRANCH  72  73
ENDBRANCH   1  72
TORSDOF 16
ENDMDL
