MODEL 1
REMARK VINA RESULT:     -11.3      0.000      0.000
REMARK SMILES CC(C)(C[N@H+]1C[C@@H]2C[NH2+]C[C@H]2C1(C)C)C(=O)OCCOCCOC(=O)c1ccc(-c2c3nc(c(-c4c(F)c(F)c(F)c(F)c4F)c4ccc([nH]4)c(-c4c(F)c(F)c(F)c(F)c4F)c4nc(c(-c5c(F)c(F)c(F)c(F)c5F)c5ccc2[nH]5)C=C4)C=C3)cc1
REMARK SMILES IDX 20 1 19 2 18 3 17 4 15 5 16 6 2 7 1 8 3 9 4 10 5 11 6 12
REMARK SMILES IDX 12 13 7 15 11 16 13 17 14 18 8 19 10 20 9 21 21 24 22 25
REMARK SMILES IDX 23 26 24 27 25 28 26 29 27 30 88 31 28 32 87 33 29 34 30 35
REMARK SMILES IDX 31 36 81 37 32 38 86 39 80 40 82 41 33 42 85 43 79 44 78 45
REMARK SMILES IDX 34 47 66 48 46 49 65 50 47 51 50 52 64 53 83 54 48 55 49 56
REMARK SMILES IDX 63 58 84 59 51 60 35 61 36 62 44 63 37 64 38 65 42 66 45 67
REMARK SMILES IDX 39 68 40 69 43 70 41 71 67 72 68 73 76 74 69 75 70 76 74 77
REMARK SMILES IDX 77 78 71 79 72 80 75 81 73 82 52 83 53 84 61 85 54 86 55 87
REMARK SMILES IDX 59 88 62 89 56 90 57 91 60 92 58 93
REMARK H PARENT 5 14 9 22 9 23 82 46 50 57
REMARK Flexibility Score: inf
ROOT
ATOM      1  O   UNL A   1      42.407  20.764  26.730  1.00  0.00    -0.374 OA
ENDROOT
BRANCH   1   2
ATOM      2  C   UNL A   1      41.348  21.508  26.127  1.00  0.00     0.202 C 
BRANCH   2   3
ATOM      3  C   UNL A   1      39.921  21.069  26.501  1.00  0.00     0.261 C 
BRANCH   3   4
ATOM      4  O   UNL A   1      38.923  21.991  25.985  1.00  0.00    -0.463 OA
BRANCH   4   5
ATOM      5  C   UNL A   1      37.824  21.469  25.366  1.00  0.00     0.317 C 
ATOM      6  O   UNL A   1      37.757  20.301  25.001  1.00  0.00    -0.251 OA
BRANCH   5   7
ATOM      7  C   UNL A   1      36.727  22.529  25.090  1.00  0.00     0.111 C 
ATOM      8  C   UNL A   1      36.480  22.649  23.578  1.00  0.00     0.029 C 
ATOM      9  C   UNL A   1      37.392  23.871  25.525  1.00  0.00     0.029 C 
BRANCH   7  10
ATOM     10  C   UNL A   1      35.366  22.376  25.873  1.00  0.00     0.280 C 
BRANCH  10  11
ATOM     11  N   UNL A   1      34.010  22.785  25.453  1.00  0.00    -0.329 N 
ATOM     12  C   UNL A   1      32.908  21.908  25.933  1.00  0.00     0.272 C 
ATOM     13  C   UNL A   1      33.461  24.114  25.041  1.00  0.00     0.101 C 
ATOM     14  H   UNL A   1      34.514  22.722  24.568  1.00  0.00     0.348 HD
ATOM     15  C   UNL A   1      31.946  22.927  26.477  1.00  0.00     0.114 C 
ATOM     16  C   UNL A   1      31.980  23.937  25.373  1.00  0.00     0.119 C 
ATOM     17  C   UNL A   1      34.059  25.319  25.751  1.00  0.00     0.079 C 
ATOM     18  C   UNL A   1      33.405  24.387  23.514  1.00  0.00     0.079 C 
ATOM     19  C   UNL A   1      30.452  22.763  26.591  1.00  0.00     0.270 C 
ATOM     20  C   UNL A   1      31.054  24.994  25.903  1.00  0.00     0.271 C 
ATOM     21  N   UNL A   1      29.949  24.168  26.461  1.00  0.00    -0.345 N 
ATOM     22  H   UNL A   1      29.676  24.525  27.378  1.00  0.00     0.346 HD
ATOM     23  H   UNL A   1      29.133  24.201  25.850  1.00  0.00     0.346 HD
ENDBRANCH  10  11
ENDBRANCH   7  10
ENDBRANCH   5   7
ENDBRANCH   4   5
ENDBRANCH   3   4
ENDBRANCH   2   3
ENDBRANCH   1   2
BRANCH   1  24
ATOM     24  C   UNL A   1      42.326  19.346  26.621  1.00  0.00     0.202 C 
BRANCH  24  25
ATOM     25  C   UNL A   1      43.223  18.722  25.548  1.00  0.00     0.261 C 
BRANCH  25  26
ATOM     26  O   UNL A   1      43.614  19.586  24.515  1.00  0.00    -0.460 OA
BRANCH  26  27
ATOM     27  C   UNL A   1      44.908  19.603  24.146  1.00  0.00     0.338 C 
ATOM     28  O   UNL A   1      45.559  18.829  23.504  1.00  0.00    -0.246 OA
BRANCH  27  29
ATOM     29  C   UNL A   1      45.167  20.994  24.499  1.00  0.00     0.060 A 
ATOM     30  C   UNL A   1      44.520  21.964  23.729  1.00  0.00     0.016 A 
ATOM     31  C   UNL A   1      45.661  21.246  25.787  1.00  0.00     0.016 A 
ATOM     32  C   UNL A   1      44.392  23.235  24.251  1.00  0.00     0.010 A 
ATOM     33  C   UNL A   1      45.484  22.500  26.325  1.00  0.00     0.010 A 
ATOM     34  C   UNL A   1      44.889  23.497  25.536  1.00  0.00    -0.014 A 
BRANCH  34  35
ATOM     35  C   UNL A   1      45.035  24.883  25.977  1.00  0.00     0.031 A 
ATOM     36  C   UNL A   1      46.402  25.473  25.835  1.00  0.00     0.074 A 
ATOM     37  C   UNL A   1      43.985  25.542  26.487  1.00  0.00     0.049 A 
ATOM     38  N   UNL A   1      46.840  26.644  26.196  1.00  0.00    -0.248 NA
ATOM     39  C   UNL A   1      47.430  24.605  25.225  1.00  0.00     0.031 C 
ATOM     40  C   UNL A   1      42.636  24.998  26.646  1.00  0.00     0.029 A 
ATOM     41  N   UNL A   1      43.899  26.815  26.972  1.00  0.00    -0.354 N 
ATOM     42  C   UNL A   1      48.186  26.647  25.862  1.00  0.00     0.074 A 
ATOM     43  C   UNL A   1      48.516  25.349  25.332  1.00  0.00     0.031 C 
ATOM     44  C   UNL A   1      41.849  25.942  27.191  1.00  0.00     0.029 A 
ATOM     45  C   UNL A   1      42.651  27.136  27.440  1.00  0.00     0.049 A 
ATOM     46  H   UNL A   1      44.659  27.440  26.986  1.00  0.00     0.167 HD
ATOM     47  C   UNL A   1      49.060  27.670  25.971  1.00  0.00     0.037 A 
ATOM     48  C   UNL A   1      42.234  28.280  28.013  1.00  0.00     0.037 A 
ATOM     49  C   UNL A   1      48.683  28.949  26.502  1.00  0.00     0.049 A 
ATOM     50  C   UNL A   1      43.238  29.396  28.150  1.00  0.00     0.074 A 
ATOM     51  C   UNL A   1      49.455  30.081  26.663  1.00  0.00     0.029 A 
ATOM     52  N   UNL A   1      47.407  29.253  26.963  1.00  0.00    -0.354 N 
ATOM     53  N   UNL A   1      44.504  29.418  27.799  1.00  0.00    -0.248 NA
ATOM     54  C   UNL A   1      42.759  30.644  28.751  1.00  0.00     0.031 C 
ATOM     55  C   UNL A   1      48.656  31.058  27.266  1.00  0.00     0.029 A 
ATOM     56  C   UNL A   1      47.372  30.552  27.429  1.00  0.00     0.049 A 
ATOM     57  H   UNL A   1      46.642  28.633  26.958  1.00  0.00     0.167 HD
ATOM     58  C   UNL A   1      44.968  30.687  28.112  1.00  0.00     0.074 A 
ATOM     59  C   UNL A   1      43.838  31.410  28.665  1.00  0.00     0.031 C 
ATOM     60  C   UNL A   1      46.210  31.216  27.965  1.00  0.00     0.037 A 
BRANCH  47  61
ATOM     61  C   UNL A   1      50.470  27.421  25.530  1.00  0.00     0.064 A 
ATOM     62  C   UNL A   1      51.487  27.105  26.446  1.00  0.00     0.173 A 
ATOM     63  C   UNL A   1      50.818  27.528  24.177  1.00  0.00     0.173 A 
ATOM     64  F   UNL A   1      51.215  27.026  27.757  1.00  0.00    -0.203 F 
ATOM     65  C   UNL A   1      52.804  26.933  26.025  1.00  0.00     0.198 A 
ATOM     66  C   UNL A   1      52.130  27.323  23.755  1.00  0.00     0.198 A 
ATOM     67  F   UNL A   1      49.890  27.843  23.261  1.00  0.00    -0.203 F 
ATOM     68  F   UNL A   1      53.768  26.696  26.926  1.00  0.00    -0.200 F 
ATOM     69  C   UNL A   1      53.122  27.035  24.680  1.00  0.00     0.200 A 
ATOM     70  F   UNL A   1      52.436  27.418  22.455  1.00  0.00    -0.200 F 
ATOM     71  F   UNL A   1      54.389  26.868  24.275  1.00  0.00    -0.200 F 
ENDBRANCH  47  61
BRANCH  48  72
ATOM     72  C   UNL A   1      40.827  28.422  28.469  1.00  0.00     0.064 A 
ATOM     73  C   UNL A   1      39.839  28.937  27.619  1.00  0.00     0.173 A 
ATOM     74  C   UNL A   1      40.435  28.038  29.761  1.00  0.00     0.173 A 
ATOM     75  F   UNL A   1      40.161  29.330  26.378  1.00  0.00    -0.203 F 
ATOM     76  C   UNL A   1      38.520  29.084  28.050  1.00  0.00     0.198 A 
ATOM     77  C   UNL A   1      39.111  28.158  30.180  1.00  0.00     0.198 A 
ATOM     78  F   UNL A   1      41.337  27.530  30.614  1.00  0.00    -0.203 F 
ATOM     79  F   UNL A   1      37.605  29.619  27.229  1.00  0.00    -0.200 F 
ATOM     80  C   UNL A   1      38.157  28.689  29.328  1.00  0.00     0.200 A 
ATOM     81  F   UNL A   1      38.762  27.759  31.412  1.00  0.00    -0.200 F 
ATOM     82  F   UNL A   1      36.888  28.826  29.739  1.00  0.00    -0.200 F 
ENDBRANCH  48  72
BRANCH  60  83
ATOM     83  C   UNL A   1      46.386  32.644  28.384  1.00  0.00     0.064 A 
ATOM     84  C   UNL A   1      46.801  32.981  29.680  1.00  0.00     0.173 A 
ATOM     85  C   UNL A   1      46.192  33.680  27.458  1.00  0.00     0.173 A 
ATOM     86  F   UNL A   1      46.986  32.022  30.600  1.00  0.00    -0.203 F 
ATOM     87  C   UNL A   1      46.987  34.309  30.044  1.00  0.00     0.198 A 
ATOM     88  C   UNL A   1      46.415  35.005  27.815  1.00  0.00     0.198 A 
ATOM     89  F   UNL A   1      45.809  33.403  26.203  1.00  0.00    -0.203 F 
ATOM     90  F   UNL A   1      47.336  34.614  31.300  1.00  0.00    -0.200 F 
ATOM     91  C   UNL A   1      46.804  35.318  29.108  1.00  0.00     0.200 A 
ATOM     92  F   UNL A   1      46.257  35.976  26.906  1.00  0.00    -0.200 F 
ATOM     93  F   UNL A   1      46.996  36.597  29.458  1.00  0.00    -0.200 F 
ENDBRANCH  60  83
ENDBRANCH  34  35
ENDBRANCH  27  29
ENDBRANCH  26  27
ENDBRANCH  25  26
ENDBRANCH  24  25
ENDBRANCH   1  24
TORSDOF 16
ENDMDL
MODEL 2
REMARK VINA RESULT:     -11.0      6.377     10.810
REMARK SMILES CC(C)(C[N@H+]1C[C@@H]2C[NH2+]C[C@H]2C1(C)C)C(=O)OCCOCCOC(=O)c1ccc(-c2c3nc(c(-c4c(F)c(F)c(F)c(F)c4F)c4ccc([nH]4)c(-c4c(F)c(F)c(F)c(F)c4F)c4nc(c(-c5c(F)c(F)c(F)c(F)c5F)c5ccc2[nH]5)C=C4)C=C3)cc1
REMARK SMILES IDX 20 1 19 2 18 3 17 4 15 5 16 6 2 7 1 8 3 9 4 10 5 11 6 12
REMARK SMILES IDX 12 13 7 15 11 16 13 17 14 18 8 19 10 20 9 21 21 24 22 25
REMARK SMILES IDX 23 26 24 27 25 28 26 29 27 30 88 31 28 32 87 33 29 34 30 35
REMARK SMILES IDX 31 36 81 37 32 38 86 39 80 40 82 41 33 42 85 43 79 44 78 45
REMARK SMILES IDX 34 47 66 48 46 49 65 50 47 51 50 52 64 53 83 54 48 55 49 56
REMARK SMILES IDX 63 58 84 59 51 60 35 61 36 62 44 63 37 64 38 65 42 66 45 67
REMARK SMILES IDX 39 68 40 69 43 70 41 71 67 72 68 73 76 74 69 75 70 76 74 77
REMARK SMILES IDX 77 78 71 79 72 80 75 81 73 82 52 83 53 84 61 85 54 86 55 87
REMARK SMILES IDX 59 88 62 89 56 90 57 91 60 92 58 93
REMARK H PARENT 5 14 9 22 9 23 82 46 50 57
REMARK Flexibility Score: inf
ROOT
ATOM      1  O   UNL A   1      32.988  30.929  27.360  1.00  0.00    -0.374 OA
ENDROOT
BRANCH   1   2
ATOM      2  C   UNL A   1      32.916  29.533  27.074  1.00  0.00     0.202 C 
BRANCH   2   3
ATOM      3  C   UNL A   1      34.176  28.911  26.444  1.00  0.00     0.261 C 
BRANCH   3   4
ATOM      4  O   UNL A   1      33.881  28.275  25.171  1.00  0.00    -0.463 OA
BRANCH   4   5
ATOM      5  C   UNL A   1      33.532  26.955  25.177  1.00  0.00     0.317 C 
ATOM      6  O   UNL A   1      33.497  26.280  26.199  1.00  0.00    -0.251 OA
BRANCH   5   7
ATOM      7  C   UNL A   1      33.289  26.389  23.754  1.00  0.00     0.111 C 
ATOM      8  C   UNL A   1      33.667  27.441  22.699  1.00  0.00     0.029 C 
ATOM      9  C   UNL A   1      31.739  26.239  23.676  1.00  0.00     0.029 C 
BRANCH   7  10
ATOM     10  C   UNL A   1      33.939  24.992  23.415  1.00  0.00     0.280 C 
BRANCH  10  11
ATOM     11  N   UNL A   1      34.328  23.908  24.338  1.00  0.00    -0.329 N 
ATOM     12  C   UNL A   1      33.219  23.011  24.763  1.00  0.00     0.272 C 
ATOM     13  C   UNL A   1      35.645  23.240  24.580  1.00  0.00     0.101 C 
ATOM     14  H   UNL A   1      34.668  24.744  24.813  1.00  0.00     0.348 HD
ATOM     15  C   UNL A   1      33.838  21.660  24.531  1.00  0.00     0.114 C 
ATOM     16  C   UNL A   1      35.193  21.885  25.123  1.00  0.00     0.119 C 
ATOM     17  C   UNL A   1      36.539  23.090  23.359  1.00  0.00     0.079 C 
ATOM     18  C   UNL A   1      36.479  23.787  25.769  1.00  0.00     0.079 C 
ATOM     19  C   UNL A   1      33.481  20.387  25.254  1.00  0.00     0.270 C 
ATOM     20  C   UNL A   1      35.855  20.561  24.874  1.00  0.00     0.271 C 
ATOM     21  N   UNL A   1      34.763  19.612  25.223  1.00  0.00    -0.345 N 
ATOM     22  H   UNL A   1      34.705  18.874  24.521  1.00  0.00     0.346 HD
ATOM     23  H   UNL A   1      34.941  19.178  26.129  1.00  0.00     0.346 HD
ENDBRANCH  10  11
ENDBRANCH   7  10
ENDBRANCH   5   7
ENDBRANCH   4   5
ENDBRANCH   3   4
ENDBRANCH   2   3
ENDBRANCH   1   2
BRANCH   1  24
ATOM     24  C   UNL A   1      31.909  31.729  26.887  1.00  0.00     0.202 C 
BRANCH  24  25
ATOM     25  C   UNL A   1      32.053  33.233  27.138  1.00  0.00     0.261 C 
BRANCH  25  26
ATOM     26  O   UNL A   1      33.269  33.633  27.711  1.00  0.00    -0.460 OA
BRANCH  26  27
ATOM     27  C   UNL A   1      33.269  34.684  28.552  1.00  0.00     0.338 C 
ATOM     28  O   UNL A   1      32.469  35.559  28.726  1.00  0.00    -0.246 OA
BRANCH  27  29
ATOM     29  C   UNL A   1      34.379  34.235  29.384  1.00  0.00     0.060 A 
ATOM     30  C   UNL A   1      34.108  33.195  30.276  1.00  0.00     0.016 A 
ATOM     31  C   UNL A   1      35.673  34.551  28.948  1.00  0.00     0.016 A 
ATOM     32  C   UNL A   1      35.171  32.468  30.774  1.00  0.00     0.010 A 
ATOM     33  C   UNL A   1      36.725  33.789  29.404  1.00  0.00     0.010 A 
ATOM     34  C   UNL A   1      36.469  32.781  30.347  1.00  0.00    -0.014 A 
BRANCH  34  35
ATOM     35  C   UNL A   1      37.612  32.236  31.078  1.00  0.00     0.031 A 
ATOM     36  C   UNL A   1      38.365  31.142  30.391  1.00  0.00     0.074 A 
ATOM     37  C   UNL A   1      37.922  32.707  32.294  1.00  0.00     0.049 A 
ATOM     38  N   UNL A   1      39.371  30.435  30.818  1.00  0.00    -0.248 NA
ATOM     39  C   UNL A   1      37.896  30.771  29.040  1.00  0.00     0.031 C 
ATOM     40  C   UNL A   1      37.208  33.772  32.999  1.00  0.00     0.029 A 
ATOM     41  N   UNL A   1      38.918  32.339  33.152  1.00  0.00    -0.354 N 
ATOM     42  C   UNL A   1      39.646  29.539  29.794  1.00  0.00     0.074 A 
ATOM     43  C   UNL A   1      38.670  29.741  28.753  1.00  0.00     0.031 C 
ATOM     44  C   UNL A   1      37.799  33.976  34.190  1.00  0.00     0.029 A 
ATOM     45  C   UNL A   1      38.907  33.037  34.332  1.00  0.00     0.049 A 
ATOM     46  H   UNL A   1      39.579  31.640  32.943  1.00  0.00     0.167 HD
ATOM     47  C   UNL A   1      40.655  28.645  29.730  1.00  0.00     0.037 A 
ATOM     48  C   UNL A   1      39.714  32.901  35.399  1.00  0.00     0.037 A 
ATOM     49  C   UNL A   1      41.607  28.484  30.791  1.00  0.00     0.049 A 
ATOM     50  C   UNL A   1      40.813  31.873  35.314  1.00  0.00     0.074 A 
ATOM     51  C   UNL A   1      42.686  27.628  30.864  1.00  0.00     0.029 A 
ATOM     52  N   UNL A   1      41.579  29.210  31.976  1.00  0.00    -0.354 N 
ATOM     53  N   UNL A   1      41.104  31.051  34.331  1.00  0.00    -0.248 NA
ATOM     54  C   UNL A   1      41.701  31.758  36.475  1.00  0.00     0.031 C 
ATOM     55  C   UNL A   1      43.284  27.803  32.116  1.00  0.00     0.029 A 
ATOM     56  C   UNL A   1      42.612  28.809  32.800  1.00  0.00     0.049 A 
ATOM     57  H   UNL A   1      40.919  29.907  32.196  1.00  0.00     0.167 HD
ATOM     58  C   UNL A   1      42.220  30.338  34.741  1.00  0.00     0.074 A 
ATOM     59  C   UNL A   1      42.564  30.841  36.058  1.00  0.00     0.031 C 
ATOM     60  C   UNL A   1      42.904  29.355  34.102  1.00  0.00     0.037 A 
BRANCH  47  61
ATOM     61  C   UNL A   1      40.741  27.792  28.501  1.00  0.00     0.064 A 
ATOM     62  C   UNL A   1      41.478  28.189  27.374  1.00  0.00     0.173 A 
ATOM     63  C   UNL A   1      40.052  26.573  28.437  1.00  0.00     0.173 A 
ATOM     64  F   UNL A   1      42.127  29.363  27.370  1.00  0.00    -0.203 F 
ATOM     65  C   UNL A   1      41.500  27.410  26.219  1.00  0.00     0.198 A 
ATOM     66  C   UNL A   1      40.102  25.780  27.292  1.00  0.00     0.198 A 
ATOM     67  F   UNL A   1      39.318  26.152  29.478  1.00  0.00    -0.203 F 
ATOM     68  F   UNL A   1      42.159  27.841  25.135  1.00  0.00    -0.200 F 
ATOM     69  C   UNL A   1      40.818  26.204  26.182  1.00  0.00     0.200 A 
ATOM     70  F   UNL A   1      39.446  24.613  27.258  1.00  0.00    -0.200 F 
ATOM     71  F   UNL A   1      40.841  25.453  25.072  1.00  0.00    -0.200 F 
ENDBRANCH  47  61
BRANCH  48  72
ATOM     72  C   UNL A   1      39.523  33.756  36.599  1.00  0.00     0.064 A 
ATOM     73  C   UNL A   1      38.724  33.332  37.670  1.00  0.00     0.173 A 
ATOM     74  C   UNL A   1      40.142  35.010  36.709  1.00  0.00     0.173 A 
ATOM     75  F   UNL A   1      38.101  32.147  37.613  1.00  0.00    -0.203 F 
ATOM     76  C   UNL A   1      38.533  34.138  38.793  1.00  0.00     0.198 A 
ATOM     77  C   UNL A   1      39.974  35.803  37.843  1.00  0.00     0.198 A 
ATOM     78  F   UNL A   1      40.925  35.463  35.719  1.00  0.00    -0.203 F 
ATOM     79  F   UNL A   1      37.730  33.725  39.782  1.00  0.00    -0.200 F 
ATOM     80  C   UNL A   1      39.162  35.370  38.880  1.00  0.00     0.200 A 
ATOM     81  F   UNL A   1      40.598  36.986  37.931  1.00  0.00    -0.200 F 
ATOM     82  F   UNL A   1      38.982  36.142  39.961  1.00  0.00    -0.200 F 
ENDBRANCH  48  72
BRANCH  60  83
ATOM     83  C   UNL A   1      44.097  28.793  34.814  1.00  0.00     0.064 A 
ATOM     84  C   UNL A   1      45.363  29.382  34.696  1.00  0.00     0.173 A 
ATOM     85  C   UNL A   1      43.954  27.689  35.667  1.00  0.00     0.173 A 
ATOM     86  F   UNL A   1      45.547  30.432  33.881  1.00  0.00    -0.203 F 
ATOM     87  C   UNL A   1      46.453  28.865  35.387  1.00  0.00     0.198 A 
ATOM     88  C   UNL A   1      45.038  27.198  36.384  1.00  0.00     0.198 A 
ATOM     89  F   UNL A   1      42.756  27.103  35.821  1.00  0.00    -0.203 F 
ATOM     90  F   UNL A   1      47.666  29.410  35.223  1.00  0.00    -0.200 F 
ATOM     91  C   UNL A   1      46.288  27.781  36.237  1.00  0.00     0.200 A 
ATOM     92  F   UNL A   1      44.873  26.164  37.219  1.00  0.00    -0.200 F 
ATOM     93  F   UNL A   1      47.338  27.292  36.910  1.00  0.00    -0.200 F 
ENDBRANCH  60  83
ENDBRANCH  34  35
ENDBRANCH  27  29
ENDBRANCH  26  27
ENDBRANCH  25  26
ENDBRANCH  24  25
ENDBRANCH   1  24
TORSDOF 16
ENDMDL
MODEL 3
REMARK VINA RESULT:     -11.0      6.630     10.935
REMARK SMILES CC(C)(C[N@H+]1C[C@@H]2C[NH2+]C[C@H]2C1(C)C)C(=O)OCCOCCOC(=O)c1ccc(-c2c3nc(c(-c4c(F)c(F)c(F)c(F)c4F)c4ccc([nH]4)c(-c4c(F)c(F)c(F)c(F)c4F)c4nc(c(-c5c(F)c(F)c(F)c(F)c5F)c5ccc2[nH]5)C=C4)C=C3)cc1
REMARK SMILES IDX 20 1 19 2 18 3 17 4 15 5 16 6 2 7 1 8 3 9 4 10 5 11 6 12
REMARK SMILES IDX 12 13 7 15 11 16 13 17 14 18 8 19 10 20 9 21 21 24 22 25
REMARK SMILES IDX 23 26 24 27 25 28 26 29 27 30 88 31 28 32 87 33 29 34 30 35
REMARK SMILES IDX 31 36 81 37 32 38 86 39 80 40 82 41 33 42 85 43 79 44 78 45
REMARK SMILES IDX 34 47 66 48 46 49 65 50 47 51 50 52 64 53 83 54 48 55 49 56
REMARK SMILES IDX 63 58 84 59 51 60 35 61 36 62 44 63 37 64 38 65 42 66 45 67
REMARK SMILES IDX 39 68 40 69 43 70 41 71 67 72 68 73 76 74 69 75 70 76 74 77
REMARK SMILES IDX 77 78 71 79 72 80 75 81 73 82 52 83 53 84 61 85 54 86 55 87
REMARK SMILES IDX 59 88 62 89 56 90 57 91 60 92 58 93
REMARK H PARENT 5 14 9 22 9 23 82 46 50 57
REMARK Flexibility Score: inf
ROOT
ATOM      1  O   UNL A   1      32.614  30.753  27.017  1.00  0.00    -0.374 OA
ENDROOT
BRANCH   1   2
ATOM      2  C   UNL A   1      32.339  29.355  27.113  1.00  0.00     0.202 C 
BRANCH   2   3
ATOM      3  C   UNL A   1      32.800  28.497  25.921  1.00  0.00     0.261 C 
BRANCH   3   4
ATOM      4  O   UNL A   1      31.843  27.447  25.616  1.00  0.00    -0.463 OA
BRANCH   4   5
ATOM      5  C   UNL A   1      31.017  27.622  24.542  1.00  0.00     0.317 C 
ATOM      6  O   UNL A   1      30.657  28.726  24.153  1.00  0.00    -0.251 OA
BRANCH   5   7
ATOM      7  C   UNL A   1      30.513  26.283  23.945  1.00  0.00     0.111 C 
ATOM      8  C   UNL A   1      31.005  26.135  22.497  1.00  0.00     0.029 C 
ATOM      9  C   UNL A   1      28.968  26.476  23.857  1.00  0.00     0.029 C 
BRANCH   7  10
ATOM     10  C   UNL A   1      30.801  24.972  24.774  1.00  0.00     0.280 C 
BRANCH  10  11
ATOM     11  N   UNL A   1      32.044  24.572  25.465  1.00  0.00    -0.329 N 
ATOM     12  C   UNL A   1      31.864  24.076  26.855  1.00  0.00     0.272 C 
ATOM     13  C   UNL A   1      33.371  24.130  24.934  1.00  0.00     0.101 C 
ATOM     14  H   UNL A   1      32.245  25.527  25.166  1.00  0.00     0.348 HD
ATOM     15  C   UNL A   1      32.679  22.813  26.818  1.00  0.00     0.114 C 
ATOM     16  C   UNL A   1      33.899  23.308  26.108  1.00  0.00     0.119 C 
ATOM     17  C   UNL A   1      33.327  23.317  23.649  1.00  0.00     0.079 C 
ATOM     18  C   UNL A   1      34.459  25.231  24.813  1.00  0.00     0.079 C 
ATOM     19  C   UNL A   1      33.349  22.156  27.997  1.00  0.00     0.270 C 
ATOM     20  C   UNL A   1      34.724  22.056  26.019  1.00  0.00     0.271 C 
ATOM     21  N   UNL A   1      34.530  21.474  27.374  1.00  0.00    -0.345 N 
ATOM     22  H   UNL A   1      34.353  20.472  27.301  1.00  0.00     0.346 HD
ATOM     23  H   UNL A   1      35.364  21.611  27.946  1.00  0.00     0.346 HD
ENDBRANCH  10  11
ENDBRANCH   7  10
ENDBRANCH   5   7
ENDBRANCH   4   5
ENDBRANCH   3   4
ENDBRANCH   2   3
ENDBRANCH   1   2
BRANCH   1  24
ATOM     24  C   UNL A   1      31.504  31.599  26.735  1.00  0.00     0.202 C 
BRANCH  24  25
ATOM     25  C   UNL A   1      31.772  33.099  26.887  1.00  0.00     0.261 C 
BRANCH  25  26
ATOM     26  O   UNL A   1      33.074  33.440  27.284  1.00  0.00    -0.460 OA
BRANCH  26  27
ATOM     27  C   UNL A   1      33.229  34.306  28.302  1.00  0.00     0.338 C 
ATOM     28  O   UNL A   1      32.511  35.165  28.729  1.00  0.00    -0.246 OA
BRANCH  27  29
ATOM     29  C   UNL A   1      34.388  33.655  28.902  1.00  0.00     0.060 A 
ATOM     30  C   UNL A   1      35.615  34.306  28.754  1.00  0.00     0.016 A 
ATOM     31  C   UNL A   1      34.141  32.709  29.907  1.00  0.00     0.016 A 
ATOM     32  C   UNL A   1      36.639  33.976  29.620  1.00  0.00     0.010 A 
ATOM     33  C   UNL A   1      35.147  32.423  30.802  1.00  0.00     0.010 A 
ATOM     34  C   UNL A   1      36.402  33.027  30.624  1.00  0.00    -0.014 A 
BRANCH  34  35
ATOM     35  C   UNL A   1      37.535  32.450  31.344  1.00  0.00     0.031 A 
ATOM     36  C   UNL A   1      38.269  31.355  30.638  1.00  0.00     0.074 A 
ATOM     37  C   UNL A   1      37.853  32.894  32.569  1.00  0.00     0.049 A 
ATOM     38  N   UNL A   1      39.263  30.623  31.051  1.00  0.00    -0.248 NA
ATOM     39  C   UNL A   1      37.793  31.017  29.281  1.00  0.00     0.031 C 
ATOM     40  C   UNL A   1      37.158  33.959  33.293  1.00  0.00     0.029 A 
ATOM     41  N   UNL A   1      38.843  32.494  33.418  1.00  0.00    -0.354 N 
ATOM     42  C   UNL A   1      39.522  29.741  30.011  1.00  0.00     0.074 A 
ATOM     43  C   UNL A   1      38.549  29.978  28.975  1.00  0.00     0.031 C 
ATOM     44  C   UNL A   1      37.753  34.131  34.486  1.00  0.00     0.029 A 
ATOM     45  C   UNL A   1      38.845  33.170  34.610  1.00  0.00     0.049 A 
ATOM     46  H   UNL A   1      39.492  31.787  33.196  1.00  0.00     0.167 HD
ATOM     47  C   UNL A   1      40.514  28.831  29.931  1.00  0.00     0.037 A 
ATOM     48  C   UNL A   1      39.650  33.002  35.675  1.00  0.00     0.037 A 
ATOM     49  C   UNL A   1      41.464  28.635  30.988  1.00  0.00     0.049 A 
ATOM     50  C   UNL A   1      40.731  31.957  35.571  1.00  0.00     0.074 A 
ATOM     51  C   UNL A   1      42.528  27.759  31.045  1.00  0.00     0.029 A 
ATOM     52  N   UNL A   1      41.449  29.340  32.186  1.00  0.00    -0.354 N 
ATOM     53  N   UNL A   1      41.007  31.147  34.573  1.00  0.00    -0.248 NA
ATOM     54  C   UNL A   1      41.618  31.805  36.729  1.00  0.00     0.031 C 
ATOM     55  C   UNL A   1      43.130  27.902  32.299  1.00  0.00     0.029 A 
ATOM     56  C   UNL A   1      42.476  28.906  33.001  1.00  0.00     0.049 A 
ATOM     57  H   UNL A   1      40.802  30.045  32.418  1.00  0.00     0.167 HD
ATOM     58  C   UNL A   1      42.111  30.408  34.969  1.00  0.00     0.074 A 
ATOM     59  C   UNL A   1      42.464  30.881  36.295  1.00  0.00     0.031 C 
ATOM     60  C   UNL A   1      42.778  29.424  34.312  1.00  0.00     0.037 A 
BRANCH  47  61
ATOM     61  C   UNL A   1      40.585  27.998  28.687  1.00  0.00     0.064 A 
ATOM     62  C   UNL A   1      39.921  26.765  28.582  1.00  0.00     0.173 A 
ATOM     63  C   UNL A   1      41.353  28.423  27.593  1.00  0.00     0.173 A 
ATOM     64  F   UNL A   1      39.202  26.295  29.613  1.00  0.00    -0.203 F 
ATOM     65  C   UNL A   1      40.045  25.977  27.440  1.00  0.00     0.198 A 
ATOM     66  C   UNL A   1      41.448  27.648  26.440  1.00  0.00     0.198 A 
ATOM     67  F   UNL A   1      42.021  29.585  27.645  1.00  0.00    -0.203 F 
ATOM     68  F   UNL A   1      39.453  24.776  27.389  1.00  0.00    -0.200 F 
ATOM     69  C   UNL A   1      40.802  26.423  26.368  1.00  0.00     0.200 A 
ATOM     70  F   UNL A   1      42.177  28.081  25.403  1.00  0.00    -0.200 F 
ATOM     71  F   UNL A   1      40.920  25.665  25.268  1.00  0.00    -0.200 F 
ENDBRANCH  47  61
BRANCH  48  72
ATOM     72  C   UNL A   1      39.475  33.838  36.890  1.00  0.00     0.064 A 
ATOM     73  C   UNL A   1      38.753  33.367  37.996  1.00  0.00     0.173 A 
ATOM     74  C   UNL A   1      40.031  35.123  36.980  1.00  0.00     0.173 A 
ATOM     75  F   UNL A   1      38.191  32.150  37.959  1.00  0.00    -0.203 F 
ATOM     76  C   UNL A   1      38.576  34.155  39.133  1.00  0.00     0.198 A 
ATOM     77  C   UNL A   1      39.878  35.899  38.127  1.00  0.00     0.198 A 
ATOM     78  F   UNL A   1      40.739  35.622  35.956  1.00  0.00    -0.203 F 
ATOM     79  F   UNL A   1      37.846  33.695  40.158  1.00  0.00    -0.200 F 
ATOM     80  C   UNL A   1      39.144  35.418  39.199  1.00  0.00     0.200 A 
ATOM     81  F   UNL A   1      40.444  37.113  38.194  1.00  0.00    -0.200 F 
ATOM     82  F   UNL A   1      38.977  36.173  40.294  1.00  0.00    -0.200 F 
ENDBRANCH  48  72
BRANCH  60  83
ATOM     83  C   UNL A   1      43.961  28.830  35.013  1.00  0.00     0.064 A 
ATOM     84  C   UNL A   1      43.831  27.714  35.852  1.00  0.00     0.173 A 
ATOM     85  C   UNL A   1      45.245  29.350  34.794  1.00  0.00     0.173 A 
ATOM     86  F   UNL A   1      42.620  27.192  36.098  1.00  0.00    -0.203 F 
ATOM     87  C   UNL A   1      44.944  27.157  36.471  1.00  0.00     0.198 A 
ATOM     88  C   UNL A   1      46.360  28.768  35.386  1.00  0.00     0.198 A 
ATOM     89  F   UNL A   1      45.418  30.409  33.988  1.00  0.00    -0.203 F 
ATOM     90  F   UNL A   1      44.794  26.123  37.308  1.00  0.00    -0.200 F 
ATOM     91  C   UNL A   1      46.208  27.679  36.230  1.00  0.00     0.200 A 
ATOM     92  F   UNL A   1      47.581  29.261  35.137  1.00  0.00    -0.200 F 
ATOM     93  F   UNL A   1      47.280  27.133  36.818  1.00  0.00    -0.200 F 
ENDBRANCH  60  83
ENDBRANCH  34  35
ENDBRANCH  27  29
ENDBRANCH  26  27
ENDBRANCH  25  26
ENDBRANCH  24  25
ENDBRANCH   1  24
TORSDOF 16
ENDMDL
