MODEL 1
REMARK VINA RESULT:     -11.8      0.000      0.000
REMARK SMILES CCN(CC)c1ccc([C@@H]2[NH2+][C@@H](C(=O)OCCOCCOC(=O)c3ccc(-c4c5nc(c(-c6c(F)c(F)c(F)c(F)c6F)c6ccc([nH]6)c(-c6c(F)c(F)c(F)c(F)c6F)c6nc(c(-c7c(F)c(F)c(F)c(F)c7F)c7ccc4[nH]7)C=C6)C=C5)cc3)Cc3c2[nH]c2ccccc32)cc1
REMARK SMILES IDX 17 1 16 2 15 3 13 4 14 5 12 6 10 7 11 8 89 9 88 12 90 13
REMARK SMILES IDX 87 14 96 15 91 16 95 18 92 19 94 20 93 21 9 22 6 23 7 24
REMARK SMILES IDX 98 25 8 26 97 27 3 28 2 29 1 30 4 31 5 32 18 33 19 34 20 35
REMARK SMILES IDX 21 36 22 37 23 38 24 39 25 40 86 41 26 42 85 43 27 44 28 45
REMARK SMILES IDX 29 46 79 47 30 48 84 49 78 50 80 51 31 52 83 53 77 54 76 55
REMARK SMILES IDX 32 57 64 58 44 59 63 60 45 61 48 62 62 63 81 64 46 65 47 66
REMARK SMILES IDX 61 68 82 69 49 70 33 71 34 72 42 73 35 74 36 75 40 76 43 77
REMARK SMILES IDX 37 78 38 79 41 80 39 81 65 82 66 83 74 84 67 85 68 86 72 87
REMARK SMILES IDX 75 88 69 89 70 90 73 91 71 92 50 93 51 94 59 95 52 96 53 97
REMARK SMILES IDX 57 98 60 99 54 100 55 101 58 102 56 103
REMARK H PARENT 11 10 11 11 90 17 80 56 48 67
REMARK Flexibility Score: inf
ROOT
ATOM      1  C   UNL A   1      37.209  22.473  24.645  1.00  0.00     0.202 C 
ENDROOT
BRANCH   1   2
ATOM      2  C   UNL A   1      35.893  22.347  23.866  1.00  0.00     0.261 C 
BRANCH   2   3
ATOM      3  O   UNL A   1      35.549  23.387  22.943  1.00  0.00    -0.459 OA
BRANCH   3   4
ATOM      4  C   UNL A   1      34.197  23.496  22.776  1.00  0.00     0.365 C 
ATOM      5  O   UNL A   1      33.477  22.576  22.393  1.00  0.00    -0.245 OA
BRANCH   4   6
ATOM      6  C   UNL A   1      33.685  24.926  22.887  1.00  0.00     0.298 C 
ATOM      7  C   UNL A   1      32.164  25.196  24.941  1.00  0.00     0.262 C 
ATOM      8  N   UNL A   1      33.520  25.205  24.320  1.00  0.00    -0.323 N 
ATOM      9  C   UNL A   1      31.171  25.690  23.936  1.00  0.00     0.083 A 
ATOM     10  H   UNL A   1      34.075  24.509  24.819  1.00  0.00     0.347 HD
ATOM     11  H   UNL A   1      33.802  26.182  24.397  1.00  0.00     0.347 HD
ATOM     12  C   UNL A   1      31.474  26.063  22.641  1.00  0.00    -0.006 A 
ATOM     13  N   UNL A   1      29.877  26.111  24.139  1.00  0.00    -0.353 N 
ATOM     14  C   UNL A   1      32.600  25.412  21.916  1.00  0.00     0.115 C 
ATOM     15  C   UNL A   1      30.871  27.353  22.584  1.00  0.00     0.003 A 
ATOM     16  C   UNL A   1      29.749  27.291  23.419  1.00  0.00     0.046 A 
ATOM     17  H   UNL A   1      29.185  25.667  24.682  1.00  0.00     0.166 HD
ATOM     18  C   UNL A   1      31.215  28.601  22.026  1.00  0.00     0.010 A 
ATOM     19  C   UNL A   1      28.843  28.345  23.568  1.00  0.00     0.026 A 
ATOM     20  C   UNL A   1      30.412  29.716  22.315  1.00  0.00     0.001 A 
ATOM     21  C   UNL A   1      29.220  29.576  23.025  1.00  0.00     0.002 A 
BRANCH   7  22
ATOM     22  C   UNL A   1      32.419  26.164  26.145  1.00  0.00     0.016 A 
ATOM     23  C   UNL A   1      32.545  28.922  26.794  1.00  0.00     0.037 A 
ATOM     24  C   UNL A   1      31.414  28.164  27.093  1.00  0.00     0.026 A 
ATOM     25  C   UNL A   1      33.690  28.216  26.406  1.00  0.00     0.026 A 
ATOM     26  C   UNL A   1      31.349  26.801  26.792  1.00  0.00     0.012 A 
ATOM     27  C   UNL A   1      33.652  26.842  26.131  1.00  0.00     0.012 A 
BRANCH  23  28
ATOM     28  N   UNL A   1      32.523  30.310  26.784  1.00  0.00    -0.372 N 
BRANCH  28  29
ATOM     29  C   UNL A   1      33.799  31.032  26.940  1.00  0.00     0.113 C 
ATOM     30  C   UNL A   1      34.082  31.446  28.376  1.00  0.00     0.027 C 
ENDBRANCH  28  29
BRANCH  28  31
ATOM     31  C   UNL A   1      31.403  31.025  26.171  1.00  0.00     0.113 C 
ATOM     32  C   UNL A   1      31.365  32.514  26.501  1.00  0.00     0.027 C 
ENDBRANCH  28  31
ENDBRANCH  23  28
ENDBRANCH   7  22
ENDBRANCH   4   6
ENDBRANCH   3   4
ENDBRANCH   2   3
ENDBRANCH   1   2
BRANCH   1  33
ATOM     33  O   UNL A   1      37.739  21.381  25.378  1.00  0.00    -0.374 OA
BRANCH  33  34
ATOM     34  C   UNL A   1      39.110  21.388  25.751  1.00  0.00     0.202 C 
BRANCH  34  35
ATOM     35  C   UNL A   1      39.764  20.105  26.275  1.00  0.00     0.261 C 
BRANCH  35  36
ATOM     36  O   UNL A   1      40.695  19.487  25.377  1.00  0.00    -0.460 OA
BRANCH  36  37
ATOM     37  C   UNL A   1      41.895  19.210  25.945  1.00  0.00     0.338 C 
ATOM     38  O   UNL A   1      42.391  18.112  26.131  1.00  0.00    -0.246 OA
BRANCH  37  39
ATOM     39  C   UNL A   1      42.634  20.452  26.235  1.00  0.00     0.060 A 
ATOM     40  C   UNL A   1      42.601  20.930  27.552  1.00  0.00     0.016 A 
ATOM     41  C   UNL A   1      43.230  21.203  25.220  1.00  0.00     0.016 A 
ATOM     42  C   UNL A   1      43.098  22.197  27.845  1.00  0.00     0.010 A 
ATOM     43  C   UNL A   1      43.723  22.478  25.514  1.00  0.00     0.010 A 
ATOM     44  C   UNL A   1      43.613  22.998  26.817  1.00  0.00    -0.014 A 
BRANCH  44  45
ATOM     45  C   UNL A   1      43.867  24.436  27.076  1.00  0.00     0.031 A 
ATOM     46  C   UNL A   1      45.248  24.984  26.841  1.00  0.00     0.074 A 
ATOM     47  C   UNL A   1      42.876  25.251  27.477  1.00  0.00     0.049 A 
ATOM     48  N   UNL A   1      45.704  26.198  27.019  1.00  0.00    -0.248 NA
ATOM     49  C   UNL A   1      46.253  24.033  26.337  1.00  0.00     0.031 C 
ATOM     50  C   UNL A   1      41.491  24.847  27.699  1.00  0.00     0.029 A 
ATOM     51  N   UNL A   1      42.892  26.591  27.769  1.00  0.00    -0.354 N 
ATOM     52  C   UNL A   1      47.044  26.155  26.656  1.00  0.00     0.074 A 
ATOM     53  C   UNL A   1      47.338  24.790  26.276  1.00  0.00     0.031 C 
ATOM     54  C   UNL A   1      40.786  25.918  28.104  1.00  0.00     0.029 A 
ATOM     55  C   UNL A   1      41.679  27.074  28.194  1.00  0.00     0.049 A 
ATOM     56  H   UNL A   1      43.695  27.154  27.684  1.00  0.00     0.167 HD
ATOM     57  C   UNL A   1      47.946  27.165  26.631  1.00  0.00     0.037 A 
ATOM     58  C   UNL A   1      41.337  28.304  28.621  1.00  0.00     0.037 A 
ATOM     59  C   UNL A   1      47.652  28.525  27.001  1.00  0.00     0.049 A 
ATOM     60  C   UNL A   1      42.372  29.397  28.639  1.00  0.00     0.074 A 
ATOM     61  C   UNL A   1      48.494  29.622  26.995  1.00  0.00     0.029 A 
ATOM     62  N   UNL A   1      46.417  28.970  27.449  1.00  0.00    -0.354 N 
ATOM     63  N   UNL A   1      43.630  29.354  28.274  1.00  0.00    -0.248 NA
ATOM     64  C   UNL A   1      41.936  30.715  29.126  1.00  0.00     0.031 C 
ATOM     65  C   UNL A   1      47.780  30.724  27.480  1.00  0.00     0.029 A 
ATOM     66  C   UNL A   1      46.481  30.322  27.743  1.00  0.00     0.049 A 
ATOM     67  H   UNL A   1      45.615  28.407  27.544  1.00  0.00     0.167 HD
ATOM     68  C   UNL A   1      44.127  30.639  28.457  1.00  0.00     0.074 A 
ATOM     69  C   UNL A   1      43.032  31.442  28.957  1.00  0.00     0.031 C 
ATOM     70  C   UNL A   1      45.377  31.111  28.228  1.00  0.00     0.037 A 
BRANCH  57  71
ATOM     71  C   UNL A   1      49.346  26.833  26.209  1.00  0.00     0.064 A 
ATOM     72  C   UNL A   1      50.294  26.345  27.122  1.00  0.00     0.173 A 
ATOM     73  C   UNL A   1      49.736  26.975  24.869  1.00  0.00     0.173 A 
ATOM     74  F   UNL A   1      49.975  26.205  28.417  1.00  0.00    -0.203 F 
ATOM     75  C   UNL A   1      51.587  26.032  26.711  1.00  0.00     0.198 A 
ATOM     76  C   UNL A   1      51.021  26.636  24.457  1.00  0.00     0.198 A 
ATOM     77  F   UNL A   1      48.866  27.434  23.957  1.00  0.00    -0.203 F 
ATOM     78  F   UNL A   1      52.489  25.607  27.606  1.00  0.00    -0.200 F 
ATOM     79  C   UNL A   1      51.948  26.171  25.378  1.00  0.00     0.200 A 
ATOM     80  F   UNL A   1      51.365  26.761  23.168  1.00  0.00    -0.200 F 
ATOM     81  F   UNL A   1      53.191  25.864  24.983  1.00  0.00    -0.200 F 
ENDBRANCH  57  71
BRANCH  58  82
ATOM     82  C   UNL A   1      39.947  28.569  29.074  1.00  0.00     0.064 A 
ATOM     83  C   UNL A   1      38.981  29.071  28.190  1.00  0.00     0.173 A 
ATOM     84  C   UNL A   1      39.562  28.343  30.404  1.00  0.00     0.173 A 
ATOM     85  F   UNL A   1      39.310  29.328  26.916  1.00  0.00    -0.203 F 
ATOM     86  C   UNL A   1      37.687  29.353  28.625  1.00  0.00     0.198 A 
ATOM     87  C   UNL A   1      38.261  28.600  30.829  1.00  0.00     0.198 A 
ATOM     88  F   UNL A   1      40.451  27.866  31.288  1.00  0.00    -0.203 F 
ATOM     89  F   UNL A   1      36.796  29.874  27.771  1.00  0.00    -0.200 F 
ATOM     90  C   UNL A   1      37.327  29.111  29.942  1.00  0.00     0.200 A 
ATOM     91  F   UNL A   1      37.915  28.356  32.101  1.00  0.00    -0.200 F 
ATOM     92  F   UNL A   1      36.082  29.381  30.358  1.00  0.00    -0.200 F 
ENDBRANCH  58  82
BRANCH  70  93
ATOM     93  C   UNL A   1      45.620  32.571  28.475  1.00  0.00     0.064 A 
ATOM     94  C   UNL A   1      46.059  33.045  29.720  1.00  0.00     0.173 A 
ATOM     95  C   UNL A   1      45.456  33.502  27.438  1.00  0.00     0.173 A 
ATOM     96  F   UNL A   1      46.219  32.196  30.746  1.00  0.00    -0.203 F 
ATOM     97  C   UNL A   1      46.301  34.400  29.923  1.00  0.00     0.198 A 
ATOM     98  C   UNL A   1      45.725  34.853  27.637  1.00  0.00     0.198 A 
ATOM     99  F   UNL A   1      45.045  33.098  26.226  1.00  0.00    -0.203 F 
ATOM    100  F   UNL A   1      46.679  34.838  31.133  1.00  0.00    -0.200 F 
ATOM    101  C   UNL A   1      46.141  35.302  28.881  1.00  0.00     0.200 A 
ATOM    102  F   UNL A   1      45.581  35.720  26.625  1.00  0.00    -0.200 F 
ATOM    103  F   UNL A   1      46.381  36.605  29.078  1.00  0.00    -0.200 F 
ENDBRANCH  70  93
ENDBRANCH  44  45
ENDBRANCH  37  39
ENDBRANCH  36  37
ENDBRANCH  35  36
ENDBRANCH  34  35
ENDBRANCH  33  34
ENDBRANCH   1  33
TORSDOF 18
ENDMDL
MODEL 2
REMARK VINA RESULT:     -11.6      5.581      9.278
REMARK SMILES CCN(CC)c1ccc([C@@H]2[NH2+][C@@H](C(=O)OCCOCCOC(=O)c3ccc(-c4c5nc(c(-c6c(F)c(F)c(F)c(F)c6F)c6ccc([nH]6)c(-c6c(F)c(F)c(F)c(F)c6F)c6nc(c(-c7c(F)c(F)c(F)c(F)c7F)c7ccc4[nH]7)C=C6)C=C5)cc3)Cc3c2[nH]c2ccccc32)cc1
REMARK SMILES IDX 17 1 16 2 15 3 13 4 14 5 12 6 10 7 11 8 89 9 88 12 90 13
REMARK SMILES IDX 87 14 96 15 91 16 95 18 92 19 94 20 93 21 9 22 6 23 7 24
REMARK SMILES IDX 98 25 8 26 97 27 3 28 2 29 1 30 4 31 5 32 18 33 19 34 20 35
REMARK SMILES IDX 21 36 22 37 23 38 24 39 25 40 86 41 26 42 85 43 27 44 28 45
REMARK SMILES IDX 29 46 79 47 30 48 84 49 78 50 80 51 31 52 83 53 77 54 76 55
REMARK SMILES IDX 32 57 64 58 44 59 63 60 45 61 48 62 62 63 81 64 46 65 47 66
REMARK SMILES IDX 61 68 82 69 49 70 33 71 34 72 42 73 35 74 36 75 40 76 43 77
REMARK SMILES IDX 37 78 38 79 41 80 39 81 65 82 66 83 74 84 67 85 68 86 72 87
REMARK SMILES IDX 75 88 69 89 70 90 73 91 71 92 50 93 51 94 59 95 52 96 53 97
REMARK SMILES IDX 57 98 60 99 54 100 55 101 58 102 56 103
REMARK H PARENT 11 10 11 11 90 17 80 56 48 67
REMARK Flexibility Score: inf
ROOT
ATOM      1  C   UNL A   1      41.583  23.639  28.401  1.00  0.00     0.202 C 
ENDROOT
BRANCH   1   2
ATOM      2  C   UNL A   1      40.938  24.936  27.896  1.00  0.00     0.261 C 
BRANCH   2   3
ATOM      3  O   UNL A   1      40.772  26.016  28.823  1.00  0.00    -0.459 OA
BRANCH   3   4
ATOM      4  C   UNL A   1      39.674  26.776  28.532  1.00  0.00     0.365 C 
ATOM      5  O   UNL A   1      39.204  26.898  27.403  1.00  0.00    -0.245 OA
BRANCH   4   6
ATOM      6  C   UNL A   1      39.211  27.645  29.695  1.00  0.00     0.298 C 
ATOM      7  C   UNL A   1      38.652  30.022  28.895  1.00  0.00     0.262 C 
ATOM      8  N   UNL A   1      38.248  28.608  29.144  1.00  0.00    -0.323 N 
ATOM      9  C   UNL A   1      39.648  30.429  29.936  1.00  0.00     0.083 A 
ATOM     10  H   UNL A   1      37.937  28.231  28.249  1.00  0.00     0.347 HD
ATOM     11  H   UNL A   1      37.558  28.694  29.891  1.00  0.00     0.347 HD
ATOM     12  C   UNL A   1      40.123  29.608  30.940  1.00  0.00    -0.006 A 
ATOM     13  N   UNL A   1      40.076  31.693  30.270  1.00  0.00    -0.353 N 
ATOM     14  C   UNL A   1      40.242  28.140  30.717  1.00  0.00     0.115 C 
ATOM     15  C   UNL A   1      39.891  30.422  32.087  1.00  0.00     0.003 A 
ATOM     16  C   UNL A   1      40.044  31.746  31.657  1.00  0.00     0.046 A 
ATOM     17  H   UNL A   1      40.349  32.411  29.653  1.00  0.00     0.166 HD
ATOM     18  C   UNL A   1      39.443  30.200  33.404  1.00  0.00     0.010 A 
ATOM     19  C   UNL A   1      39.972  32.846  32.517  1.00  0.00     0.026 A 
ATOM     20  C   UNL A   1      39.190  31.307  34.229  1.00  0.00     0.001 A 
ATOM     21  C   UNL A   1      39.503  32.600  33.810  1.00  0.00     0.002 A 
BRANCH   7  22
ATOM     22  C   UNL A   1      37.255  30.720  29.011  1.00  0.00     0.016 A 
ATOM     23  C   UNL A   1      35.932  32.835  30.359  1.00  0.00     0.037 A 
ATOM     24  C   UNL A   1      36.369  32.984  29.044  1.00  0.00     0.026 A 
ATOM     25  C   UNL A   1      35.941  31.536  30.882  1.00  0.00     0.026 A 
ATOM     26  C   UNL A   1      37.008  31.941  28.367  1.00  0.00     0.012 A 
ATOM     27  C   UNL A   1      36.548  30.471  30.203  1.00  0.00     0.012 A 
BRANCH  23  28
ATOM     28  N   UNL A   1      35.592  33.922  31.152  1.00  0.00    -0.372 N 
BRANCH  28  29
ATOM     29  C   UNL A   1      34.182  34.350  31.189  1.00  0.00     0.113 C 
ATOM     30  C   UNL A   1      33.650  34.779  29.830  1.00  0.00     0.027 C 
ENDBRANCH  28  29
BRANCH  28  31
ATOM     31  C   UNL A   1      36.457  34.324  32.263  1.00  0.00     0.113 C 
ATOM     32  C   UNL A   1      35.776  34.275  33.626  1.00  0.00     0.027 C 
ENDBRANCH  28  31
ENDBRANCH  23  28
ENDBRANCH   7  22
ENDBRANCH   4   6
ENDBRANCH   3   4
ENDBRANCH   2   3
ENDBRANCH   1   2
BRANCH   1  33
ATOM     33  O   UNL A   1      42.104  22.675  27.500  1.00  0.00    -0.374 OA
BRANCH  33  34
ATOM     34  C   UNL A   1      42.196  22.988  26.118  1.00  0.00     0.202 C 
BRANCH  34  35
ATOM     35  C   UNL A   1      43.530  23.464  25.531  1.00  0.00     0.261 C 
BRANCH  35  36
ATOM     36  O   UNL A   1      43.508  24.776  24.955  1.00  0.00    -0.460 OA
BRANCH  36  37
ATOM     37  C   UNL A   1      44.677  25.449  25.093  1.00  0.00     0.338 C 
ATOM     38  O   UNL A   1      45.763  25.151  24.626  1.00  0.00    -0.246 OA
BRANCH  37  39
ATOM     39  C   UNL A   1      44.468  26.715  25.820  1.00  0.00     0.060 A 
ATOM     40  C   UNL A   1      45.592  27.320  26.397  1.00  0.00     0.016 A 
ATOM     41  C   UNL A   1      43.189  27.226  26.047  1.00  0.00     0.016 A 
ATOM     42  C   UNL A   1      45.434  28.395  27.267  1.00  0.00     0.010 A 
ATOM     43  C   UNL A   1      43.031  28.302  26.925  1.00  0.00     0.010 A 
ATOM     44  C   UNL A   1      44.148  28.857  27.576  1.00  0.00    -0.014 A 
BRANCH  44  45
ATOM     45  C   UNL A   1      43.968  29.796  28.710  1.00  0.00     0.031 A 
ATOM     46  C   UNL A   1      43.795  29.236  30.096  1.00  0.00     0.074 A 
ATOM     47  C   UNL A   1      43.996  31.126  28.517  1.00  0.00     0.049 A 
ATOM     48  N   UNL A   1      43.603  29.862  31.229  1.00  0.00    -0.248 NA
ATOM     49  C   UNL A   1      43.845  27.770  30.221  1.00  0.00     0.031 C 
ATOM     50  C   UNL A   1      44.196  31.787  27.231  1.00  0.00     0.029 A 
ATOM     51  N   UNL A   1      43.852  32.156  29.412  1.00  0.00    -0.354 N 
ATOM     52  C   UNL A   1      43.504  28.870  32.197  1.00  0.00     0.074 A 
ATOM     53  C   UNL A   1      43.628  27.600  31.516  1.00  0.00     0.031 C 
ATOM     54  C   UNL A   1      44.153  33.118  27.416  1.00  0.00     0.029 A 
ATOM     55  C   UNL A   1      43.896  33.398  28.828  1.00  0.00     0.049 A 
ATOM     56  H   UNL A   1      43.728  32.019  30.379  1.00  0.00     0.167 HD
ATOM     57  C   UNL A   1      43.337  29.008  33.534  1.00  0.00     0.037 A 
ATOM     58  C   UNL A   1      43.731  34.618  29.373  1.00  0.00     0.037 A 
ATOM     59  C   UNL A   1      43.222  30.272  34.212  1.00  0.00     0.049 A 
ATOM     60  C   UNL A   1      43.488  34.742  30.855  1.00  0.00     0.074 A 
ATOM     61  C   UNL A   1      43.066  30.515  35.565  1.00  0.00     0.029 A 
ATOM     62  N   UNL A   1      43.248  31.508  33.583  1.00  0.00    -0.354 N 
ATOM     63  N   UNL A   1      43.418  33.802  31.765  1.00  0.00    -0.248 NA
ATOM     64  C   UNL A   1      43.306  36.102  31.385  1.00  0.00     0.031 C 
ATOM     65  C   UNL A   1      42.954  31.897  35.751  1.00  0.00     0.029 A 
ATOM     66  C   UNL A   1      43.089  32.517  34.519  1.00  0.00     0.049 A 
ATOM     67  H   UNL A   1      43.363  31.647  32.615  1.00  0.00     0.167 HD
ATOM     68  C   UNL A   1      43.215  34.454  32.975  1.00  0.00     0.074 A 
ATOM     69  C   UNL A   1      43.183  35.871  32.685  1.00  0.00     0.031 C 
ATOM     70  C   UNL A   1      43.072  33.925  34.216  1.00  0.00     0.037 A 
BRANCH  57  71
ATOM     71  C   UNL A   1      43.244  27.754  34.352  1.00  0.00     0.064 A 
ATOM     72  C   UNL A   1      42.024  27.086  34.540  1.00  0.00     0.173 A 
ATOM     73  C   UNL A   1      44.395  27.197  34.928  1.00  0.00     0.173 A 
ATOM     74  F   UNL A   1      40.893  27.587  34.022  1.00  0.00    -0.203 F 
ATOM     75  C   UNL A   1      41.959  25.918  35.295  1.00  0.00     0.198 A 
ATOM     76  C   UNL A   1      44.330  26.014  35.659  1.00  0.00     0.198 A 
ATOM     77  F   UNL A   1      45.586  27.795  34.774  1.00  0.00    -0.203 F 
ATOM     78  F   UNL A   1      40.777  25.319  35.498  1.00  0.00    -0.200 F 
ATOM     79  C   UNL A   1      43.111  25.379  35.848  1.00  0.00     0.200 A 
ATOM     80  F   UNL A   1      45.446  25.489  36.184  1.00  0.00    -0.200 F 
ATOM     81  F   UNL A   1      43.047  24.252  36.569  1.00  0.00    -0.200 F 
ENDBRANCH  57  71
BRANCH  58  82
ATOM     82  C   UNL A   1      43.785  35.826  28.511  1.00  0.00     0.064 A 
ATOM     83  C   UNL A   1      45.009  36.405  28.150  1.00  0.00     0.173 A 
ATOM     84  C   UNL A   1      42.611  36.437  28.045  1.00  0.00     0.173 A 
ATOM     85  F   UNL A   1      46.157  35.872  28.594  1.00  0.00    -0.203 F 
ATOM     86  C   UNL A   1      45.057  37.559  27.370  1.00  0.00     0.198 A 
ATOM     87  C   UNL A   1      42.661  37.575  27.243  1.00  0.00     0.198 A 
ATOM     88  F   UNL A   1      41.414  35.922  28.365  1.00  0.00    -0.203 F 
ATOM     89  F   UNL A   1      46.239  38.117  27.077  1.00  0.00    -0.200 F 
ATOM     90  C   UNL A   1      43.883  38.139  26.913  1.00  0.00     0.200 A 
ATOM     91  F   UNL A   1      41.525  38.126  26.795  1.00  0.00    -0.200 F 
ATOM     92  F   UNL A   1      43.930  39.248  26.161  1.00  0.00    -0.200 F 
ENDBRANCH  58  82
BRANCH  70  93
ATOM     93  C   UNL A   1      42.909  34.882  35.359  1.00  0.00     0.064 A 
ATOM     94  C   UNL A   1      44.008  35.336  36.103  1.00  0.00     0.173 A 
ATOM     95  C   UNL A   1      41.641  35.387  35.686  1.00  0.00     0.173 A 
ATOM     96  F   UNL A   1      45.239  34.873  35.838  1.00  0.00    -0.203 F 
ATOM     97  C   UNL A   1      43.841  36.242  37.146  1.00  0.00     0.198 A 
ATOM     98  C   UNL A   1      41.480  36.313  36.712  1.00  0.00     0.198 A 
ATOM     99  F   UNL A   1      40.558  34.990  35.001  1.00  0.00    -0.203 F 
ATOM    100  F   UNL A   1      44.899  36.630  37.871  1.00  0.00    -0.200 F 
ATOM    101  C   UNL A   1      42.579  36.735  37.446  1.00  0.00     0.200 A 
ATOM    102  F   UNL A   1      40.262  36.797  36.992  1.00  0.00    -0.200 F 
ATOM    103  F   UNL A   1      42.421  37.612  38.447  1.00  0.00    -0.200 F 
ENDBRANCH  70  93
ENDBRANCH  44  45
ENDBRANCH  37  39
ENDBRANCH  36  37
ENDBRANCH  35  36
ENDBRANCH  34  35
ENDBRANCH  33  34
ENDBRANCH   1  33
TORSDOF 18
ENDMDL
MODEL 3
REMARK VINA RESULT:     -11.6      6.609     12.065
REMARK SMILES CCN(CC)c1ccc([C@@H]2[NH2+][C@@H](C(=O)OCCOCCOC(=O)c3ccc(-c4c5nc(c(-c6c(F)c(F)c(F)c(F)c6F)c6ccc([nH]6)c(-c6c(F)c(F)c(F)c(F)c6F)c6nc(c(-c7c(F)c(F)c(F)c(F)c7F)c7ccc4[nH]7)C=C6)C=C5)cc3)Cc3c2[nH]c2ccccc32)cc1
REMARK SMILES IDX 17 1 16 2 15 3 13 4 14 5 12 6 10 7 11 8 89 9 88 12 90 13
REMARK SMILES IDX 87 14 96 15 91 16 95 18 92 19 94 20 93 21 9 22 6 23 7 24
REMARK SMILES IDX 98 25 8 26 97 27 3 28 2 29 1 30 4 31 5 32 18 33 19 34 20 35
REMARK SMILES IDX 21 36 22 37 23 38 24 39 25 40 86 41 26 42 85 43 27 44 28 45
REMARK SMILES IDX 29 46 79 47 30 48 84 49 78 50 80 51 31 52 83 53 77 54 76 55
REMARK SMILES IDX 32 57 64 58 44 59 63 60 45 61 48 62 62 63 81 64 46 65 47 66
REMARK SMILES IDX 61 68 82 69 49 70 33 71 34 72 42 73 35 74 36 75 40 76 43 77
REMARK SMILES IDX 37 78 38 79 41 80 39 81 65 82 66 83 74 84 67 85 68 86 72 87
REMARK SMILES IDX 75 88 69 89 70 90 73 91 71 92 50 93 51 94 59 95 52 96 53 97
REMARK SMILES IDX 57 98 60 99 54 100 55 101 58 102 56 103
REMARK H PARENT 11 10 11 11 90 17 80 56 48 67
REMARK Flexibility Score: inf
ROOT
ATOM      1  C   UNL A   1      38.282  34.060  39.780  1.00  0.00     0.202 C 
ENDROOT
BRANCH   1   2
ATOM      2  C   UNL A   1      38.332  32.617  39.261  1.00  0.00     0.261 C 
BRANCH   2   3
ATOM      3  O   UNL A   1      38.953  32.373  37.993  1.00  0.00    -0.459 OA
BRANCH   3   4
ATOM      4  C   UNL A   1      38.137  31.674  37.150  1.00  0.00     0.365 C 
ATOM      5  O   UNL A   1      37.630  30.590  37.428  1.00  0.00    -0.245 OA
BRANCH   4   6
ATOM      6  C   UNL A   1      38.089  32.246  35.738  1.00  0.00     0.298 C 
ATOM      7  C   UNL A   1      38.244  30.373  33.986  1.00  0.00     0.262 C 
ATOM      8  N   UNL A   1      37.436  31.235  34.896  1.00  0.00    -0.323 N 
ATOM      9  C   UNL A   1      39.413  31.163  33.485  1.00  0.00     0.083 A 
ATOM     10  H   UNL A   1      36.936  30.608  35.526  1.00  0.00     0.347 HD
ATOM     11  H   UNL A   1      36.885  31.799  34.248  1.00  0.00     0.347 HD
ATOM     12  C   UNL A   1      39.696  32.468  33.838  1.00  0.00    -0.006 A 
ATOM     13  N   UNL A   1      40.252  30.885  32.431  1.00  0.00    -0.353 N 
ATOM     14  C   UNL A   1      39.318  32.981  35.185  1.00  0.00     0.115 C 
ATOM     15  C   UNL A   1      39.846  33.069  32.554  1.00  0.00     0.003 A 
ATOM     16  C   UNL A   1      40.372  32.073  31.722  1.00  0.00     0.046 A 
ATOM     17  H   UNL A   1      40.680  30.022  32.222  1.00  0.00     0.166 HD
ATOM     18  C   UNL A   1      39.478  34.297  31.969  1.00  0.00     0.010 A 
ATOM     19  C   UNL A   1      40.736  32.297  30.391  1.00  0.00     0.026 A 
ATOM     20  C   UNL A   1      39.672  34.474  30.590  1.00  0.00     0.001 A 
ATOM     21  C   UNL A   1      40.340  33.514  29.830  1.00  0.00     0.002 A 
BRANCH   7  22
ATOM     22  C   UNL A   1      37.161  30.042  32.904  1.00  0.00     0.016 A 
ATOM     23  C   UNL A   1      36.569  30.428  30.159  1.00  0.00     0.037 A 
ATOM     24  C   UNL A   1      37.090  29.220  30.618  1.00  0.00     0.026 A 
ATOM     25  C   UNL A   1      36.116  31.328  31.131  1.00  0.00     0.026 A 
ATOM     26  C   UNL A   1      37.370  29.015  31.972  1.00  0.00     0.012 A 
ATOM     27  C   UNL A   1      36.359  31.124  32.496  1.00  0.00     0.012 A 
BRANCH  23  28
ATOM     28  N   UNL A   1      36.581  30.775  28.814  1.00  0.00    -0.372 N 
BRANCH  28  29
ATOM     29  C   UNL A   1      37.055  29.778  27.838  1.00  0.00     0.113 C 
ATOM     30  C   UNL A   1      38.568  29.631  27.816  1.00  0.00     0.027 C 
ENDBRANCH  28  29
BRANCH  28  31
ATOM     31  C   UNL A   1      35.728  31.859  28.324  1.00  0.00     0.113 C 
ATOM     32  C   UNL A   1      36.453  33.191  28.161  1.00  0.00     0.027 C 
ENDBRANCH  28  31
ENDBRANCH  23  28
ENDBRANCH   7  22
ENDBRANCH   4   6
ENDBRANCH   3   4
ENDBRANCH   2   3
ENDBRANCH   1   2
BRANCH   1  33
ATOM     33  O   UNL A   1      39.343  34.968  39.537  1.00  0.00    -0.374 OA
BRANCH  33  34
ATOM     34  C   UNL A   1      40.326  35.181  40.539  1.00  0.00     0.202 C 
BRANCH  34  35
ATOM     35  C   UNL A   1      41.809  34.970  40.211  1.00  0.00     0.261 C 
BRANCH  35  36
ATOM     36  O   UNL A   1      42.563  36.171  40.005  1.00  0.00    -0.460 OA
BRANCH  36  37
ATOM     37  C   UNL A   1      42.043  36.981  39.050  1.00  0.00     0.338 C 
ATOM     38  O   UNL A   1      41.456  38.037  39.214  1.00  0.00    -0.246 OA
BRANCH  37  39
ATOM     39  C   UNL A   1      42.376  36.481  37.704  1.00  0.00     0.060 A 
ATOM     40  C   UNL A   1      41.309  36.175  36.848  1.00  0.00     0.016 A 
ATOM     41  C   UNL A   1      43.690  36.189  37.335  1.00  0.00     0.016 A 
ATOM     42  C   UNL A   1      41.547  35.506  35.650  1.00  0.00     0.010 A 
ATOM     43  C   UNL A   1      43.927  35.511  36.135  1.00  0.00     0.010 A 
ATOM     44  C   UNL A   1      42.852  35.125  35.314  1.00  0.00    -0.014 A 
BRANCH  44  45
ATOM     45  C   UNL A   1      43.063  34.170  34.199  1.00  0.00     0.031 A 
ATOM     46  C   UNL A   1      43.254  34.708  32.807  1.00  0.00     0.074 A 
ATOM     47  C   UNL A   1      43.125  32.847  34.425  1.00  0.00     0.049 A 
ATOM     48  N   UNL A   1      43.434  34.065  31.681  1.00  0.00    -0.248 NA
ATOM     49  C   UNL A   1      43.240  36.174  32.664  1.00  0.00     0.031 C 
ATOM     50  C   UNL A   1      42.996  32.208  35.731  1.00  0.00     0.029 A 
ATOM     51  N   UNL A   1      43.309  31.804  33.553  1.00  0.00    -0.354 N 
ATOM     52  C   UNL A   1      43.547  35.042  30.701  1.00  0.00     0.074 A 
ATOM     53  C   UNL A   1      43.388  36.322  31.356  1.00  0.00     0.031 C 
ATOM     54  C   UNL A   1      43.095  30.876  35.576  1.00  0.00     0.029 A 
ATOM     55  C   UNL A   1      43.269  30.571  34.156  1.00  0.00     0.049 A 
ATOM     56  H   UNL A   1      43.456  31.926  32.587  1.00  0.00     0.167 HD
ATOM     57  C   UNL A   1      43.775  34.886  29.375  1.00  0.00     0.037 A 
ATOM     58  C   UNL A   1      43.346  29.340  33.617  1.00  0.00     0.037 A 
ATOM     59  C   UNL A   1      43.943  33.613  28.724  1.00  0.00     0.049 A 
ATOM     60  C   UNL A   1      43.542  29.191  32.131  1.00  0.00     0.074 A 
ATOM     61  C   UNL A   1      44.193  33.353  27.389  1.00  0.00     0.029 A 
ATOM     62  N   UNL A   1      43.871  32.385  29.365  1.00  0.00    -0.354 N 
ATOM     63  N   UNL A   1      43.670  30.119  31.215  1.00  0.00    -0.248 NA
ATOM     64  C   UNL A   1      43.609  27.819  31.605  1.00  0.00     0.031 C 
ATOM     65  C   UNL A   1      44.230  31.965  27.214  1.00  0.00     0.029 A 
ATOM     66  C   UNL A   1      44.051  31.363  28.448  1.00  0.00     0.049 A 
ATOM     67  H   UNL A   1      43.715  32.260  30.330  1.00  0.00     0.167 HD
ATOM     68  C   UNL A   1      43.863  29.448  30.013  1.00  0.00     0.074 A 
ATOM     69  C   UNL A   1      43.844  28.034  30.318  1.00  0.00     0.031 C 
ATOM     70  C   UNL A   1      44.042  29.959  28.770  1.00  0.00     0.037 A 
BRANCH  57  71
ATOM     71  C   UNL A   1      43.836  36.126  28.533  1.00  0.00     0.064 A 
ATOM     72  C   UNL A   1      45.048  36.788  28.283  1.00  0.00     0.173 A 
ATOM     73  C   UNL A   1      42.671  36.640  27.943  1.00  0.00     0.173 A 
ATOM     74  F   UNL A   1      46.186  36.345  28.836  1.00  0.00    -0.203 F 
ATOM     75  C   UNL A   1      45.086  37.933  27.491  1.00  0.00     0.198 A 
ATOM     76  C   UNL A   1      42.718  37.768  27.130  1.00  0.00     0.198 A 
ATOM     77  F   UNL A   1      41.489  36.041  28.148  1.00  0.00    -0.203 F 
ATOM     78  F   UNL A   1      46.247  38.574  27.300  1.00  0.00    -0.200 F 
ATOM     79  C   UNL A   1      43.924  38.418  26.910  1.00  0.00     0.200 A 
ATOM     80  F   UNL A   1      41.597  38.230  26.561  1.00  0.00    -0.200 F 
ATOM     81  F   UNL A   1      43.964  39.516  26.144  1.00  0.00    -0.200 F 
ENDBRANCH  57  71
BRANCH  58  82
ATOM     82  C   UNL A   1      43.233  28.143  34.489  1.00  0.00     0.064 A 
ATOM     83  C   UNL A   1      44.331  27.678  35.226  1.00  0.00     0.173 A 
ATOM     84  C   UNL A   1      42.029  27.429  34.590  1.00  0.00     0.173 A 
ATOM     85  F   UNL A   1      45.510  28.311  35.142  1.00  0.00    -0.203 F 
ATOM     86  C   UNL A   1      44.233  26.534  36.017  1.00  0.00     0.198 A 
ATOM     87  C   UNL A   1      41.926  26.303  35.402  1.00  0.00     0.198 A 
ATOM     88  F   UNL A   1      40.950  27.834  33.902  1.00  0.00    -0.203 F 
ATOM     89  F   UNL A   1      45.310  26.085  36.676  1.00  0.00    -0.200 F 
ATOM     90  C   UNL A   1      43.030  25.852  36.109  1.00  0.00     0.200 A 
ATOM     91  F   UNL A   1      40.758  25.652  35.494  1.00  0.00    -0.200 F 
ATOM     92  F   UNL A   1      42.936  24.753  36.870  1.00  0.00    -0.200 F 
ENDBRANCH  58  82
BRANCH  70  93
ATOM     93  C   UNL A   1      44.275  28.987  27.651  1.00  0.00     0.064 A 
ATOM     94  C   UNL A   1      45.550  28.472  27.374  1.00  0.00     0.173 A 
ATOM     95  C   UNL A   1      43.199  28.529  26.875  1.00  0.00     0.173 A 
ATOM     96  F   UNL A   1      46.613  28.888  28.080  1.00  0.00    -0.203 F 
ATOM     97  C   UNL A   1      45.743  27.553  26.347  1.00  0.00     0.198 A 
ATOM     98  C   UNL A   1      43.391  27.589  25.866  1.00  0.00     0.198 A 
ATOM     99  F   UNL A   1      41.958  28.985  27.104  1.00  0.00    -0.203 F 
ATOM    100  F   UNL A   1      46.976  27.107  26.072  1.00  0.00    -0.200 F 
ATOM    101  C   UNL A   1      44.663  27.107  25.599  1.00  0.00     0.200 A 
ATOM    102  F   UNL A   1      42.344  27.151  25.152  1.00  0.00    -0.200 F 
ATOM    103  F   UNL A   1      44.850  26.218  24.614  1.00  0.00    -0.200 F 
ENDBRANCH  70  93
ENDBRANCH  44  45
ENDBRANCH  37  39
ENDBRANCH  36  37
ENDBRANCH  35  36
ENDBRANCH  34  35
ENDBRANCH  33  34
ENDBRANCH   1  33
TORSDOF 18
ENDMDL
