MODEL 1
REMARK VINA RESULT:     -11.7      0.000      0.000
REMARK SMILES C[C@@H]1CN(S(=O)(=O)N2CCC(C(=O)OCCOCCOC(=O)c3ccc(-c4c5nc(c(-c6c(F)c(F)c(F)c(F)c6F)c6ccc([nH]6)c(-c6c(F)c(F)c(F)c(F)c6F)c6nc(c(-c7c(F)c(F)c(F)c(F)c7F)c7ccc4[nH]7)C=C6)C=C5)cc3)CC2)C[C@@H](C)O1
REMARK SMILES IDX 17 1 16 2 15 3 14 4 12 5 13 6 11 7 8 8 9 9 87 10 10 11 86 12
REMARK SMILES IDX 5 13 6 14 7 15 4 16 1 17 2 18 3 19 91 20 89 21 88 22 90 23
REMARK SMILES IDX 18 24 19 25 20 26 21 27 22 28 23 29 24 30 85 31 25 32 84 33
REMARK SMILES IDX 26 34 27 35 28 36 78 37 29 38 83 39 77 40 79 41 30 42 82 43
REMARK SMILES IDX 76 44 75 45 31 47 63 48 43 49 62 50 44 51 47 52 61 53 80 54
REMARK SMILES IDX 45 55 46 56 60 58 81 59 48 60 32 61 33 62 41 63 34 64 35 65
REMARK SMILES IDX 39 66 42 67 36 68 37 69 40 70 38 71 64 72 65 73 73 74 66 75
REMARK SMILES IDX 67 76 71 77 74 78 68 79 69 80 72 81 70 82 49 83 50 84 58 85
REMARK SMILES IDX 51 86 52 87 56 88 59 89 53 90 54 91 57 92 55 93
REMARK H PARENT 79 46 47 57
REMARK Flexibility Score: inf
ROOT
ATOM      1  O   UNL A   1      42.092  21.481  25.834  1.00  0.00    -0.374 OA
ENDROOT
BRANCH   1   2
ATOM      2  C   UNL A   1      41.399  20.502  26.608  1.00  0.00     0.202 C 
BRANCH   2   3
ATOM      3  C   UNL A   1      40.088  19.989  25.996  1.00  0.00     0.261 C 
BRANCH   3   4
ATOM      4  O   UNL A   1      39.101  21.033  25.869  1.00  0.00    -0.463 OA
BRANCH   4   5
ATOM      5  C   UNL A   1      37.916  20.695  25.290  1.00  0.00     0.309 C 
ATOM      6  O   UNL A   1      37.721  19.690  24.622  1.00  0.00    -0.252 OA
BRANCH   5   7
ATOM      7  C   UNL A   1      36.827  21.715  25.587  1.00  0.00     0.102 C 
ATOM      8  N   UNL A   1      34.571  23.230  24.657  1.00  0.00    -0.189 NA
ATOM      9  C   UNL A   1      34.343  22.112  25.583  1.00  0.00     0.104 C 
ATOM     10  C   UNL A   1      35.814  23.961  24.902  1.00  0.00     0.104 C 
ATOM     11  C   UNL A   1      35.445  21.082  25.396  1.00  0.00     0.032 C 
ATOM     12  C   UNL A   1      36.993  22.998  24.759  1.00  0.00     0.032 C 
BRANCH   8  13
ATOM     13  S   UNL A   1      33.537  23.541  23.383  1.00  0.00     0.282 S 
ATOM     14  O   UNL A   1      32.583  22.460  23.286  1.00  0.00    -0.195 OA
ATOM     15  O   UNL A   1      34.332  23.949  22.251  1.00  0.00    -0.195 OA
BRANCH  13  16
ATOM     16  N   UNL A   1      32.694  24.910  23.928  1.00  0.00    -0.184 NA
ATOM     17  C   UNL A   1      31.020  26.073  26.102  1.00  0.00     0.040 C 
ATOM     18  C   UNL A   1      30.598  25.973  24.641  1.00  0.00     0.130 C 
ATOM     19  C   UNL A   1      31.207  24.784  23.900  1.00  0.00     0.135 C 
ATOM     20  O   UNL A   1      30.895  27.183  23.940  1.00  0.00    -0.373 OA
ATOM     21  C   UNL A   1      32.310  27.405  23.809  1.00  0.00     0.130 C 
ATOM     22  C   UNL A   1      33.052  26.187  23.195  1.00  0.00     0.135 C 
ATOM     23  C   UNL A   1      32.445  28.653  22.948  1.00  0.00     0.040 C 
ENDBRANCH  13  16
ENDBRANCH   8  13
ENDBRANCH   5   7
ENDBRANCH   4   5
ENDBRANCH   3   4
ENDBRANCH   2   3
ENDBRANCH   1   2
BRANCH   1  24
ATOM     24  C   UNL A   1      43.447  21.174  25.516  1.00  0.00     0.202 C 
BRANCH  24  25
ATOM     25  C   UNL A   1      44.184  22.223  24.676  1.00  0.00     0.261 C 
BRANCH  25  26
ATOM     26  O   UNL A   1      43.478  23.480  24.658  1.00  0.00    -0.460 OA
BRANCH  26  27
ATOM     27  C   UNL A   1      44.220  24.560  25.008  1.00  0.00     0.338 C 
ATOM     28  O   UNL A   1      45.270  24.927  24.511  1.00  0.00    -0.246 OA
BRANCH  27  29
ATOM     29  C   UNL A   1      43.473  25.366  25.995  1.00  0.00     0.060 A 
ATOM     30  C   UNL A   1      43.823  26.712  26.143  1.00  0.00     0.016 A 
ATOM     31  C   UNL A   1      42.448  24.820  26.769  1.00  0.00     0.016 A 
ATOM     32  C   UNL A   1      43.171  27.507  27.089  1.00  0.00     0.010 A 
ATOM     33  C   UNL A   1      41.763  25.629  27.681  1.00  0.00     0.010 A 
ATOM     34  C   UNL A   1      42.152  26.966  27.885  1.00  0.00    -0.014 A 
BRANCH  34  35
ATOM     35  C   UNL A   1      41.623  27.730  29.048  1.00  0.00     0.031 A 
ATOM     36  C   UNL A   1      42.342  27.626  30.369  1.00  0.00     0.074 A 
ATOM     37  C   UNL A   1      40.546  28.531  28.939  1.00  0.00     0.049 A 
ATOM     38  N   UNL A   1      42.060  28.180  31.522  1.00  0.00    -0.248 NA
ATOM     39  C   UNL A   1      43.539  26.770  30.397  1.00  0.00     0.031 C 
ATOM     40  C   UNL A   1      39.763  28.740  27.723  1.00  0.00     0.029 A 
ATOM     41  N   UNL A   1      39.924  29.321  29.878  1.00  0.00    -0.354 N 
ATOM     42  C   UNL A   1      43.029  27.725  32.407  1.00  0.00     0.074 A 
ATOM     43  C   UNL A   1      43.874  26.808  31.675  1.00  0.00     0.031 C 
ATOM     44  C   UNL A   1      38.772  29.609  27.986  1.00  0.00     0.029 A 
ATOM     45  C   UNL A   1      38.826  29.992  29.397  1.00  0.00     0.049 A 
ATOM     46  H   UNL A   1      40.238  29.399  30.807  1.00  0.00     0.167 HD
ATOM     47  C   UNL A   1      43.217  28.055  33.707  1.00  0.00     0.037 A 
ATOM     48  C   UNL A   1      37.956  30.807  30.027  1.00  0.00     0.037 A 
ATOM     49  C   UNL A   1      42.391  28.979  34.435  1.00  0.00     0.049 A 
ATOM     50  C   UNL A   1      38.152  31.117  31.492  1.00  0.00     0.074 A 
ATOM     51  C   UNL A   1      42.523  29.404  35.746  1.00  0.00     0.029 A 
ATOM     52  N   UNL A   1      41.274  29.616  33.919  1.00  0.00    -0.354 N 
ATOM     53  N   UNL A   1      39.097  30.715  32.307  1.00  0.00    -0.248 NA
ATOM     54  C   UNL A   1      37.158  32.001  32.122  1.00  0.00     0.031 C 
ATOM     55  C   UNL A   1      41.448  30.248  36.042  1.00  0.00     0.029 A 
ATOM     56  C   UNL A   1      40.687  30.407  34.894  1.00  0.00     0.049 A 
ATOM     57  H   UNL A   1      40.944  29.520  32.995  1.00  0.00     0.167 HD
ATOM     58  C   UNL A   1      38.833  31.321  33.530  1.00  0.00     0.074 A 
ATOM     59  C   UNL A   1      37.646  32.129  33.347  1.00  0.00     0.031 C 
ATOM     60  C   UNL A   1      39.512  31.219  34.699  1.00  0.00     0.037 A 
BRANCH  47  61
ATOM     61  C   UNL A   1      44.355  27.391  34.432  1.00  0.00     0.064 A 
ATOM     62  C   UNL A   1      45.647  27.940  34.444  1.00  0.00     0.173 A 
ATOM     63  C   UNL A   1      44.143  26.198  35.140  1.00  0.00     0.173 A 
ATOM     64  F   UNL A   1      45.908  29.070  33.772  1.00  0.00    -0.203 F 
ATOM     65  C   UNL A   1      46.691  27.299  35.108  1.00  0.00     0.198 A 
ATOM     66  C   UNL A   1      45.181  25.582  35.833  1.00  0.00     0.198 A 
ATOM     67  F   UNL A   1      42.926  25.633  35.166  1.00  0.00    -0.203 F 
ATOM     68  F   UNL A   1      47.929  27.810  35.052  1.00  0.00    -0.200 F 
ATOM     69  C   UNL A   1      46.456  26.126  35.807  1.00  0.00     0.200 A 
ATOM     70  F   UNL A   1      44.948  24.457  36.524  1.00  0.00    -0.200 F 
ATOM     71  F   UNL A   1      47.460  25.514  36.450  1.00  0.00    -0.200 F 
ENDBRANCH  47  61
BRANCH  48  72
ATOM     72  C   UNL A   1      36.811  31.397  29.281  1.00  0.00     0.064 A 
ATOM     73  C   UNL A   1      36.778  32.762  28.962  1.00  0.00     0.173 A 
ATOM     74  C   UNL A   1      35.712  30.614  28.896  1.00  0.00     0.173 A 
ATOM     75  F   UNL A   1      37.792  33.560  29.330  1.00  0.00    -0.203 F 
ATOM     76  C   UNL A   1      35.682  33.325  28.310  1.00  0.00     0.198 A 
ATOM     77  C   UNL A   1      34.631  31.171  28.216  1.00  0.00     0.198 A 
ATOM     78  F   UNL A   1      35.690  29.303  29.177  1.00  0.00    -0.203 F 
ATOM     79  F   UNL A   1      35.653  34.643  28.067  1.00  0.00    -0.200 F 
ATOM     80  C   UNL A   1      34.613  32.529  27.932  1.00  0.00     0.200 A 
ATOM     81  F   UNL A   1      33.606  30.394  27.840  1.00  0.00    -0.200 F 
ATOM     82  F   UNL A   1      33.561  33.069  27.302  1.00  0.00    -0.200 F 
ENDBRANCH  48  72
BRANCH  60  83
ATOM     83  C   UNL A   1      39.027  32.033  35.867  1.00  0.00     0.064 A 
ATOM     84  C   UNL A   1      38.205  31.488  36.864  1.00  0.00     0.173 A 
ATOM     85  C   UNL A   1      39.434  33.370  36.015  1.00  0.00     0.173 A 
ATOM     86  F   UNL A   1      37.778  30.219  36.767  1.00  0.00    -0.203 F 
ATOM     87  C   UNL A   1      37.786  32.256  37.947  1.00  0.00     0.198 A 
ATOM     88  C   UNL A   1      39.043  34.123  37.118  1.00  0.00     0.198 A 
ATOM     89  F   UNL A   1      40.229  33.941  35.097  1.00  0.00    -0.203 F 
ATOM     90  F   UNL A   1      36.958  31.727  38.860  1.00  0.00    -0.200 F 
ATOM     91  C   UNL A   1      38.213  33.569  38.079  1.00  0.00     0.200 A 
ATOM     92  F   UNL A   1      39.473  35.386  37.253  1.00  0.00    -0.200 F 
ATOM     93  F   UNL A   1      37.817  34.302  39.128  1.00  0.00    -0.200 F 
ENDBRANCH  60  83
ENDBRANCH  34  35
ENDBRANCH  27  29
ENDBRANCH  26  27
ENDBRANCH  25  26
ENDBRANCH  24  25
ENDBRANCH   1  24
TORSDOF 16
ENDMDL
MODEL 2
REMARK VINA RESULT:     -11.7      0.979      1.664
REMARK SMILES C[C@@H]1CN(S(=O)(=O)N2CCC(C(=O)OCCOCCOC(=O)c3ccc(-c4c5nc(c(-c6c(F)c(F)c(F)c(F)c6F)c6ccc([nH]6)c(-c6c(F)c(F)c(F)c(F)c6F)c6nc(c(-c7c(F)c(F)c(F)c(F)c7F)c7ccc4[nH]7)C=C6)C=C5)cc3)CC2)C[C@@H](C)O1
REMARK SMILES IDX 17 1 16 2 15 3 14 4 12 5 13 6 11 7 8 8 9 9 87 10 10 11 86 12
REMARK SMILES IDX 5 13 6 14 7 15 4 16 1 17 2 18 3 19 91 20 89 21 88 22 90 23
REMARK SMILES IDX 18 24 19 25 20 26 21 27 22 28 23 29 24 30 85 31 25 32 84 33
REMARK SMILES IDX 26 34 27 35 28 36 78 37 29 38 83 39 77 40 79 41 30 42 82 43
REMARK SMILES IDX 76 44 75 45 31 47 63 48 43 49 62 50 44 51 47 52 61 53 80 54
REMARK SMILES IDX 45 55 46 56 60 58 81 59 48 60 32 61 33 62 41 63 34 64 35 65
REMARK SMILES IDX 39 66 42 67 36 68 37 69 40 70 38 71 64 72 65 73 73 74 66 75
REMARK SMILES IDX 67 76 71 77 74 78 68 79 69 80 72 81 70 82 49 83 50 84 58 85
REMARK SMILES IDX 51 86 52 87 56 88 59 89 53 90 54 91 57 92 55 93
REMARK H PARENT 79 46 47 57
REMARK Flexibility Score: inf
ROOT
ATOM      1  O   UNL A   1      41.774  20.201  26.750  1.00  0.00    -0.374 OA
ENDROOT
BRANCH   1   2
ATOM      2  C   UNL A   1      40.412  20.181  26.320  1.00  0.00     0.202 C 
BRANCH   2   3
ATOM      3  C   UNL A   1      39.755  21.558  26.158  1.00  0.00     0.261 C 
BRANCH   3   4
ATOM      4  O   UNL A   1      38.543  21.495  25.378  1.00  0.00    -0.463 OA
BRANCH   4   5
ATOM      5  C   UNL A   1      37.618  22.469  25.596  1.00  0.00     0.309 C 
ATOM      6  O   UNL A   1      37.807  23.668  25.440  1.00  0.00    -0.252 OA
BRANCH   5   7
ATOM      7  C   UNL A   1      36.283  21.895  26.045  1.00  0.00     0.102 C 
ATOM      8  N   UNL A   1      33.446  21.686  25.644  1.00  0.00    -0.189 NA
ATOM      9  C   UNL A   1      34.296  20.533  25.320  1.00  0.00     0.104 C 
ATOM     10  C   UNL A   1      33.905  22.456  26.800  1.00  0.00     0.104 C 
ATOM     11  C   UNL A   1      35.680  21.030  24.933  1.00  0.00     0.032 C 
ATOM     12  C   UNL A   1      35.311  22.985  26.518  1.00  0.00     0.032 C 
BRANCH   8  13
ATOM     13  S   UNL A   1      32.144  22.114  24.692  1.00  0.00     0.282 S 
ATOM     14  O   UNL A   1      30.965  22.192  25.525  1.00  0.00    -0.195 OA
ATOM     15  O   UNL A   1      32.173  21.301  23.501  1.00  0.00    -0.195 OA
BRANCH  13  16
ATOM     16  N   UNL A   1      32.539  23.700  24.230  1.00  0.00    -0.184 NA
ATOM     17  C   UNL A   1      33.800  26.269  25.063  1.00  0.00     0.040 C 
ATOM     18  C   UNL A   1      32.361  26.124  24.580  1.00  0.00     0.130 C 
ATOM     19  C   UNL A   1      31.736  24.766  24.896  1.00  0.00     0.135 C 
ATOM     20  O   UNL A   1      32.264  26.386  23.178  1.00  0.00    -0.373 OA
ATOM     21  C   UNL A   1      32.927  25.385  22.387  1.00  0.00     0.130 C 
ATOM     22  C   UNL A   1      32.465  23.944  22.737  1.00  0.00     0.135 C 
ATOM     23  C   UNL A   1      32.628  25.748  20.941  1.00  0.00     0.040 C 
ENDBRANCH  13  16
ENDBRANCH   8  13
ENDBRANCH   5   7
ENDBRANCH   4   5
ENDBRANCH   3   4
ENDBRANCH   2   3
ENDBRANCH   1   2
BRANCH   1  24
ATOM     24  C   UNL A   1      42.748  20.329  25.717  1.00  0.00     0.202 C 
BRANCH  24  25
ATOM     25  C   UNL A   1      43.599  21.603  25.766  1.00  0.00     0.261 C 
BRANCH  25  26
ATOM     26  O   UNL A   1      43.021  22.659  24.974  1.00  0.00    -0.460 OA
BRANCH  26  27
ATOM     27  C   UNL A   1      43.708  23.828  24.986  1.00  0.00     0.338 C 
ATOM     28  O   UNL A   1      44.613  24.161  24.242  1.00  0.00    -0.246 OA
BRANCH  27  29
ATOM     29  C   UNL A   1      43.076  24.756  25.946  1.00  0.00     0.060 A 
ATOM     30  C   UNL A   1      43.615  26.041  26.070  1.00  0.00     0.016 A 
ATOM     31  C   UNL A   1      41.976  24.380  26.719  1.00  0.00     0.016 A 
ATOM     32  C   UNL A   1      43.075  26.942  26.990  1.00  0.00     0.010 A 
ATOM     33  C   UNL A   1      41.407  25.301  27.606  1.00  0.00     0.010 A 
ATOM     34  C   UNL A   1      41.982  26.572  27.786  1.00  0.00    -0.014 A 
BRANCH  34  35
ATOM     35  C   UNL A   1      41.558  27.431  28.925  1.00  0.00     0.031 A 
ATOM     36  C   UNL A   1      42.351  27.376  30.206  1.00  0.00     0.074 A 
ATOM     37  C   UNL A   1      40.511  28.272  28.828  1.00  0.00     0.049 A 
ATOM     38  N   UNL A   1      42.164  28.013  31.335  1.00  0.00    -0.248 NA
ATOM     39  C   UNL A   1      43.510  26.469  30.220  1.00  0.00     0.031 C 
ATOM     40  C   UNL A   1      39.665  28.441  27.648  1.00  0.00     0.029 A 
ATOM     41  N   UNL A   1      39.982  29.147  29.748  1.00  0.00    -0.354 N 
ATOM     42  C   UNL A   1      43.165  27.569  32.190  1.00  0.00     0.074 A 
ATOM     43  C   UNL A   1      43.924  26.571  31.471  1.00  0.00     0.031 C 
ATOM     44  C   UNL A   1      38.730  29.370  27.912  1.00  0.00     0.029 A 
ATOM     45  C   UNL A   1      38.886  29.837  29.289  1.00  0.00     0.049 A 
ATOM     46  H   UNL A   1      40.355  29.269  30.650  1.00  0.00     0.167 HD
ATOM     47  C   UNL A   1      43.446  27.971  33.452  1.00  0.00     0.037 A 
ATOM     48  C   UNL A   1      38.092  30.729  29.915  1.00  0.00     0.037 A 
ATOM     49  C   UNL A   1      42.706  28.976  34.166  1.00  0.00     0.049 A 
ATOM     50  C   UNL A   1      38.389  31.120  31.342  1.00  0.00     0.074 A 
ATOM     51  C   UNL A   1      42.936  29.475  35.436  1.00  0.00     0.029 A 
ATOM     52  N   UNL A   1      41.587  29.631  33.675  1.00  0.00    -0.354 N 
ATOM     53  N   UNL A   1      39.365  30.727  32.125  1.00  0.00    -0.248 NA
ATOM     54  C   UNL A   1      37.475  32.086  31.970  1.00  0.00     0.031 C 
ATOM     55  C   UNL A   1      41.917  30.384  35.739  1.00  0.00     0.029 A 
ATOM     56  C   UNL A   1      41.096  30.507  34.630  1.00  0.00     0.049 A 
ATOM     57  H   UNL A   1      41.198  29.493  32.781  1.00  0.00     0.167 HD
ATOM     58  C   UNL A   1      39.202  31.420  33.320  1.00  0.00     0.074 A 
ATOM     59  C   UNL A   1      38.042  32.268  33.154  1.00  0.00     0.031 C 
ATOM     60  C   UNL A   1      39.947  31.359  34.452  1.00  0.00     0.037 A 
BRANCH  47  61
ATOM     61  C   UNL A   1      44.597  27.301  34.152  1.00  0.00     0.064 A 
ATOM     62  C   UNL A   1      45.906  27.802  34.070  1.00  0.00     0.173 A 
ATOM     63  C   UNL A   1      44.382  26.153  34.929  1.00  0.00     0.173 A 
ATOM     64  F   UNL A   1      46.170  28.888  33.329  1.00  0.00    -0.203 F 
ATOM     65  C   UNL A   1      46.960  27.156  34.711  1.00  0.00     0.198 A 
ATOM     66  C   UNL A   1      45.432  25.533  35.599  1.00  0.00     0.198 A 
ATOM     67  F   UNL A   1      43.149  25.635  35.046  1.00  0.00    -0.203 F 
ATOM     68  F   UNL A   1      48.211  27.617  34.567  1.00  0.00    -0.200 F 
ATOM     69  C   UNL A   1      46.722  26.028  35.481  1.00  0.00     0.200 A 
ATOM     70  F   UNL A   1      45.197  24.453  36.356  1.00  0.00    -0.200 F 
ATOM     71  F   UNL A   1      47.737  25.412  36.102  1.00  0.00    -0.200 F 
ENDBRANCH  47  61
BRANCH  48  72
ATOM     72  C   UNL A   1      36.929  31.324  29.200  1.00  0.00     0.064 A 
ATOM     73  C   UNL A   1      36.929  32.670  28.808  1.00  0.00     0.173 A 
ATOM     74  C   UNL A   1      35.782  30.566  28.919  1.00  0.00     0.173 A 
ATOM     75  F   UNL A   1      37.991  33.445  29.075  1.00  0.00    -0.203 F 
ATOM     76  C   UNL A   1      35.820  33.241  28.185  1.00  0.00     0.198 A 
ATOM     77  C   UNL A   1      34.686  31.129  28.268  1.00  0.00     0.198 A 
ATOM     78  F   UNL A   1      35.728  29.274  29.273  1.00  0.00    -0.203 F 
ATOM     79  F   UNL A   1      35.826  34.544  27.872  1.00  0.00    -0.200 F 
ATOM     80  C   UNL A   1      34.702  32.469  27.910  1.00  0.00     0.200 A 
ATOM     81  F   UNL A   1      33.614  30.375  27.991  1.00  0.00    -0.200 F 
ATOM     82  F   UNL A   1      33.637  33.016  27.309  1.00  0.00    -0.200 F 
ENDBRANCH  48  72
BRANCH  60  83
ATOM     83  C   UNL A   1      39.568  32.266  35.590  1.00  0.00     0.064 A 
ATOM     84  C   UNL A   1      40.089  33.562  35.713  1.00  0.00     0.173 A 
ATOM     85  C   UNL A   1      38.629  31.845  36.546  1.00  0.00     0.173 A 
ATOM     86  F   UNL A   1      40.997  34.011  34.833  1.00  0.00    -0.203 F 
ATOM     87  C   UNL A   1      39.706  34.392  36.764  1.00  0.00     0.198 A 
ATOM     88  C   UNL A   1      38.222  32.690  37.575  1.00  0.00     0.198 A 
ATOM     89  F   UNL A   1      38.091  30.618  36.473  1.00  0.00    -0.203 F 
ATOM     90  F   UNL A   1      40.257  35.608  36.890  1.00  0.00    -0.200 F 
ATOM     91  C   UNL A   1      38.766  33.959  37.688  1.00  0.00     0.200 A 
ATOM     92  F   UNL A   1      37.299  32.277  38.455  1.00  0.00    -0.200 F 
ATOM     93  F   UNL A   1      38.392  34.764  38.693  1.00  0.00    -0.200 F 
ENDBRANCH  60  83
ENDBRANCH  34  35
ENDBRANCH  27  29
ENDBRANCH  26  27
ENDBRANCH  25  26
ENDBRANCH  24  25
ENDBRANCH   1  24
TORSDOF 16
ENDMDL
MODEL 3
REMARK VINA RESULT:     -11.7      4.350      6.959
REMARK SMILES C[C@@H]1CN(S(=O)(=O)N2CCC(C(=O)OCCOCCOC(=O)c3ccc(-c4c5nc(c(-c6c(F)c(F)c(F)c(F)c6F)c6ccc([nH]6)c(-c6c(F)c(F)c(F)c(F)c6F)c6nc(c(-c7c(F)c(F)c(F)c(F)c7F)c7ccc4[nH]7)C=C6)C=C5)cc3)CC2)C[C@@H](C)O1
REMARK SMILES IDX 17 1 16 2 15 3 14 4 12 5 13 6 11 7 8 8 9 9 87 10 10 11 86 12
REMARK SMILES IDX 5 13 6 14 7 15 4 16 1 17 2 18 3 19 91 20 89 21 88 22 90 23
REMARK SMILES IDX 18 24 19 25 20 26 21 27 22 28 23 29 24 30 85 31 25 32 84 33
REMARK SMILES IDX 26 34 27 35 28 36 78 37 29 38 83 39 77 40 79 41 30 42 82 43
REMARK SMILES IDX 76 44 75 45 31 47 63 48 43 49 62 50 44 51 47 52 61 53 80 54
REMARK SMILES IDX 45 55 46 56 60 58 81 59 48 60 32 61 33 62 41 63 34 64 35 65
REMARK SMILES IDX 39 66 42 67 36 68 37 69 40 70 38 71 64 72 65 73 73 74 66 75
REMARK SMILES IDX 67 76 71 77 74 78 68 79 69 80 72 81 70 82 49 83 50 84 58 85
REMARK SMILES IDX 51 86 52 87 56 88 59 89 53 90 54 91 57 92 55 93
REMARK H PARENT 79 46 47 57
REMARK Flexibility Score: inf
ROOT
ATOM      1  O   UNL A   1      34.948  21.124  24.804  1.00  0.00    -0.374 OA
ENDROOT
BRANCH   1   2
ATOM      2  C   UNL A   1      33.661  20.790  25.327  1.00  0.00     0.202 C 
BRANCH   2   3
ATOM      3  C   UNL A   1      33.070  21.805  26.315  1.00  0.00     0.261 C 
BRANCH   3   4
ATOM      4  O   UNL A   1      31.708  22.151  25.992  1.00  0.00    -0.463 OA
BRANCH   4   5
ATOM      5  C   UNL A   1      31.343  23.451  26.168  1.00  0.00     0.309 C 
ATOM      6  O   UNL A   1      31.126  23.981  27.249  1.00  0.00    -0.252 OA
BRANCH   5   7
ATOM      7  C   UNL A   1      31.252  24.199  24.847  1.00  0.00     0.102 C 
ATOM      8  N   UNL A   1      31.805  26.578  23.336  1.00  0.00    -0.189 NA
ATOM      9  C   UNL A   1      32.586  25.365  23.062  1.00  0.00     0.104 C 
ATOM     10  C   UNL A   1      30.410  26.319  23.692  1.00  0.00     0.104 C 
ATOM     11  C   UNL A   1      32.656  24.524  24.327  1.00  0.00     0.032 C 
ATOM     12  C   UNL A   1      30.370  25.453  24.950  1.00  0.00     0.032 C 
BRANCH   8  13
ATOM     13  S   UNL A   1      32.506  28.094  23.340  1.00  0.00     0.282 S 
ATOM     14  O   UNL A   1      31.556  29.045  22.808  1.00  0.00    -0.195 OA
ATOM     15  O   UNL A   1      33.837  27.973  22.798  1.00  0.00    -0.195 OA
BRANCH  13  16
ATOM     16  N   UNL A   1      32.664  28.414  25.000  1.00  0.00    -0.184 NA
ATOM     17  C   UNL A   1      31.396  28.186  27.688  1.00  0.00     0.040 C 
ATOM     18  C   UNL A   1      31.839  29.496  27.045  1.00  0.00     0.130 C 
ATOM     19  C   UNL A   1      31.770  29.491  25.519  1.00  0.00     0.135 C 
ATOM     20  O   UNL A   1      33.158  29.851  27.468  1.00  0.00    -0.373 OA
ATOM     21  C   UNL A   1      34.155  28.942  26.970  1.00  0.00     0.130 C 
ATOM     22  C   UNL A   1      34.076  28.753  25.431  1.00  0.00     0.135 C 
ATOM     23  C   UNL A   1      35.490  29.527  27.408  1.00  0.00     0.040 C 
ENDBRANCH  13  16
ENDBRANCH   8  13
ENDBRANCH   5   7
ENDBRANCH   4   5
ENDBRANCH   3   4
ENDBRANCH   2   3
ENDBRANCH   1   2
BRANCH   1  24
ATOM     24  C   UNL A   1      35.970  20.152  25.008  1.00  0.00     0.202 C 
BRANCH  24  25
ATOM     25  C   UNL A   1      37.403  20.643  24.778  1.00  0.00     0.261 C 
BRANCH  25  26
ATOM     26  O   UNL A   1      37.831  21.543  25.820  1.00  0.00    -0.460 OA
BRANCH  26  27
ATOM     27  C   UNL A   1      39.118  21.391  26.218  1.00  0.00     0.338 C 
ATOM     28  O   UNL A   1      39.842  20.430  26.025  1.00  0.00    -0.246 OA
BRANCH  27  29
ATOM     29  C   UNL A   1      39.607  22.663  26.788  1.00  0.00     0.060 A 
ATOM     30  C   UNL A   1      38.929  23.838  26.450  1.00  0.00     0.016 A 
ATOM     31  C   UNL A   1      40.712  22.712  27.639  1.00  0.00     0.016 A 
ATOM     32  C   UNL A   1      39.374  25.070  26.935  1.00  0.00     0.010 A 
ATOM     33  C   UNL A   1      41.128  23.941  28.163  1.00  0.00     0.010 A 
ATOM     34  C   UNL A   1      40.494  25.136  27.775  1.00  0.00    -0.014 A 
BRANCH  34  35
ATOM     35  C   UNL A   1      41.113  26.450  28.099  1.00  0.00     0.031 A 
ATOM     36  C   UNL A   1      42.535  26.705  27.666  1.00  0.00     0.074 A 
ATOM     37  C   UNL A   1      40.428  27.420  28.734  1.00  0.00     0.049 A 
ATOM     38  N   UNL A   1      43.290  27.760  27.851  1.00  0.00    -0.248 NA
ATOM     39  C   UNL A   1      43.202  25.616  26.935  1.00  0.00     0.031 C 
ATOM     40  C   UNL A   1      39.046  27.318  29.195  1.00  0.00     0.029 A 
ATOM     41  N   UNL A   1      40.812  28.688  29.101  1.00  0.00    -0.354 N 
ATOM     42  C   UNL A   1      44.517  27.451  27.277  1.00  0.00     0.074 A 
ATOM     43  C   UNL A   1      44.426  26.094  26.786  1.00  0.00     0.031 C 
ATOM     44  C   UNL A   1      38.693  28.480  29.774  1.00  0.00     0.029 A 
ATOM     45  C   UNL A   1      39.834  29.395  29.758  1.00  0.00     0.049 A 
ATOM     46  H   UNL A   1      41.705  29.057  28.909  1.00  0.00     0.167 HD
ATOM     47  C   UNL A   1      45.616  28.231  27.145  1.00  0.00     0.037 A 
ATOM     48  C   UNL A   1      39.863  30.630  30.298  1.00  0.00     0.037 A 
ATOM     49  C   UNL A   1      45.707  29.587  27.615  1.00  0.00     0.049 A 
ATOM     50  C   UNL A   1      41.118  31.462  30.191  1.00  0.00     0.074 A 
ATOM     51  C   UNL A   1      46.766  30.470  27.497  1.00  0.00     0.029 A 
ATOM     52  N   UNL A   1      44.703  30.255  28.298  1.00  0.00    -0.354 N 
ATOM     53  N   UNL A   1      42.257  31.176  29.607  1.00  0.00    -0.248 NA
ATOM     54  C   UNL A   1      41.087  32.794  30.815  1.00  0.00     0.031 C 
ATOM     55  C   UNL A   1      46.427  31.650  28.168  1.00  0.00     0.029 A 
ATOM     56  C   UNL A   1      45.130  31.530  28.638  1.00  0.00     0.049 A 
ATOM     57  H   UNL A   1      43.818  29.880  28.512  1.00  0.00     0.167 HD
ATOM     58  C   UNL A   1      43.061  32.299  29.763  1.00  0.00     0.074 A 
ATOM     59  C   UNL A   1      42.276  33.277  30.484  1.00  0.00     0.031 C 
ATOM     60  C   UNL A   1      44.336  32.502  29.346  1.00  0.00     0.037 A 
BRANCH  47  61
ATOM     61  C   UNL A   1      46.821  27.624  26.482  1.00  0.00     0.064 A 
ATOM     62  C   UNL A   1      47.825  26.976  27.219  1.00  0.00     0.173 A 
ATOM     63  C   UNL A   1      46.963  27.676  25.088  1.00  0.00     0.173 A 
ATOM     64  F   UNL A   1      47.746  26.910  28.557  1.00  0.00    -0.203 F 
ATOM     65  C   UNL A   1      48.942  26.436  26.587  1.00  0.00     0.198 A 
ATOM     66  C   UNL A   1      48.063  27.102  24.457  1.00  0.00     0.198 A 
ATOM     67  F   UNL A   1      46.031  28.279  24.333  1.00  0.00    -0.203 F 
ATOM     68  F   UNL A   1      49.917  25.877  27.318  1.00  0.00    -0.200 F 
ATOM     69  C   UNL A   1      49.057  26.492  25.207  1.00  0.00     0.200 A 
ATOM     70  F   UNL A   1      48.163  27.141  23.120  1.00  0.00    -0.200 F 
ATOM     71  F   UNL A   1      50.129  25.966  24.600  1.00  0.00    -0.200 F 
ENDBRANCH  47  61
BRANCH  48  72
ATOM     72  C   UNL A   1      38.662  31.168  30.996  1.00  0.00     0.064 A 
ATOM     73  C   UNL A   1      38.521  31.058  32.387  1.00  0.00     0.173 A 
ATOM     74  C   UNL A   1      37.617  31.775  30.284  1.00  0.00     0.173 A 
ATOM     75  F   UNL A   1      39.480  30.462  33.112  1.00  0.00    -0.203 F 
ATOM     76  C   UNL A   1      37.374  31.514  33.034  1.00  0.00     0.198 A 
ATOM     77  C   UNL A   1      36.485  32.260  30.935  1.00  0.00     0.198 A 
ATOM     78  F   UNL A   1      37.699  31.904  28.951  1.00  0.00    -0.203 F 
ATOM     79  F   UNL A   1      37.243  31.347  34.357  1.00  0.00    -0.200 F 
ATOM     80  C   UNL A   1      36.360  32.120  32.309  1.00  0.00     0.200 A 
ATOM     81  F   UNL A   1      35.514  32.858  30.232  1.00  0.00    -0.200 F 
ATOM     82  F   UNL A   1      35.259  32.561  32.932  1.00  0.00    -0.200 F 
ENDBRANCH  48  72
BRANCH  60  83
ATOM     83  C   UNL A   1      44.954  33.847  29.610  1.00  0.00     0.064 A 
ATOM     84  C   UNL A   1      45.712  34.104  30.762  1.00  0.00     0.173 A 
ATOM     85  C   UNL A   1      44.827  34.881  28.668  1.00  0.00     0.173 A 
ATOM     86  F   UNL A   1      45.857  33.155  31.700  1.00  0.00    -0.203 F 
ATOM     87  C   UNL A   1      46.294  35.352  30.974  1.00  0.00     0.198 A 
ATOM     88  C   UNL A   1      45.441  36.115  28.866  1.00  0.00     0.198 A 
ATOM     89  F   UNL A   1      44.122  34.689  27.542  1.00  0.00    -0.203 F 
ATOM     90  F   UNL A   1      46.970  35.589  32.108  1.00  0.00    -0.200 F 
ATOM     91  C   UNL A   1      46.166  36.353  30.022  1.00  0.00     0.200 A 
ATOM     92  F   UNL A   1      45.332  37.074  27.936  1.00  0.00    -0.200 F 
ATOM     93  F   UNL A   1      46.736  37.548  30.225  1.00  0.00    -0.200 F 
ENDBRANCH  60  83
ENDBRANCH  34  35
ENDBRANCH  27  29
ENDBRANCH  26  27
ENDBRANCH  25  26
ENDBRANCH  24  25
ENDBRANCH   1  24
TORSDOF 16
ENDMDL
