MODEL 1
REMARK VINA RESULT:     -11.2      0.000      0.000
REMARK SMILES Cc1ccc(S(=O)(=O)N[C@H]2C=C[C@@H](C(=O)OCCOCCOC(=O)c3ccc(-c4c5nc(c(-c6c(F)c(F)c(F)c(F)c6F)c6ccc([nH]6)c(-c6c(F)c(F)c(F)c(F)c6F)c6nc(c(-c7c(F)c(F)c(F)c(F)c7F)c7ccc4[nH]7)C=C6)C=C5)cc3)C2)c(C)c1
REMARK SMILES IDX 18 1 17 2 16 3 14 4 15 5 13 6 10 7 11 8 88 9 12 10 9 11 6 13
REMARK SMILES IDX 7 14 8 15 5 16 1 17 2 18 3 19 91 20 4 21 89 22 90 23 19 24
REMARK SMILES IDX 20 25 21 26 22 27 23 28 24 29 25 30 26 31 87 32 27 33 86 34
REMARK SMILES IDX 28 35 29 36 30 37 80 38 31 39 85 40 79 41 81 42 32 43 84 44
REMARK SMILES IDX 78 45 77 46 33 48 65 49 45 50 64 51 46 52 49 53 63 54 82 55
REMARK SMILES IDX 47 56 48 57 62 59 83 60 50 61 34 62 35 63 43 64 36 65 37 66
REMARK SMILES IDX 41 67 44 68 38 69 39 70 42 71 40 72 66 73 67 74 75 75 68 76
REMARK SMILES IDX 69 77 73 78 76 79 70 80 71 81 74 82 72 83 51 84 52 85 60 86
REMARK SMILES IDX 53 87 54 88 58 89 61 90 55 91 56 92 59 93 57 94
REMARK H PARENT 9 12 81 47 49 58
REMARK Flexibility Score: inf
ROOT
ATOM      1  C   UNL A   1      35.197  33.382  28.022  1.00  0.00     0.202 C 
ENDROOT
BRANCH   1   2
ATOM      2  C   UNL A   1      34.777  32.240  28.950  1.00  0.00     0.261 C 
BRANCH   2   3
ATOM      3  O   UNL A   1      33.907  31.334  28.257  1.00  0.00    -0.463 OA
BRANCH   3   4
ATOM      4  C   UNL A   1      34.512  30.352  27.542  1.00  0.00     0.312 C 
ATOM      5  O   UNL A   1      35.679  30.003  27.686  1.00  0.00    -0.252 OA
BRANCH   4   6
ATOM      6  C   UNL A   1      33.563  29.656  26.574  1.00  0.00     0.123 C 
ATOM      7  C   UNL A   1      32.291  27.582  26.261  1.00  0.00     0.093 C 
ATOM      8  C   UNL A   1      31.475  28.639  26.914  1.00  0.00    -0.011 C 
ATOM      9  C   UNL A   1      33.717  28.141  26.378  1.00  0.00     0.043 C 
ATOM     10  C   UNL A   1      32.156  29.779  27.065  1.00  0.00    -0.015 C 
BRANCH   7  11
ATOM     11  N   UNL A   1      32.247  26.265  26.871  1.00  0.00    -0.204 NA
ATOM     12  H   UNL A   1      33.207  26.075  27.159  1.00  0.00     0.142 HD
BRANCH  11  13
ATOM     13  S   UNL A   1      31.722  24.853  26.152  1.00  0.00     0.241 S 
ATOM     14  O   UNL A   1      30.758  25.221  25.142  1.00  0.00    -0.207 OA
ATOM     15  O   UNL A   1      31.377  23.974  27.249  1.00  0.00    -0.207 OA
BRANCH  13  16
ATOM     16  C   UNL A   1      33.154  24.145  25.357  1.00  0.00     0.085 A 
ATOM     17  C   UNL A   1      36.652  22.821  23.212  1.00  0.00     0.044 C 
ATOM     18  C   UNL A   1      35.445  23.278  23.977  1.00  0.00    -0.051 A 
ATOM     19  C   UNL A   1      35.563  24.183  25.032  1.00  0.00     0.005 A 
ATOM     20  C   UNL A   1      34.181  22.764  23.661  1.00  0.00     0.008 A 
ATOM     21  C   UNL A   1      34.427  24.608  25.722  1.00  0.00     0.022 A 
ATOM     22  C   UNL A   1      33.023  23.170  24.351  1.00  0.00    -0.031 A 
ATOM     23  C   UNL A   1      31.727  22.515  23.959  1.00  0.00     0.046 C 
ENDBRANCH  13  16
ENDBRANCH  11  13
ENDBRANCH   7  11
ENDBRANCH   4   6
ENDBRANCH   3   4
ENDBRANCH   2   3
ENDBRANCH   1   2
BRANCH   1  24
ATOM     24  O   UNL A   1      34.191  34.351  27.725  1.00  0.00    -0.374 OA
BRANCH  24  25
ATOM     25  C   UNL A   1      34.204  35.570  28.466  1.00  0.00     0.202 C 
BRANCH  25  26
ATOM     26  C   UNL A   1      32.900  35.964  29.171  1.00  0.00     0.261 C 
BRANCH  26  27
ATOM     27  O   UNL A   1      32.583  35.090  30.271  1.00  0.00    -0.460 OA
BRANCH  27  28
ATOM     28  C   UNL A   1      32.781  35.631  31.497  1.00  0.00     0.338 C 
ATOM     29  O   UNL A   1      32.079  36.448  32.070  1.00  0.00    -0.246 OA
BRANCH  28  30
ATOM     30  C   UNL A   1      33.912  34.966  32.171  1.00  0.00     0.060 A 
ATOM     31  C   UNL A   1      35.178  35.552  32.037  1.00  0.00     0.016 A 
ATOM     32  C   UNL A   1      33.759  33.749  32.836  1.00  0.00     0.016 A 
ATOM     33  C   UNL A   1      36.306  34.898  32.531  1.00  0.00     0.010 A 
ATOM     34  C   UNL A   1      34.894  33.089  33.323  1.00  0.00     0.010 A 
ATOM     35  C   UNL A   1      36.174  33.646  33.144  1.00  0.00    -0.014 A 
BRANCH  35  36
ATOM     36  C   UNL A   1      37.390  32.862  33.473  1.00  0.00     0.031 A 
ATOM     37  C   UNL A   1      38.116  33.142  34.760  1.00  0.00     0.074 A 
ATOM     38  C   UNL A   1      37.826  31.893  32.650  1.00  0.00     0.049 A 
ATOM     39  N   UNL A   1      39.214  32.608  35.229  1.00  0.00    -0.248 NA
ATOM     40  C   UNL A   1      37.521  34.164  35.637  1.00  0.00     0.031 C 
ATOM     41  C   UNL A   1      37.188  31.505  31.394  1.00  0.00     0.029 A 
ATOM     42  N   UNL A   1      38.917  31.066  32.747  1.00  0.00    -0.354 N 
ATOM     43  C   UNL A   1      39.443  33.226  36.452  1.00  0.00     0.074 A 
ATOM     44  C   UNL A   1      38.387  34.197  36.640  1.00  0.00     0.031 C 
ATOM     45  C   UNL A   1      37.910  30.525  30.826  1.00  0.00     0.029 A 
ATOM     46  C   UNL A   1      39.075  30.240  31.662  1.00  0.00     0.049 A 
ATOM     47  H   UNL A   1      39.527  31.065  33.519  1.00  0.00     0.167 HD
ATOM     48  C   UNL A   1      40.437  32.994  37.342  1.00  0.00     0.037 A 
ATOM     49  C   UNL A   1      40.064  29.373  31.367  1.00  0.00     0.037 A 
ATOM     50  C   UNL A   1      41.490  32.030  37.152  1.00  0.00     0.049 A 
ATOM     51  C   UNL A   1      41.199  29.186  32.340  1.00  0.00     0.074 A 
ATOM     52  C   UNL A   1      42.537  31.716  38.000  1.00  0.00     0.029 A 
ATOM     53  N   UNL A   1      41.632  31.230  36.028  1.00  0.00    -0.354 N 
ATOM     54  N   UNL A   1      41.395  29.756  33.504  1.00  0.00    -0.248 NA
ATOM     55  C   UNL A   1      42.250  28.231  31.958  1.00  0.00     0.031 C 
ATOM     56  C   UNL A   1      43.339  30.759  37.370  1.00  0.00     0.029 A 
ATOM     57  C   UNL A   1      42.763  30.440  36.150  1.00  0.00     0.049 A 
ATOM     58  H   UNL A   1      41.019  31.225  35.257  1.00  0.00     0.167 HD
ATOM     59  C   UNL A   1      42.574  29.216  34.002  1.00  0.00     0.074 A 
ATOM     60  C   UNL A   1      43.042  28.259  33.020  1.00  0.00     0.031 C 
ATOM     61  C   UNL A   1      43.213  29.488  35.166  1.00  0.00     0.037 A 
BRANCH  48  62
ATOM     62  C   UNL A   1      40.445  33.813  38.599  1.00  0.00     0.064 A 
ATOM     63  C   UNL A   1      39.708  33.432  39.729  1.00  0.00     0.173 A 
ATOM     64  C   UNL A   1      41.227  34.975  38.686  1.00  0.00     0.173 A 
ATOM     65  F   UNL A   1      38.935  32.337  39.693  1.00  0.00    -0.203 F 
ATOM     66  C   UNL A   1      39.736  34.195  40.894  1.00  0.00     0.198 A 
ATOM     67  C   UNL A   1      41.274  35.721  39.860  1.00  0.00     0.198 A 
ATOM     68  F   UNL A   1      41.953  35.382  37.634  1.00  0.00    -0.203 F 
ATOM     69  F   UNL A   1      38.991  33.834  41.948  1.00  0.00    -0.200 F 
ATOM     70  C   UNL A   1      40.524  35.335  40.961  1.00  0.00     0.200 A 
ATOM     71  F   UNL A   1      42.044  36.817  39.927  1.00  0.00    -0.200 F 
ATOM     72  F   UNL A   1      40.555  36.065  42.084  1.00  0.00    -0.200 F 
ENDBRANCH  48  62
BRANCH  49  73
ATOM     73  C   UNL A   1      40.036  28.629  30.081  1.00  0.00     0.064 A 
ATOM     74  C   UNL A   1      39.433  27.369  29.983  1.00  0.00     0.173 A 
ATOM     75  C   UNL A   1      40.630  29.161  28.927  1.00  0.00     0.173 A 
ATOM     76  F   UNL A   1      38.877  26.807  31.067  1.00  0.00    -0.203 F 
ATOM     77  C   UNL A   1      39.440  26.659  28.784  1.00  0.00     0.198 A 
ATOM     78  C   UNL A   1      40.611  28.462  27.721  1.00  0.00     0.198 A 
ATOM     79  F   UNL A   1      41.225  30.361  28.969  1.00  0.00    -0.203 F 
ATOM     80  F   UNL A   1      38.898  25.434  28.731  1.00  0.00    -0.200 F 
ATOM     81  C   UNL A   1      40.024  27.209  27.653  1.00  0.00     0.200 A 
ATOM     82  F   UNL A   1      41.169  29.001  26.628  1.00  0.00    -0.200 F 
ATOM     83  F   UNL A   1      40.028  26.526  26.500  1.00  0.00    -0.200 F 
ENDBRANCH  49  73
BRANCH  61  84
ATOM     84  C   UNL A   1      44.471  28.723  35.460  1.00  0.00     0.064 A 
ATOM     85  C   UNL A   1      44.443  27.485  36.116  1.00  0.00     0.173 A 
ATOM     86  C   UNL A   1      45.716  29.216  35.038  1.00  0.00     0.173 A 
ATOM     87  F   UNL A   1      43.280  26.978  36.553  1.00  0.00    -0.203 F 
ATOM     88  C   UNL A   1      45.618  26.778  36.360  1.00  0.00     0.198 A 
ATOM     89  C   UNL A   1      46.885  28.492  35.257  1.00  0.00     0.198 A 
ATOM     90  F   UNL A   1      45.796  30.392  34.398  1.00  0.00    -0.203 F 
ATOM     91  F   UNL A   1      45.572  25.616  37.028  1.00  0.00    -0.200 F 
ATOM     92  C   UNL A   1      46.836  27.277  35.924  1.00  0.00     0.200 A 
ATOM     93  F   UNL A   1      48.059  28.971  34.823  1.00  0.00    -0.200 F 
ATOM     94  F   UNL A   1      47.964  26.591  36.152  1.00  0.00    -0.200 F 
ENDBRANCH  61  84
ENDBRANCH  35  36
ENDBRANCH  28  30
ENDBRANCH  27  28
ENDBRANCH  26  27
ENDBRANCH  25  26
ENDBRANCH  24  25
ENDBRANCH   1  24
TORSDOF 17
ENDMDL
MODEL 2
REMARK VINA RESULT:     -11.0      2.684      4.969
REMARK SMILES Cc1ccc(S(=O)(=O)N[C@H]2C=C[C@@H](C(=O)OCCOCCOC(=O)c3ccc(-c4c5nc(c(-c6c(F)c(F)c(F)c(F)c6F)c6ccc([nH]6)c(-c6c(F)c(F)c(F)c(F)c6F)c6nc(c(-c7c(F)c(F)c(F)c(F)c7F)c7ccc4[nH]7)C=C6)C=C5)cc3)C2)c(C)c1
REMARK SMILES IDX 18 1 17 2 16 3 14 4 15 5 13 6 10 7 11 8 88 9 12 10 9 11 6 13
REMARK SMILES IDX 7 14 8 15 5 16 1 17 2 18 3 19 91 20 4 21 89 22 90 23 19 24
REMARK SMILES IDX 20 25 21 26 22 27 23 28 24 29 25 30 26 31 87 32 27 33 86 34
REMARK SMILES IDX 28 35 29 36 30 37 80 38 31 39 85 40 79 41 81 42 32 43 84 44
REMARK SMILES IDX 78 45 77 46 33 48 65 49 45 50 64 51 46 52 49 53 63 54 82 55
REMARK SMILES IDX 47 56 48 57 62 59 83 60 50 61 34 62 35 63 43 64 36 65 37 66
REMARK SMILES IDX 41 67 44 68 38 69 39 70 42 71 40 72 66 73 67 74 75 75 68 76
REMARK SMILES IDX 69 77 73 78 76 79 70 80 71 81 74 82 72 83 51 84 52 85 60 86
REMARK SMILES IDX 53 87 54 88 58 89 61 90 55 91 56 92 59 93 57 94
REMARK H PARENT 9 12 81 47 49 58
REMARK Flexibility Score: inf
ROOT
ATOM      1  C   UNL A   1      30.892  29.319  23.064  1.00  0.00     0.202 C 
ENDROOT
BRANCH   1   2
ATOM      2  C   UNL A   1      29.905  28.290  22.509  1.00  0.00     0.261 C 
BRANCH   2   3
ATOM      3  O   UNL A   1      30.250  26.976  22.969  1.00  0.00    -0.463 OA
BRANCH   3   4
ATOM      4  C   UNL A   1      29.434  26.439  23.912  1.00  0.00     0.312 C 
ATOM      5  O   UNL A   1      28.217  26.586  23.946  1.00  0.00    -0.252 OA
BRANCH   4   6
ATOM      6  C   UNL A   1      30.180  25.554  24.903  1.00  0.00     0.123 C 
ATOM      7  C   UNL A   1      32.337  24.443  25.267  1.00  0.00     0.093 C 
ATOM      8  C   UNL A   1      32.293  25.787  25.901  1.00  0.00    -0.011 C 
ATOM      9  C   UNL A   1      31.112  24.469  24.342  1.00  0.00     0.043 C 
ATOM     10  C   UNL A   1      31.111  26.387  25.726  1.00  0.00    -0.015 C 
BRANCH   7  11
ATOM     11  N   UNL A   1      33.519  24.141  24.478  1.00  0.00    -0.204 NA
ATOM     12  H   UNL A   1      33.163  23.736  23.613  1.00  0.00     0.142 HD
BRANCH  11  13
ATOM     13  S   UNL A   1      34.790  23.157  24.928  1.00  0.00     0.241 S 
ATOM     14  O   UNL A   1      34.980  23.329  26.349  1.00  0.00    -0.207 OA
ATOM     15  O   UNL A   1      35.845  23.443  23.979  1.00  0.00    -0.207 OA
BRANCH  13  16
ATOM     16  C   UNL A   1      34.253  21.485  24.612  1.00  0.00     0.085 A 
ATOM     17  C   UNL A   1      32.717  17.476  24.225  1.00  0.00     0.044 C 
ATOM     18  C   UNL A   1      33.243  18.876  24.340  1.00  0.00    -0.051 A 
ATOM     19  C   UNL A   1      32.431  19.975  24.059  1.00  0.00     0.005 A 
ATOM     20  C   UNL A   1      34.580  19.093  24.697  1.00  0.00     0.008 A 
ATOM     21  C   UNL A   1      32.934  21.270  24.187  1.00  0.00     0.022 A 
ATOM     22  C   UNL A   1      35.112  20.391  24.820  1.00  0.00    -0.031 A 
ATOM     23  C   UNL A   1      36.573  20.503  25.160  1.00  0.00     0.046 C 
ENDBRANCH  13  16
ENDBRANCH  11  13
ENDBRANCH   7  11
ENDBRANCH   4   6
ENDBRANCH   3   4
ENDBRANCH   2   3
ENDBRANCH   1   2
BRANCH   1  24
ATOM     24  O   UNL A   1      30.670  29.738  24.411  1.00  0.00    -0.374 OA
BRANCH  24  25
ATOM     25  C   UNL A   1      31.806  29.855  25.266  1.00  0.00     0.202 C 
BRANCH  25  26
ATOM     26  C   UNL A   1      31.805  31.022  26.261  1.00  0.00     0.261 C 
BRANCH  26  27
ATOM     27  O   UNL A   1      32.720  30.816  27.354  1.00  0.00    -0.460 OA
BRANCH  27  28
ATOM     28  C   UNL A   1      33.561  31.853  27.588  1.00  0.00     0.338 C 
ATOM     29  O   UNL A   1      33.285  33.041  27.618  1.00  0.00    -0.246 OA
BRANCH  28  30
ATOM     30  C   UNL A   1      34.890  31.352  27.989  1.00  0.00     0.060 A 
ATOM     31  C   UNL A   1      34.976  30.019  28.412  1.00  0.00     0.016 A 
ATOM     32  C   UNL A   1      36.006  32.189  28.042  1.00  0.00     0.016 A 
ATOM     33  C   UNL A   1      36.171  29.528  28.934  1.00  0.00     0.010 A 
ATOM     34  C   UNL A   1      37.203  31.696  28.576  1.00  0.00     0.010 A 
ATOM     35  C   UNL A   1      37.281  30.375  29.053  1.00  0.00    -0.014 A 
BRANCH  35  36
ATOM     36  C   UNL A   1      38.475  29.913  29.802  1.00  0.00     0.031 A 
ATOM     37  C   UNL A   1      38.726  30.449  31.184  1.00  0.00     0.074 A 
ATOM     38  C   UNL A   1      39.310  29.003  29.269  1.00  0.00     0.049 A 
ATOM     39  N   UNL A   1      39.722  30.213  32.000  1.00  0.00    -0.248 NA
ATOM     40  C   UNL A   1      37.717  31.377  31.719  1.00  0.00     0.031 C 
ATOM     41  C   UNL A   1      39.153  28.385  27.955  1.00  0.00     0.029 A 
ATOM     42  N   UNL A   1      40.463  28.452  29.768  1.00  0.00    -0.354 N 
ATOM     43  C   UNL A   1      39.461  30.960  33.141  1.00  0.00     0.074 A 
ATOM     44  C   UNL A   1      38.230  31.682  32.902  1.00  0.00     0.031 C 
ATOM     45  C   UNL A   1      40.183  27.550  27.742  1.00  0.00     0.029 A 
ATOM     46  C   UNL A   1      41.086  27.600  28.891  1.00  0.00     0.049 A 
ATOM     47  H   UNL A   1      40.810  28.649  30.668  1.00  0.00     0.167 HD
ATOM     48  C   UNL A   1      40.178  31.028  34.288  1.00  0.00     0.037 A 
ATOM     49  C   UNL A   1      42.265  26.955  28.996  1.00  0.00     0.037 A 
ATOM     50  C   UNL A   1      41.405  30.312  34.523  1.00  0.00     0.049 A 
ATOM     51  C   UNL A   1      43.081  27.105  30.253  1.00  0.00     0.074 A 
ATOM     52  C   UNL A   1      42.200  30.308  35.656  1.00  0.00     0.029 A 
ATOM     53  N   UNL A   1      42.020  29.478  33.601  1.00  0.00    -0.354 N 
ATOM     54  N   UNL A   1      42.817  27.794  31.337  1.00  0.00    -0.248 NA
ATOM     55  C   UNL A   1      44.361  26.382  30.304  1.00  0.00     0.031 C 
ATOM     56  C   UNL A   1      43.319  29.508  35.403  1.00  0.00     0.029 A 
ATOM     57  C   UNL A   1      43.196  28.973  34.130  1.00  0.00     0.049 A 
ATOM     58  H   UNL A   1      41.671  29.275  32.702  1.00  0.00     0.167 HD
ATOM     59  C   UNL A   1      43.881  27.573  32.202  1.00  0.00     0.074 A 
ATOM     60  C   UNL A   1      44.789  26.670  31.525  1.00  0.00     0.031 C 
ATOM     61  C   UNL A   1      44.087  28.072  33.445  1.00  0.00     0.037 A 
BRANCH  48  62
ATOM     62  C   UNL A   1      39.662  31.925  35.375  1.00  0.00     0.064 A 
ATOM     63  C   UNL A   1      40.079  33.259  35.486  1.00  0.00     0.173 A 
ATOM     64  C   UNL A   1      38.712  31.455  36.294  1.00  0.00     0.173 A 
ATOM     65  F   UNL A   1      40.995  33.753  34.641  1.00  0.00    -0.203 F 
ATOM     66  C   UNL A   1      39.581  34.083  36.493  1.00  0.00     0.198 A 
ATOM     67  C   UNL A   1      38.196  32.288  37.282  1.00  0.00     0.198 A 
ATOM     68  F   UNL A   1      38.277  30.187  36.228  1.00  0.00    -0.203 F 
ATOM     69  F   UNL A   1      40.025  35.342  36.606  1.00  0.00    -0.200 F 
ATOM     70  C   UNL A   1      38.635  33.600  37.385  1.00  0.00     0.200 A 
ATOM     71  F   UNL A   1      37.274  31.823  38.136  1.00  0.00    -0.200 F 
ATOM     72  F   UNL A   1      38.151  34.396  38.348  1.00  0.00    -0.200 F 
ENDBRANCH  48  62
BRANCH  49  73
ATOM     73  C   UNL A   1      42.757  26.125  27.865  1.00  0.00     0.064 A 
ATOM     74  C   UNL A   1      43.593  26.664  26.879  1.00  0.00     0.173 A 
ATOM     75  C   UNL A   1      42.382  24.780  27.741  1.00  0.00     0.173 A 
ATOM     76  F   UNL A   1      43.955  27.954  26.939  1.00  0.00    -0.203 F 
ATOM     77  C   UNL A   1      44.023  25.892  25.802  1.00  0.00     0.198 A 
ATOM     78  C   UNL A   1      42.836  24.002  26.678  1.00  0.00     0.198 A 
ATOM     79  F   UNL A   1      41.579  24.219  28.655  1.00  0.00    -0.203 F 
ATOM     80  F   UNL A   1      44.784  26.446  24.846  1.00  0.00    -0.200 F 
ATOM     81  C   UNL A   1      43.649  24.560  25.705  1.00  0.00     0.200 A 
ATOM     82  F   UNL A   1      42.479  22.713  26.593  1.00  0.00    -0.200 F 
ATOM     83  F   UNL A   1      44.065  23.819  24.669  1.00  0.00    -0.200 F 
ENDBRANCH  49  73
BRANCH  61  84
ATOM     84  C   UNL A   1      45.328  27.633  34.168  1.00  0.00     0.064 A 
ATOM     85  C   UNL A   1      46.521  28.365  34.094  1.00  0.00     0.173 A 
ATOM     86  C   UNL A   1      45.308  26.489  34.981  1.00  0.00     0.173 A 
ATOM     87  F   UNL A   1      46.595  29.458  33.318  1.00  0.00    -0.203 F 
ATOM     88  C   UNL A   1      47.656  27.956  34.789  1.00  0.00     0.198 A 
ATOM     89  C   UNL A   1      46.437  26.100  35.698  1.00  0.00     0.198 A 
ATOM     90  F   UNL A   1      44.189  25.757  35.093  1.00  0.00    -0.203 F 
ATOM     91  F   UNL A   1      48.798  28.648  34.668  1.00  0.00    -0.200 F 
ATOM     92  C   UNL A   1      47.611  26.830  35.596  1.00  0.00     0.200 A 
ATOM     93  F   UNL A   1      46.387  25.018  36.488  1.00  0.00    -0.200 F 
ATOM     94  F   UNL A   1      48.702  26.443  36.271  1.00  0.00    -0.200 F 
ENDBRANCH  61  84
ENDBRANCH  35  36
ENDBRANCH  28  30
ENDBRANCH  27  28
ENDBRANCH  26  27
ENDBRANCH  25  26
ENDBRANCH  24  25
ENDBRANCH   1  24
TORSDOF 17
ENDMDL
MODEL 3
REMARK VINA RESULT:     -11.0      2.159      3.806
REMARK SMILES Cc1ccc(S(=O)(=O)N[C@H]2C=C[C@@H](C(=O)OCCOCCOC(=O)c3ccc(-c4c5nc(c(-c6c(F)c(F)c(F)c(F)c6F)c6ccc([nH]6)c(-c6c(F)c(F)c(F)c(F)c6F)c6nc(c(-c7c(F)c(F)c(F)c(F)c7F)c7ccc4[nH]7)C=C6)C=C5)cc3)C2)c(C)c1
REMARK SMILES IDX 18 1 17 2 16 3 14 4 15 5 13 6 10 7 11 8 88 9 12 10 9 11 6 13
REMARK SMILES IDX 7 14 8 15 5 16 1 17 2 18 3 19 91 20 4 21 89 22 90 23 19 24
REMARK SMILES IDX 20 25 21 26 22 27 23 28 24 29 25 30 26 31 87 32 27 33 86 34
REMARK SMILES IDX 28 35 29 36 30 37 80 38 31 39 85 40 79 41 81 42 32 43 84 44
REMARK SMILES IDX 78 45 77 46 33 48 65 49 45 50 64 51 46 52 49 53 63 54 82 55
REMARK SMILES IDX 47 56 48 57 62 59 83 60 50 61 34 62 35 63 43 64 36 65 37 66
REMARK SMILES IDX 41 67 44 68 38 69 39 70 42 71 40 72 66 73 67 74 75 75 68 76
REMARK SMILES IDX 69 77 73 78 76 79 70 80 71 81 74 82 72 83 51 84 52 85 60 86
REMARK SMILES IDX 53 87 54 88 58 89 61 90 55 91 56 92 59 93 57 94
REMARK H PARENT 9 12 81 47 49 58
REMARK Flexibility Score: inf
ROOT
ATOM      1  C   UNL A   1      33.041  29.391  26.588  1.00  0.00     0.202 C 
ENDROOT
BRANCH   1   2
ATOM      2  C   UNL A   1      33.041  29.406  25.058  1.00  0.00     0.261 C 
BRANCH   2   3
ATOM      3  O   UNL A   1      31.918  28.670  24.555  1.00  0.00    -0.463 OA
BRANCH   3   4
ATOM      4  C   UNL A   1      31.943  28.368  23.233  1.00  0.00     0.312 C 
ATOM      5  O   UNL A   1      32.701  28.881  22.415  1.00  0.00    -0.252 OA
BRANCH   4   6
ATOM      6  C   UNL A   1      30.971  27.255  22.862  1.00  0.00     0.123 C 
ATOM      7  C   UNL A   1      30.038  25.141  23.689  1.00  0.00     0.093 C 
ATOM      8  C   UNL A   1      29.182  26.303  24.048  1.00  0.00    -0.011 C 
ATOM      9  C   UNL A   1      31.345  25.815  23.244  1.00  0.00     0.043 C 
ATOM     10  C   UNL A   1      29.673  27.454  23.579  1.00  0.00    -0.015 C 
BRANCH   7  11
ATOM     11  N   UNL A   1      30.331  24.202  24.757  1.00  0.00    -0.204 NA
ATOM     12  H   UNL A   1      29.423  23.959  25.152  1.00  0.00     0.142 HD
BRANCH  11  13
ATOM     13  S   UNL A   1      31.320  24.470  26.074  1.00  0.00     0.241 S 
ATOM     14  O   UNL A   1      30.833  23.638  27.150  1.00  0.00    -0.207 OA
ATOM     15  O   UNL A   1      31.400  25.909  26.202  1.00  0.00    -0.207 OA
BRANCH  13  16
ATOM     16  C   UNL A   1      32.943  23.904  25.592  1.00  0.00     0.085 A 
ATOM     17  C   UNL A   1      36.811  22.781  24.056  1.00  0.00     0.044 C 
ATOM     18  C   UNL A   1      35.475  23.180  24.609  1.00  0.00    -0.051 A 
ATOM     19  C   UNL A   1      35.268  24.451  25.144  1.00  0.00     0.005 A 
ATOM     20  C   UNL A   1      34.421  22.255  24.627  1.00  0.00     0.008 A 
ATOM     21  C   UNL A   1      34.014  24.809  25.640  1.00  0.00     0.022 A 
ATOM     22  C   UNL A   1      33.151  22.591  25.133  1.00  0.00    -0.031 A 
ATOM     23  C   UNL A   1      32.111  21.504  25.148  1.00  0.00     0.046 C 
ENDBRANCH  13  16
ENDBRANCH  11  13
ENDBRANCH   7  11
ENDBRANCH   4   6
ENDBRANCH   3   4
ENDBRANCH   2   3
ENDBRANCH   1   2
BRANCH   1  24
ATOM     24  O   UNL A   1      32.109  30.266  27.223  1.00  0.00    -0.374 OA
BRANCH  24  25
ATOM     25  C   UNL A   1      31.644  31.393  26.481  1.00  0.00     0.202 C 
BRANCH  25  26
ATOM     26  C   UNL A   1      31.769  32.764  27.158  1.00  0.00     0.261 C 
BRANCH  26  27
ATOM     27  O   UNL A   1      33.053  33.376  26.930  1.00  0.00    -0.460 OA
BRANCH  27  28
ATOM     28  C   UNL A   1      33.638  33.890  28.039  1.00  0.00     0.338 C 
ATOM     29  O   UNL A   1      33.217  34.784  28.754  1.00  0.00    -0.246 OA
BRANCH  28  30
ATOM     30  C   UNL A   1      34.826  33.095  28.403  1.00  0.00     0.060 A 
ATOM     31  C   UNL A   1      34.608  31.842  28.992  1.00  0.00     0.016 A 
ATOM     32  C   UNL A   1      36.120  33.600  28.263  1.00  0.00     0.016 A 
ATOM     33  C   UNL A   1      35.685  31.106  29.484  1.00  0.00     0.010 A 
ATOM     34  C   UNL A   1      37.198  32.863  28.767  1.00  0.00     0.010 A 
ATOM     35  C   UNL A   1      36.982  31.630  29.408  1.00  0.00    -0.014 A 
BRANCH  35  36
ATOM     36  C   UNL A   1      38.088  30.945  30.121  1.00  0.00     0.031 A 
ATOM     37  C   UNL A   1      38.344  31.276  31.566  1.00  0.00     0.074 A 
ATOM     38  C   UNL A   1      38.836  30.018  29.498  1.00  0.00     0.049 A 
ATOM     39  N   UNL A   1      39.276  30.829  32.369  1.00  0.00    -0.248 NA
ATOM     40  C   UNL A   1      37.424  32.241  32.189  1.00  0.00     0.031 C 
ATOM     41  C   UNL A   1      38.663  29.587  28.113  1.00  0.00     0.029 A 
ATOM     42  N   UNL A   1      39.902  29.281  29.952  1.00  0.00    -0.354 N 
ATOM     43  C   UNL A   1      39.056  31.456  33.588  1.00  0.00     0.074 A 
ATOM     44  C   UNL A   1      37.923  32.338  33.413  1.00  0.00     0.031 C 
ATOM     45  C   UNL A   1      39.602  28.672  27.822  1.00  0.00     0.029 A 
ATOM     46  C   UNL A   1      40.460  28.477  28.990  1.00  0.00     0.049 A 
ATOM     47  H   UNL A   1      40.234  29.325  30.878  1.00  0.00     0.167 HD
ATOM     48  C   UNL A   1      39.732  31.301  34.752  1.00  0.00     0.037 A 
ATOM     49  C   UNL A   1      41.555  27.694  29.041  1.00  0.00     0.037 A 
ATOM     50  C   UNL A   1      40.862  30.426  34.924  1.00  0.00     0.049 A 
ATOM     51  C   UNL A   1      42.334  27.594  30.326  1.00  0.00     0.074 A 
ATOM     52  C   UNL A   1      41.608  30.192  36.066  1.00  0.00     0.029 A 
ATOM     53  N   UNL A   1      41.416  29.645  33.919  1.00  0.00    -0.354 N 
ATOM     54  N   UNL A   1      42.107  28.172  31.481  1.00  0.00    -0.248 NA
ATOM     55  C   UNL A   1      43.523  26.729  30.316  1.00  0.00     0.031 C 
ATOM     56  C   UNL A   1      42.640  29.306  35.742  1.00  0.00     0.029 A 
ATOM     57  C   UNL A   1      42.507  28.948  34.409  1.00  0.00     0.049 A 
ATOM     58  H   UNL A   1      41.081  29.595  32.994  1.00  0.00     0.167 HD
ATOM     59  C   UNL A   1      43.106  27.725  32.337  1.00  0.00     0.074 A 
ATOM     60  C   UNL A   1      43.933  26.814  31.573  1.00  0.00     0.031 C 
ATOM     61  C   UNL A   1      43.319  28.041  33.638  1.00  0.00     0.037 A 
BRANCH  48  62
ATOM     62  C   UNL A   1      39.277  32.111  35.930  1.00  0.00     0.064 A 
ATOM     63  C   UNL A   1      39.725  33.424  36.135  1.00  0.00     0.173 A 
ATOM     64  C   UNL A   1      38.355  31.581  36.845  1.00  0.00     0.173 A 
ATOM     65  F   UNL A   1      40.616  33.972  35.297  1.00  0.00    -0.203 F 
ATOM     66  C   UNL A   1      39.283  34.168  37.227  1.00  0.00     0.198 A 
ATOM     67  C   UNL A   1      37.895  32.336  37.919  1.00  0.00     0.198 A 
ATOM     68  F   UNL A   1      37.893  30.330  36.691  1.00  0.00    -0.203 F 
ATOM     69  F   UNL A   1      39.756  35.406  37.427  1.00  0.00    -0.200 F 
ATOM     70  C   UNL A   1      38.364  33.627  38.113  1.00  0.00     0.200 A 
ATOM     71  F   UNL A   1      36.999  31.816  38.769  1.00  0.00    -0.200 F 
ATOM     72  F   UNL A   1      37.935  34.347  39.159  1.00  0.00    -0.200 F 
ENDBRANCH  48  62
BRANCH  49  73
ATOM     73  C   UNL A   1      41.995  26.958  27.827  1.00  0.00     0.064 A 
ATOM     74  C   UNL A   1      41.557  25.652  27.571  1.00  0.00     0.173 A 
ATOM     75  C   UNL A   1      42.878  27.543  26.908  1.00  0.00     0.173 A 
ATOM     76  F   UNL A   1      40.735  25.040  28.437  1.00  0.00    -0.203 F 
ATOM     77  C   UNL A   1      41.999  24.952  26.451  1.00  0.00     0.198 A 
ATOM     78  C   UNL A   1      43.297  26.852  25.773  1.00  0.00     0.198 A 
ATOM     79  F   UNL A   1      43.330  28.788  27.110  1.00  0.00    -0.203 F 
ATOM     80  F   UNL A   1      41.603  23.686  26.255  1.00  0.00    -0.200 F 
ATOM     81  C   UNL A   1      42.864  25.555  25.549  1.00  0.00     0.200 A 
ATOM     82  F   UNL A   1      44.126  27.441  24.900  1.00  0.00    -0.200 F 
ATOM     83  F   UNL A   1      43.287  24.880  24.471  1.00  0.00    -0.200 F 
ENDBRANCH  49  73
BRANCH  61  84
ATOM     84  C   UNL A   1      44.475  27.378  34.330  1.00  0.00     0.064 A 
ATOM     85  C   UNL A   1      45.728  27.998  34.426  1.00  0.00     0.173 A 
ATOM     86  C   UNL A   1      44.312  26.126  34.942  1.00  0.00     0.173 A 
ATOM     87  F   UNL A   1      45.939  29.189  33.844  1.00  0.00    -0.203 F 
ATOM     88  C   UNL A   1      46.783  27.378  35.091  1.00  0.00     0.198 A 
ATOM     89  C   UNL A   1      45.361  25.523  35.631  1.00  0.00     0.198 A 
ATOM     90  F   UNL A   1      43.130  25.494  34.885  1.00  0.00    -0.203 F 
ATOM     91  F   UNL A   1      47.986  27.971  35.133  1.00  0.00    -0.200 F 
ATOM     92  C   UNL A   1      46.597  26.147  35.699  1.00  0.00     0.200 A 
ATOM     93  F   UNL A   1      45.174  24.338  36.229  1.00  0.00    -0.200 F 
ATOM     94  F   UNL A   1      47.612  25.556  36.345  1.00  0.00    -0.200 F 
ENDBRANCH  61  84
ENDBRANCH  35  36
ENDBRANCH  28  30
ENDBRANCH  27  28
ENDBRANCH  26  27
ENDBRANCH  25  26
ENDBRANCH  24  25
ENDBRANCH   1  24
TORSDOF 17
ENDMDL
