MODEL 1
REMARK VINA RESULT:     -11.0      0.000      0.000
REMARK SMILES C[C@H](CNS(=O)(=O)c1ccc(C(=O)OCCOCCOC(=O)c2ccc(-c3c4nc(c(-c5c(F)c(F)c(F)c(F)c5F)c5ccc([nH]5)c(-c5c(F)c(F)c(F)c(F)c5F)c5nc(c(-c6c(F)c(F)c(F)c(F)c6F)c6ccc3[nH]6)C=C5)C=C4)cc2)cc1F)[NH+](C)C
REMARK SMILES IDX 15 1 14 2 12 3 13 4 11 5 8 6 9 7 87 8 10 9 86 10 88 11 5 12
REMARK SMILES IDX 6 13 7 14 4 15 3 17 2 18 1 19 89 20 90 21 91 22 16 24 17 25
REMARK SMILES IDX 18 26 19 27 20 28 21 29 22 30 23 31 24 32 85 33 25 34 84 35
REMARK SMILES IDX 26 36 27 37 28 38 78 39 29 40 83 41 77 42 79 43 30 44 82 45
REMARK SMILES IDX 76 46 75 47 31 49 63 50 43 51 62 52 44 53 47 54 61 55 80 56
REMARK SMILES IDX 45 57 46 58 60 60 81 61 48 62 32 63 33 64 41 65 34 66 35 67
REMARK SMILES IDX 39 68 42 69 36 70 37 71 40 72 38 73 64 74 65 75 73 76 66 77
REMARK SMILES IDX 67 78 71 79 74 80 68 81 69 82 72 83 70 84 49 85 50 86 58 87
REMARK SMILES IDX 51 88 52 89 56 90 59 91 53 92 54 93 57 94 55 95
REMARK H PARENT 4 16 89 23 79 48 47 59
REMARK Flexibility Score: inf
ROOT
ATOM      1  C   UNL A   1      43.055  20.090  26.186  1.00  0.00     0.261 C 
ENDROOT
BRANCH   1   2
ATOM      2  O   UNL A   1      41.771  20.537  25.714  1.00  0.00    -0.460 OA
BRANCH   2   3
ATOM      3  C   UNL A   1      40.781  20.474  26.635  1.00  0.00     0.338 C 
ATOM      4  O   UNL A   1      40.865  20.016  27.763  1.00  0.00    -0.246 OA
BRANCH   3   5
ATOM      5  C   UNL A   1      39.560  21.166  26.157  1.00  0.00     0.063 A 
ATOM      6  C   UNL A   1      37.264  22.345  25.069  1.00  0.00     0.118 A 
ATOM      7  C   UNL A   1      37.529  20.990  24.847  1.00  0.00     0.026 A 
ATOM      8  C   UNL A   1      38.139  23.101  25.843  1.00  0.00     0.144 A 
ATOM      9  C   UNL A   1      38.663  20.401  25.401  1.00  0.00     0.017 A 
ATOM     10  C   UNL A   1      39.287  22.517  26.397  1.00  0.00     0.056 A 
ATOM     11  F   UNL A   1      37.939  24.406  26.066  1.00  0.00    -0.205 F 
BRANCH   6  12
ATOM     12  S   UNL A   1      35.921  23.079  24.185  1.00  0.00     0.243 S 
ATOM     13  O   UNL A   1      36.340  23.236  22.811  1.00  0.00    -0.207 OA
ATOM     14  O   UNL A   1      35.397  24.198  24.935  1.00  0.00    -0.207 OA
BRANCH  12  15
ATOM     15  N   UNL A   1      34.702  21.916  24.232  1.00  0.00    -0.205 NA
ATOM     16  H   UNL A   1      34.703  21.452  23.324  1.00  0.00     0.141 HD
BRANCH  15  17
ATOM     17  C   UNL A   1      33.311  22.323  24.502  1.00  0.00     0.163 C 
BRANCH  17  18
ATOM     18  C   UNL A   1      32.528  21.372  25.456  1.00  0.00     0.195 C 
ATOM     19  C   UNL A   1      32.975  19.908  25.339  1.00  0.00     0.076 C 
BRANCH  18  20
ATOM     20  N   UNL A   1      32.427  21.902  26.834  1.00  0.00    -0.337 N 
ATOM     21  C   UNL A   1      33.705  21.875  27.546  1.00  0.00     0.332 C 
ATOM     22  C   UNL A   1      31.797  23.212  26.956  1.00  0.00     0.332 C 
ATOM     23  H   UNL A   1      31.786  21.250  27.287  1.00  0.00     0.347 HD
ENDBRANCH  18  20
ENDBRANCH  17  18
ENDBRANCH  15  17
ENDBRANCH  12  15
ENDBRANCH   6  12
ENDBRANCH   3   5
ENDBRANCH   2   3
ENDBRANCH   1   2
BRANCH   1  24
ATOM     24  C   UNL A   1      43.782  19.285  25.106  1.00  0.00     0.202 C 
BRANCH  24  25
ATOM     25  O   UNL A   1      44.259  20.051  23.998  1.00  0.00    -0.374 OA
BRANCH  25  26
ATOM     26  C   UNL A   1      45.026  21.218  24.307  1.00  0.00     0.202 C 
BRANCH  26  27
ATOM     27  C   UNL A   1      44.556  22.508  23.627  1.00  0.00     0.261 C 
BRANCH  27  28
ATOM     28  O   UNL A   1      43.814  23.340  24.539  1.00  0.00    -0.460 OA
BRANCH  28  29
ATOM     29  C   UNL A   1      44.491  24.417  25.001  1.00  0.00     0.338 C 
ATOM     30  O   UNL A   1      45.567  24.838  24.610  1.00  0.00    -0.246 OA
BRANCH  29  31
ATOM     31  C   UNL A   1      43.663  25.167  25.967  1.00  0.00     0.060 A 
ATOM     32  C   UNL A   1      44.037  26.488  26.233  1.00  0.00     0.016 A 
ATOM     33  C   UNL A   1      42.589  24.584  26.648  1.00  0.00     0.016 A 
ATOM     34  C   UNL A   1      43.380  27.214  27.221  1.00  0.00     0.010 A 
ATOM     35  C   UNL A   1      41.932  25.314  27.648  1.00  0.00     0.010 A 
ATOM     36  C   UNL A   1      42.350  26.619  27.964  1.00  0.00    -0.014 A 
BRANCH  36  37
ATOM     37  C   UNL A   1      41.821  27.342  29.147  1.00  0.00     0.031 A 
ATOM     38  C   UNL A   1      42.576  27.281  30.445  1.00  0.00     0.074 A 
ATOM     39  C   UNL A   1      40.733  28.124  29.037  1.00  0.00     0.049 A 
ATOM     40  N   UNL A   1      42.359  27.929  31.562  1.00  0.00    -0.248 NA
ATOM     41  C   UNL A   1      43.734  26.375  30.491  1.00  0.00     0.031 C 
ATOM     42  C   UNL A   1      39.930  28.283  27.826  1.00  0.00     0.029 A 
ATOM     43  N   UNL A   1      40.129  28.946  29.955  1.00  0.00    -0.354 N 
ATOM     44  C   UNL A   1      43.359  27.523  32.435  1.00  0.00     0.074 A 
ATOM     45  C   UNL A   1      44.160  26.542  31.736  1.00  0.00     0.031 C 
ATOM     46  C   UNL A   1      38.945  29.164  28.071  1.00  0.00     0.029 A 
ATOM     47  C   UNL A   1      39.042  29.621  29.457  1.00  0.00     0.049 A 
ATOM     48  H   UNL A   1      40.444  29.041  30.883  1.00  0.00     0.167 HD
ATOM     49  C   UNL A   1      43.599  27.945  33.699  1.00  0.00     0.037 A 
ATOM     50  C   UNL A   1      38.225  30.513  30.050  1.00  0.00     0.037 A 
ATOM     51  C   UNL A   1      42.803  28.919  34.399  1.00  0.00     0.049 A 
ATOM     52  C   UNL A   1      38.485  30.929  31.473  1.00  0.00     0.074 A 
ATOM     53  C   UNL A   1      42.979  29.419  35.678  1.00  0.00     0.029 A 
ATOM     54  N   UNL A   1      41.676  29.538  33.879  1.00  0.00    -0.354 N 
ATOM     55  N   UNL A   1      39.451  30.562  32.278  1.00  0.00    -0.248 NA
ATOM     56  C   UNL A   1      37.544  31.891  32.065  1.00  0.00     0.031 C 
ATOM     57  C   UNL A   1      41.934  30.308  35.948  1.00  0.00     0.029 A 
ATOM     58  C   UNL A   1      41.134  30.398  34.821  1.00  0.00     0.049 A 
ATOM     59  H   UNL A   1      41.316  29.389  32.975  1.00  0.00     0.167 HD
ATOM     60  C   UNL A   1      39.244  31.254  33.465  1.00  0.00     0.074 A 
ATOM     61  C   UNL A   1      38.072  32.080  33.266  1.00  0.00     0.031 C 
ATOM     62  C   UNL A   1      39.959  31.206  34.615  1.00  0.00     0.037 A 
BRANCH  49  63
ATOM     63  C   UNL A   1      44.774  27.352  34.417  1.00  0.00     0.064 A 
ATOM     64  C   UNL A   1      44.636  26.159  35.142  1.00  0.00     0.173 A 
ATOM     65  C   UNL A   1      46.018  27.998  34.438  1.00  0.00     0.173 A 
ATOM     66  F   UNL A   1      43.466  25.506  35.156  1.00  0.00    -0.203 F 
ATOM     67  C   UNL A   1      45.703  25.641  35.873  1.00  0.00     0.198 A 
ATOM     68  C   UNL A   1      47.088  27.464  35.152  1.00  0.00     0.198 A 
ATOM     69  F   UNL A   1      46.201  29.134  33.749  1.00  0.00    -0.203 F 
ATOM     70  F   UNL A   1      45.543  24.513  36.579  1.00  0.00    -0.200 F 
ATOM     71  C   UNL A   1      46.927  26.291  35.875  1.00  0.00     0.200 A 
ATOM     72  F   UNL A   1      48.278  28.082  35.136  1.00  0.00    -0.200 F 
ATOM     73  F   UNL A   1      47.955  25.786  36.572  1.00  0.00    -0.200 F 
ENDBRANCH  49  63
BRANCH  50  74
ATOM     74  C   UNL A   1      37.093  31.092  29.283  1.00  0.00     0.064 A 
ATOM     75  C   UNL A   1      37.120  32.423  28.846  1.00  0.00     0.173 A 
ATOM     76  C   UNL A   1      35.960  30.326  28.980  1.00  0.00     0.173 A 
ATOM     77  F   UNL A   1      38.185  33.195  29.109  1.00  0.00    -0.203 F 
ATOM     78  C   UNL A   1      36.046  32.974  28.150  1.00  0.00     0.198 A 
ATOM     79  C   UNL A   1      34.896  30.870  28.264  1.00  0.00     0.198 A 
ATOM     80  F   UNL A   1      35.900  29.040  29.356  1.00  0.00    -0.203 F 
ATOM     81  F   UNL A   1      36.085  34.257  27.766  1.00  0.00    -0.200 F 
ATOM     82  C   UNL A   1      34.936  32.195  27.857  1.00  0.00     0.200 A 
ATOM     83  F   UNL A   1      33.835  30.108  27.961  1.00  0.00    -0.200 F 
ATOM     84  F   UNL A   1      33.908  32.721  27.177  1.00  0.00    -0.200 F 
ENDBRANCH  50  74
BRANCH  62  85
ATOM     85  C   UNL A   1      39.497  32.069  35.752  1.00  0.00     0.064 A 
ATOM     86  C   UNL A   1      38.511  31.612  36.641  1.00  0.00     0.173 A 
ATOM     87  C   UNL A   1      39.995  33.368  35.933  1.00  0.00     0.173 A 
ATOM     88  F   UNL A   1      37.997  30.381  36.506  1.00  0.00    -0.203 F 
ATOM     89  C   UNL A   1      38.039  32.428  37.666  1.00  0.00     0.198 A 
ATOM     90  C   UNL A   1      39.539  34.170  36.975  1.00  0.00     0.198 A 
ATOM     91  F   UNL A   1      40.947  33.844  35.117  1.00  0.00    -0.203 F 
ATOM     92  F   UNL A   1      37.081  31.979  38.489  1.00  0.00    -0.200 F 
ATOM     93  C   UNL A   1      38.557  33.703  37.836  1.00  0.00     0.200 A 
ATOM     94  F   UNL A   1      40.058  35.393  37.153  1.00  0.00    -0.200 F 
ATOM     95  F   UNL A   1      38.114  34.479  38.835  1.00  0.00    -0.200 F 
ENDBRANCH  62  85
ENDBRANCH  36  37
ENDBRANCH  29  31
ENDBRANCH  28  29
ENDBRANCH  27  28
ENDBRANCH  26  27
ENDBRANCH  25  26
ENDBRANCH  24  25
ENDBRANCH   1  24
TORSDOF 19
ENDMDL
MODEL 2
REMARK VINA RESULT:     -10.8      5.085     10.736
REMARK SMILES C[C@H](CNS(=O)(=O)c1ccc(C(=O)OCCOCCOC(=O)c2ccc(-c3c4nc(c(-c5c(F)c(F)c(F)c(F)c5F)c5ccc([nH]5)c(-c5c(F)c(F)c(F)c(F)c5F)c5nc(c(-c6c(F)c(F)c(F)c(F)c6F)c6ccc3[nH]6)C=C5)C=C4)cc2)cc1F)[NH+](C)C
REMARK SMILES IDX 15 1 14 2 12 3 13 4 11 5 8 6 9 7 87 8 10 9 86 10 88 11 5 12
REMARK SMILES IDX 6 13 7 14 4 15 3 17 2 18 1 19 89 20 90 21 91 22 16 24 17 25
REMARK SMILES IDX 18 26 19 27 20 28 21 29 22 30 23 31 24 32 85 33 25 34 84 35
REMARK SMILES IDX 26 36 27 37 28 38 78 39 29 40 83 41 77 42 79 43 30 44 82 45
REMARK SMILES IDX 76 46 75 47 31 49 63 50 43 51 62 52 44 53 47 54 61 55 80 56
REMARK SMILES IDX 45 57 46 58 60 60 81 61 48 62 32 63 33 64 41 65 34 66 35 67
REMARK SMILES IDX 39 68 42 69 36 70 37 71 40 72 38 73 64 74 65 75 73 76 66 77
REMARK SMILES IDX 67 78 71 79 74 80 68 81 69 82 72 83 70 84 49 85 50 86 58 87
REMARK SMILES IDX 51 88 52 89 56 90 59 91 53 92 54 93 57 94 55 95
REMARK H PARENT 4 16 89 23 79 48 47 59
REMARK Flexibility Score: inf
ROOT
ATOM      1  C   UNL A   1      35.088  31.712  27.959  1.00  0.00     0.261 C 
ENDROOT
BRANCH   1   2
ATOM      2  O   UNL A   1      33.958  31.124  27.290  1.00  0.00    -0.460 OA
BRANCH   2   3
ATOM      3  C   UNL A   1      34.097  29.810  27.000  1.00  0.00     0.338 C 
ATOM      4  O   UNL A   1      34.743  28.990  27.633  1.00  0.00    -0.246 OA
BRANCH   3   5
ATOM      5  C   UNL A   1      33.240  29.419  25.855  1.00  0.00     0.063 A 
ATOM      6  C   UNL A   1      31.446  28.677  23.837  1.00  0.00     0.118 A 
ATOM      7  C   UNL A   1      31.030  29.526  24.868  1.00  0.00     0.026 A 
ATOM      8  C   UNL A   1      32.758  28.214  23.812  1.00  0.00     0.144 A 
ATOM      9  C   UNL A   1      31.927  29.906  25.863  1.00  0.00     0.017 A 
ATOM     10  C   UNL A   1      33.664  28.585  24.815  1.00  0.00     0.056 A 
ATOM     11  F   UNL A   1      33.197  27.384  22.857  1.00  0.00    -0.205 F 
BRANCH   6  12
ATOM     12  S   UNL A   1      30.218  28.077  22.716  1.00  0.00     0.243 S 
ATOM     13  O   UNL A   1      29.146  27.517  23.506  1.00  0.00    -0.207 OA
ATOM     14  O   UNL A   1      30.849  27.307  21.667  1.00  0.00    -0.207 OA
BRANCH  12  15
ATOM     15  N   UNL A   1      29.636  29.460  21.949  1.00  0.00    -0.205 NA
ATOM     16  H   UNL A   1      30.032  30.260  22.444  1.00  0.00     0.141 HD
BRANCH  15  17
ATOM     17  C   UNL A   1      28.183  29.691  21.857  1.00  0.00     0.163 C 
BRANCH  17  18
ATOM     18  C   UNL A   1      27.713  31.087  22.362  1.00  0.00     0.195 C 
ATOM     19  C   UNL A   1      27.462  31.121  23.877  1.00  0.00     0.076 C 
BRANCH  18  20
ATOM     20  N   UNL A   1      28.532  32.196  21.824  1.00  0.00    -0.337 N 
ATOM     21  C   UNL A   1      28.027  32.703  20.547  1.00  0.00     0.332 C 
ATOM     22  C   UNL A   1      28.787  33.293  22.750  1.00  0.00     0.332 C 
ATOM     23  H   UNL A   1      29.439  31.758  21.665  1.00  0.00     0.347 HD
ENDBRANCH  18  20
ENDBRANCH  17  18
ENDBRANCH  15  17
ENDBRANCH  12  15
ENDBRANCH   6  12
ENDBRANCH   3   5
ENDBRANCH   2   3
ENDBRANCH   1   2
BRANCH   1  24
ATOM     24  C   UNL A   1      34.637  32.551  29.157  1.00  0.00     0.202 C 
BRANCH  24  25
ATOM     25  O   UNL A   1      34.975  33.937  29.087  1.00  0.00    -0.374 OA
BRANCH  25  26
ATOM     26  C   UNL A   1      34.099  34.774  28.328  1.00  0.00     0.202 C 
BRANCH  26  27
ATOM     27  C   UNL A   1      33.191  35.691  29.154  1.00  0.00     0.261 C 
BRANCH  27  28
ATOM     28  O   UNL A   1      32.646  34.999  30.293  1.00  0.00    -0.460 OA
BRANCH  28  29
ATOM     29  C   UNL A   1      32.819  35.633  31.477  1.00  0.00     0.338 C 
ATOM     30  O   UNL A   1      32.143  36.538  31.937  1.00  0.00    -0.246 OA
BRANCH  29  31
ATOM     31  C   UNL A   1      33.869  34.960  32.268  1.00  0.00     0.060 A 
ATOM     32  C   UNL A   1      35.133  35.559  32.285  1.00  0.00     0.016 A 
ATOM     33  C   UNL A   1      33.653  33.744  32.925  1.00  0.00     0.016 A 
ATOM     34  C   UNL A   1      36.201  34.918  32.905  1.00  0.00     0.010 A 
ATOM     35  C   UNL A   1      34.731  33.096  33.545  1.00  0.00     0.010 A 
ATOM     36  C   UNL A   1      36.017  33.663  33.503  1.00  0.00    -0.014 A 
BRANCH  36  37
ATOM     37  C   UNL A   1      37.213  32.915  33.963  1.00  0.00     0.031 A 
ATOM     38  C   UNL A   1      37.832  31.888  33.056  1.00  0.00     0.074 A 
ATOM     39  C   UNL A   1      37.799  33.219  35.134  1.00  0.00     0.049 A 
ATOM     40  N   UNL A   1      38.941  31.209  33.207  1.00  0.00    -0.248 NA
ATOM     41  C   UNL A   1      37.109  31.589  31.810  1.00  0.00     0.031 C 
ATOM     42  C   UNL A   1      37.308  34.211  36.088  1.00  0.00     0.029 A 
ATOM     43  N   UNL A   1      38.947  32.735  35.710  1.00  0.00    -0.354 N 
ATOM     44  C   UNL A   1      39.057  30.418  32.072  1.00  0.00     0.074 A 
ATOM     45  C   UNL A   1      37.886  30.667  31.259  1.00  0.00     0.031 C 
ATOM     46  C   UNL A   1      38.160  34.275  37.126  1.00  0.00     0.029 A 
ATOM     47  C   UNL A   1      39.247  33.321  36.914  1.00  0.00     0.049 A 
ATOM     48  H   UNL A   1      39.502  32.033  35.298  1.00  0.00     0.167 HD
ATOM     49  C   UNL A   1      40.059  29.574  31.730  1.00  0.00     0.037 A 
ATOM     50  C   UNL A   1      40.288  33.117  37.746  1.00  0.00     0.037 A 
ATOM     51  C   UNL A   1      41.224  29.321  32.537  1.00  0.00     0.049 A 
ATOM     52  C   UNL A   1      41.364  32.137  37.364  1.00  0.00     0.074 A 
ATOM     53  C   UNL A   1      42.299  28.492  32.265  1.00  0.00     0.029 A 
ATOM     54  N   UNL A   1      41.464  29.893  33.778  1.00  0.00    -0.354 N 
ATOM     55  N   UNL A   1      41.479  31.417  36.276  1.00  0.00    -0.248 NA
ATOM     56  C   UNL A   1      42.460  31.948  38.326  1.00  0.00     0.031 C 
ATOM     57  C   UNL A   1      43.168  28.529  33.360  1.00  0.00     0.029 A 
ATOM     58  C   UNL A   1      42.659  29.416  34.294  1.00  0.00     0.049 A 
ATOM     59  H   UNL A   1      40.873  30.540  34.225  1.00  0.00     0.167 HD
ATOM     60  C   UNL A   1      42.661  30.701  36.413  1.00  0.00     0.074 A 
ATOM     61  C   UNL A   1      43.239  31.090  37.682  1.00  0.00     0.031 C 
ATOM     62  C   UNL A   1      43.216  29.802  35.564  1.00  0.00     0.037 A 
BRANCH  49  63
ATOM     63  C   UNL A   1      39.942  28.852  30.421  1.00  0.00     0.064 A 
ATOM     64  C   UNL A   1      39.356  27.580  30.360  1.00  0.00     0.173 A 
ATOM     65  C   UNL A   1      40.467  29.395  29.240  1.00  0.00     0.173 A 
ATOM     66  F   UNL A   1      38.842  27.018  31.464  1.00  0.00    -0.203 F 
ATOM     67  C   UNL A   1      39.310  26.871  29.162  1.00  0.00     0.198 A 
ATOM     68  C   UNL A   1      40.399  28.692  28.039  1.00  0.00     0.198 A 
ATOM     69  F   UNL A   1      41.027  30.614  29.247  1.00  0.00    -0.203 F 
ATOM     70  F   UNL A   1      38.767  25.647  29.131  1.00  0.00    -0.200 F 
ATOM     71  C   UNL A   1      39.828  27.429  28.003  1.00  0.00     0.200 A 
ATOM     72  F   UNL A   1      40.882  29.241  26.915  1.00  0.00    -0.200 F 
ATOM     73  F   UNL A   1      39.776  26.749  26.849  1.00  0.00    -0.200 F 
ENDBRANCH  49  63
BRANCH  50  74
ATOM     74  C   UNL A   1      40.369  33.880  39.017  1.00  0.00     0.064 A 
ATOM     75  C   UNL A   1      41.121  35.060  39.106  1.00  0.00     0.173 A 
ATOM     76  C   UNL A   1      39.705  33.439  40.168  1.00  0.00     0.173 A 
ATOM     77  F   UNL A   1      41.772  35.525  38.030  1.00  0.00    -0.203 F 
ATOM     78  C   UNL A   1      41.219  35.761  40.305  1.00  0.00     0.198 A 
ATOM     79  C   UNL A   1      39.784  34.152  41.362  1.00  0.00     0.198 A 
ATOM     80  F   UNL A   1      38.953  32.328  40.123  1.00  0.00    -0.203 F 
ATOM     81  F   UNL A   1      41.965  36.872  40.372  1.00  0.00    -0.200 F 
ATOM     82  C   UNL A   1      40.548  35.308  41.432  1.00  0.00     0.200 A 
ATOM     83  F   UNL A   1      39.115  33.725  42.442  1.00  0.00    -0.200 F 
ATOM     84  F   UNL A   1      40.633  35.989  42.583  1.00  0.00    -0.200 F 
ENDBRANCH  50  74
BRANCH  62  85
ATOM     85  C   UNL A   1      44.514  29.171  35.978  1.00  0.00     0.064 A 
ATOM     86  C   UNL A   1      45.738  29.761  35.628  1.00  0.00     0.173 A 
ATOM     87  C   UNL A   1      44.545  27.956  36.678  1.00  0.00     0.173 A 
ATOM     88  F   UNL A   1      45.763  30.918  34.951  1.00  0.00    -0.203 F 
ATOM     89  C   UNL A   1      46.947  29.154  35.962  1.00  0.00     0.198 A 
ATOM     90  C   UNL A   1      45.755  27.365  37.032  1.00  0.00     0.198 A 
ATOM     91  F   UNL A   1      43.401  27.360  37.045  1.00  0.00    -0.203 F 
ATOM     92  F   UNL A   1      48.103  29.724  35.599  1.00  0.00    -0.200 F 
ATOM     93  C   UNL A   1      46.954  27.960  36.668  1.00  0.00     0.200 A 
ATOM     94  F   UNL A   1      45.761  26.225  37.736  1.00  0.00    -0.200 F 
ATOM     95  F   UNL A   1      48.118  27.387  37.005  1.00  0.00    -0.200 F 
ENDBRANCH  62  85
ENDBRANCH  36  37
ENDBRANCH  29  31
ENDBRANCH  28  29
ENDBRANCH  27  28
ENDBRANCH  26  27
ENDBRANCH  25  26
ENDBRANCH  24  25
ENDBRANCH   1  24
TORSDOF 19
ENDMDL
MODEL 3
REMARK VINA RESULT:     -10.6      4.944      9.991
REMARK SMILES C[C@H](CNS(=O)(=O)c1ccc(C(=O)OCCOCCOC(=O)c2ccc(-c3c4nc(c(-c5c(F)c(F)c(F)c(F)c5F)c5ccc([nH]5)c(-c5c(F)c(F)c(F)c(F)c5F)c5nc(c(-c6c(F)c(F)c(F)c(F)c6F)c6ccc3[nH]6)C=C5)C=C4)cc2)cc1F)[NH+](C)C
REMARK SMILES IDX 15 1 14 2 12 3 13 4 11 5 8 6 9 7 87 8 10 9 86 10 88 11 5 12
REMARK SMILES IDX 6 13 7 14 4 15 3 17 2 18 1 19 89 20 90 21 91 22 16 24 17 25
REMARK SMILES IDX 18 26 19 27 20 28 21 29 22 30 23 31 24 32 85 33 25 34 84 35
REMARK SMILES IDX 26 36 27 37 28 38 78 39 29 40 83 41 77 42 79 43 30 44 82 45
REMARK SMILES IDX 76 46 75 47 31 49 63 50 43 51 62 52 44 53 47 54 61 55 80 56
REMARK SMILES IDX 45 57 46 58 60 60 81 61 48 62 32 63 33 64 41 65 34 66 35 67
REMARK SMILES IDX 39 68 42 69 36 70 37 71 40 72 38 73 64 74 65 75 73 76 66 77
REMARK SMILES IDX 67 78 71 79 74 80 68 81 69 82 72 83 70 84 49 85 50 86 58 87
REMARK SMILES IDX 51 88 52 89 56 90 59 91 53 92 54 93 57 94 55 95
REMARK H PARENT 4 16 89 23 79 48 47 59
REMARK Flexibility Score: inf
ROOT
ATOM      1  C   UNL A   1      35.015  31.761  27.895  1.00  0.00     0.261 C 
ENDROOT
BRANCH   1   2
ATOM      2  O   UNL A   1      33.877  30.957  27.534  1.00  0.00    -0.460 OA
BRANCH   2   3
ATOM      3  C   UNL A   1      34.187  29.752  27.001  1.00  0.00     0.338 C 
ATOM      4  O   UNL A   1      34.995  28.949  27.438  1.00  0.00    -0.246 OA
BRANCH   3   5
ATOM      5  C   UNL A   1      33.312  29.436  25.847  1.00  0.00     0.063 A 
ATOM      6  C   UNL A   1      31.513  28.746  23.814  1.00  0.00     0.118 A 
ATOM      7  C   UNL A   1      31.036  29.140  25.069  1.00  0.00     0.026 A 
ATOM      8  C   UNL A   1      32.884  28.711  23.577  1.00  0.00     0.144 A 
ATOM      9  C   UNL A   1      31.932  29.498  26.074  1.00  0.00     0.017 A 
ATOM     10  C   UNL A   1      33.791  29.060  24.587  1.00  0.00     0.056 A 
ATOM     11  F   UNL A   1      33.387  28.320  22.400  1.00  0.00    -0.205 F 
BRANCH   6  12
ATOM     12  S   UNL A   1      30.343  28.121  22.646  1.00  0.00     0.243 S 
ATOM     13  O   UNL A   1      29.208  27.626  23.391  1.00  0.00    -0.207 OA
ATOM     14  O   UNL A   1      31.018  27.287  21.677  1.00  0.00    -0.207 OA
BRANCH  12  15
ATOM     15  N   UNL A   1      29.848  29.480  21.779  1.00  0.00    -0.205 NA
ATOM     16  H   UNL A   1      30.181  30.295  22.294  1.00  0.00     0.141 HD
BRANCH  15  17
ATOM     17  C   UNL A   1      28.414  29.698  21.514  1.00  0.00     0.163 C 
BRANCH  17  18
ATOM     18  C   UNL A   1      27.825  30.992  22.151  1.00  0.00     0.195 C 
ATOM     19  C   UNL A   1      27.626  30.873  23.669  1.00  0.00     0.076 C 
BRANCH  18  20
ATOM     20  N   UNL A   1      28.510  32.219  21.689  1.00  0.00    -0.337 N 
ATOM     21  C   UNL A   1      27.847  32.838  20.540  1.00  0.00     0.332 C 
ATOM     22  C   UNL A   1      28.782  33.211  22.722  1.00  0.00     0.332 C 
ATOM     23  H   UNL A   1      29.424  31.878  21.393  1.00  0.00     0.347 HD
ENDBRANCH  18  20
ENDBRANCH  17  18
ENDBRANCH  15  17
ENDBRANCH  12  15
ENDBRANCH   6  12
ENDBRANCH   3   5
ENDBRANCH   2   3
ENDBRANCH   1   2
BRANCH   1  24
ATOM     24  C   UNL A   1      34.720  32.593  29.145  1.00  0.00     0.202 C 
BRANCH  24  25
ATOM     25  O   UNL A   1      34.945  33.997  29.006  1.00  0.00    -0.374 OA
BRANCH  25  26
ATOM     26  C   UNL A   1      33.901  34.758  28.395  1.00  0.00     0.202 C 
BRANCH  26  27
ATOM     27  C   UNL A   1      33.131  35.689  29.339  1.00  0.00     0.261 C 
BRANCH  27  28
ATOM     28  O   UNL A   1      32.554  34.959  30.438  1.00  0.00    -0.460 OA
BRANCH  28  29
ATOM     29  C   UNL A   1      32.806  35.484  31.660  1.00  0.00     0.338 C 
ATOM     30  O   UNL A   1      32.120  36.280  32.279  1.00  0.00    -0.246 OA
BRANCH  29  31
ATOM     31  C   UNL A   1      33.980  34.825  32.268  1.00  0.00     0.060 A 
ATOM     32  C   UNL A   1      35.179  35.546  32.277  1.00  0.00     0.016 A 
ATOM     33  C   UNL A   1      33.937  33.515  32.757  1.00  0.00     0.016 A 
ATOM     34  C   UNL A   1      36.352  34.943  32.719  1.00  0.00     0.010 A 
ATOM     35  C   UNL A   1      35.121  32.907  33.196  1.00  0.00     0.010 A 
ATOM     36  C   UNL A   1      36.339  33.606  33.143  1.00  0.00    -0.014 A 
BRANCH  36  37
ATOM     37  C   UNL A   1      37.636  32.933  33.400  1.00  0.00     0.031 A 
ATOM     38  C   UNL A   1      38.355  33.191  34.695  1.00  0.00     0.074 A 
ATOM     39  C   UNL A   1      38.118  32.025  32.533  1.00  0.00     0.049 A 
ATOM     40  N   UNL A   1      39.433  32.622  35.173  1.00  0.00    -0.248 NA
ATOM     41  C   UNL A   1      37.782  34.224  35.571  1.00  0.00     0.031 C 
ATOM     42  C   UNL A   1      37.499  31.670  31.257  1.00  0.00     0.029 A 
ATOM     43  N   UNL A   1      39.228  31.222  32.606  1.00  0.00    -0.354 N 
ATOM     44  C   UNL A   1      39.657  33.214  36.409  1.00  0.00     0.074 A 
ATOM     45  C   UNL A   1      38.629  34.216  36.591  1.00  0.00     0.031 C 
ATOM     46  C   UNL A   1      38.232  30.707  30.672  1.00  0.00     0.029 A 
ATOM     47  C   UNL A   1      39.374  30.387  31.527  1.00  0.00     0.049 A 
ATOM     48  H   UNL A   1      39.860  31.244  33.361  1.00  0.00     0.167 HD
ATOM     49  C   UNL A   1      40.621  32.933  37.317  1.00  0.00     0.037 A 
ATOM     50  C   UNL A   1      40.318  29.462  31.264  1.00  0.00     0.037 A 
ATOM     51  C   UNL A   1      41.646  31.940  37.138  1.00  0.00     0.049 A 
ATOM     52  C   UNL A   1      41.407  29.203  32.269  1.00  0.00     0.074 A 
ATOM     53  C   UNL A   1      42.657  31.576  38.011  1.00  0.00     0.029 A 
ATOM     54  N   UNL A   1      41.793  31.153  36.006  1.00  0.00    -0.354 N 
ATOM     55  N   UNL A   1      41.592  29.747  33.447  1.00  0.00    -0.248 NA
ATOM     56  C   UNL A   1      42.416  28.195  31.910  1.00  0.00     0.031 C 
ATOM     57  C   UNL A   1      43.442  30.600  37.390  1.00  0.00     0.029 A 
ATOM     58  C   UNL A   1      42.894  30.322  36.149  1.00  0.00     0.049 A 
ATOM     59  H   UNL A   1      41.205  31.181  35.218  1.00  0.00     0.167 HD
ATOM     60  C   UNL A   1      42.724  29.142  33.976  1.00  0.00     0.074 A 
ATOM     61  C   UNL A   1      43.173  28.172  32.998  1.00  0.00     0.031 C 
ATOM     62  C   UNL A   1      43.337  29.370  35.163  1.00  0.00     0.037 A 
BRANCH  49  63
ATOM     63  C   UNL A   1      40.618  33.717  38.596  1.00  0.00     0.064 A 
ATOM     64  C   UNL A   1      39.711  33.406  39.619  1.00  0.00     0.173 A 
ATOM     65  C   UNL A   1      41.472  34.813  38.781  1.00  0.00     0.173 A 
ATOM     66  F   UNL A   1      38.872  32.369  39.487  1.00  0.00    -0.203 F 
ATOM     67  C   UNL A   1      39.652  34.175  40.779  1.00  0.00     0.198 A 
ATOM     68  C   UNL A   1      41.426  35.565  39.952  1.00  0.00     0.198 A 
ATOM     69  F   UNL A   1      42.366  35.140  37.836  1.00  0.00    -0.203 F 
ATOM     70  F   UNL A   1      38.760  33.875  41.734  1.00  0.00    -0.200 F 
ATOM     71  C   UNL A   1      40.510  35.250  40.946  1.00  0.00     0.200 A 
ATOM     72  F   UNL A   1      42.270  36.592  40.122  1.00  0.00    -0.200 F 
ATOM     73  F   UNL A   1      40.458  35.984  42.067  1.00  0.00    -0.200 F 
ENDBRANCH  49  63
BRANCH  50  74
ATOM     74  C   UNL A   1      40.256  28.693  29.995  1.00  0.00     0.064 A 
ATOM     75  C   UNL A   1      39.568  27.475  29.919  1.00  0.00     0.173 A 
ATOM     76  C   UNL A   1      40.893  29.159  28.837  1.00  0.00     0.173 A 
ATOM     77  F   UNL A   1      38.939  26.990  31.000  1.00  0.00    -0.203 F 
ATOM     78  C   UNL A   1      39.532  26.741  28.735  1.00  0.00     0.198 A 
ATOM     79  C   UNL A   1      40.838  28.436  27.647  1.00  0.00     0.198 A 
ATOM     80  F   UNL A   1      41.543  30.332  28.856  1.00  0.00    -0.203 F 
ATOM     81  F   UNL A   1      38.889  25.566  28.695  1.00  0.00    -0.200 F 
ATOM     82  C   UNL A   1      40.165  27.224  27.600  1.00  0.00     0.200 A 
ATOM     83  F   UNL A   1      41.430  28.917  26.545  1.00  0.00    -0.200 F 
ATOM     84  F   UNL A   1      40.122  26.524  26.458  1.00  0.00    -0.200 F 
ENDBRANCH  50  74
BRANCH  62  85
ATOM     85  C   UNL A   1      44.563  28.562  35.474  1.00  0.00     0.064 A 
ATOM     86  C   UNL A   1      44.458  27.337  36.152  1.00  0.00     0.173 A 
ATOM     87  C   UNL A   1      45.845  29.024  35.145  1.00  0.00     0.173 A 
ATOM     88  F   UNL A   1      43.254  26.856  36.496  1.00  0.00    -0.203 F 
ATOM     89  C   UNL A   1      45.594  26.607  36.492  1.00  0.00     0.198 A 
ATOM     90  C   UNL A   1      46.978  28.279  35.464  1.00  0.00     0.198 A 
ATOM     91  F   UNL A   1      45.996  30.183  34.487  1.00  0.00    -0.203 F 
ATOM     92  F   UNL A   1      45.471  25.451  37.158  1.00  0.00    -0.200 F 
ATOM     93  C   UNL A   1      46.852  27.076  36.143  1.00  0.00     0.200 A 
ATOM     94  F   UNL A   1      48.190  28.720  35.105  1.00  0.00    -0.200 F 
ATOM     95  F   UNL A   1      47.944  26.363  36.454  1.00  0.00    -0.200 F 
ENDBRANCH  62  85
ENDBRANCH  36  37
ENDBRANCH  29  31
ENDBRANCH  28  29
ENDBRANCH  27  28
ENDBRANCH  26  27
ENDBRANCH  25  26
ENDBRANCH  24  25
ENDBRANCH   1  24
TORSDOF 19
ENDMDL
