MODEL 1
REMARK VINA RESULT:     -12.5      0.000      0.000
REMARK SMILES O=C(C[C@H](NC(=O)[C@]12C[C@H]3C[C@H](C[C@H](C3)C1)C2)c1cccc([N+](=O)[O-])c1)OCCOCCOC(=O)c1ccc(-c2c3nc(c(-c4c(F)c(F)c(F)c(F)c4F)c4ccc([nH]4)c(-c4c(F)c(F)c(F)c(F)c4F)c4nc(c(-c5c(F)c(F)c(F)c(F)c5F)c5ccc2[nH]5)C=C4)C=C3)cc1
REMARK SMILES IDX 29 1 28 2 27 3 2 4 1 5 3 6 4 7 18 8 19 9 26 10 20 11 22 12
REMARK SMILES IDX 21 13 23 14 24 15 25 16 5 17 6 18 7 20 8 21 9 22 16 23 17 24
REMARK SMILES IDX 10 25 14 26 12 27 11 28 15 29 13 30 30 31 31 32 32 33 33 34
REMARK SMILES IDX 34 35 35 36 36 37 37 38 98 39 38 40 97 41 39 42 40 43 41 44
REMARK SMILES IDX 91 45 42 46 96 47 90 48 92 49 43 50 95 51 89 52 88 53 44 55
REMARK SMILES IDX 76 56 56 57 75 58 57 59 60 60 74 61 93 62 58 63 59 64 73 66
REMARK SMILES IDX 94 67 61 68 45 69 46 70 54 71 47 72 48 73 52 74 55 75 49 76
REMARK SMILES IDX 50 77 53 78 51 79 77 80 78 81 86 82 79 83 80 84 84 85 87 86
REMARK SMILES IDX 81 87 82 88 85 89 83 90 62 91 63 92 71 93 64 94 65 95 69 96
REMARK SMILES IDX 72 97 66 98 67 99 70 100 68 101
REMARK H PARENT 5 19 92 54 60 65
REMARK Flexibility Score: inf
ROOT
ATOM      1  C   UNL A   1      34.290  32.030  28.049  1.00  0.00     0.202 C 
ENDROOT
BRANCH   1   2
ATOM      2  C   UNL A   1      34.267  30.689  27.298  1.00  0.00     0.261 C 
BRANCH   2   3
ATOM      3  O   UNL A   1      33.145  30.403  26.453  1.00  0.00    -0.463 OA
BRANCH   3   4
ATOM      4  C   UNL A   1      32.996  29.125  26.077  1.00  0.00     0.308 C 
ATOM      5  O   UNL A   1      33.395  28.198  26.771  1.00  0.00    -0.252 OA
BRANCH   4   6
ATOM      6  C   UNL A   1      32.372  28.937  24.724  1.00  0.00     0.152 C 
BRANCH   6   7
ATOM      7  C   UNL A   1      32.114  27.518  24.254  1.00  0.00     0.123 C 
BRANCH   7   8
ATOM      8  C   UNL A   1      30.662  27.528  23.712  1.00  0.00    -0.018 A 
ATOM      9  C   UNL A   1      29.753  26.515  24.058  1.00  0.00     0.006 A 
ATOM     10  C   UNL A   1      30.158  28.687  23.080  1.00  0.00     0.091 A 
ATOM     11  C   UNL A   1      28.373  26.695  23.878  1.00  0.00     0.007 A 
ATOM     12  C   UNL A   1      28.775  28.867  22.920  1.00  0.00     0.269 A 
ATOM     13  C   UNL A   1      27.876  27.878  23.330  1.00  0.00     0.085 A 
BRANCH  12  14
ATOM     14  N   UNL A   1      28.262  30.140  22.394  1.00  0.00     0.062 N 
ATOM     15  O   UNL A   1      28.064  30.223  21.174  1.00  0.00    -0.258 OA
ATOM     16  O   UNL A   1      28.053  31.054  23.205  1.00  0.00    -0.258 OA
ENDBRANCH  12  14
ENDBRANCH   7   8
BRANCH   7  17
ATOM     17  N   UNL A   1      33.018  26.952  23.230  1.00  0.00    -0.348 N 
ATOM     18  C   UNL A   1      33.543  25.740  22.877  1.00  0.00     0.226 C 
ATOM     19  H   UNL A   1      33.335  27.657  22.620  1.00  0.00     0.164 HD
ATOM     20  O   UNL A   1      33.975  25.677  21.722  1.00  0.00    -0.274 OA
BRANCH  18  21
ATOM     21  C   UNL A   1      33.713  24.537  23.830  1.00  0.00     0.050 C 
ATOM     22  C   UNL A   1      34.424  25.037  25.123  1.00  0.00     0.020 C 
ATOM     23  C   UNL A   1      34.681  23.438  23.272  1.00  0.00     0.020 C 
ATOM     24  C   UNL A   1      32.395  23.750  24.015  1.00  0.00     0.020 C 
ATOM     25  C   UNL A   1      34.516  23.922  26.166  1.00  0.00    -0.010 C 
ATOM     26  C   UNL A   1      34.845  22.276  24.299  1.00  0.00    -0.010 C 
ATOM     27  C   UNL A   1      32.526  22.723  25.150  1.00  0.00    -0.010 C 
ATOM     28  C   UNL A   1      33.120  23.336  26.433  1.00  0.00     0.007 C 
ATOM     29  C   UNL A   1      35.437  22.827  25.608  1.00  0.00     0.007 C 
ATOM     30  C   UNL A   1      33.483  21.637  24.638  1.00  0.00     0.007 C 
ENDBRANCH  18  21
ENDBRANCH   7  17
ENDBRANCH   6   7
ENDBRANCH   4   6
ENDBRANCH   3   4
ENDBRANCH   2   3
ENDBRANCH   1   2
BRANCH   1  31
ATOM     31  O   UNL A   1      34.486  31.975  29.463  1.00  0.00    -0.374 OA
BRANCH  31  32
ATOM     32  C   UNL A   1      34.379  33.231  30.160  1.00  0.00     0.202 C 
BRANCH  32  33
ATOM     33  C   UNL A   1      34.721  33.248  31.649  1.00  0.00     0.261 C 
BRANCH  33  34
ATOM     34  O   UNL A   1      36.134  33.346  31.837  1.00  0.00    -0.460 OA
BRANCH  34  35
ATOM     35  C   UNL A   1      36.650  32.399  32.657  1.00  0.00     0.338 C 
ATOM     36  O   UNL A   1      36.329  32.151  33.799  1.00  0.00    -0.246 OA
BRANCH  35  37
ATOM     37  C   UNL A   1      37.495  31.509  31.837  1.00  0.00     0.060 A 
ATOM     38  C   UNL A   1      38.306  30.585  32.518  1.00  0.00     0.016 A 
ATOM     39  C   UNL A   1      37.471  31.555  30.443  1.00  0.00     0.016 A 
ATOM     40  C   UNL A   1      39.116  29.718  31.812  1.00  0.00     0.010 A 
ATOM     41  C   UNL A   1      38.340  30.737  29.732  1.00  0.00     0.010 A 
ATOM     42  C   UNL A   1      39.195  29.864  30.426  1.00  0.00    -0.014 A 
BRANCH  42  43
ATOM     43  C   UNL A   1      40.419  29.390  29.768  1.00  0.00     0.031 A 
ATOM     44  C   UNL A   1      41.523  30.393  29.599  1.00  0.00     0.074 A 
ATOM     45  C   UNL A   1      40.541  28.115  29.382  1.00  0.00     0.049 A 
ATOM     46  N   UNL A   1      42.660  30.281  28.971  1.00  0.00    -0.248 NA
ATOM     47  C   UNL A   1      41.306  31.713  30.223  1.00  0.00     0.031 C 
ATOM     48  C   UNL A   1      39.542  27.068  29.587  1.00  0.00     0.029 A 
ATOM     49  N   UNL A   1      41.562  27.493  28.719  1.00  0.00    -0.354 N 
ATOM     50  C   UNL A   1      43.278  31.518  29.105  1.00  0.00     0.074 A 
ATOM     51  C   UNL A   1      42.388  32.373  29.851  1.00  0.00     0.031 C 
ATOM     52  C   UNL A   1      39.989  25.932  29.028  1.00  0.00     0.029 A 
ATOM     53  C   UNL A   1      41.280  26.192  28.394  1.00  0.00     0.049 A 
ATOM     54  H   UNL A   1      42.413  27.935  28.498  1.00  0.00     0.167 HD
ATOM     55  C   UNL A   1      44.488  31.897  28.638  1.00  0.00     0.037 A 
ATOM     56  C   UNL A   1      41.983  25.337  27.630  1.00  0.00     0.037 A 
ATOM     57  C   UNL A   1      45.344  31.021  27.888  1.00  0.00     0.049 A 
ATOM     58  C   UNL A   1      43.291  25.806  27.050  1.00  0.00     0.074 A 
ATOM     59  C   UNL A   1      46.592  31.277  27.357  1.00  0.00     0.029 A 
ATOM     60  N   UNL A   1      45.021  29.710  27.555  1.00  0.00    -0.354 N 
ATOM     61  N   UNL A   1      43.882  26.972  27.170  1.00  0.00    -0.248 NA
ATOM     62  C   UNL A   1      44.033  24.841  26.231  1.00  0.00     0.031 C 
ATOM     63  C   UNL A   1      46.998  30.142  26.648  1.00  0.00     0.029 A 
ATOM     64  C   UNL A   1      46.037  29.152  26.801  1.00  0.00     0.049 A 
ATOM     65  H   UNL A   1      44.192  29.250  27.816  1.00  0.00     0.167 HD
ATOM     66  C   UNL A   1      45.079  26.872  26.477  1.00  0.00     0.074 A 
ATOM     67  C   UNL A   1      45.131  25.525  25.941  1.00  0.00     0.031 C 
ATOM     68  C   UNL A   1      46.053  27.801  26.298  1.00  0.00     0.037 A 
BRANCH  55  69
ATOM     69  C   UNL A   1      44.909  33.317  28.879  1.00  0.00     0.064 A 
ATOM     70  C   UNL A   1      45.666  33.692  30.001  1.00  0.00     0.173 A 
ATOM     71  C   UNL A   1      44.537  34.325  27.977  1.00  0.00     0.173 A 
ATOM     72  F   UNL A   1      46.026  32.774  30.911  1.00  0.00    -0.203 F 
ATOM     73  C   UNL A   1      46.004  35.025  30.226  1.00  0.00     0.198 A 
ATOM     74  C   UNL A   1      44.908  35.650  28.186  1.00  0.00     0.198 A 
ATOM     75  F   UNL A   1      43.806  34.026  26.892  1.00  0.00    -0.203 F 
ATOM     76  F   UNL A   1      46.671  35.367  31.338  1.00  0.00    -0.200 F 
ATOM     77  C   UNL A   1      45.633  36.001  29.315  1.00  0.00     0.200 A 
ATOM     78  F   UNL A   1      44.554  36.591  27.299  1.00  0.00    -0.200 F 
ATOM     79  F   UNL A   1      45.961  37.282  29.530  1.00  0.00    -0.200 F 
ENDBRANCH  55  69
BRANCH  56  80
ATOM     80  C   UNL A   1      41.452  23.976  27.369  1.00  0.00     0.064 A 
ATOM     81  C   UNL A   1      40.319  23.784  26.568  1.00  0.00     0.173 A 
ATOM     82  C   UNL A   1      42.077  22.836  27.898  1.00  0.00     0.173 A 
ATOM     83  F   UNL A   1      39.678  24.843  26.052  1.00  0.00    -0.203 F 
ATOM     84  C   UNL A   1      39.822  22.506  26.317  1.00  0.00     0.198 A 
ATOM     85  C   UNL A   1      41.598  21.557  27.622  1.00  0.00     0.198 A 
ATOM     86  F   UNL A   1      43.170  22.964  28.667  1.00  0.00    -0.203 F 
ATOM     87  F   UNL A   1      38.715  22.354  25.579  1.00  0.00    -0.200 F 
ATOM     88  C   UNL A   1      40.467  21.394  26.838  1.00  0.00     0.200 A 
ATOM     89  F   UNL A   1      42.235  20.485  28.114  1.00  0.00    -0.200 F 
ATOM     90  F   UNL A   1      39.995  20.165  26.588  1.00  0.00    -0.200 F 
ENDBRANCH  56  80
BRANCH  68  91
ATOM     91  C   UNL A   1      47.280  27.372  25.546  1.00  0.00     0.064 A 
ATOM     92  C   UNL A   1      47.421  27.596  24.169  1.00  0.00     0.173 A 
ATOM     93  C   UNL A   1      48.353  26.784  26.232  1.00  0.00     0.173 A 
ATOM     94  F   UNL A   1      46.417  28.145  23.468  1.00  0.00    -0.203 F 
ATOM     95  C   UNL A   1      48.583  27.220  23.502  1.00  0.00     0.198 A 
ATOM     96  C   UNL A   1      49.527  26.445  25.569  1.00  0.00     0.198 A 
ATOM     97  F   UNL A   1      48.271  26.560  27.553  1.00  0.00    -0.203 F 
ATOM     98  F   UNL A   1      48.677  27.396  22.177  1.00  0.00    -0.200 F 
ATOM     99  C   UNL A   1      49.638  26.655  24.203  1.00  0.00     0.200 A 
ATOM    100  F   UNL A   1      50.552  25.918  26.252  1.00  0.00    -0.200 F 
ATOM    101  F   UNL A   1      50.761  26.307  23.560  1.00  0.00    -0.200 F 
ENDBRANCH  68  91
ENDBRANCH  42  43
ENDBRANCH  35  37
ENDBRANCH  34  35
ENDBRANCH  33  34
ENDBRANCH  32  33
ENDBRANCH  31  32
ENDBRANCH   1  31
TORSDOF 19
ENDMDL
MODEL 2
REMARK VINA RESULT:     -12.5      5.057      7.638
REMARK SMILES O=C(C[C@H](NC(=O)[C@]12C[C@H]3C[C@H](C[C@H](C3)C1)C2)c1cccc([N+](=O)[O-])c1)OCCOCCOC(=O)c1ccc(-c2c3nc(c(-c4c(F)c(F)c(F)c(F)c4F)c4ccc([nH]4)c(-c4c(F)c(F)c(F)c(F)c4F)c4nc(c(-c5c(F)c(F)c(F)c(F)c5F)c5ccc2[nH]5)C=C4)C=C3)cc1
REMARK SMILES IDX 29 1 28 2 27 3 2 4 1 5 3 6 4 7 18 8 19 9 26 10 20 11 22 12
REMARK SMILES IDX 21 13 23 14 24 15 25 16 5 17 6 18 7 20 8 21 9 22 16 23 17 24
REMARK SMILES IDX 10 25 14 26 12 27 11 28 15 29 13 30 30 31 31 32 32 33 33 34
REMARK SMILES IDX 34 35 35 36 36 37 37 38 98 39 38 40 97 41 39 42 40 43 41 44
REMARK SMILES IDX 91 45 42 46 96 47 90 48 92 49 43 50 95 51 89 52 88 53 44 55
REMARK SMILES IDX 76 56 56 57 75 58 57 59 60 60 74 61 93 62 58 63 59 64 73 66
REMARK SMILES IDX 94 67 61 68 45 69 46 70 54 71 47 72 48 73 52 74 55 75 49 76
REMARK SMILES IDX 50 77 53 78 51 79 77 80 78 81 86 82 79 83 80 84 84 85 87 86
REMARK SMILES IDX 81 87 82 88 85 89 83 90 62 91 63 92 71 93 64 94 65 95 69 96
REMARK SMILES IDX 72 97 66 98 67 99 70 100 68 101
REMARK H PARENT 5 19 92 54 60 65
REMARK Flexibility Score: inf
ROOT
ATOM      1  C   UNL A   1      34.585  32.108  28.142  1.00  0.00     0.202 C 
ENDROOT
BRANCH   1   2
ATOM      2  C   UNL A   1      34.088  30.750  27.622  1.00  0.00     0.261 C 
BRANCH   2   3
ATOM      3  O   UNL A   1      33.183  30.738  26.510  1.00  0.00    -0.463 OA
BRANCH   3   4
ATOM      4  C   UNL A   1      33.178  29.628  25.760  1.00  0.00     0.308 C 
ATOM      5  O   UNL A   1      34.099  28.821  25.798  1.00  0.00    -0.252 OA
BRANCH   4   6
ATOM      6  C   UNL A   1      32.001  29.498  24.836  1.00  0.00     0.152 C 
BRANCH   6   7
ATOM      7  C   UNL A   1      31.742  28.144  24.206  1.00  0.00     0.123 C 
BRANCH   7   8
ATOM      8  C   UNL A   1      30.316  28.242  23.605  1.00  0.00    -0.018 A 
ATOM      9  C   UNL A   1      29.422  27.162  23.684  1.00  0.00     0.006 A 
ATOM     10  C   UNL A   1      29.809  29.500  23.208  1.00  0.00     0.091 A 
ATOM     11  C   UNL A   1      28.047  27.352  23.476  1.00  0.00     0.007 A 
ATOM     12  C   UNL A   1      28.430  29.685  23.020  1.00  0.00     0.269 A 
ATOM     13  C   UNL A   1      27.542  28.614  23.165  1.00  0.00     0.085 A 
BRANCH  12  14
ATOM     14  N   UNL A   1      27.905  31.030  22.749  1.00  0.00     0.062 N 
ATOM     15  O   UNL A   1      28.244  31.580  21.691  1.00  0.00    -0.258 OA
ATOM     16  O   UNL A   1      27.151  31.534  23.595  1.00  0.00    -0.258 OA
ENDBRANCH  12  14
ENDBRANCH   7   8
BRANCH   7  17
ATOM     17  N   UNL A   1      32.682  27.671  23.168  1.00  0.00    -0.348 N 
ATOM     18  C   UNL A   1      33.247  26.499  22.747  1.00  0.00     0.226 C 
ATOM     19  H   UNL A   1      32.993  28.423  22.613  1.00  0.00     0.164 HD
ATOM     20  O   UNL A   1      33.705  26.524  21.600  1.00  0.00    -0.274 OA
BRANCH  18  21
ATOM     21  C   UNL A   1      33.429  25.239  23.621  1.00  0.00     0.050 C 
ATOM     22  C   UNL A   1      34.179  24.166  22.777  1.00  0.00     0.020 C 
ATOM     23  C   UNL A   1      32.076  24.544  23.994  1.00  0.00     0.020 C 
ATOM     24  C   UNL A   1      34.020  25.575  25.010  1.00  0.00     0.020 C 
ATOM     25  C   UNL A   1      34.504  22.932  23.620  1.00  0.00    -0.010 C 
ATOM     26  C   UNL A   1      32.332  23.256  24.836  1.00  0.00    -0.010 C 
ATOM     27  C   UNL A   1      34.424  24.294  25.756  1.00  0.00    -0.010 C 
ATOM     28  C   UNL A   1      35.272  23.348  24.885  1.00  0.00     0.007 C 
ATOM     29  C   UNL A   1      33.179  22.267  24.016  1.00  0.00     0.007 C 
ATOM     30  C   UNL A   1      33.116  23.581  26.124  1.00  0.00     0.007 C 
ENDBRANCH  18  21
ENDBRANCH   7  17
ENDBRANCH   6   7
ENDBRANCH   4   6
ENDBRANCH   3   4
ENDBRANCH   2   3
ENDBRANCH   1   2
BRANCH   1  31
ATOM     31  O   UNL A   1      33.673  33.205  28.056  1.00  0.00    -0.374 OA
BRANCH  31  32
ATOM     32  C   UNL A   1      34.224  34.503  28.349  1.00  0.00     0.202 C 
BRANCH  32  33
ATOM     33  C   UNL A   1      33.368  35.471  29.164  1.00  0.00     0.261 C 
BRANCH  33  34
ATOM     34  O   UNL A   1      32.855  34.824  30.330  1.00  0.00    -0.460 OA
BRANCH  34  35
ATOM     35  C   UNL A   1      33.003  35.541  31.470  1.00  0.00     0.338 C 
ATOM     36  O   UNL A   1      32.285  36.423  31.891  1.00  0.00    -0.246 OA
BRANCH  35  37
ATOM     37  C   UNL A   1      34.043  34.881  32.282  1.00  0.00     0.060 A 
ATOM     38  C   UNL A   1      35.284  35.530  32.390  1.00  0.00     0.016 A 
ATOM     39  C   UNL A   1      33.800  33.678  32.945  1.00  0.00     0.016 A 
ATOM     40  C   UNL A   1      36.300  34.971  33.139  1.00  0.00     0.010 A 
ATOM     41  C   UNL A   1      34.843  33.074  33.638  1.00  0.00     0.010 A 
ATOM     42  C   UNL A   1      36.100  33.701  33.682  1.00  0.00    -0.014 A 
BRANCH  42  43
ATOM     43  C   UNL A   1      37.294  32.888  33.950  1.00  0.00     0.031 A 
ATOM     44  C   UNL A   1      38.025  33.170  35.230  1.00  0.00     0.074 A 
ATOM     45  C   UNL A   1      37.671  31.923  33.104  1.00  0.00     0.049 A 
ATOM     46  N   UNL A   1      39.153  32.683  35.669  1.00  0.00    -0.248 NA
ATOM     47  C   UNL A   1      37.397  34.148  36.139  1.00  0.00     0.031 C 
ATOM     48  C   UNL A   1      36.962  31.541  31.884  1.00  0.00     0.029 A 
ATOM     49  N   UNL A   1      38.760  31.098  33.143  1.00  0.00    -0.354 N 
ATOM     50  C   UNL A   1      39.376  33.311  36.888  1.00  0.00     0.074 A 
ATOM     51  C   UNL A   1      38.286  34.229  37.113  1.00  0.00     0.031 C 
ATOM     52  C   UNL A   1      37.658  30.571  31.269  1.00  0.00     0.029 A 
ATOM     53  C   UNL A   1      38.874  30.303  32.033  1.00  0.00     0.049 A 
ATOM     54  H   UNL A   1      39.398  31.078  33.893  1.00  0.00     0.167 HD
ATOM     55  C   UNL A   1      40.410  33.129  37.739  1.00  0.00     0.037 A 
ATOM     56  C   UNL A   1      39.882  29.488  31.674  1.00  0.00     0.037 A 
ATOM     57  C   UNL A   1      41.484  32.214  37.476  1.00  0.00     0.049 A 
ATOM     58  C   UNL A   1      41.064  29.362  32.598  1.00  0.00     0.074 A 
ATOM     59  C   UNL A   1      42.591  31.934  38.252  1.00  0.00     0.029 A 
ATOM     60  N   UNL A   1      41.584  31.434  36.330  1.00  0.00    -0.354 N 
ATOM     61  N   UNL A   1      41.284  29.952  33.750  1.00  0.00    -0.248 NA
ATOM     62  C   UNL A   1      42.137  28.455  32.176  1.00  0.00     0.031 C 
ATOM     63  C   UNL A   1      43.393  31.032  37.547  1.00  0.00     0.029 A 
ATOM     64  C   UNL A   1      42.749  30.691  36.365  1.00  0.00     0.049 A 
ATOM     65  H   UNL A   1      40.923  31.416  35.601  1.00  0.00     0.167 HD
ATOM     66  C   UNL A   1      42.499  29.462  34.209  1.00  0.00     0.074 A 
ATOM     67  C   UNL A   1      42.965  28.522  33.209  1.00  0.00     0.031 C 
ATOM     68  C   UNL A   1      43.170  29.755  35.352  1.00  0.00     0.037 A 
BRANCH  55  69
ATOM     69  C   UNL A   1      40.441  33.974  38.979  1.00  0.00     0.064 A 
ATOM     70  C   UNL A   1      41.088  35.219  39.020  1.00  0.00     0.173 A 
ATOM     71  C   UNL A   1      39.822  33.521  40.155  1.00  0.00     0.173 A 
ATOM     72  F   UNL A   1      41.720  35.688  37.933  1.00  0.00    -0.203 F 
ATOM     73  C   UNL A   1      41.142  35.962  40.197  1.00  0.00     0.198 A 
ATOM     74  C   UNL A   1      39.847  34.283  41.319  1.00  0.00     0.198 A 
ATOM     75  F   UNL A   1      39.197  32.335  40.176  1.00  0.00    -0.203 F 
ATOM     76  F   UNL A   1      41.822  37.117  40.228  1.00  0.00    -0.200 F 
ATOM     77  C   UNL A   1      40.515  35.498  41.343  1.00  0.00     0.200 A 
ATOM     78  F   UNL A   1      39.233  33.836  42.423  1.00  0.00    -0.200 F 
ATOM     79  F   UNL A   1      40.565  36.215  42.474  1.00  0.00    -0.200 F 
ENDBRANCH  55  69
BRANCH  56  80
ATOM     80  C   UNL A   1      39.811  28.753  30.386  1.00  0.00     0.064 A 
ATOM     81  C   UNL A   1      40.276  29.332  29.198  1.00  0.00     0.173 A 
ATOM     82  C   UNL A   1      39.295  27.450  30.318  1.00  0.00     0.173 A 
ATOM     83  F   UNL A   1      40.764  30.581  29.209  1.00  0.00    -0.203 F 
ATOM     84  C   UNL A   1      40.215  28.641  27.989  1.00  0.00     0.198 A 
ATOM     85  C   UNL A   1      39.262  26.749  29.114  1.00  0.00     0.198 A 
ATOM     86  F   UNL A   1      38.842  26.847  31.428  1.00  0.00    -0.203 F 
ATOM     87  F   UNL A   1      40.633  29.233  26.862  1.00  0.00    -0.200 F 
ATOM     88  C   UNL A   1      39.716  27.349  27.950  1.00  0.00     0.200 A 
ATOM     89  F   UNL A   1      38.795  25.493  29.085  1.00  0.00    -0.200 F 
ATOM     90  F   UNL A   1      39.667  26.682  26.789  1.00  0.00    -0.200 F 
ENDBRANCH  56  80
BRANCH  68  91
ATOM     91  C   UNL A   1      44.445  29.006  35.609  1.00  0.00     0.064 A 
ATOM     92  C   UNL A   1      45.690  29.499  35.194  1.00  0.00     0.173 A 
ATOM     93  C   UNL A   1      44.420  27.807  36.337  1.00  0.00     0.173 A 
ATOM     94  F   UNL A   1      45.765  30.636  34.485  1.00  0.00    -0.203 F 
ATOM     95  C   UNL A   1      46.862  28.802  35.475  1.00  0.00     0.198 A 
ATOM     96  C   UNL A   1      45.595  27.133  36.649  1.00  0.00     0.198 A 
ATOM     97  F   UNL A   1      43.253  27.301  36.767  1.00  0.00    -0.203 F 
ATOM     98  F   UNL A   1      48.036  29.263  35.025  1.00  0.00    -0.200 F 
ATOM     99  C   UNL A   1      46.814  27.626  36.210  1.00  0.00     0.200 A 
ATOM    100  F   UNL A   1      45.548  26.010  37.377  1.00  0.00    -0.200 F 
ATOM    101  F   UNL A   1      47.945  26.965  36.492  1.00  0.00    -0.200 F 
ENDBRANCH  68  91
ENDBRANCH  42  43
ENDBRANCH  35  37
ENDBRANCH  34  35
ENDBRANCH  33  34
ENDBRANCH  32  33
ENDBRANCH  31  32
ENDBRANCH   1  31
TORSDOF 19
ENDMDL
MODEL 3
REMARK VINA RESULT:     -12.3      4.227      6.418
REMARK SMILES O=C(C[C@H](NC(=O)[C@]12C[C@H]3C[C@H](C[C@H](C3)C1)C2)c1cccc([N+](=O)[O-])c1)OCCOCCOC(=O)c1ccc(-c2c3nc(c(-c4c(F)c(F)c(F)c(F)c4F)c4ccc([nH]4)c(-c4c(F)c(F)c(F)c(F)c4F)c4nc(c(-c5c(F)c(F)c(F)c(F)c5F)c5ccc2[nH]5)C=C4)C=C3)cc1
REMARK SMILES IDX 29 1 28 2 27 3 2 4 1 5 3 6 4 7 18 8 19 9 26 10 20 11 22 12
REMARK SMILES IDX 21 13 23 14 24 15 25 16 5 17 6 18 7 20 8 21 9 22 16 23 17 24
REMARK SMILES IDX 10 25 14 26 12 27 11 28 15 29 13 30 30 31 31 32 32 33 33 34
REMARK SMILES IDX 34 35 35 36 36 37 37 38 98 39 38 40 97 41 39 42 40 43 41 44
REMARK SMILES IDX 91 45 42 46 96 47 90 48 92 49 43 50 95 51 89 52 88 53 44 55
REMARK SMILES IDX 76 56 56 57 75 58 57 59 60 60 74 61 93 62 58 63 59 64 73 66
REMARK SMILES IDX 94 67 61 68 45 69 46 70 54 71 47 72 48 73 52 74 55 75 49 76
REMARK SMILES IDX 50 77 53 78 51 79 77 80 78 81 86 82 79 83 80 84 84 85 87 86
REMARK SMILES IDX 81 87 82 88 85 89 83 90 62 91 63 92 71 93 64 94 65 95 69 96
REMARK SMILES IDX 72 97 66 98 67 99 70 100 68 101
REMARK H PARENT 5 19 92 54 60 65
REMARK Flexibility Score: inf
ROOT
ATOM      1  C   UNL A   1      33.195  30.290  27.343  1.00  0.00     0.202 C 
ENDROOT
BRANCH   1   2
ATOM      2  C   UNL A   1      34.049  29.156  26.757  1.00  0.00     0.261 C 
BRANCH   2   3
ATOM      3  O   UNL A   1      33.389  28.121  26.016  1.00  0.00    -0.463 OA
BRANCH   3   4
ATOM      4  C   UNL A   1      33.096  28.401  24.738  1.00  0.00     0.308 C 
ATOM      5  O   UNL A   1      33.972  28.549  23.894  1.00  0.00    -0.252 OA
BRANCH   4   6
ATOM      6  C   UNL A   1      31.633  28.581  24.453  1.00  0.00     0.152 C 
BRANCH   6   7
ATOM      7  C   UNL A   1      30.918  27.481  23.694  1.00  0.00     0.123 C 
BRANCH   7   8
ATOM      8  C   UNL A   1      29.568  28.102  23.254  1.00  0.00    -0.018 A 
ATOM      9  C   UNL A   1      28.354  27.442  23.501  1.00  0.00     0.006 A 
ATOM     10  C   UNL A   1      29.520  29.452  22.838  1.00  0.00     0.091 A 
ATOM     11  C   UNL A   1      27.134  28.134  23.439  1.00  0.00     0.007 A 
ATOM     12  C   UNL A   1      28.298  30.142  22.796  1.00  0.00     0.269 A 
ATOM     13  C   UNL A   1      27.102  29.489  23.109  1.00  0.00     0.085 A 
BRANCH  12  14
ATOM     14  N   UNL A   1      28.284  31.582  22.503  1.00  0.00     0.062 N 
ATOM     15  O   UNL A   1      28.897  31.972  21.499  1.00  0.00    -0.258 OA
ATOM     16  O   UNL A   1      27.656  32.319  23.277  1.00  0.00    -0.258 OA
ENDBRANCH  12  14
ENDBRANCH   7   8
BRANCH   7  17
ATOM     17  N   UNL A   1      31.598  26.897  22.518  1.00  0.00    -0.348 N 
ATOM     18  C   UNL A   1      32.104  25.693  22.114  1.00  0.00     0.226 C 
ATOM     19  H   UNL A   1      31.721  27.576  21.816  1.00  0.00     0.164 HD
ATOM     20  O   UNL A   1      32.264  25.578  20.894  1.00  0.00    -0.274 OA
BRANCH  18  21
ATOM     21  C   UNL A   1      32.565  24.563  23.060  1.00  0.00     0.050 C 
ATOM     22  C   UNL A   1      33.918  24.988  23.703  1.00  0.00     0.020 C 
ATOM     23  C   UNL A   1      32.908  23.230  22.311  1.00  0.00     0.020 C 
ATOM     24  C   UNL A   1      31.441  24.117  24.025  1.00  0.00     0.020 C 
ATOM     25  C   UNL A   1      34.375  23.969  24.748  1.00  0.00    -0.010 C 
ATOM     26  C   UNL A   1      33.409  22.147  23.316  1.00  0.00    -0.010 C 
ATOM     27  C   UNL A   1      31.993  23.182  25.111  1.00  0.00    -0.010 C 
ATOM     28  C   UNL A   1      33.261  23.743  25.783  1.00  0.00     0.007 C 
ATOM     29  C   UNL A   1      34.680  22.651  24.022  1.00  0.00     0.007 C 
ATOM     30  C   UNL A   1      32.353  21.868  24.405  1.00  0.00     0.007 C 
ENDBRANCH  18  21
ENDBRANCH   7  17
ENDBRANCH   6   7
ENDBRANCH   4   6
ENDBRANCH   3   4
ENDBRANCH   2   3
ENDBRANCH   1   2
BRANCH   1  31
ATOM     31  O   UNL A   1      33.283  31.563  26.700  1.00  0.00    -0.374 OA
BRANCH  31  32
ATOM     32  C   UNL A   1      32.178  32.459  26.929  1.00  0.00     0.202 C 
BRANCH  32  33
ATOM     33  C   UNL A   1      32.465  33.766  27.667  1.00  0.00     0.261 C 
BRANCH  33  34
ATOM     34  O   UNL A   1      33.860  34.071  27.620  1.00  0.00    -0.460 OA
BRANCH  34  35
ATOM     35  C   UNL A   1      34.413  34.318  28.831  1.00  0.00     0.338 C 
ATOM     36  O   UNL A   1      33.958  34.990  29.733  1.00  0.00    -0.246 OA
BRANCH  35  37
ATOM     37  C   UNL A   1      35.554  33.398  28.999  1.00  0.00     0.060 A 
ATOM     38  C   UNL A   1      35.261  32.049  29.257  1.00  0.00     0.016 A 
ATOM     39  C   UNL A   1      36.873  33.837  28.876  1.00  0.00     0.016 A 
ATOM     40  C   UNL A   1      36.281  31.132  29.418  1.00  0.00     0.010 A 
ATOM     41  C   UNL A   1      37.903  32.934  29.112  1.00  0.00     0.010 A 
ATOM     42  C   UNL A   1      37.596  31.601  29.435  1.00  0.00    -0.014 A 
BRANCH  42  43
ATOM     43  C   UNL A   1      38.589  30.795  30.158  1.00  0.00     0.031 A 
ATOM     44  C   UNL A   1      38.760  31.093  31.619  1.00  0.00     0.074 A 
ATOM     45  C   UNL A   1      39.266  29.823  29.538  1.00  0.00     0.049 A 
ATOM     46  N   UNL A   1      39.625  30.614  32.470  1.00  0.00    -0.248 NA
ATOM     47  C   UNL A   1      37.826  32.078  32.199  1.00  0.00     0.031 C 
ATOM     48  C   UNL A   1      39.092  29.426  28.142  1.00  0.00     0.029 A 
ATOM     49  N   UNL A   1      40.253  29.003  30.009  1.00  0.00    -0.354 N 
ATOM     50  C   UNL A   1      39.353  31.255  33.672  1.00  0.00     0.074 A 
ATOM     51  C   UNL A   1      38.263  32.172  33.442  1.00  0.00     0.031 C 
ATOM     52  C   UNL A   1      39.972  28.452  27.859  1.00  0.00     0.029 A 
ATOM     53  C   UNL A   1      40.791  28.197  29.041  1.00  0.00     0.049 A 
ATOM     54  H   UNL A   1      40.545  28.992  30.949  1.00  0.00     0.167 HD
ATOM     55  C   UNL A   1      39.971  31.086  34.862  1.00  0.00     0.037 A 
ATOM     56  C   UNL A   1      41.858  27.381  29.114  1.00  0.00     0.037 A 
ATOM     57  C   UNL A   1      41.062  30.172  35.051  1.00  0.00     0.049 A 
ATOM     58  C   UNL A   1      42.584  27.268  30.429  1.00  0.00     0.074 A 
ATOM     59  C   UNL A   1      41.775  29.903  36.201  1.00  0.00     0.029 A 
ATOM     60  N   UNL A   1      41.602  29.380  34.044  1.00  0.00    -0.354 N 
ATOM     61  N   UNL A   1      42.335  27.871  31.568  1.00  0.00    -0.248 NA
ATOM     62  C   UNL A   1      43.736  26.361  30.470  1.00  0.00     0.031 C 
ATOM     63  C   UNL A   1      42.789  28.997  35.876  1.00  0.00     0.029 A 
ATOM     64  C   UNL A   1      42.659  28.641  34.540  1.00  0.00     0.049 A 
ATOM     65  H   UNL A   1      41.279  29.353  33.114  1.00  0.00     0.167 HD
ATOM     66  C   UNL A   1      43.273  27.390  32.472  1.00  0.00     0.074 A 
ATOM     67  C   UNL A   1      44.093  26.441  31.745  1.00  0.00     0.031 C 
ATOM     68  C   UNL A   1      43.442  27.697  33.784  1.00  0.00     0.037 A 
BRANCH  55  69
ATOM     69  C   UNL A   1      39.514  31.943  36.006  1.00  0.00     0.064 A 
ATOM     70  C   UNL A   1      40.153  33.148  36.339  1.00  0.00     0.173 A 
ATOM     71  C   UNL A   1      38.424  31.543  36.794  1.00  0.00     0.173 A 
ATOM     72  F   UNL A   1      41.218  33.564  35.637  1.00  0.00    -0.203 F 
ATOM     73  C   UNL A   1      39.739  33.902  37.435  1.00  0.00     0.198 A 
ATOM     74  C   UNL A   1      37.989  32.317  37.866  1.00  0.00     0.198 A 
ATOM     75  F   UNL A   1      37.782  30.396  36.527  1.00  0.00    -0.203 F 
ATOM     76  F   UNL A   1      40.406  35.015  37.772  1.00  0.00    -0.200 F 
ATOM     77  C   UNL A   1      38.653  33.490  38.192  1.00  0.00     0.200 A 
ATOM     78  F   UNL A   1      36.934  31.922  38.591  1.00  0.00    -0.200 F 
ATOM     79  F   UNL A   1      38.252  34.218  39.244  1.00  0.00    -0.200 F 
ENDBRANCH  55  69
BRANCH  56  80
ATOM     80  C   UNL A   1      42.297  26.633  27.909  1.00  0.00     0.064 A 
ATOM     81  C   UNL A   1      43.210  27.192  27.006  1.00  0.00     0.173 A 
ATOM     82  C   UNL A   1      41.829  25.337  27.646  1.00  0.00     0.173 A 
ATOM     83  F   UNL A   1      43.675  28.434  27.206  1.00  0.00    -0.203 F 
ATOM     84  C   UNL A   1      43.627  26.489  25.876  1.00  0.00     0.198 A 
ATOM     85  C   UNL A   1      42.270  24.623  26.533  1.00  0.00     0.198 A 
ATOM     86  F   UNL A   1      40.958  24.753  28.483  1.00  0.00    -0.203 F 
ATOM     87  F   UNL A   1      44.472  27.062  25.009  1.00  0.00    -0.200 F 
ATOM     88  C   UNL A   1      43.163  25.203  25.646  1.00  0.00     0.200 A 
ATOM     89  F   UNL A   1      41.831  23.374  26.325  1.00  0.00    -0.200 F 
ATOM     90  F   UNL A   1      43.572  24.524  24.566  1.00  0.00    -0.200 F 
ENDBRANCH  56  80
BRANCH  68  91
ATOM     91  C   UNL A   1      44.515  26.955  34.527  1.00  0.00     0.064 A 
ATOM     92  C   UNL A   1      44.277  25.710  35.126  1.00  0.00     0.173 A 
ATOM     93  C   UNL A   1      45.816  27.476  34.584  1.00  0.00     0.173 A 
ATOM     94  F   UNL A   1      43.045  25.176  35.108  1.00  0.00    -0.203 F 
ATOM     95  C   UNL A   1      45.298  25.027  35.780  1.00  0.00     0.198 A 
ATOM     96  C   UNL A   1      46.843  26.773  35.205  1.00  0.00     0.198 A 
ATOM     97  F   UNL A   1      46.098  28.658  34.015  1.00  0.00    -0.203 F 
ATOM     98  F   UNL A   1      45.037  23.864  36.391  1.00  0.00    -0.200 F 
ATOM     99  C   UNL A   1      46.581  25.554  35.810  1.00  0.00     0.200 A 
ATOM    100  F   UNL A   1      48.085  27.273  35.215  1.00  0.00    -0.200 F 
ATOM    101  F   UNL A   1      47.565  24.886  36.428  1.00  0.00    -0.200 F 
ENDBRANCH  68  91
ENDBRANCH  42  43
ENDBRANCH  35  37
ENDBRANCH  34  35
ENDBRANCH  33  34
ENDBRANCH  32  33
ENDBRANCH  31  32
ENDBRANCH   1  31
TORSDOF 19
ENDMDL
