MODEL 1
REMARK VINA RESULT:     -12.8      0.000      0.000
REMARK SMILES Cc1ccc(S(=O)(=O)N2c3ccc(C(=O)OCCOCCOC(=O)c4ccc(-c5c6nc(c(-c7c(F)c(F)c(F)c(F)c7F)c7ccc([nH]7)c(-c7c(F)c(F)c(F)c(F)c7F)c7nc(c(-c8c(F)c(F)c(F)c(F)c8F)c8ccc5[nH]8)C=C7)C=C6)cc4)cc3C[C@H]2C)cc1
REMARK SMILES IDX 19 1 18 2 17 3 16 4 14 5 15 6 13 7 9 8 10 9 91 10 11 11
REMARK SMILES IDX 89 12 90 13 92 14 12 15 88 16 6 17 7 18 8 19 5 20 1 21 2 22
REMARK SMILES IDX 3 23 94 24 4 25 93 26 20 27 21 28 22 29 23 30 24 31 25 32
REMARK SMILES IDX 26 33 87 34 27 35 86 36 28 37 29 38 30 39 80 40 31 41 85 42
REMARK SMILES IDX 79 43 81 44 32 45 84 46 78 47 77 48 33 50 65 51 45 52 64 53
REMARK SMILES IDX 46 54 49 55 63 56 82 57 47 58 48 59 62 61 83 62 50 63 34 64
REMARK SMILES IDX 35 65 43 66 36 67 37 68 41 69 44 70 38 71 39 72 42 73 40 74
REMARK SMILES IDX 66 75 67 76 75 77 68 78 69 79 73 80 76 81 70 82 71 83 74 84
REMARK SMILES IDX 72 85 51 86 52 87 60 88 53 89 54 90 58 91 61 92 55 93 56 94
REMARK SMILES IDX 59 95 57 96
REMARK H PARENT 81 49 49 60
REMARK Flexibility Score: inf
ROOT
ATOM      1  O   UNL A   1      31.754  28.886  26.104  1.00  0.00    -0.374 OA
ENDROOT
BRANCH   1   2
ATOM      2  C   UNL A   1      31.402  29.749  25.035  1.00  0.00     0.202 C 
BRANCH   2   3
ATOM      3  C   UNL A   1      31.790  29.000  23.806  1.00  0.00     0.261 C 
BRANCH   3   4
ATOM      4  O   UNL A   1      33.125  28.517  23.914  1.00  0.00    -0.460 OA
BRANCH   4   5
ATOM      5  C   UNL A   1      33.653  27.800  22.877  1.00  0.00     0.338 C 
ATOM      6  O   UNL A   1      34.335  28.170  21.961  1.00  0.00    -0.246 OA
BRANCH   5   7
ATOM      7  C   UNL A   1      33.360  26.405  23.237  1.00  0.00     0.060 A 
ATOM      8  N   UNL A   1      31.600  22.940  24.650  1.00  0.00    -0.263 N 
ATOM      9  C   UNL A   1      32.164  24.107  24.036  1.00  0.00     0.055 A 
ATOM     10  C   UNL A   1      31.650  23.263  26.134  1.00  0.00     0.101 C 
ATOM     11  C   UNL A   1      32.131  24.397  22.690  1.00  0.00     0.028 A 
ATOM     12  C   UNL A   1      32.828  24.907  24.969  1.00  0.00    -0.021 A 
ATOM     13  C   UNL A   1      32.760  24.314  26.331  1.00  0.00     0.063 C 
ATOM     14  C   UNL A   1      30.276  23.849  26.511  1.00  0.00     0.032 C 
ATOM     15  C   UNL A   1      32.775  25.544  22.281  1.00  0.00     0.018 A 
ATOM     16  C   UNL A   1      33.452  26.070  24.585  1.00  0.00     0.021 A 
BRANCH   8  17
ATOM     17  S   UNL A   1      32.469  21.562  24.087  1.00  0.00     0.264 S 
ATOM     18  O   UNL A   1      32.437  21.581  22.638  1.00  0.00    -0.201 OA
ATOM     19  O   UNL A   1      32.000  20.403  24.826  1.00  0.00    -0.201 OA
BRANCH  17  20
ATOM     20  C   UNL A   1      34.161  21.738  24.549  1.00  0.00     0.088 A 
ATOM     21  C   UNL A   1      38.113  22.901  25.693  1.00  0.00     0.044 C 
ATOM     22  C   UNL A   1      36.752  22.442  25.270  1.00  0.00    -0.051 A 
ATOM     23  C   UNL A   1      36.265  22.785  24.005  1.00  0.00     0.005 A 
ATOM     24  C   UNL A   1      35.969  21.661  26.126  1.00  0.00     0.005 A 
ATOM     25  C   UNL A   1      34.967  22.444  23.648  1.00  0.00     0.022 A 
ATOM     26  C   UNL A   1      34.683  21.281  25.753  1.00  0.00     0.022 A 
ENDBRANCH  17  20
ENDBRANCH   8  17
ENDBRANCH   5   7
ENDBRANCH   4   5
ENDBRANCH   3   4
ENDBRANCH   2   3
ENDBRANCH   1   2
BRANCH   1  27
ATOM     27  C   UNL A   1      32.344  29.512  27.223  1.00  0.00     0.202 C 
BRANCH  27  28
ATOM     28  C   UNL A   1      33.501  30.446  26.840  1.00  0.00     0.261 C 
BRANCH  28  29
ATOM     29  O   UNL A   1      33.985  31.117  28.026  1.00  0.00    -0.460 OA
BRANCH  29  30
ATOM     30  C   UNL A   1      35.289  31.518  28.015  1.00  0.00     0.338 C 
ATOM     31  O   UNL A   1      35.690  32.613  27.655  1.00  0.00    -0.246 OA
BRANCH  30  32
ATOM     32  C   UNL A   1      36.180  30.332  28.211  1.00  0.00     0.060 A 
ATOM     33  C   UNL A   1      36.270  29.708  29.474  1.00  0.00     0.016 A 
ATOM     34  C   UNL A   1      37.152  30.078  27.250  1.00  0.00     0.016 A 
ATOM     35  C   UNL A   1      37.410  28.955  29.822  1.00  0.00     0.010 A 
ATOM     36  C   UNL A   1      38.309  29.429  27.630  1.00  0.00     0.010 A 
ATOM     37  C   UNL A   1      38.470  28.882  28.920  1.00  0.00    -0.014 A 
BRANCH  37  38
ATOM     38  C   UNL A   1      39.839  28.415  29.199  1.00  0.00     0.031 A 
ATOM     39  C   UNL A   1      40.199  27.036  28.786  1.00  0.00     0.074 A 
ATOM     40  C   UNL A   1      40.839  29.293  29.477  1.00  0.00     0.049 A 
ATOM     41  N   UNL A   1      41.323  26.470  29.053  1.00  0.00    -0.248 NA
ATOM     42  C   UNL A   1      39.309  26.170  28.019  1.00  0.00     0.031 C 
ATOM     43  C   UNL A   1      42.269  29.162  29.172  1.00  0.00     0.029 A 
ATOM     44  N   UNL A   1      40.768  30.554  30.080  1.00  0.00    -0.354 N 
ATOM     45  C   UNL A   1      41.441  25.362  28.248  1.00  0.00     0.074 A 
ATOM     46  C   UNL A   1      40.141  25.197  27.646  1.00  0.00     0.031 C 
ATOM     47  C   UNL A   1      42.961  30.136  29.789  1.00  0.00     0.029 A 
ATOM     48  C   UNL A   1      42.026  30.871  30.619  1.00  0.00     0.049 A 
ATOM     49  H   UNL A   1      39.969  31.126  30.118  1.00  0.00     0.167 HD
ATOM     50  C   UNL A   1      42.671  24.790  28.103  1.00  0.00     0.037 A 
ATOM     51  C   UNL A   1      42.137  31.170  31.940  1.00  0.00     0.037 A 
ATOM     52  C   UNL A   1      43.665  25.495  28.927  1.00  0.00     0.049 A 
ATOM     53  C   UNL A   1      42.865  30.037  32.597  1.00  0.00     0.074 A 
ATOM     54  C   UNL A   1      44.639  26.438  28.631  1.00  0.00     0.029 A 
ATOM     55  N   UNL A   1      43.479  25.562  30.312  1.00  0.00    -0.354 N 
ATOM     56  N   UNL A   1      42.975  28.865  32.028  1.00  0.00    -0.248 NA
ATOM     57  C   UNL A   1      43.607  30.125  33.847  1.00  0.00     0.031 C 
ATOM     58  C   UNL A   1      44.965  27.128  29.833  1.00  0.00     0.029 A 
ATOM     59  C   UNL A   1      44.218  26.592  30.873  1.00  0.00     0.049 A 
ATOM     60  H   UNL A   1      42.897  24.956  30.823  1.00  0.00     0.167 HD
ATOM     61  C   UNL A   1      43.834  28.094  32.733  1.00  0.00     0.074 A 
ATOM     62  C   UNL A   1      44.174  28.904  33.892  1.00  0.00     0.031 C 
ATOM     63  C   UNL A   1      44.201  26.850  32.312  1.00  0.00     0.037 A 
BRANCH  50  64
ATOM     64  C   UNL A   1      42.990  23.774  27.024  1.00  0.00     0.064 A 
ATOM     65  C   UNL A   1      42.623  22.419  27.159  1.00  0.00     0.173 A 
ATOM     66  C   UNL A   1      43.684  24.072  25.832  1.00  0.00     0.173 A 
ATOM     67  F   UNL A   1      41.885  21.996  28.192  1.00  0.00    -0.203 F 
ATOM     68  C   UNL A   1      43.001  21.439  26.231  1.00  0.00     0.198 A 
ATOM     69  C   UNL A   1      44.122  23.084  24.941  1.00  0.00     0.198 A 
ATOM     70  F   UNL A   1      43.904  25.336  25.451  1.00  0.00    -0.203 F 
ATOM     71  F   UNL A   1      42.608  20.168  26.408  1.00  0.00    -0.200 F 
ATOM     72  C   UNL A   1      43.781  21.766  25.141  1.00  0.00     0.200 A 
ATOM     73  F   UNL A   1      44.864  23.429  23.878  1.00  0.00    -0.200 F 
ATOM     74  F   UNL A   1      44.173  20.823  24.273  1.00  0.00    -0.200 F 
ENDBRANCH  50  64
BRANCH  51  75
ATOM     75  C   UNL A   1      40.965  31.977  32.399  1.00  0.00     0.064 A 
ATOM     76  C   UNL A   1      40.013  31.283  33.186  1.00  0.00     0.173 A 
ATOM     77  C   UNL A   1      41.042  33.367  32.578  1.00  0.00     0.173 A 
ATOM     78  F   UNL A   1      39.923  29.945  33.099  1.00  0.00    -0.203 F 
ATOM     79  C   UNL A   1      39.291  31.920  34.197  1.00  0.00     0.198 A 
ATOM     80  C   UNL A   1      40.319  34.000  33.598  1.00  0.00     0.198 A 
ATOM     81  F   UNL A   1      41.937  34.087  31.888  1.00  0.00    -0.203 F 
ATOM     82  F   UNL A   1      38.549  31.195  35.048  1.00  0.00    -0.200 F 
ATOM     83  C   UNL A   1      39.474  33.272  34.425  1.00  0.00     0.200 A 
ATOM     84  F   UNL A   1      40.536  35.296  33.866  1.00  0.00    -0.200 F 
ATOM     85  F   UNL A   1      38.924  33.847  35.506  1.00  0.00    -0.200 F 
ENDBRANCH  51  75
BRANCH  63  86
ATOM     86  C   UNL A   1      44.678  25.810  33.273  1.00  0.00     0.064 A 
ATOM     87  C   UNL A   1      46.020  25.393  33.324  1.00  0.00     0.173 A 
ATOM     88  C   UNL A   1      43.834  25.320  34.290  1.00  0.00     0.173 A 
ATOM     89  F   UNL A   1      46.948  25.911  32.504  1.00  0.00    -0.203 F 
ATOM     90  C   UNL A   1      46.464  24.467  34.259  1.00  0.00     0.198 A 
ATOM     91  C   UNL A   1      44.301  24.451  35.270  1.00  0.00     0.198 A 
ATOM     92  F   UNL A   1      42.551  25.696  34.381  1.00  0.00    -0.203 F 
ATOM     93  F   UNL A   1      47.737  24.048  34.222  1.00  0.00    -0.200 F 
ATOM     94  C   UNL A   1      45.608  24.002  35.237  1.00  0.00     0.200 A 
ATOM     95  F   UNL A   1      43.483  24.067  36.259  1.00  0.00    -0.200 F 
ATOM     96  F   UNL A   1      46.047  23.141  36.162  1.00  0.00    -0.200 F 
ENDBRANCH  63  86
ENDBRANCH  37  38
ENDBRANCH  30  32
ENDBRANCH  29  30
ENDBRANCH  28  29
ENDBRANCH  27  28
ENDBRANCH   1  27
TORSDOF 16
ENDMDL
MODEL 2
REMARK VINA RESULT:     -12.8      1.426      2.540
REMARK SMILES Cc1ccc(S(=O)(=O)N2c3ccc(C(=O)OCCOCCOC(=O)c4ccc(-c5c6nc(c(-c7c(F)c(F)c(F)c(F)c7F)c7ccc([nH]7)c(-c7c(F)c(F)c(F)c(F)c7F)c7nc(c(-c8c(F)c(F)c(F)c(F)c8F)c8ccc5[nH]8)C=C7)C=C6)cc4)cc3C[C@H]2C)cc1
REMARK SMILES IDX 19 1 18 2 17 3 16 4 14 5 15 6 13 7 9 8 10 9 91 10 11 11
REMARK SMILES IDX 89 12 90 13 92 14 12 15 88 16 6 17 7 18 8 19 5 20 1 21 2 22
REMARK SMILES IDX 3 23 94 24 4 25 93 26 20 27 21 28 22 29 23 30 24 31 25 32
REMARK SMILES IDX 26 33 87 34 27 35 86 36 28 37 29 38 30 39 80 40 31 41 85 42
REMARK SMILES IDX 79 43 81 44 32 45 84 46 78 47 77 48 33 50 65 51 45 52 64 53
REMARK SMILES IDX 46 54 49 55 63 56 82 57 47 58 48 59 62 61 83 62 50 63 34 64
REMARK SMILES IDX 35 65 43 66 36 67 37 68 41 69 44 70 38 71 39 72 42 73 40 74
REMARK SMILES IDX 66 75 67 76 75 77 68 78 69 79 73 80 76 81 70 82 71 83 74 84
REMARK SMILES IDX 72 85 51 86 52 87 60 88 53 89 54 90 58 91 61 92 55 93 56 94
REMARK SMILES IDX 59 95 57 96
REMARK H PARENT 81 49 49 60
REMARK Flexibility Score: inf
ROOT
ATOM      1  O   UNL A   1      32.697  29.502  25.159  1.00  0.00    -0.374 OA
ENDROOT
BRANCH   1   2
ATOM      2  C   UNL A   1      31.410  30.083  25.288  1.00  0.00     0.202 C 
BRANCH   2   3
ATOM      3  C   UNL A   1      30.645  29.563  24.119  1.00  0.00     0.261 C 
BRANCH   3   4
ATOM      4  O   UNL A   1      30.521  28.146  24.191  1.00  0.00    -0.460 OA
BRANCH   4   5
ATOM      5  C   UNL A   1      30.726  27.408  23.060  1.00  0.00     0.338 C 
ATOM      6  O   UNL A   1      30.647  27.737  21.908  1.00  0.00    -0.246 OA
BRANCH   5   7
ATOM      7  C   UNL A   1      31.270  26.139  23.568  1.00  0.00     0.060 A 
ATOM      8  N   UNL A   1      33.770  23.104  24.847  1.00  0.00    -0.263 N 
ATOM      9  C   UNL A   1      32.884  24.188  24.535  1.00  0.00     0.055 A 
ATOM     10  C   UNL A   1      34.445  22.806  23.517  1.00  0.00     0.101 C 
ATOM     11  C   UNL A   1      32.215  24.963  25.456  1.00  0.00     0.028 A 
ATOM     12  C   UNL A   1      32.715  24.332  23.155  1.00  0.00    -0.021 A 
ATOM     13  C   UNL A   1      33.502  23.315  22.408  1.00  0.00     0.063 C 
ATOM     14  C   UNL A   1      35.771  23.590  23.503  1.00  0.00     0.032 C 
ATOM     15  C   UNL A   1      31.364  25.928  24.962  1.00  0.00     0.018 A 
ATOM     16  C   UNL A   1      31.892  25.306  22.643  1.00  0.00     0.021 A 
BRANCH   8  17
ATOM     17  S   UNL A   1      32.849  21.851  25.590  1.00  0.00     0.264 S 
ATOM     18  O   UNL A   1      31.447  22.133  25.351  1.00  0.00    -0.201 OA
ATOM     19  O   UNL A   1      33.350  21.667  26.941  1.00  0.00    -0.201 OA
BRANCH  17  20
ATOM     20  C   UNL A   1      33.199  20.333  24.767  1.00  0.00     0.088 A 
ATOM     21  C   UNL A   1      34.027  16.348  23.458  1.00  0.00     0.044 C 
ATOM     22  C   UNL A   1      33.762  17.764  23.865  1.00  0.00    -0.051 A 
ATOM     23  C   UNL A   1      34.710  18.458  24.626  1.00  0.00     0.005 A 
ATOM     24  C   UNL A   1      32.580  18.405  23.479  1.00  0.00     0.005 A 
ATOM     25  C   UNL A   1      34.424  19.736  25.087  1.00  0.00     0.022 A 
ATOM     26  C   UNL A   1      32.312  19.702  23.903  1.00  0.00     0.022 A 
ENDBRANCH  17  20
ENDBRANCH   8  17
ENDBRANCH   5   7
ENDBRANCH   4   5
ENDBRANCH   3   4
ENDBRANCH   2   3
ENDBRANCH   1   2
BRANCH   1  27
ATOM     27  C   UNL A   1      33.357  29.209  26.371  1.00  0.00     0.202 C 
BRANCH  27  28
ATOM     28  C   UNL A   1      33.262  30.352  27.392  1.00  0.00     0.261 C 
BRANCH  28  29
ATOM     29  O   UNL A   1      34.413  31.216  27.250  1.00  0.00    -0.460 OA
BRANCH  29  30
ATOM     30  C   UNL A   1      35.172  31.416  28.366  1.00  0.00     0.338 C 
ATOM     31  O   UNL A   1      35.275  32.470  28.972  1.00  0.00    -0.246 OA
BRANCH  30  32
ATOM     32  C   UNL A   1      36.096  30.255  28.560  1.00  0.00     0.060 A 
ATOM     33  C   UNL A   1      36.261  29.680  29.839  1.00  0.00     0.016 A 
ATOM     34  C   UNL A   1      37.023  29.982  27.561  1.00  0.00     0.016 A 
ATOM     35  C   UNL A   1      37.431  28.961  30.157  1.00  0.00     0.010 A 
ATOM     36  C   UNL A   1      38.211  29.370  27.906  1.00  0.00     0.010 A 
ATOM     37  C   UNL A   1      38.446  28.874  29.205  1.00  0.00    -0.014 A 
BRANCH  37  38
ATOM     38  C   UNL A   1      39.837  28.443  29.432  1.00  0.00     0.031 A 
ATOM     39  C   UNL A   1      40.222  27.080  28.990  1.00  0.00     0.074 A 
ATOM     40  C   UNL A   1      40.820  29.346  29.689  1.00  0.00     0.049 A 
ATOM     41  N   UNL A   1      41.369  26.544  29.211  1.00  0.00    -0.248 NA
ATOM     42  C   UNL A   1      39.330  26.198  28.242  1.00  0.00     0.031 C 
ATOM     43  C   UNL A   1      42.242  29.260  29.334  1.00  0.00     0.029 A 
ATOM     44  N   UNL A   1      40.735  30.597  30.310  1.00  0.00    -0.354 N 
ATOM     45  C   UNL A   1      41.491  25.449  28.389  1.00  0.00     0.074 A 
ATOM     46  C   UNL A   1      40.176  25.254  27.828  1.00  0.00     0.031 C 
ATOM     47  C   UNL A   1      42.927  30.246  29.940  1.00  0.00     0.029 A 
ATOM     48  C   UNL A   1      42.001  30.943  30.811  1.00  0.00     0.049 A 
ATOM     49  H   UNL A   1      39.921  31.145  30.383  1.00  0.00     0.167 HD
ATOM     50  C   UNL A   1      42.731  24.914  28.194  1.00  0.00     0.037 A 
ATOM     51  C   UNL A   1      42.148  31.229  32.131  1.00  0.00     0.037 A 
ATOM     52  C   UNL A   1      43.732  25.637  28.993  1.00  0.00     0.049 A 
ATOM     53  C   UNL A   1      42.930  30.109  32.748  1.00  0.00     0.074 A 
ATOM     54  C   UNL A   1      44.668  26.611  28.678  1.00  0.00     0.029 A 
ATOM     55  N   UNL A   1      43.592  25.682  30.385  1.00  0.00    -0.354 N 
ATOM     56  N   UNL A   1      43.053  28.948  32.161  1.00  0.00    -0.248 NA
ATOM     57  C   UNL A   1      43.711  30.203  33.974  1.00  0.00     0.031 C 
ATOM     58  C   UNL A   1      45.015  27.295  29.877  1.00  0.00     0.029 A 
ATOM     59  C   UNL A   1      44.319  26.726  30.935  1.00  0.00     0.049 A 
ATOM     60  H   UNL A   1      43.044  25.053  30.908  1.00  0.00     0.167 HD
ATOM     61  C   UNL A   1      43.957  28.193  32.826  1.00  0.00     0.074 A 
ATOM     62  C   UNL A   1      44.313  28.999  33.983  1.00  0.00     0.031 C 
ATOM     63  C   UNL A   1      44.344  26.966  32.377  1.00  0.00     0.037 A 
BRANCH  50  64
ATOM     64  C   UNL A   1      43.042  23.921  27.092  1.00  0.00     0.064 A 
ATOM     65  C   UNL A   1      42.700  22.558  27.213  1.00  0.00     0.173 A 
ATOM     66  C   UNL A   1      43.703  24.250  25.889  1.00  0.00     0.173 A 
ATOM     67  F   UNL A   1      41.993  22.106  28.256  1.00  0.00    -0.203 F 
ATOM     68  C   UNL A   1      43.073  21.599  26.261  1.00  0.00     0.198 A 
ATOM     69  C   UNL A   1      44.136  23.284  24.972  1.00  0.00     0.198 A 
ATOM     70  F   UNL A   1      43.893  25.523  25.524  1.00  0.00    -0.203 F 
ATOM     71  F   UNL A   1      42.705  20.320  26.426  1.00  0.00    -0.200 F 
ATOM     72  C   UNL A   1      43.822  21.957  25.159  1.00  0.00     0.200 A 
ATOM     73  F   UNL A   1      44.848  23.658  23.899  1.00  0.00    -0.200 F 
ATOM     74  F   UNL A   1      44.209  21.034  24.267  1.00  0.00    -0.200 F 
ENDBRANCH  50  64
BRANCH  51  75
ATOM     75  C   UNL A   1      40.969  31.996  32.640  1.00  0.00     0.064 A 
ATOM     76  C   UNL A   1      40.782  33.281  32.074  1.00  0.00     0.173 A 
ATOM     77  C   UNL A   1      39.829  31.356  33.150  1.00  0.00     0.173 A 
ATOM     78  F   UNL A   1      41.824  33.926  31.523  1.00  0.00    -0.203 F 
ATOM     79  C   UNL A   1      39.509  33.825  31.892  1.00  0.00     0.198 A 
ATOM     80  C   UNL A   1      38.554  31.905  32.961  1.00  0.00     0.198 A 
ATOM     81  F   UNL A   1      39.925  30.128  33.677  1.00  0.00    -0.203 F 
ATOM     82  F   UNL A   1      39.358  34.950  31.177  1.00  0.00    -0.200 F 
ATOM     83  C   UNL A   1      38.394  33.117  32.304  1.00  0.00     0.200 A 
ATOM     84  F   UNL A   1      37.465  31.199  33.301  1.00  0.00    -0.200 F 
ATOM     85  F   UNL A   1      37.168  33.550  31.969  1.00  0.00    -0.200 F 
ENDBRANCH  51  75
BRANCH  63  86
ATOM     86  C   UNL A   1      44.883  25.928  33.307  1.00  0.00     0.064 A 
ATOM     87  C   UNL A   1      44.055  25.200  34.180  1.00  0.00     0.173 A 
ATOM     88  C   UNL A   1      46.227  25.511  33.229  1.00  0.00     0.173 A 
ATOM     89  F   UNL A   1      42.730  25.405  34.226  1.00  0.00    -0.203 F 
ATOM     90  C   UNL A   1      44.559  24.197  35.000  1.00  0.00     0.198 A 
ATOM     91  C   UNL A   1      46.709  24.456  33.995  1.00  0.00     0.198 A 
ATOM     92  F   UNL A   1      47.094  26.088  32.385  1.00  0.00    -0.203 F 
ATOM     93  F   UNL A   1      43.744  23.581  35.867  1.00  0.00    -0.200 F 
ATOM     94  C   UNL A   1      45.883  23.819  34.901  1.00  0.00     0.200 A 
ATOM     95  F   UNL A   1      47.975  24.046  33.837  1.00  0.00    -0.200 F 
ATOM     96  F   UNL A   1      46.357  22.826  35.662  1.00  0.00    -0.200 F 
ENDBRANCH  63  86
ENDBRANCH  37  38
ENDBRANCH  30  32
ENDBRANCH  29  30
ENDBRANCH  28  29
ENDBRANCH  27  28
ENDBRANCH   1  27
TORSDOF 16
ENDMDL
MODEL 3
REMARK VINA RESULT:     -12.5      3.516      9.572
REMARK SMILES Cc1ccc(S(=O)(=O)N2c3ccc(C(=O)OCCOCCOC(=O)c4ccc(-c5c6nc(c(-c7c(F)c(F)c(F)c(F)c7F)c7ccc([nH]7)c(-c7c(F)c(F)c(F)c(F)c7F)c7nc(c(-c8c(F)c(F)c(F)c(F)c8F)c8ccc5[nH]8)C=C7)C=C6)cc4)cc3C[C@H]2C)cc1
REMARK SMILES IDX 19 1 18 2 17 3 16 4 14 5 15 6 13 7 9 8 10 9 91 10 11 11
REMARK SMILES IDX 89 12 90 13 92 14 12 15 88 16 6 17 7 18 8 19 5 20 1 21 2 22
REMARK SMILES IDX 3 23 94 24 4 25 93 26 20 27 21 28 22 29 23 30 24 31 25 32
REMARK SMILES IDX 26 33 87 34 27 35 86 36 28 37 29 38 30 39 80 40 31 41 85 42
REMARK SMILES IDX 79 43 81 44 32 45 84 46 78 47 77 48 33 50 65 51 45 52 64 53
REMARK SMILES IDX 46 54 49 55 63 56 82 57 47 58 48 59 62 61 83 62 50 63 34 64
REMARK SMILES IDX 35 65 43 66 36 67 37 68 41 69 44 70 38 71 39 72 42 73 40 74
REMARK SMILES IDX 66 75 67 76 75 77 68 78 69 79 73 80 76 81 70 82 71 83 74 84
REMARK SMILES IDX 72 85 51 86 52 87 60 88 53 89 54 90 58 91 61 92 55 93 56 94
REMARK SMILES IDX 59 95 57 96
REMARK H PARENT 81 49 49 60
REMARK Flexibility Score: inf
ROOT
ATOM      1  O   UNL A   1      37.758  22.162  25.781  1.00  0.00    -0.374 OA
ENDROOT
BRANCH   1   2
ATOM      2  C   UNL A   1      36.925  22.076  24.636  1.00  0.00     0.202 C 
BRANCH   2   3
ATOM      3  C   UNL A   1      35.924  21.026  24.979  1.00  0.00     0.261 C 
BRANCH   3   4
ATOM      4  O   UNL A   1      34.605  21.561  24.945  1.00  0.00    -0.460 OA
BRANCH   4   5
ATOM      5  C   UNL A   1      34.104  22.151  26.071  1.00  0.00     0.338 C 
ATOM      6  O   UNL A   1      34.379  21.955  27.223  1.00  0.00    -0.246 OA
BRANCH   5   7
ATOM      7  C   UNL A   1      33.273  23.245  25.548  1.00  0.00     0.060 A 
ATOM      8  N   UNL A   1      31.175  25.833  23.098  1.00  0.00    -0.263 N 
ATOM      9  C   UNL A   1      31.784  24.873  23.972  1.00  0.00     0.055 A 
ATOM     10  C   UNL A   1      32.359  26.446  22.368  1.00  0.00     0.101 C 
ATOM     11  C   UNL A   1      31.114  23.900  24.681  1.00  0.00     0.028 A 
ATOM     12  C   UNL A   1      33.161  25.080  24.083  1.00  0.00    -0.021 A 
ATOM     13  C   UNL A   1      33.597  26.242  23.263  1.00  0.00     0.063 C 
ATOM     14  C   UNL A   1      32.516  25.674  21.043  1.00  0.00     0.032 C 
ATOM     15  C   UNL A   1      31.868  23.100  25.512  1.00  0.00     0.018 A 
ATOM     16  C   UNL A   1      33.934  24.276  24.885  1.00  0.00     0.021 A 
BRANCH   8  17
ATOM     17  S   UNL A   1      30.179  26.871  24.047  1.00  0.00     0.264 S 
ATOM     18  O   UNL A   1      29.412  26.039  24.953  1.00  0.00    -0.201 OA
ATOM     19  O   UNL A   1      29.517  27.801  23.150  1.00  0.00    -0.201 OA
BRANCH  17  20
ATOM     20  C   UNL A   1      31.217  27.877  25.056  1.00  0.00     0.088 A 
ATOM     21  C   UNL A   1      34.227  29.752  27.445  1.00  0.00     0.044 C 
ATOM     22  C   UNL A   1      33.131  29.131  26.635  1.00  0.00    -0.051 A 
ATOM     23  C   UNL A   1      32.476  27.991  27.111  1.00  0.00     0.005 A 
ATOM     24  C   UNL A   1      32.749  29.691  25.411  1.00  0.00     0.005 A 
ATOM     25  C   UNL A   1      31.528  27.357  26.318  1.00  0.00     0.022 A 
ATOM     26  C   UNL A   1      31.768  29.081  24.635  1.00  0.00     0.022 A 
ENDBRANCH  17  20
ENDBRANCH   8  17
ENDBRANCH   5   7
ENDBRANCH   4   5
ENDBRANCH   3   4
ENDBRANCH   2   3
ENDBRANCH   1   2
BRANCH   1  27
ATOM     27  C   UNL A   1      38.874  21.300  25.788  1.00  0.00     0.202 C 
BRANCH  27  28
ATOM     28  C   UNL A   1      39.937  21.711  26.817  1.00  0.00     0.261 C 
BRANCH  28  29
ATOM     29  O   UNL A   1      39.738  23.096  27.182  1.00  0.00    -0.460 OA
BRANCH  29  30
ATOM     30  C   UNL A   1      40.718  23.973  26.820  1.00  0.00     0.338 C 
ATOM     31  O   UNL A   1      41.874  23.676  26.566  1.00  0.00    -0.246 OA
BRANCH  30  32
ATOM     32  C   UNL A   1      40.260  25.373  27.081  1.00  0.00     0.060 A 
ATOM     33  C   UNL A   1      40.672  26.427  26.236  1.00  0.00     0.016 A 
ATOM     34  C   UNL A   1      39.723  25.665  28.329  1.00  0.00     0.016 A 
ATOM     35  C   UNL A   1      40.686  27.757  26.704  1.00  0.00     0.010 A 
ATOM     36  C   UNL A   1      39.837  26.951  28.817  1.00  0.00     0.010 A 
ATOM     37  C   UNL A   1      40.339  28.008  28.030  1.00  0.00    -0.014 A 
BRANCH  37  38
ATOM     38  C   UNL A   1      40.574  29.250  28.787  1.00  0.00     0.031 A 
ATOM     39  C   UNL A   1      39.448  30.207  28.916  1.00  0.00     0.074 A 
ATOM     40  C   UNL A   1      41.628  29.367  29.637  1.00  0.00     0.049 A 
ATOM     41  N   UNL A   1      39.542  31.367  29.463  1.00  0.00    -0.248 NA
ATOM     42  C   UNL A   1      38.098  29.927  28.434  1.00  0.00     0.031 C 
ATOM     43  C   UNL A   1      41.710  30.156  30.872  1.00  0.00     0.029 A 
ATOM     44  N   UNL A   1      42.880  28.744  29.588  1.00  0.00    -0.354 N 
ATOM     45  C   UNL A   1      38.269  31.823  29.709  1.00  0.00     0.074 A 
ATOM     46  C   UNL A   1      37.401  30.904  29.016  1.00  0.00     0.031 C 
ATOM     47  C   UNL A   1      42.979  30.181  31.318  1.00  0.00     0.029 A 
ATOM     48  C   UNL A   1      43.799  29.509  30.327  1.00  0.00     0.049 A 
ATOM     49  H   UNL A   1      43.085  27.907  29.113  1.00  0.00     0.167 HD
ATOM     50  C   UNL A   1      38.106  32.865  30.575  1.00  0.00     0.037 A 
ATOM     51  C   UNL A   1      44.931  29.964  29.732  1.00  0.00     0.037 A 
ATOM     52  C   UNL A   1      39.412  33.341  31.057  1.00  0.00     0.049 A 
ATOM     53  C   UNL A   1      44.799  31.450  29.592  1.00  0.00     0.074 A 
ATOM     54  C   UNL A   1      40.112  33.142  32.238  1.00  0.00     0.029 A 
ATOM     55  N   UNL A   1      40.352  33.807  30.132  1.00  0.00    -0.354 N 
ATOM     56  N   UNL A   1      43.641  32.051  29.677  1.00  0.00    -0.248 NA
ATOM     57  C   UNL A   1      45.907  32.386  29.461  1.00  0.00     0.031 C 
ATOM     58  C   UNL A   1      41.488  33.406  31.985  1.00  0.00     0.029 A 
ATOM     59  C   UNL A   1      41.633  33.796  30.660  1.00  0.00     0.049 A 
ATOM     60  H   UNL A   1      40.132  34.105  29.220  1.00  0.00     0.167 HD
ATOM     61  C   UNL A   1      43.823  33.391  29.711  1.00  0.00     0.074 A 
ATOM     62  C   UNL A   1      45.255  33.562  29.528  1.00  0.00     0.031 C 
ATOM     63  C   UNL A   1      42.785  34.257  29.887  1.00  0.00     0.037 A 
BRANCH  50  64
ATOM     64  C   UNL A   1      36.762  33.254  31.160  1.00  0.00     0.064 A 
ATOM     65  C   UNL A   1      35.794  33.932  30.389  1.00  0.00     0.173 A 
ATOM     66  C   UNL A   1      36.374  33.006  32.493  1.00  0.00     0.173 A 
ATOM     67  F   UNL A   1      35.978  34.162  29.084  1.00  0.00    -0.203 F 
ATOM     68  C   UNL A   1      34.591  34.401  30.933  1.00  0.00     0.198 A 
ATOM     69  C   UNL A   1      35.204  33.534  33.054  1.00  0.00     0.198 A 
ATOM     70  F   UNL A   1      37.078  32.187  33.283  1.00  0.00    -0.203 F 
ATOM     71  F   UNL A   1      33.703  35.025  30.144  1.00  0.00    -0.200 F 
ATOM     72  C   UNL A   1      34.312  34.234  32.273  1.00  0.00     0.200 A 
ATOM     73  F   UNL A   1      34.947  33.344  34.357  1.00  0.00    -0.200 F 
ATOM     74  F   UNL A   1      33.177  34.714  32.801  1.00  0.00    -0.200 F 
ENDBRANCH  50  64
BRANCH  51  75
ATOM     75  C   UNL A   1      45.484  28.938  28.794  1.00  0.00     0.064 A 
ATOM     76  C   UNL A   1      46.098  27.817  29.403  1.00  0.00     0.173 A 
ATOM     77  C   UNL A   1      44.962  28.753  27.504  1.00  0.00     0.173 A 
ATOM     78  F   UNL A   1      46.572  27.915  30.656  1.00  0.00    -0.203 F 
ATOM     79  C   UNL A   1      46.057  26.550  28.818  1.00  0.00     0.198 A 
ATOM     80  C   UNL A   1      44.920  27.477  26.924  1.00  0.00     0.198 A 
ATOM     81  F   UNL A   1      44.343  29.762  26.875  1.00  0.00    -0.203 F 
ATOM     82  F   UNL A   1      46.473  25.479  29.512  1.00  0.00    -0.200 F 
ATOM     83  C   UNL A   1      45.434  26.376  27.596  1.00  0.00     0.200 A 
ATOM     84  F   UNL A   1      44.264  27.289  25.769  1.00  0.00    -0.200 F 
ATOM     85  F   UNL A   1      45.232  25.137  27.119  1.00  0.00    -0.200 F 
ENDBRANCH  51  75
BRANCH  63  86
ATOM     86  C   UNL A   1      42.856  35.670  29.405  1.00  0.00     0.064 A 
ATOM     87  C   UNL A   1      42.180  36.105  28.252  1.00  0.00     0.173 A 
ATOM     88  C   UNL A   1      43.469  36.672  30.184  1.00  0.00     0.173 A 
ATOM     89  F   UNL A   1      41.433  35.266  27.517  1.00  0.00    -0.203 F 
ATOM     90  C   UNL A   1      42.206  37.433  27.845  1.00  0.00     0.198 A 
ATOM     91  C   UNL A   1      43.428  38.011  29.813  1.00  0.00     0.198 A 
ATOM     92  F   UNL A   1      44.089  36.386  31.338  1.00  0.00    -0.203 F 
ATOM     93  F   UNL A   1      41.606  37.785  26.700  1.00  0.00    -0.200 F 
ATOM     94  C   UNL A   1      42.822  38.387  28.629  1.00  0.00     0.200 A 
ATOM     95  F   UNL A   1      43.961  38.939  30.619  1.00  0.00    -0.200 F 
ATOM     96  F   UNL A   1      42.812  39.672  28.257  1.00  0.00    -0.200 F 
ENDBRANCH  63  86
ENDBRANCH  37  38
ENDBRANCH  30  32
ENDBRANCH  29  30
ENDBRANCH  28  29
ENDBRANCH  27  28
ENDBRANCH   1  27
TORSDOF 16
ENDMDL
