MODEL 1
REMARK VINA RESULT:     -11.8      0.000      0.000
REMARK SMILES O=C(CC1(NC(=O)c2ccc3cc[nH]c3c2)CCC1)OCCOCCOC(=O)c1ccc(-c2c3nc(c(-c4c(F)c(F)c(F)c(F)c4F)c4ccc([nH]4)c(-c4c(F)c(F)c(F)c(F)c4F)c4nc(c(-c5c(F)c(F)c(F)c(F)c5F)c5ccc2[nH]5)C=C4)C=C3)cc1
REMARK SMILES IDX 22 1 21 2 20 3 2 4 1 5 3 6 4 7 17 8 19 9 18 10 5 11 6 12
REMARK SMILES IDX 7 14 8 15 9 16 16 17 10 18 15 19 11 20 14 21 12 22 13 23
REMARK SMILES IDX 23 25 24 26 25 27 26 28 27 29 28 30 29 31 30 32 91 33 31 34
REMARK SMILES IDX 90 35 32 36 33 37 34 38 84 39 35 40 89 41 83 42 85 43 36 44
REMARK SMILES IDX 88 45 82 46 81 47 37 49 69 50 49 51 68 52 50 53 53 54 67 55
REMARK SMILES IDX 86 56 51 57 52 58 66 60 87 61 54 62 38 63 39 64 47 65 40 66
REMARK SMILES IDX 41 67 45 68 48 69 42 70 43 71 46 72 44 73 70 74 71 75 79 76
REMARK SMILES IDX 72 77 73 78 77 79 80 80 74 81 75 82 78 83 76 84 55 85 56 86
REMARK SMILES IDX 64 87 57 88 58 89 62 90 65 91 59 92 60 93 63 94 61 95
REMARK H PARENT 5 13 14 24 85 48 53 59
REMARK Flexibility Score: inf
ROOT
ATOM      1  C   UNL A   1      32.680  30.316  26.064  1.00  0.00     0.202 C 
ENDROOT
BRANCH   1   2
ATOM      2  C   UNL A   1      33.411  29.100  26.630  1.00  0.00     0.261 C 
BRANCH   2   3
ATOM      3  O   UNL A   1      32.775  27.869  26.253  1.00  0.00    -0.463 OA
BRANCH   3   4
ATOM      4  C   UNL A   1      31.683  27.407  26.909  1.00  0.00     0.308 C 
ATOM      5  O   UNL A   1      31.412  27.830  28.029  1.00  0.00    -0.252 OA
BRANCH   4   6
ATOM      6  C   UNL A   1      30.876  26.330  26.232  1.00  0.00     0.151 C 
BRANCH   6   7
ATOM      7  C   UNL A   1      31.623  25.411  25.291  1.00  0.00     0.051 C 
ATOM      8  C   UNL A   1      32.560  24.332  25.930  1.00  0.00     0.029 C 
ATOM      9  C   UNL A   1      30.682  24.216  24.870  1.00  0.00     0.029 C 
ATOM     10  C   UNL A   1      31.471  23.267  25.772  1.00  0.00     0.005 C 
BRANCH   7  11
ATOM     11  N   UNL A   1      32.217  26.025  24.063  1.00  0.00    -0.346 N 
ATOM     12  C   UNL A   1      31.792  26.885  23.070  1.00  0.00     0.251 C 
ATOM     13  H   UNL A   1      33.151  25.745  23.929  1.00  0.00     0.164 HD
ATOM     14  O   UNL A   1      32.417  26.908  22.011  1.00  0.00    -0.269 OA
BRANCH  12  15
ATOM     15  C   UNL A   1      30.618  27.770  23.199  1.00  0.00     0.041 A 
ATOM     16  C   UNL A   1      29.325  27.244  23.189  1.00  0.00     0.014 A 
ATOM     17  C   UNL A   1      30.836  29.150  23.357  1.00  0.00     0.040 A 
ATOM     18  C   UNL A   1      28.212  28.098  23.199  1.00  0.00     0.011 A 
ATOM     19  C   UNL A   1      29.709  29.983  23.388  1.00  0.00     0.046 A 
ATOM     20  C   UNL A   1      28.407  29.491  23.280  1.00  0.00    -0.001 A 
ATOM     21  N   UNL A   1      29.613  31.353  23.509  1.00  0.00    -0.361 N 
ATOM     22  C   UNL A   1      27.534  30.615  23.265  1.00  0.00     0.028 A 
ATOM     23  C   UNL A   1      28.305  31.746  23.401  1.00  0.00     0.083 A 
ATOM     24  H   UNL A   1      30.376  31.960  23.654  1.00  0.00     0.166 HD
ENDBRANCH  12  15
ENDBRANCH   7  11
ENDBRANCH   6   7
ENDBRANCH   4   6
ENDBRANCH   3   4
ENDBRANCH   2   3
ENDBRANCH   1   2
BRANCH   1  25
ATOM     25  O   UNL A   1      31.722  30.989  26.880  1.00  0.00    -0.374 OA
BRANCH  25  26
ATOM     26  C   UNL A   1      31.408  32.344  26.521  1.00  0.00     0.202 C 
BRANCH  26  27
ATOM     27  C   UNL A   1      32.194  33.434  27.257  1.00  0.00     0.261 C 
BRANCH  27  28
ATOM     28  O   UNL A   1      33.125  32.848  28.176  1.00  0.00    -0.460 OA
BRANCH  28  29
ATOM     29  C   UNL A   1      34.067  33.701  28.637  1.00  0.00     0.338 C 
ATOM     30  O   UNL A   1      33.897  34.808  29.122  1.00  0.00    -0.246 OA
BRANCH  29  31
ATOM     31  C   UNL A   1      35.347  32.971  28.729  1.00  0.00     0.060 A 
ATOM     32  C   UNL A   1      35.269  31.577  28.882  1.00  0.00     0.016 A 
ATOM     33  C   UNL A   1      36.585  33.609  28.604  1.00  0.00     0.016 A 
ATOM     34  C   UNL A   1      36.426  30.827  29.005  1.00  0.00     0.010 A 
ATOM     35  C   UNL A   1      37.750  32.862  28.767  1.00  0.00     0.010 A 
ATOM     36  C   UNL A   1      37.659  31.487  29.046  1.00  0.00    -0.014 A 
BRANCH  36  37
ATOM     37  C   UNL A   1      38.753  30.804  29.762  1.00  0.00     0.031 A 
ATOM     38  C   UNL A   1      38.907  31.126  31.225  1.00  0.00     0.074 A 
ATOM     39  C   UNL A   1      39.495  29.859  29.166  1.00  0.00     0.049 A 
ATOM     40  N   UNL A   1      39.741  30.641  32.104  1.00  0.00    -0.248 NA
ATOM     41  C   UNL A   1      37.983  32.136  31.772  1.00  0.00     0.031 C 
ATOM     42  C   UNL A   1      39.369  29.434  27.775  1.00  0.00     0.029 A 
ATOM     43  N   UNL A   1      40.497  29.076  29.674  1.00  0.00    -0.354 N 
ATOM     44  C   UNL A   1      39.447  31.293  33.296  1.00  0.00     0.074 A 
ATOM     45  C   UNL A   1      38.386  32.233  33.027  1.00  0.00     0.031 C 
ATOM     46  C   UNL A   1      40.266  28.462  27.536  1.00  0.00     0.029 A 
ATOM     47  C   UNL A   1      41.041  28.221  28.751  1.00  0.00     0.049 A 
ATOM     48  H   UNL A   1      40.798  29.124  30.610  1.00  0.00     0.167 HD
ATOM     49  C   UNL A   1      40.010  31.114  34.512  1.00  0.00     0.037 A 
ATOM     50  C   UNL A   1      42.060  27.353  28.888  1.00  0.00     0.037 A 
ATOM     51  C   UNL A   1      41.063  30.171  34.761  1.00  0.00     0.049 A 
ATOM     52  C   UNL A   1      42.716  27.219  30.240  1.00  0.00     0.074 A 
ATOM     53  C   UNL A   1      41.715  29.896  35.947  1.00  0.00     0.029 A 
ATOM     54  N   UNL A   1      41.623  29.351  33.790  1.00  0.00    -0.354 N 
ATOM     55  N   UNL A   1      42.431  27.828  31.368  1.00  0.00    -0.248 NA
ATOM     56  C   UNL A   1      43.829  26.265  30.340  1.00  0.00     0.031 C 
ATOM     57  C   UNL A   1      42.714  28.952  35.681  1.00  0.00     0.029 A 
ATOM     58  C   UNL A   1      42.632  28.584  34.346  1.00  0.00     0.049 A 
ATOM     59  H   UNL A   1      41.345  29.319  32.846  1.00  0.00     0.167 HD
ATOM     60  C   UNL A   1      43.298  27.304  32.318  1.00  0.00     0.074 A 
ATOM     61  C   UNL A   1      44.110  26.318  31.634  1.00  0.00     0.031 C 
ATOM     62  C   UNL A   1      43.412  27.602  33.637  1.00  0.00     0.037 A 
BRANCH  49  63
ATOM     63  C   UNL A   1      39.528  31.986  35.635  1.00  0.00     0.064 A 
ATOM     64  C   UNL A   1      38.506  31.582  36.510  1.00  0.00     0.173 A 
ATOM     65  C   UNL A   1      40.097  33.252  35.836  1.00  0.00     0.173 A 
ATOM     66  F   UNL A   1      37.907  30.393  36.346  1.00  0.00    -0.203 F 
ATOM     67  C   UNL A   1      38.057  32.425  37.524  1.00  0.00     0.198 A 
ATOM     68  C   UNL A   1      39.670  34.077  36.872  1.00  0.00     0.198 A 
ATOM     69  F   UNL A   1      41.070  33.692  35.024  1.00  0.00    -0.203 F 
ATOM     70  F   UNL A   1      37.040  32.042  38.310  1.00  0.00    -0.200 F 
ATOM     71  C   UNL A   1      38.644  33.668  37.711  1.00  0.00     0.200 A 
ATOM     72  F   UNL A   1      40.245  35.273  37.055  1.00  0.00    -0.200 F 
ATOM     73  F   UNL A   1      38.215  34.474  38.691  1.00  0.00    -0.200 F 
ENDBRANCH  49  63
BRANCH  50  74
ATOM     74  C   UNL A   1      42.516  26.546  27.726  1.00  0.00     0.064 A 
ATOM     75  C   UNL A   1      43.502  27.024  26.851  1.00  0.00     0.173 A 
ATOM     76  C   UNL A   1      41.965  25.284  27.457  1.00  0.00     0.173 A 
ATOM     77  F   UNL A   1      44.048  28.232  27.054  1.00  0.00    -0.203 F 
ATOM     78  C   UNL A   1      43.900  26.283  25.740  1.00  0.00     0.198 A 
ATOM     79  C   UNL A   1      42.386  24.530  26.363  1.00  0.00     0.198 A 
ATOM     80  F   UNL A   1      41.020  24.778  28.262  1.00  0.00    -0.203 F 
ATOM     81  F   UNL A   1      44.807  26.787  24.892  1.00  0.00    -0.200 F 
ATOM     82  C   UNL A   1      43.346  25.034  25.500  1.00  0.00     0.200 A 
ATOM     83  F   UNL A   1      41.859  23.318  26.144  1.00  0.00    -0.200 F 
ATOM     84  F   UNL A   1      43.731  24.322  24.432  1.00  0.00    -0.200 F 
ENDBRANCH  50  74
BRANCH  62  85
ATOM     85  C   UNL A   1      44.407  26.807  34.434  1.00  0.00     0.064 A 
ATOM     86  C   UNL A   1      45.722  27.248  34.634  1.00  0.00     0.173 A 
ATOM     87  C   UNL A   1      44.022  25.593  35.027  1.00  0.00     0.173 A 
ATOM     88  F   UNL A   1      46.142  28.396  34.083  1.00  0.00    -0.203 F 
ATOM     89  C   UNL A   1      46.630  26.481  35.361  1.00  0.00     0.198 A 
ATOM     90  C   UNL A   1      44.920  24.849  35.785  1.00  0.00     0.198 A 
ATOM     91  F   UNL A   1      42.770  25.133  34.878  1.00  0.00    -0.203 F 
ATOM     92  F   UNL A   1      47.901  26.887  35.481  1.00  0.00    -0.200 F 
ATOM     93  C   UNL A   1      46.226  25.286  35.940  1.00  0.00     0.200 A 
ATOM     94  F   UNL A   1      44.522  23.708  36.363  1.00  0.00    -0.200 F 
ATOM     95  F   UNL A   1      47.101  24.552  36.641  1.00  0.00    -0.200 F 
ENDBRANCH  62  85
ENDBRANCH  36  37
ENDBRANCH  29  31
ENDBRANCH  28  29
ENDBRANCH  27  28
ENDBRANCH  26  27
ENDBRANCH  25  26
ENDBRANCH   1  25
TORSDOF 17
ENDMDL
MODEL 2
REMARK VINA RESULT:     -11.6      1.799      8.156
REMARK SMILES O=C(CC1(NC(=O)c2ccc3cc[nH]c3c2)CCC1)OCCOCCOC(=O)c1ccc(-c2c3nc(c(-c4c(F)c(F)c(F)c(F)c4F)c4ccc([nH]4)c(-c4c(F)c(F)c(F)c(F)c4F)c4nc(c(-c5c(F)c(F)c(F)c(F)c5F)c5ccc2[nH]5)C=C4)C=C3)cc1
REMARK SMILES IDX 22 1 21 2 20 3 2 4 1 5 3 6 4 7 17 8 19 9 18 10 5 11 6 12
REMARK SMILES IDX 7 14 8 15 9 16 16 17 10 18 15 19 11 20 14 21 12 22 13 23
REMARK SMILES IDX 23 25 24 26 25 27 26 28 27 29 28 30 29 31 30 32 91 33 31 34
REMARK SMILES IDX 90 35 32 36 33 37 34 38 84 39 35 40 89 41 83 42 85 43 36 44
REMARK SMILES IDX 88 45 82 46 81 47 37 49 69 50 49 51 68 52 50 53 53 54 67 55
REMARK SMILES IDX 86 56 51 57 52 58 66 60 87 61 54 62 38 63 39 64 47 65 40 66
REMARK SMILES IDX 41 67 45 68 48 69 42 70 43 71 46 72 44 73 70 74 71 75 79 76
REMARK SMILES IDX 72 77 73 78 77 79 80 80 74 81 75 82 78 83 76 84 55 85 56 86
REMARK SMILES IDX 64 87 57 88 58 89 62 90 65 91 59 92 60 93 63 94 61 95
REMARK H PARENT 5 13 14 24 85 48 53 59
REMARK Flexibility Score: inf
ROOT
ATOM      1  C   UNL A   1      30.331  28.510  23.533  1.00  0.00     0.202 C 
ENDROOT
BRANCH   1   2
ATOM      2  C   UNL A   1      31.358  28.072  22.490  1.00  0.00     0.261 C 
BRANCH   2   3
ATOM      3  O   UNL A   1      31.175  26.702  22.100  1.00  0.00    -0.463 OA
BRANCH   3   4
ATOM      4  C   UNL A   1      31.865  25.699  22.696  1.00  0.00     0.308 C 
ATOM      5  O   UNL A   1      33.055  25.535  22.442  1.00  0.00    -0.252 OA
BRANCH   4   6
ATOM      6  C   UNL A   1      31.098  24.785  23.615  1.00  0.00     0.151 C 
BRANCH   6   7
ATOM      7  C   UNL A   1      31.497  24.798  25.074  1.00  0.00     0.051 C 
ATOM      8  C   UNL A   1      30.816  25.864  25.998  1.00  0.00     0.029 C 
ATOM      9  C   UNL A   1      30.655  23.714  25.855  1.00  0.00     0.029 C 
ATOM     10  C   UNL A   1      29.814  24.819  26.496  1.00  0.00     0.005 C 
BRANCH   7  11
ATOM     11  N   UNL A   1      32.947  24.615  25.389  1.00  0.00    -0.346 N 
ATOM     12  C   UNL A   1      33.798  23.547  25.596  1.00  0.00     0.251 C 
ATOM     13  H   UNL A   1      33.417  25.476  25.468  1.00  0.00     0.164 HD
ATOM     14  O   UNL A   1      34.858  23.751  26.186  1.00  0.00    -0.269 OA
BRANCH  12  15
ATOM     15  C   UNL A   1      33.503  22.168  25.163  1.00  0.00     0.041 A 
ATOM     16  C   UNL A   1      33.272  21.877  23.817  1.00  0.00     0.014 A 
ATOM     17  C   UNL A   1      33.483  21.152  26.135  1.00  0.00     0.040 A 
ATOM     18  C   UNL A   1      32.881  20.588  23.427  1.00  0.00     0.011 A 
ATOM     19  C   UNL A   1      33.112  19.866  25.719  1.00  0.00     0.046 A 
ATOM     20  C   UNL A   1      32.781  19.570  24.395  1.00  0.00    -0.001 A 
ATOM     21  N   UNL A   1      32.986  18.696  26.437  1.00  0.00    -0.361 N 
ATOM     22  C   UNL A   1      32.380  18.205  24.359  1.00  0.00     0.028 A 
ATOM     23  C   UNL A   1      32.510  17.696  25.631  1.00  0.00     0.083 A 
ATOM     24  H   UNL A   1      33.207  18.595  27.392  1.00  0.00     0.166 HD
ENDBRANCH  12  15
ENDBRANCH   7  11
ENDBRANCH   6   7
ENDBRANCH   4   6
ENDBRANCH   3   4
ENDBRANCH   2   3
ENDBRANCH   1   2
BRANCH   1  25
ATOM     25  O   UNL A   1      30.561  29.712  24.266  1.00  0.00    -0.374 OA
BRANCH  25  26
ATOM     26  C   UNL A   1      31.678  29.712  25.170  1.00  0.00     0.202 C 
BRANCH  26  27
ATOM     27  C   UNL A   1      31.708  30.842  26.204  1.00  0.00     0.261 C 
BRANCH  27  28
ATOM     28  O   UNL A   1      32.772  30.637  27.142  1.00  0.00    -0.460 OA
BRANCH  28  29
ATOM     29  C   UNL A   1      33.451  31.758  27.469  1.00  0.00     0.338 C 
ATOM     30  O   UNL A   1      32.999  32.877  27.655  1.00  0.00    -0.246 OA
BRANCH  29  31
ATOM     31  C   UNL A   1      34.824  31.372  27.855  1.00  0.00     0.060 A 
ATOM     32  C   UNL A   1      35.080  29.998  27.983  1.00  0.00     0.016 A 
ATOM     33  C   UNL A   1      35.847  32.310  28.023  1.00  0.00     0.016 A 
ATOM     34  C   UNL A   1      36.335  29.559  28.370  1.00  0.00     0.010 A 
ATOM     35  C   UNL A   1      37.100  31.875  28.451  1.00  0.00     0.010 A 
ATOM     36  C   UNL A   1      37.311  30.507  28.698  1.00  0.00    -0.014 A 
BRANCH  36  37
ATOM     37  C   UNL A   1      38.357  30.080  29.648  1.00  0.00     0.031 A 
ATOM     38  C   UNL A   1      39.395  29.125  29.124  1.00  0.00     0.074 A 
ATOM     39  C   UNL A   1      38.441  30.609  30.877  1.00  0.00     0.049 A 
ATOM     40  N   UNL A   1      40.448  28.628  29.715  1.00  0.00    -0.248 NA
ATOM     41  C   UNL A   1      39.222  28.669  27.732  1.00  0.00     0.031 C 
ATOM     42  C   UNL A   1      37.521  31.592  31.442  1.00  0.00     0.029 A 
ATOM     43  N   UNL A   1      39.364  30.397  31.866  1.00  0.00    -0.354 N 
ATOM     44  C   UNL A   1      41.048  27.800  28.774  1.00  0.00     0.074 A 
ATOM     45  C   UNL A   1      40.231  27.829  27.586  1.00  0.00     0.031 C 
ATOM     46  C   UNL A   1      37.926  31.899  32.686  1.00  0.00     0.029 A 
ATOM     47  C   UNL A   1      39.115  31.114  33.007  1.00  0.00     0.049 A 
ATOM     48  H   UNL A   1      40.131  29.787  31.766  1.00  0.00     0.167 HD
ATOM     49  C   UNL A   1      42.191  27.086  28.890  1.00  0.00     0.037 A 
ATOM     50  C   UNL A   1      39.781  31.115  34.177  1.00  0.00     0.037 A 
ATOM     51  C   UNL A   1      42.993  27.074  30.081  1.00  0.00     0.049 A 
ATOM     52  C   UNL A   1      41.016  30.258  34.305  1.00  0.00     0.074 A 
ATOM     53  C   UNL A   1      44.170  26.392  30.324  1.00  0.00     0.029 A 
ATOM     54  N   UNL A   1      42.686  27.777  31.238  1.00  0.00    -0.354 N 
ATOM     55  N   UNL A   1      41.588  29.485  33.411  1.00  0.00    -0.248 NA
ATOM     56  C   UNL A   1      41.705  30.285  35.601  1.00  0.00     0.031 C 
ATOM     57  C   UNL A   1      44.543  26.635  31.650  1.00  0.00     0.029 A 
ATOM     58  C   UNL A   1      43.640  27.528  32.208  1.00  0.00     0.049 A 
ATOM     59  H   UNL A   1      41.905  28.367  31.351  1.00  0.00     0.167 HD
ATOM     60  C   UNL A   1      42.724  28.967  34.021  1.00  0.00     0.074 A 
ATOM     61  C   UNL A   1      42.763  29.526  35.358  1.00  0.00     0.031 C 
ATOM     62  C   UNL A   1      43.655  28.113  33.525  1.00  0.00     0.037 A 
BRANCH  49  63
ATOM     63  C   UNL A   1      42.600  26.235  27.723  1.00  0.00     0.064 A 
ATOM     64  C   UNL A   1      42.057  24.958  27.502  1.00  0.00     0.173 A 
ATOM     65  C   UNL A   1      43.557  26.705  26.812  1.00  0.00     0.173 A 
ATOM     66  F   UNL A   1      41.159  24.449  28.358  1.00  0.00    -0.203 F 
ATOM     67  C   UNL A   1      42.479  24.177  26.429  1.00  0.00     0.198 A 
ATOM     68  C   UNL A   1      43.950  25.935  25.721  1.00  0.00     0.198 A 
ATOM     69  F   UNL A   1      44.115  27.913  26.980  1.00  0.00    -0.203 F 
ATOM     70  F   UNL A   1      41.991  22.939  26.271  1.00  0.00    -0.200 F 
ATOM     71  C   UNL A   1      43.418  24.668  25.534  1.00  0.00     0.200 A 
ATOM     72  F   UNL A   1      44.851  26.416  24.854  1.00  0.00    -0.200 F 
ATOM     73  F   UNL A   1      43.817  23.918  24.498  1.00  0.00    -0.200 F 
ENDBRANCH  49  63
BRANCH  50  74
ATOM     74  C   UNL A   1      39.302  31.951  35.308  1.00  0.00     0.064 A 
ATOM     75  C   UNL A   1      39.676  33.297  35.427  1.00  0.00     0.173 A 
ATOM     76  C   UNL A   1      38.471  31.417  36.305  1.00  0.00     0.173 A 
ATOM     77  F   UNL A   1      40.484  33.850  34.510  1.00  0.00    -0.203 F 
ATOM     78  C   UNL A   1      39.259  34.069  36.510  1.00  0.00     0.198 A 
ATOM     79  C   UNL A   1      38.029  32.199  37.371  1.00  0.00     0.198 A 
ATOM     80  F   UNL A   1      38.082  30.136  36.240  1.00  0.00    -0.203 F 
ATOM     81  F   UNL A   1      39.673  35.338  36.624  1.00  0.00    -0.200 F 
ATOM     82  C   UNL A   1      38.430  33.521  37.478  1.00  0.00     0.200 A 
ATOM     83  F   UNL A   1      37.216  31.669  38.296  1.00  0.00    -0.200 F 
ATOM     84  F   UNL A   1      38.027  34.264  38.517  1.00  0.00    -0.200 F 
ENDBRANCH  50  74
BRANCH  62  85
ATOM     85  C   UNL A   1      44.823  27.786  34.411  1.00  0.00     0.064 A 
ATOM     86  C   UNL A   1      45.988  28.565  34.424  1.00  0.00     0.173 A 
ATOM     87  C   UNL A   1      44.759  26.684  35.280  1.00  0.00     0.173 A 
ATOM     88  F   UNL A   1      46.102  29.624  33.607  1.00  0.00    -0.203 F 
ATOM     89  C   UNL A   1      47.064  28.228  35.240  1.00  0.00     0.198 A 
ATOM     90  C   UNL A   1      45.820  26.374  36.123  1.00  0.00     0.198 A 
ATOM     91  F   UNL A   1      43.661  25.913  35.317  1.00  0.00    -0.203 F 
ATOM     92  F   UNL A   1      48.194  28.946  35.186  1.00  0.00    -0.200 F 
ATOM     93  C   UNL A   1      46.977  27.137  36.093  1.00  0.00     0.200 A 
ATOM     94  F   UNL A   1      45.725  25.333  36.961  1.00  0.00    -0.200 F 
ATOM     95  F   UNL A   1      48.014  26.816  36.879  1.00  0.00    -0.200 F 
ENDBRANCH  62  85
ENDBRANCH  36  37
ENDBRANCH  29  31
ENDBRANCH  28  29
ENDBRANCH  27  28
ENDBRANCH  26  27
ENDBRANCH  25  26
ENDBRANCH   1  25
TORSDOF 17
ENDMDL
MODEL 3
REMARK VINA RESULT:     -11.6      1.456      3.453
REMARK SMILES O=C(CC1(NC(=O)c2ccc3cc[nH]c3c2)CCC1)OCCOCCOC(=O)c1ccc(-c2c3nc(c(-c4c(F)c(F)c(F)c(F)c4F)c4ccc([nH]4)c(-c4c(F)c(F)c(F)c(F)c4F)c4nc(c(-c5c(F)c(F)c(F)c(F)c5F)c5ccc2[nH]5)C=C4)C=C3)cc1
REMARK SMILES IDX 22 1 21 2 20 3 2 4 1 5 3 6 4 7 17 8 19 9 18 10 5 11 6 12
REMARK SMILES IDX 7 14 8 15 9 16 16 17 10 18 15 19 11 20 14 21 12 22 13 23
REMARK SMILES IDX 23 25 24 26 25 27 26 28 27 29 28 30 29 31 30 32 91 33 31 34
REMARK SMILES IDX 90 35 32 36 33 37 34 38 84 39 35 40 89 41 83 42 85 43 36 44
REMARK SMILES IDX 88 45 82 46 81 47 37 49 69 50 49 51 68 52 50 53 53 54 67 55
REMARK SMILES IDX 86 56 51 57 52 58 66 60 87 61 54 62 38 63 39 64 47 65 40 66
REMARK SMILES IDX 41 67 45 68 48 69 42 70 43 71 46 72 44 73 70 74 71 75 79 76
REMARK SMILES IDX 72 77 73 78 77 79 80 80 74 81 75 82 78 83 76 84 55 85 56 86
REMARK SMILES IDX 64 87 57 88 58 89 62 90 65 91 59 92 60 93 63 94 61 95
REMARK H PARENT 5 13 14 24 85 48 53 59
REMARK Flexibility Score: inf
ROOT
ATOM      1  C   UNL A   1      32.844  30.065  26.044  1.00  0.00     0.202 C 
ENDROOT
BRANCH   1   2
ATOM      2  C   UNL A   1      32.393  29.326  24.785  1.00  0.00     0.261 C 
BRANCH   2   3
ATOM      3  O   UNL A   1      33.487  29.079  23.887  1.00  0.00    -0.463 OA
BRANCH   3   4
ATOM      4  C   UNL A   1      33.526  27.970  23.110  1.00  0.00     0.308 C 
ATOM      5  O   UNL A   1      34.016  28.022  21.985  1.00  0.00    -0.252 OA
BRANCH   4   6
ATOM      6  C   UNL A   1      32.897  26.718  23.663  1.00  0.00     0.151 C 
BRANCH   6   7
ATOM      7  C   UNL A   1      31.763  26.116  22.862  1.00  0.00     0.051 C 
ATOM      8  C   UNL A   1      30.578  25.474  23.660  1.00  0.00     0.029 C 
ATOM      9  C   UNL A   1      30.751  27.257  22.452  1.00  0.00     0.029 C 
ATOM     10  C   UNL A   1      29.748  26.749  23.487  1.00  0.00     0.005 C 
BRANCH   7  11
ATOM     11  N   UNL A   1      32.128  25.323  21.648  1.00  0.00    -0.346 N 
ATOM     12  C   UNL A   1      32.900  24.210  21.377  1.00  0.00     0.251 C 
ATOM     13  H   UNL A   1      31.712  25.686  20.834  1.00  0.00     0.164 HD
ATOM     14  O   UNL A   1      33.276  24.029  20.219  1.00  0.00    -0.269 OA
BRANCH  12  15
ATOM     15  C   UNL A   1      33.313  23.230  22.399  1.00  0.00     0.041 A 
ATOM     16  C   UNL A   1      32.486  22.155  22.732  1.00  0.00     0.014 A 
ATOM     17  C   UNL A   1      34.568  23.393  23.011  1.00  0.00     0.040 A 
ATOM     18  C   UNL A   1      32.832  21.293  23.783  1.00  0.00     0.011 A 
ATOM     19  C   UNL A   1      34.905  22.504  24.043  1.00  0.00     0.046 A 
ATOM     20  C   UNL A   1      34.052  21.481  24.462  1.00  0.00    -0.001 A 
ATOM     21  N   UNL A   1      36.036  22.432  24.826  1.00  0.00    -0.361 N 
ATOM     22  C   UNL A   1      34.677  20.843  25.569  1.00  0.00     0.028 A 
ATOM     23  C   UNL A   1      35.893  21.454  25.774  1.00  0.00     0.083 A 
ATOM     24  H   UNL A   1      36.833  23.001  24.718  1.00  0.00     0.166 HD
ENDBRANCH  12  15
ENDBRANCH   7  11
ENDBRANCH   6   7
ENDBRANCH   4   6
ENDBRANCH   3   4
ENDBRANCH   2   3
ENDBRANCH   1   2
BRANCH   1  25
ATOM     25  O   UNL A   1      31.860  30.687  26.870  1.00  0.00    -0.374 OA
BRANCH  25  26
ATOM     26  C   UNL A   1      31.438  32.005  26.485  1.00  0.00     0.202 C 
BRANCH  26  27
ATOM     27  C   UNL A   1      32.194  33.170  27.132  1.00  0.00     0.261 C 
BRANCH  27  28
ATOM     28  O   UNL A   1      33.118  32.685  28.115  1.00  0.00    -0.460 OA
BRANCH  28  29
ATOM     29  C   UNL A   1      34.074  33.571  28.468  1.00  0.00     0.338 C 
ATOM     30  O   UNL A   1      33.921  34.717  28.860  1.00  0.00    -0.246 OA
BRANCH  29  31
ATOM     31  C   UNL A   1      35.357  32.848  28.582  1.00  0.00     0.060 A 
ATOM     32  C   UNL A   1      35.284  31.456  28.747  1.00  0.00     0.016 A 
ATOM     33  C   UNL A   1      36.593  33.491  28.467  1.00  0.00     0.016 A 
ATOM     34  C   UNL A   1      36.442  30.712  28.891  1.00  0.00     0.010 A 
ATOM     35  C   UNL A   1      37.760  32.751  28.650  1.00  0.00     0.010 A 
ATOM     36  C   UNL A   1      37.671  31.378  28.940  1.00  0.00    -0.014 A 
BRANCH  36  37
ATOM     37  C   UNL A   1      38.761  30.707  29.676  1.00  0.00     0.031 A 
ATOM     38  C   UNL A   1      38.906  31.056  31.133  1.00  0.00     0.074 A 
ATOM     39  C   UNL A   1      39.505  29.750  29.102  1.00  0.00     0.049 A 
ATOM     40  N   UNL A   1      39.734  30.586  32.027  1.00  0.00    -0.248 NA
ATOM     41  C   UNL A   1      37.980  32.078  31.656  1.00  0.00     0.031 C 
ATOM     42  C   UNL A   1      39.386  29.299  27.718  1.00  0.00     0.029 A 
ATOM     43  N   UNL A   1      40.502  28.975  29.630  1.00  0.00    -0.354 N 
ATOM     44  C   UNL A   1      39.434  31.261  33.204  1.00  0.00     0.074 A 
ATOM     45  C   UNL A   1      38.376  32.197  32.911  1.00  0.00     0.031 C 
ATOM     46  C   UNL A   1      40.283  28.321  27.503  1.00  0.00     0.029 A 
ATOM     47  C   UNL A   1      41.050  28.102  28.727  1.00  0.00     0.049 A 
ATOM     48  H   UNL A   1      40.797  29.040  30.568  1.00  0.00     0.167 HD
ATOM     49  C   UNL A   1      39.988  31.104  34.427  1.00  0.00     0.037 A 
ATOM     50  C   UNL A   1      42.067  27.235  28.887  1.00  0.00     0.037 A 
ATOM     51  C   UNL A   1      41.039  30.163  34.700  1.00  0.00     0.049 A 
ATOM     52  C   UNL A   1      42.715  27.125  30.244  1.00  0.00     0.074 A 
ATOM     53  C   UNL A   1      41.683  29.909  35.895  1.00  0.00     0.029 A 
ATOM     54  N   UNL A   1      41.604  29.325  33.748  1.00  0.00    -0.354 N 
ATOM     55  N   UNL A   1      42.423  27.756  31.359  1.00  0.00    -0.248 NA
ATOM     56  C   UNL A   1      43.824  26.172  30.370  1.00  0.00     0.031 C 
ATOM     57  C   UNL A   1      42.682  28.960  35.653  1.00  0.00     0.029 A 
ATOM     58  C   UNL A   1      42.607  28.567  34.324  1.00  0.00     0.049 A 
ATOM     59  H   UNL A   1      41.331  29.276  32.803  1.00  0.00     0.167 HD
ATOM     60  C   UNL A   1      43.283  27.248  32.325  1.00  0.00     0.074 A 
ATOM     61  C   UNL A   1      44.098  26.248  31.664  1.00  0.00     0.031 C 
ATOM     62  C   UNL A   1      43.390  27.570  33.639  1.00  0.00     0.037 A 
BRANCH  49  63
ATOM     63  C   UNL A   1      39.501  31.997  35.531  1.00  0.00     0.064 A 
ATOM     64  C   UNL A   1      38.503  31.595  36.433  1.00  0.00     0.173 A 
ATOM     65  C   UNL A   1      40.041  33.283  35.684  1.00  0.00     0.173 A 
ATOM     66  F   UNL A   1      37.932  30.387  36.314  1.00  0.00    -0.203 F 
ATOM     67  C   UNL A   1      38.047  32.457  37.428  1.00  0.00     0.198 A 
ATOM     68  C   UNL A   1      39.608  34.128  36.701  1.00  0.00     0.198 A 
ATOM     69  F   UNL A   1      40.990  33.722  34.845  1.00  0.00    -0.203 F 
ATOM     70  F   UNL A   1      37.053  32.073  38.241  1.00  0.00    -0.200 F 
ATOM     71  C   UNL A   1      38.605  33.719  37.568  1.00  0.00     0.200 A 
ATOM     72  F   UNL A   1      40.155  35.343  36.840  1.00  0.00    -0.200 F 
ATOM     73  F   UNL A   1      38.171  34.544  38.530  1.00  0.00    -0.200 F 
ENDBRANCH  49  63
BRANCH  50  74
ATOM     74  C   UNL A   1      42.529  26.405  27.743  1.00  0.00     0.064 A 
ATOM     75  C   UNL A   1      43.557  26.843  26.896  1.00  0.00     0.173 A 
ATOM     76  C   UNL A   1      41.940  25.163  27.462  1.00  0.00     0.173 A 
ATOM     77  F   UNL A   1      44.141  28.031  27.111  1.00  0.00    -0.203 F 
ATOM     78  C   UNL A   1      43.962  26.082  25.801  1.00  0.00     0.198 A 
ATOM     79  C   UNL A   1      42.367  24.389  26.385  1.00  0.00     0.198 A 
ATOM     80  F   UNL A   1      40.953  24.696  28.241  1.00  0.00    -0.203 F 
ATOM     81  F   UNL A   1      44.912  26.548  24.980  1.00  0.00    -0.200 F 
ATOM     82  C   UNL A   1      43.371  24.853  25.549  1.00  0.00     0.200 A 
ATOM     83  F   UNL A   1      41.803  23.195  26.155  1.00  0.00    -0.200 F 
ATOM     84  F   UNL A   1      43.762  24.121  24.497  1.00  0.00    -0.200 F 
ENDBRANCH  50  74
BRANCH  62  85
ATOM     85  C   UNL A   1      44.378  26.789  34.456  1.00  0.00     0.064 A 
ATOM     86  C   UNL A   1      44.021  25.612  35.130  1.00  0.00     0.173 A 
ATOM     87  C   UNL A   1      45.714  27.216  34.542  1.00  0.00     0.173 A 
ATOM     88  F   UNL A   1      42.757  25.165  35.086  1.00  0.00    -0.203 F 
ATOM     89  C   UNL A   1      44.953  24.918  35.897  1.00  0.00     0.198 A 
ATOM     90  C   UNL A   1      46.651  26.498  35.277  1.00  0.00     0.198 A 
ATOM     91  F   UNL A   1      46.111  28.328  33.904  1.00  0.00    -0.203 F 
ATOM     92  F   UNL A   1      44.573  23.835  36.589  1.00  0.00    -0.200 F 
ATOM     93  C   UNL A   1      46.267  25.358  35.965  1.00  0.00     0.200 A 
ATOM     94  F   UNL A   1      47.924  26.913  35.323  1.00  0.00    -0.200 F 
ATOM     95  F   UNL A   1      47.162  24.686  36.703  1.00  0.00    -0.200 F 
ENDBRANCH  62  85
ENDBRANCH  36  37
ENDBRANCH  29  31
ENDBRANCH  28  29
ENDBRANCH  27  28
ENDBRANCH  26  27
ENDBRANCH  25  26
ENDBRANCH   1  25
TORSDOF 17
ENDMDL
