MODEL 1
REMARK VINA RESULT:     -11.7      0.000      0.000
REMARK SMILES CC[C@@](C)(NC(=O)c1cccc2ccccc12)C(=O)OCCOCCOC(=O)c1ccc(-c2c3nc(c(-c4c(F)c(F)c(F)c(F)c4F)c4ccc([nH]4)c(-c4c(F)c(F)c(F)c(F)c4F)c4nc(c(-c5c(F)c(F)c(F)c(F)c5F)c5ccc2[nH]5)C=C4)C=C3)cc1
REMARK SMILES IDX 23 1 22 2 21 3 20 4 18 5 19 6 3 7 4 8 2 9 1 10 5 11 6 12
REMARK SMILES IDX 7 14 8 15 9 16 17 17 10 18 12 19 16 20 11 21 13 22 15 23
REMARK SMILES IDX 14 24 24 25 25 26 26 27 27 28 28 29 29 30 30 31 91 32 31 33
REMARK SMILES IDX 90 34 32 35 33 36 34 37 84 38 35 39 89 40 83 41 85 42 36 43
REMARK SMILES IDX 88 44 82 45 81 46 37 48 69 49 49 50 68 51 50 52 53 53 67 54
REMARK SMILES IDX 86 55 51 56 52 57 66 59 87 60 54 61 38 62 39 63 47 64 40 65
REMARK SMILES IDX 41 66 45 67 48 68 42 69 43 70 46 71 44 72 70 73 71 74 79 75
REMARK SMILES IDX 72 76 73 77 77 78 80 79 74 80 75 81 78 82 76 83 55 84 56 85
REMARK SMILES IDX 64 86 57 87 58 88 62 89 65 90 59 91 60 92 63 93 61 94
REMARK H PARENT 5 13 85 47 53 58
REMARK Flexibility Score: inf
ROOT
ATOM      1  O   UNL A   1      31.489  29.390  23.014  1.00  0.00    -0.374 OA
ENDROOT
BRANCH   1   2
ATOM      2  C   UNL A   1      30.261  29.023  23.663  1.00  0.00     0.202 C 
BRANCH   2   3
ATOM      3  C   UNL A   1      29.631  27.755  23.019  1.00  0.00     0.261 C 
BRANCH   3   4
ATOM      4  O   UNL A   1      30.355  26.574  23.362  1.00  0.00    -0.462 OA
BRANCH   4   5
ATOM      5  C   UNL A   1      29.996  25.989  24.525  1.00  0.00     0.331 C 
ATOM      6  O   UNL A   1      28.848  25.950  24.909  1.00  0.00    -0.249 OA
BRANCH   5   7
ATOM      7  C   UNL A   1      31.247  25.477  25.284  1.00  0.00     0.135 C 
ATOM      8  C   UNL A   1      31.531  26.406  26.477  1.00  0.00     0.047 C 
BRANCH   7   9
ATOM      9  C   UNL A   1      30.955  24.047  25.930  1.00  0.00     0.037 C 
ATOM     10  C   UNL A   1      31.909  23.518  27.007  1.00  0.00     0.007 C 
ENDBRANCH   7   9
BRANCH   7  11
ATOM     11  N   UNL A   1      32.481  25.393  24.365  1.00  0.00    -0.336 N 
ATOM     12  C   UNL A   1      32.943  24.364  23.513  1.00  0.00     0.252 C 
ATOM     13  H   UNL A   1      33.049  26.198  24.373  1.00  0.00     0.165 HD
ATOM     14  O   UNL A   1      32.545  24.444  22.342  1.00  0.00    -0.269 OA
BRANCH  12  15
ATOM     15  C   UNL A   1      33.909  23.157  23.859  1.00  0.00     0.047 A 
ATOM     16  C   UNL A   1      35.182  23.710  24.067  1.00  0.00     0.014 A 
ATOM     17  C   UNL A   1      33.727  21.659  24.167  1.00  0.00    -0.006 A 
ATOM     18  C   UNL A   1      36.262  22.925  24.443  1.00  0.00     0.001 A 
ATOM     19  C   UNL A   1      34.890  20.914  24.504  1.00  0.00    -0.018 A 
ATOM     20  C   UNL A   1      32.576  20.754  24.271  1.00  0.00     0.009 A 
ATOM     21  C   UNL A   1      36.118  21.555  24.624  1.00  0.00     0.009 A 
ATOM     22  C   UNL A   1      34.878  19.515  24.794  1.00  0.00     0.009 A 
ATOM     23  C   UNL A   1      32.542  19.382  24.581  1.00  0.00     0.001 A 
ATOM     24  C   UNL A   1      33.721  18.747  24.830  1.00  0.00     0.001 A 
ENDBRANCH  12  15
ENDBRANCH   7  11
ENDBRANCH   5   7
ENDBRANCH   4   5
ENDBRANCH   3   4
ENDBRANCH   2   3
ENDBRANCH   1   2
BRANCH   1  25
ATOM     25  C   UNL A   1      32.736  28.845  23.438  1.00  0.00     0.202 C 
BRANCH  25  26
ATOM     26  C   UNL A   1      33.362  29.299  24.896  1.00  0.00     0.261 C 
BRANCH  26  27
ATOM     27  O   UNL A   1      32.482  29.915  25.945  1.00  0.00    -0.460 OA
BRANCH  27  28
ATOM     28  C   UNL A   1      32.882  30.924  26.800  1.00  0.00     0.338 C 
ATOM     29  O   UNL A   1      32.175  31.877  27.092  1.00  0.00    -0.246 OA
BRANCH  28  30
ATOM     30  C   UNL A   1      34.276  30.747  27.432  1.00  0.00     0.060 A 
ATOM     31  C   UNL A   1      34.696  29.533  27.998  1.00  0.00     0.016 A 
ATOM     32  C   UNL A   1      35.133  31.828  27.664  1.00  0.00     0.016 A 
ATOM     33  C   UNL A   1      35.970  29.329  28.582  1.00  0.00     0.010 A 
ATOM     34  C   UNL A   1      36.385  31.657  28.338  1.00  0.00     0.010 A 
ATOM     35  C   UNL A   1      36.837  30.399  28.782  1.00  0.00    -0.014 A 
BRANCH  35  36
ATOM     36  C   UNL A   1      38.093  30.233  29.600  1.00  0.00     0.031 A 
ATOM     37  C   UNL A   1      39.215  29.372  29.070  1.00  0.00     0.074 A 
ATOM     38  C   UNL A   1      38.304  30.861  30.777  1.00  0.00     0.049 A 
ATOM     39  N   UNL A   1      40.261  28.874  29.686  1.00  0.00    -0.248 NA
ATOM     40  C   UNL A   1      39.158  29.049  27.637  1.00  0.00     0.031 C 
ATOM     41  C   UNL A   1      37.443  31.885  31.360  1.00  0.00     0.029 A 
ATOM     42  N   UNL A   1      39.321  30.717  31.704  1.00  0.00    -0.354 N 
ATOM     43  C   UNL A   1      40.955  28.139  28.731  1.00  0.00     0.074 A 
ATOM     44  C   UNL A   1      40.235  28.292  27.485  1.00  0.00     0.031 C 
ATOM     45  C   UNL A   1      37.941  32.245  32.559  1.00  0.00     0.029 A 
ATOM     46  C   UNL A   1      39.116  31.428  32.866  1.00  0.00     0.049 A 
ATOM     47  H   UNL A   1      40.117  30.160  31.547  1.00  0.00     0.167 HD
ATOM     48  C   UNL A   1      42.069  27.379  28.881  1.00  0.00     0.037 A 
ATOM     49  C   UNL A   1      39.754  31.378  34.058  1.00  0.00     0.037 A 
ATOM     50  C   UNL A   1      42.795  27.223  30.116  1.00  0.00     0.049 A 
ATOM     51  C   UNL A   1      40.905  30.415  34.260  1.00  0.00     0.074 A 
ATOM     52  C   UNL A   1      43.889  26.417  30.384  1.00  0.00     0.029 A 
ATOM     53  N   UNL A   1      42.500  27.894  31.293  1.00  0.00    -0.354 N 
ATOM     54  N   UNL A   1      41.482  29.617  33.395  1.00  0.00    -0.248 NA
ATOM     55  C   UNL A   1      41.478  30.326  35.616  1.00  0.00     0.031 C 
ATOM     56  C   UNL A   1      44.226  26.565  31.735  1.00  0.00     0.029 A 
ATOM     57  C   UNL A   1      43.377  27.506  32.293  1.00  0.00     0.049 A 
ATOM     58  H   UNL A   1      41.773  28.549  31.402  1.00  0.00     0.167 HD
ATOM     59  C   UNL A   1      42.489  28.954  34.090  1.00  0.00     0.074 A 
ATOM     60  C   UNL A   1      42.458  29.450  35.448  1.00  0.00     0.031 C 
ATOM     61  C   UNL A   1      43.358  28.015  33.640  1.00  0.00     0.037 A 
BRANCH  48  62
ATOM     62  C   UNL A   1      42.513  26.572  27.695  1.00  0.00     0.064 A 
ATOM     63  C   UNL A   1      43.497  27.024  26.806  1.00  0.00     0.173 A 
ATOM     64  C   UNL A   1      41.935  25.315  27.450  1.00  0.00     0.173 A 
ATOM     65  F   UNL A   1      44.071  28.223  26.985  1.00  0.00    -0.203 F 
ATOM     66  C   UNL A   1      43.861  26.264  25.694  1.00  0.00     0.198 A 
ATOM     67  C   UNL A   1      42.321  24.546  26.357  1.00  0.00     0.198 A 
ATOM     68  F   UNL A   1      40.995  24.831  28.277  1.00  0.00    -0.203 F 
ATOM     69  F   UNL A   1      44.763  26.740  24.825  1.00  0.00    -0.200 F 
ATOM     70  C   UNL A   1      43.275  25.026  25.473  1.00  0.00     0.200 A 
ATOM     71  F   UNL A   1      41.764  23.345  26.153  1.00  0.00    -0.200 F 
ATOM     72  F   UNL A   1      43.624  24.299  24.402  1.00  0.00    -0.200 F 
ENDBRANCH  48  62
BRANCH  49  73
ATOM     73  C   UNL A   1      39.267  32.194  35.213  1.00  0.00     0.064 A 
ATOM     74  C   UNL A   1      39.669  33.527  35.393  1.00  0.00     0.173 A 
ATOM     75  C   UNL A   1      38.440  31.633  36.198  1.00  0.00     0.173 A 
ATOM     76  F   UNL A   1      40.503  34.099  34.513  1.00  0.00    -0.203 F 
ATOM     77  C   UNL A   1      39.267  34.260  36.510  1.00  0.00     0.198 A 
ATOM     78  C   UNL A   1      38.011  32.376  37.297  1.00  0.00     0.198 A 
ATOM     79  F   UNL A   1      38.050  30.354  36.099  1.00  0.00    -0.203 F 
ATOM     80  F   UNL A   1      39.711  35.512  36.683  1.00  0.00    -0.200 F 
ATOM     81  C   UNL A   1      38.430  33.688  37.456  1.00  0.00     0.200 A 
ATOM     82  F   UNL A   1      37.202  31.818  38.208  1.00  0.00    -0.200 F 
ATOM     83  F   UNL A   1      38.042  34.393  38.528  1.00  0.00    -0.200 F 
ENDBRANCH  49  73
BRANCH  61  84
ATOM     84  C   UNL A   1      44.386  27.489  34.602  1.00  0.00     0.064 A 
ATOM     85  C   UNL A   1      44.171  26.323  35.353  1.00  0.00     0.173 A 
ATOM     86  C   UNL A   1      45.627  28.132  34.734  1.00  0.00     0.173 A 
ATOM     87  F   UNL A   1      42.999  25.676  35.274  1.00  0.00    -0.203 F 
ATOM     88  C   UNL A   1      45.153  25.832  36.211  1.00  0.00     0.198 A 
ATOM     89  C   UNL A   1      46.616  27.624  35.573  1.00  0.00     0.198 A 
ATOM     90  F   UNL A   1      45.889  29.246  34.034  1.00  0.00    -0.203 F 
ATOM     91  F   UNL A   1      44.912  24.738  36.947  1.00  0.00    -0.200 F 
ATOM     92  C   UNL A   1      46.376  26.478  36.315  1.00  0.00     0.200 A 
ATOM     93  F   UNL A   1      47.802  28.242  35.662  1.00  0.00    -0.200 F 
ATOM     94  F   UNL A   1      47.322  25.999  37.135  1.00  0.00    -0.200 F 
ENDBRANCH  61  84
ENDBRANCH  35  36
ENDBRANCH  28  30
ENDBRANCH  27  28
ENDBRANCH  26  27
ENDBRANCH  25  26
ENDBRANCH   1  25
TORSDOF 17
ENDMDL
MODEL 2
REMARK VINA RESULT:     -11.6      2.996      8.158
REMARK SMILES CC[C@@](C)(NC(=O)c1cccc2ccccc12)C(=O)OCCOCCOC(=O)c1ccc(-c2c3nc(c(-c4c(F)c(F)c(F)c(F)c4F)c4ccc([nH]4)c(-c4c(F)c(F)c(F)c(F)c4F)c4nc(c(-c5c(F)c(F)c(F)c(F)c5F)c5ccc2[nH]5)C=C4)C=C3)cc1
REMARK SMILES IDX 23 1 22 2 21 3 20 4 18 5 19 6 3 7 4 8 2 9 1 10 5 11 6 12
REMARK SMILES IDX 7 14 8 15 9 16 17 17 10 18 12 19 16 20 11 21 13 22 15 23
REMARK SMILES IDX 14 24 24 25 25 26 26 27 27 28 28 29 29 30 30 31 91 32 31 33
REMARK SMILES IDX 90 34 32 35 33 36 34 37 84 38 35 39 89 40 83 41 85 42 36 43
REMARK SMILES IDX 88 44 82 45 81 46 37 48 69 49 49 50 68 51 50 52 53 53 67 54
REMARK SMILES IDX 86 55 51 56 52 57 66 59 87 60 54 61 38 62 39 63 47 64 40 65
REMARK SMILES IDX 41 66 45 67 48 68 42 69 43 70 46 71 44 72 70 73 71 74 79 75
REMARK SMILES IDX 72 76 73 77 77 78 80 79 74 80 75 81 78 82 76 83 55 84 56 85
REMARK SMILES IDX 64 86 57 87 58 88 62 89 65 90 59 91 60 92 63 93 61 94
REMARK H PARENT 5 13 85 47 53 58
REMARK Flexibility Score: inf
ROOT
ATOM      1  O   UNL A   1      39.291  21.596  26.282  1.00  0.00    -0.374 OA
ENDROOT
BRANCH   1   2
ATOM      2  C   UNL A   1      38.265  21.297  25.323  1.00  0.00     0.202 C 
BRANCH   2   3
ATOM      3  C   UNL A   1      36.849  21.613  25.883  1.00  0.00     0.261 C 
BRANCH   3   4
ATOM      4  O   UNL A   1      35.963  22.061  24.857  1.00  0.00    -0.462 OA
BRANCH   4   5
ATOM      5  C   UNL A   1      35.481  23.314  25.010  1.00  0.00     0.331 C 
ATOM      6  O   UNL A   1      36.088  24.178  25.606  1.00  0.00    -0.249 OA
BRANCH   5   7
ATOM      7  C   UNL A   1      34.061  23.429  24.399  1.00  0.00     0.135 C 
ATOM      8  C   UNL A   1      34.137  24.239  23.093  1.00  0.00     0.047 C 
BRANCH   7   9
ATOM      9  C   UNL A   1      33.527  21.989  23.966  1.00  0.00     0.037 C 
ATOM     10  C   UNL A   1      32.359  21.905  22.978  1.00  0.00     0.007 C 
ENDBRANCH   7   9
BRANCH   7  11
ATOM     11  N   UNL A   1      33.067  24.083  25.378  1.00  0.00    -0.336 N 
ATOM     12  C   UNL A   1      31.914  24.869  25.151  1.00  0.00     0.252 C 
ATOM     13  H   UNL A   1      33.272  23.929  26.328  1.00  0.00     0.165 HD
ATOM     14  O   UNL A   1      30.855  24.228  25.094  1.00  0.00    -0.269 OA
BRANCH  12  15
ATOM     15  C   UNL A   1      31.808  26.441  24.988  1.00  0.00     0.047 A 
ATOM     16  C   UNL A   1      33.035  26.971  25.418  1.00  0.00     0.014 A 
ATOM     17  C   UNL A   1      30.802  27.414  24.344  1.00  0.00    -0.006 A 
ATOM     18  C   UNL A   1      33.299  28.331  25.357  1.00  0.00     0.001 A 
ATOM     19  C   UNL A   1      31.127  28.797  24.359  1.00  0.00    -0.018 A 
ATOM     20  C   UNL A   1      29.538  27.263  23.614  1.00  0.00     0.009 A 
ATOM     21  C   UNL A   1      32.350  29.220  24.868  1.00  0.00     0.009 A 
ATOM     22  C   UNL A   1      30.283  29.815  23.819  1.00  0.00     0.009 A 
ATOM     23  C   UNL A   1      28.706  28.250  23.053  1.00  0.00     0.001 A 
ATOM     24  C   UNL A   1      29.080  29.554  23.175  1.00  0.00     0.001 A 
ENDBRANCH  12  15
ENDBRANCH   7  11
ENDBRANCH   5   7
ENDBRANCH   4   5
ENDBRANCH   3   4
ENDBRANCH   2   3
ENDBRANCH   1   2
BRANCH   1  25
ATOM     25  C   UNL A   1      40.379  20.700  26.497  1.00  0.00     0.202 C 
BRANCH  25  26
ATOM     26  C   UNL A   1      41.914  21.196  26.151  1.00  0.00     0.261 C 
BRANCH  26  27
ATOM     27  O   UNL A   1      42.154  22.291  25.152  1.00  0.00    -0.460 OA
BRANCH  27  28
ATOM     28  C   UNL A   1      43.031  23.342  25.346  1.00  0.00     0.338 C 
ATOM     29  O   UNL A   1      44.114  23.426  24.786  1.00  0.00    -0.246 OA
BRANCH  28  30
ATOM     30  C   UNL A   1      42.531  24.461  26.280  1.00  0.00     0.060 A 
ATOM     31  C   UNL A   1      43.057  25.762  26.242  1.00  0.00     0.016 A 
ATOM     32  C   UNL A   1      41.672  24.209  27.354  1.00  0.00     0.016 A 
ATOM     33  C   UNL A   1      42.622  26.818  27.079  1.00  0.00     0.010 A 
ATOM     34  C   UNL A   1      41.293  25.245  28.268  1.00  0.00     0.010 A 
ATOM     35  C   UNL A   1      41.739  26.574  28.127  1.00  0.00    -0.014 A 
BRANCH  35  36
ATOM     36  C   UNL A   1      41.446  27.639  29.153  1.00  0.00     0.031 A 
ATOM     37  C   UNL A   1      42.308  27.738  30.389  1.00  0.00     0.074 A 
ATOM     38  C   UNL A   1      40.471  28.564  29.009  1.00  0.00     0.049 A 
ATOM     39  N   UNL A   1      42.103  28.383  31.513  1.00  0.00    -0.248 NA
ATOM     40  C   UNL A   1      43.594  27.028  30.336  1.00  0.00     0.031 C 
ATOM     41  C   UNL A   1      39.667  28.770  27.808  1.00  0.00     0.029 A 
ATOM     42  N   UNL A   1      39.987  29.508  29.897  1.00  0.00    -0.354 N 
ATOM     43  C   UNL A   1      43.205  28.112  32.317  1.00  0.00     0.074 A 
ATOM     44  C   UNL A   1      44.096  27.282  31.535  1.00  0.00     0.031 C 
ATOM     45  C   UNL A   1      38.765  29.742  28.047  1.00  0.00     0.029 A 
ATOM     46  C   UNL A   1      38.875  30.180  29.439  1.00  0.00     0.049 A 
ATOM     47  H   UNL A   1      40.400  29.683  30.774  1.00  0.00     0.167 HD
ATOM     48  C   UNL A   1      43.441  28.491  33.598  1.00  0.00     0.037 A 
ATOM     49  C   UNL A   1      38.009  30.998  30.081  1.00  0.00     0.037 A 
ATOM     50  C   UNL A   1      42.563  29.320  34.384  1.00  0.00     0.049 A 
ATOM     51  C   UNL A   1      38.200  31.295  31.554  1.00  0.00     0.074 A 
ATOM     52  C   UNL A   1      42.680  29.695  35.712  1.00  0.00     0.029 A 
ATOM     53  N   UNL A   1      41.401  29.909  33.907  1.00  0.00    -0.354 N 
ATOM     54  N   UNL A   1      39.172  30.932  32.356  1.00  0.00    -0.248 NA
ATOM     55  C   UNL A   1      37.156  32.095  32.220  1.00  0.00     0.031 C 
ATOM     56  C   UNL A   1      41.565  30.471  36.052  1.00  0.00     0.029 A 
ATOM     57  C   UNL A   1      40.783  30.626  34.920  1.00  0.00     0.049 A 
ATOM     58  H   UNL A   1      41.065  29.828  32.986  1.00  0.00     0.167 HD
ATOM     59  C   UNL A   1      38.869  31.473  33.602  1.00  0.00     0.074 A 
ATOM     60  C   UNL A   1      37.630  32.202  33.453  1.00  0.00     0.031 C 
ATOM     61  C   UNL A   1      39.558  31.368  34.766  1.00  0.00     0.037 A 
BRANCH  48  62
ATOM     62  C   UNL A   1      44.660  27.922  34.268  1.00  0.00     0.064 A 
ATOM     63  C   UNL A   1      45.887  28.598  34.292  1.00  0.00     0.173 A 
ATOM     64  C   UNL A   1      44.588  26.670  34.899  1.00  0.00     0.173 A 
ATOM     65  F   UNL A   1      46.014  29.791  33.691  1.00  0.00    -0.203 F 
ATOM     66  C   UNL A   1      47.007  28.024  34.892  1.00  0.00     0.198 A 
ATOM     67  C   UNL A   1      45.701  26.113  35.523  1.00  0.00     0.198 A 
ATOM     68  F   UNL A   1      43.434  25.985  34.914  1.00  0.00    -0.203 F 
ATOM     69  F   UNL A   1      48.186  28.662  34.854  1.00  0.00    -0.200 F 
ATOM     70  C   UNL A   1      46.913  26.786  35.509  1.00  0.00     0.200 A 
ATOM     71  F   UNL A   1      45.602  24.923  36.130  1.00  0.00    -0.200 F 
ATOM     72  F   UNL A   1      47.992  26.235  36.082  1.00  0.00    -0.200 F 
ENDBRANCH  48  62
BRANCH  49  73
ATOM     73  C   UNL A   1      36.805  31.531  29.374  1.00  0.00     0.064 A 
ATOM     74  C   UNL A   1      35.732  30.699  29.019  1.00  0.00     0.173 A 
ATOM     75  C   UNL A   1      36.733  32.876  28.981  1.00  0.00     0.173 A 
ATOM     76  F   UNL A   1      35.770  29.392  29.320  1.00  0.00    -0.203 F 
ATOM     77  C   UNL A   1      34.643  31.188  28.297  1.00  0.00     0.198 A 
ATOM     78  C   UNL A   1      35.629  33.373  28.289  1.00  0.00     0.198 A 
ATOM     79  F   UNL A   1      37.742  33.713  29.261  1.00  0.00    -0.203 F 
ATOM     80  F   UNL A   1      33.660  30.358  27.924  1.00  0.00    -0.200 F 
ATOM     81  C   UNL A   1      34.587  32.528  27.941  1.00  0.00     0.200 A 
ATOM     82  F   UNL A   1      35.581  34.668  27.947  1.00  0.00    -0.200 F 
ATOM     83  F   UNL A   1      33.540  32.999  27.250  1.00  0.00    -0.200 F 
ENDBRANCH  49  73
BRANCH  61  84
ATOM     84  C   UNL A   1      39.025  32.096  35.967  1.00  0.00     0.064 A 
ATOM     85  C   UNL A   1      38.177  31.473  36.896  1.00  0.00     0.173 A 
ATOM     86  C   UNL A   1      39.412  33.421  36.222  1.00  0.00     0.173 A 
ATOM     87  F   UNL A   1      37.767  30.212  36.694  1.00  0.00    -0.203 F 
ATOM     88  C   UNL A   1      37.724  32.155  38.023  1.00  0.00     0.198 A 
ATOM     89  C   UNL A   1      38.978  34.092  37.364  1.00  0.00     0.198 A 
ATOM     90  F   UNL A   1      40.227  34.063  35.372  1.00  0.00    -0.203 F 
ATOM     91  F   UNL A   1      36.885  31.552  38.877  1.00  0.00    -0.200 F 
ATOM     92  C   UNL A   1      38.130  33.460  38.260  1.00  0.00     0.200 A 
ATOM     93  F   UNL A   1      39.382  35.347  37.597  1.00  0.00    -0.200 F 
ATOM     94  F   UNL A   1      37.700  34.110  39.350  1.00  0.00    -0.200 F 
ENDBRANCH  61  84
ENDBRANCH  35  36
ENDBRANCH  28  30
ENDBRANCH  27  28
ENDBRANCH  26  27
ENDBRANCH  25  26
ENDBRANCH   1  25
TORSDOF 17
ENDMDL
MODEL 3
REMARK VINA RESULT:     -11.5      1.967      4.242
REMARK SMILES CC[C@@](C)(NC(=O)c1cccc2ccccc12)C(=O)OCCOCCOC(=O)c1ccc(-c2c3nc(c(-c4c(F)c(F)c(F)c(F)c4F)c4ccc([nH]4)c(-c4c(F)c(F)c(F)c(F)c4F)c4nc(c(-c5c(F)c(F)c(F)c(F)c5F)c5ccc2[nH]5)C=C4)C=C3)cc1
REMARK SMILES IDX 23 1 22 2 21 3 20 4 18 5 19 6 3 7 4 8 2 9 1 10 5 11 6 12
REMARK SMILES IDX 7 14 8 15 9 16 17 17 10 18 12 19 16 20 11 21 13 22 15 23
REMARK SMILES IDX 14 24 24 25 25 26 26 27 27 28 28 29 29 30 30 31 91 32 31 33
REMARK SMILES IDX 90 34 32 35 33 36 34 37 84 38 35 39 89 40 83 41 85 42 36 43
REMARK SMILES IDX 88 44 82 45 81 46 37 48 69 49 49 50 68 51 50 52 53 53 67 54
REMARK SMILES IDX 86 55 51 56 52 57 66 59 87 60 54 61 38 62 39 63 47 64 40 65
REMARK SMILES IDX 41 66 45 67 48 68 42 69 43 70 46 71 44 72 70 73 71 74 79 75
REMARK SMILES IDX 72 76 73 77 77 78 80 79 74 80 75 81 78 82 76 83 55 84 56 85
REMARK SMILES IDX 64 86 57 87 58 88 62 89 65 90 59 91 60 92 63 93 61 94
REMARK H PARENT 5 13 85 47 53 58
REMARK Flexibility Score: inf
ROOT
ATOM      1  O   UNL A   1      31.705  30.564  25.576  1.00  0.00    -0.374 OA
ENDROOT
BRANCH   1   2
ATOM      2  C   UNL A   1      32.500  29.379  25.408  1.00  0.00     0.202 C 
BRANCH   2   3
ATOM      3  C   UNL A   1      32.658  28.603  26.747  1.00  0.00     0.261 C 
BRANCH   3   4
ATOM      4  O   UNL A   1      33.203  27.300  26.541  1.00  0.00    -0.462 OA
BRANCH   4   5
ATOM      5  C   UNL A   1      32.302  26.327  26.288  1.00  0.00     0.331 C 
ATOM      6  O   UNL A   1      31.220  26.282  26.831  1.00  0.00    -0.249 OA
BRANCH   5   7
ATOM      7  C   UNL A   1      32.888  25.288  25.298  1.00  0.00     0.135 C 
ATOM      8  C   UNL A   1      34.420  25.429  25.264  1.00  0.00     0.047 C 
BRANCH   7   9
ATOM      9  C   UNL A   1      32.618  23.806  25.827  1.00  0.00     0.037 C 
ATOM     10  C   UNL A   1      33.596  23.197  26.837  1.00  0.00     0.007 C 
ENDBRANCH   7   9
BRANCH   7  11
ATOM     11  N   UNL A   1      32.304  25.452  23.881  1.00  0.00    -0.336 N 
ATOM     12  C   UNL A   1      31.785  26.583  23.211  1.00  0.00     0.252 C 
ATOM     13  H   UNL A   1      32.288  24.623  23.350  1.00  0.00     0.165 HD
ATOM     14  O   UNL A   1      32.613  27.208  22.534  1.00  0.00    -0.269 OA
BRANCH  12  15
ATOM     15  C   UNL A   1      30.297  27.126  23.200  1.00  0.00     0.047 A 
ATOM     16  C   UNL A   1      29.521  26.180  23.889  1.00  0.00     0.014 A 
ATOM     17  C   UNL A   1      29.610  28.443  22.790  1.00  0.00    -0.006 A 
ATOM     18  C   UNL A   1      28.166  26.375  24.109  1.00  0.00     0.001 A 
ATOM     19  C   UNL A   1      28.210  28.548  23.010  1.00  0.00    -0.018 A 
ATOM     20  C   UNL A   1      30.072  29.727  22.251  1.00  0.00     0.009 A 
ATOM     21  C   UNL A   1      27.527  27.520  23.649  1.00  0.00     0.009 A 
ATOM     22  C   UNL A   1      27.438  29.698  22.663  1.00  0.00     0.009 A 
ATOM     23  C   UNL A   1      29.332  30.879  21.926  1.00  0.00     0.001 A 
ATOM     24  C   UNL A   1      27.983  30.855  22.121  1.00  0.00     0.001 A 
ENDBRANCH  12  15
ENDBRANCH   7  11
ENDBRANCH   5   7
ENDBRANCH   4   5
ENDBRANCH   3   4
ENDBRANCH   2   3
ENDBRANCH   1   2
BRANCH   1  25
ATOM     25  C   UNL A   1      31.671  31.256  26.822  1.00  0.00     0.202 C 
BRANCH  25  26
ATOM     26  C   UNL A   1      32.708  32.514  27.076  1.00  0.00     0.261 C 
BRANCH  26  27
ATOM     27  O   UNL A   1      32.208  33.811  27.645  1.00  0.00    -0.460 OA
BRANCH  27  28
ATOM     28  C   UNL A   1      32.916  34.593  28.537  1.00  0.00     0.338 C 
ATOM     29  O   UNL A   1      32.540  35.693  28.911  1.00  0.00    -0.246 OA
BRANCH  28  30
ATOM     30  C   UNL A   1      34.206  33.962  29.096  1.00  0.00     0.060 A 
ATOM     31  C   UNL A   1      34.202  33.106  30.209  1.00  0.00     0.016 A 
ATOM     32  C   UNL A   1      35.477  34.355  28.665  1.00  0.00     0.016 A 
ATOM     33  C   UNL A   1      35.364  32.503  30.749  1.00  0.00     0.010 A 
ATOM     34  C   UNL A   1      36.666  33.825  29.263  1.00  0.00     0.010 A 
ATOM     35  C   UNL A   1      36.628  32.868  30.296  1.00  0.00    -0.014 A 
BRANCH  35  36
ATOM     36  C   UNL A   1      37.870  32.401  31.012  1.00  0.00     0.031 A 
ATOM     37  C   UNL A   1      38.725  31.323  30.389  1.00  0.00     0.074 A 
ATOM     38  C   UNL A   1      38.305  32.934  32.175  1.00  0.00     0.049 A 
ATOM     39  N   UNL A   1      39.674  30.587  30.918  1.00  0.00    -0.248 NA
ATOM     40  C   UNL A   1      38.492  31.060  28.962  1.00  0.00     0.031 C 
ATOM     41  C   UNL A   1      37.743  34.111  32.832  1.00  0.00     0.029 A 
ATOM     42  N   UNL A   1      39.327  32.540  33.019  1.00  0.00    -0.354 N 
ATOM     43  C   UNL A   1      40.110  29.739  29.905  1.00  0.00     0.074 A 
ATOM     44  C   UNL A   1      39.355  30.084  28.720  1.00  0.00     0.031 C 
ATOM     45  C   UNL A   1      38.396  34.317  33.992  1.00  0.00     0.029 A 
ATOM     46  C   UNL A   1      39.375  33.248  34.200  1.00  0.00     0.049 A 
ATOM     47  H   UNL A   1      39.963  31.822  32.796  1.00  0.00     0.167 HD
ATOM     48  C   UNL A   1      41.031  28.744  29.962  1.00  0.00     0.037 A 
ATOM     49  C   UNL A   1      40.070  33.024  35.339  1.00  0.00     0.037 A 
ATOM     50  C   UNL A   1      41.791  28.395  31.135  1.00  0.00     0.049 A 
ATOM     51  C   UNL A   1      40.985  31.821  35.442  1.00  0.00     0.074 A 
ATOM     52  C   UNL A   1      42.691  27.357  31.310  1.00  0.00     0.029 A 
ATOM     53  N   UNL A   1      41.743  29.084  32.337  1.00  0.00    -0.354 N 
ATOM     54  N   UNL A   1      41.300  30.936  34.528  1.00  0.00    -0.248 NA
ATOM     55  C   UNL A   1      41.620  31.570  36.749  1.00  0.00     0.031 C 
ATOM     56  C   UNL A   1      43.151  27.389  32.632  1.00  0.00     0.029 A 
ATOM     57  C   UNL A   1      42.581  28.482  33.263  1.00  0.00     0.049 A 
ATOM     58  H   UNL A   1      41.195  29.884  32.508  1.00  0.00     0.167 HD
ATOM     59  C   UNL A   1      42.179  30.045  35.137  1.00  0.00     0.074 A 
ATOM     60  C   UNL A   1      42.361  30.500  36.497  1.00  0.00     0.031 C 
ATOM     61  C   UNL A   1      42.776  28.946  34.612  1.00  0.00     0.037 A 
BRANCH  48  62
ATOM     62  C   UNL A   1      41.192  27.889  28.737  1.00  0.00     0.064 A 
ATOM     63  C   UNL A   1      42.175  28.140  27.771  1.00  0.00     0.173 A 
ATOM     64  C   UNL A   1      40.338  26.792  28.535  1.00  0.00     0.173 A 
ATOM     65  F   UNL A   1      43.007  29.183  27.908  1.00  0.00    -0.203 F 
ATOM     66  C   UNL A   1      42.274  27.347  26.628  1.00  0.00     0.198 A 
ATOM     67  C   UNL A   1      40.459  25.985  27.408  1.00  0.00     0.198 A 
ATOM     68  F   UNL A   1      39.386  26.501  29.435  1.00  0.00    -0.203 F 
ATOM     69  F   UNL A   1      43.184  27.639  25.688  1.00  0.00    -0.200 F 
ATOM     70  C   UNL A   1      41.419  26.270  26.449  1.00  0.00     0.200 A 
ATOM     71  F   UNL A   1      39.640  24.937  27.245  1.00  0.00    -0.200 F 
ATOM     72  F   UNL A   1      41.513  25.511  25.348  1.00  0.00    -0.200 F 
ENDBRANCH  48  62
BRANCH  49  73
ATOM     73  C   UNL A   1      39.868  33.898  36.535  1.00  0.00     0.064 A 
ATOM     74  C   UNL A   1      38.998  33.532  37.574  1.00  0.00     0.173 A 
ATOM     75  C   UNL A   1      40.492  35.151  36.630  1.00  0.00     0.173 A 
ATOM     76  F   UNL A   1      38.331  32.370  37.511  1.00  0.00    -0.203 F 
ATOM     77  C   UNL A   1      38.759  34.383  38.653  1.00  0.00     0.198 A 
ATOM     78  C   UNL A   1      40.279  35.988  37.725  1.00  0.00     0.198 A 
ATOM     79  F   UNL A   1      41.307  35.572  35.652  1.00  0.00    -0.203 F 
ATOM     80  F   UNL A   1      37.882  34.031  39.603  1.00  0.00    -0.200 F 
ATOM     81  C   UNL A   1      39.408  35.607  38.734  1.00  0.00     0.200 A 
ATOM     82  F   UNL A   1      40.909  37.168  37.797  1.00  0.00    -0.200 F 
ATOM     83  F   UNL A   1      39.181  36.424  39.772  1.00  0.00    -0.200 F 
ENDBRANCH  49  73
BRANCH  61  84
ATOM     84  C   UNL A   1      43.726  28.177  35.487  1.00  0.00     0.064 A 
ATOM     85  C   UNL A   1      43.284  27.156  36.343  1.00  0.00     0.173 A 
ATOM     86  C   UNL A   1      45.106  28.428  35.427  1.00  0.00     0.173 A 
ATOM     87  F   UNL A   1      41.975  26.884  36.448  1.00  0.00    -0.203 F 
ATOM     88  C   UNL A   1      44.187  26.430  37.118  1.00  0.00     0.198 A 
ATOM     89  C   UNL A   1      46.008  27.683  36.183  1.00  0.00     0.198 A 
ATOM     90  F   UNL A   1      45.584  29.387  34.619  1.00  0.00    -0.203 F 
ATOM     91  F   UNL A   1      43.739  25.486  37.957  1.00  0.00    -0.200 F 
ATOM     92  C   UNL A   1      45.547  26.688  37.032  1.00  0.00     0.200 A 
ATOM     93  F   UNL A   1      47.322  27.924  36.088  1.00  0.00    -0.200 F 
ATOM     94  F   UNL A   1      46.413  25.982  37.771  1.00  0.00    -0.200 F 
ENDBRANCH  61  84
ENDBRANCH  35  36
ENDBRANCH  28  30
ENDBRANCH  27  28
ENDBRANCH  26  27
ENDBRANCH  25  26
ENDBRANCH   1  25
TORSDOF 17
ENDMDL
