MODEL 1
REMARK VINA RESULT:     -10.2      0.000      0.000
REMARK SMILES C[C@H](C(=O)OCCOCCOC(=O)c1ccc(-c2c3nc(c(-c4c(F)c(F)c(F)c(F)c4F)c4ccc([nH]4)c(-c4c(F)c(F)c(F)c(F)c4F)c4nc(c(-c5c(F)c(F)c(F)c(F)c5F)c5ccc2[nH]5)C=C4)C=C3)cc1)c1ccc(-c2ccccc2)c(F)c1
REMARK SMILES IDX 8 1 7 2 6 3 5 4 3 5 4 6 2 7 1 8 77 9 78 10 89 11 79 12 87 13
REMARK SMILES IDX 80 14 88 15 81 16 82 17 86 18 83 19 85 20 84 21 9 22 10 23
REMARK SMILES IDX 11 24 12 25 13 26 14 27 15 28 76 29 16 30 75 31 17 32 18 33
REMARK SMILES IDX 19 34 69 35 20 36 74 37 68 38 70 39 21 40 73 41 67 42 66 43
REMARK SMILES IDX 22 45 54 46 34 47 53 48 35 49 38 50 52 51 71 52 36 53 37 54
REMARK SMILES IDX 51 56 72 57 39 58 23 59 24 60 32 61 25 62 26 63 30 64 33 65
REMARK SMILES IDX 27 66 28 67 31 68 29 69 55 70 56 71 64 72 57 73 58 74 62 75
REMARK SMILES IDX 65 76 59 77 60 78 63 79 61 80 40 81 41 82 49 83 42 84 43 85
REMARK SMILES IDX 47 86 50 87 44 88 45 89 48 90 46 91
REMARK H PARENT 70 44 38 55
REMARK Flexibility Score: inf
ROOT
ATOM      1  O   UNL A   1      32.590  35.013  29.803  1.00  0.00    -0.374 OA
ENDROOT
BRANCH   1   2
ATOM      2  C   UNL A   1      32.851  36.074  30.726  1.00  0.00     0.202 C 
BRANCH   2   3
ATOM      3  C   UNL A   1      32.477  35.749  32.175  1.00  0.00     0.261 C 
BRANCH   3   4
ATOM      4  O   UNL A   1      33.256  34.623  32.627  1.00  0.00    -0.463 OA
BRANCH   4   5
ATOM      5  C   UNL A   1      34.556  34.861  32.928  1.00  0.00     0.313 C 
ATOM      6  O   UNL A   1      34.946  35.832  33.570  1.00  0.00    -0.252 OA
BRANCH   5   7
ATOM      7  C   UNL A   1      35.492  33.729  32.520  1.00  0.00     0.126 C 
ATOM      8  C   UNL A   1      34.697  32.710  31.688  1.00  0.00     0.025 C 
BRANCH   7   9
ATOM      9  C   UNL A   1      36.853  34.042  31.901  1.00  0.00    -0.031 A 
ATOM     10  C   UNL A   1      37.007  33.859  30.512  1.00  0.00     0.005 A 
ATOM     11  C   UNL A   1      37.995  34.414  32.621  1.00  0.00     0.044 A 
ATOM     12  C   UNL A   1      38.243  34.021  29.876  1.00  0.00     0.012 A 
ATOM     13  C   UNL A   1      39.230  34.577  31.979  1.00  0.00     0.131 A 
ATOM     14  C   UNL A   1      39.389  34.364  30.604  1.00  0.00     0.017 A 
ATOM     15  F   UNL A   1      40.285  34.924  32.733  1.00  0.00    -0.206 F 
BRANCH  14  16
ATOM     16  C   UNL A   1      40.703  34.405  29.942  1.00  0.00    -0.015 A 
ATOM     17  C   UNL A   1      41.021  35.399  29.002  1.00  0.00     0.009 A 
ATOM     18  C   UNL A   1      41.655  33.401  30.186  1.00  0.00     0.009 A 
ATOM     19  C   UNL A   1      42.243  35.380  28.320  1.00  0.00     0.001 A 
ATOM     20  C   UNL A   1      42.874  33.378  29.504  1.00  0.00     0.001 A 
ATOM     21  C   UNL A   1      43.165  34.368  28.569  1.00  0.00     0.000 A 
ENDBRANCH  14  16
ENDBRANCH   7   9
ENDBRANCH   5   7
ENDBRANCH   4   5
ENDBRANCH   3   4
ENDBRANCH   2   3
ENDBRANCH   1   2
BRANCH   1  22
ATOM     22  C   UNL A   1      33.511  34.893  28.718  1.00  0.00     0.202 C 
BRANCH  22  23
ATOM     23  C   UNL A   1      33.475  33.551  27.984  1.00  0.00     0.261 C 
BRANCH  23  24
ATOM     24  O   UNL A   1      34.628  32.757  28.311  1.00  0.00    -0.460 OA
BRANCH  24  25
ATOM     25  C   UNL A   1      34.461  31.429  28.130  1.00  0.00     0.338 C 
ATOM     26  O   UNL A   1      33.468  30.859  27.693  1.00  0.00    -0.246 OA
BRANCH  25  27
ATOM     27  C   UNL A   1      35.723  30.718  28.395  1.00  0.00     0.060 A 
ATOM     28  C   UNL A   1      35.714  29.758  29.416  1.00  0.00     0.016 A 
ATOM     29  C   UNL A   1      36.906  31.019  27.715  1.00  0.00     0.016 A 
ATOM     30  C   UNL A   1      36.900  29.147  29.808  1.00  0.00     0.010 A 
ATOM     31  C   UNL A   1      38.098  30.405  28.112  1.00  0.00     0.010 A 
ATOM     32  C   UNL A   1      38.105  29.500  29.188  1.00  0.00    -0.014 A 
BRANCH  32  33
ATOM     33  C   UNL A   1      39.383  29.042  29.780  1.00  0.00     0.031 A 
ATOM     34  C   UNL A   1      39.911  29.745  31.000  1.00  0.00     0.074 A 
ATOM     35  C   UNL A   1      40.040  27.989  29.265  1.00  0.00     0.049 A 
ATOM     36  N   UNL A   1      41.008  29.524  31.679  1.00  0.00    -0.248 NA
ATOM     37  C   UNL A   1      39.090  30.847  31.526  1.00  0.00     0.031 C 
ATOM     38  C   UNL A   1      39.607  27.210  28.107  1.00  0.00     0.029 A 
ATOM     39  N   UNL A   1      41.216  27.398  29.651  1.00  0.00    -0.354 N 
ATOM     40  C   UNL A   1      41.008  30.457  32.707  1.00  0.00     0.074 A 
ATOM     41  C   UNL A   1      39.823  31.270  32.545  1.00  0.00     0.031 C 
ATOM     42  C   UNL A   1      40.513  26.247  27.868  1.00  0.00     0.029 A 
ATOM     43  C   UNL A   1      41.600  26.361  28.839  1.00  0.00     0.049 A 
ATOM     44  H   UNL A   1      41.735  27.689  30.435  1.00  0.00     0.167 HD
ATOM     45  C   UNL A   1      41.911  30.613  33.704  1.00  0.00     0.037 A 
ATOM     46  C   UNL A   1      42.714  25.604  28.868  1.00  0.00     0.037 A 
ATOM     47  C   UNL A   1      43.091  29.803  33.861  1.00  0.00     0.049 A 
ATOM     48  C   UNL A   1      43.736  25.838  29.950  1.00  0.00     0.074 A 
ATOM     49  C   UNL A   1      44.063  29.873  34.842  1.00  0.00     0.029 A 
ATOM     50  N   UNL A   1      43.459  28.777  33.003  1.00  0.00    -0.354 N 
ATOM     51  N   UNL A   1      43.717  26.705  30.933  1.00  0.00    -0.248 NA
ATOM     52  C   UNL A   1      44.931  24.983  29.928  1.00  0.00     0.031 C 
ATOM     53  C   UNL A   1      45.044  28.919  34.553  1.00  0.00     0.029 A 
ATOM     54  C   UNL A   1      44.657  28.221  33.420  1.00  0.00     0.049 A 
ATOM     55  H   UNL A   1      42.946  28.488  32.214  1.00  0.00     0.167 HD
ATOM     56  C   UNL A   1      44.879  26.485  31.662  1.00  0.00     0.074 A 
ATOM     57  C   UNL A   1      45.574  25.391  31.014  1.00  0.00     0.031 C 
ATOM     58  C   UNL A   1      45.331  27.128  32.766  1.00  0.00     0.037 A 
BRANCH  45  59
ATOM     59  C   UNL A   1      41.668  31.716  34.693  1.00  0.00     0.064 A 
ATOM     60  C   UNL A   1      40.866  31.523  35.828  1.00  0.00     0.173 A 
ATOM     61  C   UNL A   1      42.266  32.973  34.518  1.00  0.00     0.173 A 
ATOM     62  F   UNL A   1      40.259  30.345  36.033  1.00  0.00    -0.203 F 
ATOM     63  C   UNL A   1      40.654  32.555  36.739  1.00  0.00     0.198 A 
ATOM     64  C   UNL A   1      42.076  33.993  35.445  1.00  0.00     0.198 A 
ATOM     65  F   UNL A   1      43.044  33.208  33.451  1.00  0.00    -0.203 F 
ATOM     66  F   UNL A   1      39.849  32.362  37.793  1.00  0.00    -0.200 F 
ATOM     67  C   UNL A   1      41.264  33.786  36.550  1.00  0.00     0.200 A 
ATOM     68  F   UNL A   1      42.674  35.180  35.267  1.00  0.00    -0.200 F 
ATOM     69  F   UNL A   1      41.065  34.777  37.431  1.00  0.00    -0.200 F 
ENDBRANCH  45  59
BRANCH  46  70
ATOM     70  C   UNL A   1      42.927  24.561  27.831  1.00  0.00     0.064 A 
ATOM     71  C   UNL A   1      42.570  23.225  28.062  1.00  0.00     0.173 A 
ATOM     72  C   UNL A   1      43.504  24.878  26.592  1.00  0.00     0.173 A 
ATOM     73  F   UNL A   1      42.039  22.868  29.240  1.00  0.00    -0.203 F 
ATOM     74  C   UNL A   1      42.797  22.244  27.099  1.00  0.00     0.198 A 
ATOM     75  C   UNL A   1      43.704  23.901  25.620  1.00  0.00     0.198 A 
ATOM     76  F   UNL A   1      43.865  26.141  26.324  1.00  0.00    -0.203 F 
ATOM     77  F   UNL A   1      42.488  20.966  27.361  1.00  0.00    -0.200 F 
ATOM     78  C   UNL A   1      43.358  22.584  25.877  1.00  0.00     0.200 A 
ATOM     79  F   UNL A   1      44.237  24.236  24.436  1.00  0.00    -0.200 F 
ATOM     80  F   UNL A   1      43.573  21.639  24.950  1.00  0.00    -0.200 F 
ENDBRANCH  46  70
BRANCH  58  81
ATOM     81  C   UNL A   1      46.620  26.647  33.365  1.00  0.00     0.064 A 
ATOM     82  C   UNL A   1      46.651  25.619  34.319  1.00  0.00     0.173 A 
ATOM     83  C   UNL A   1      47.843  27.192  32.947  1.00  0.00     0.173 A 
ATOM     84  F   UNL A   1      45.507  25.075  34.762  1.00  0.00    -0.203 F 
ATOM     85  C   UNL A   1      47.857  25.171  34.850  1.00  0.00     0.198 A 
ATOM     86  C   UNL A   1      49.050  26.722  33.459  1.00  0.00     0.198 A 
ATOM     87  F   UNL A   1      47.869  28.172  32.032  1.00  0.00    -0.203 F 
ATOM     88  F   UNL A   1      47.861  24.219  35.793  1.00  0.00    -0.200 F 
ATOM     89  C   UNL A   1      49.056  25.717  34.414  1.00  0.00     0.200 A 
ATOM     90  F   UNL A   1      50.208  27.242  33.026  1.00  0.00    -0.200 F 
ATOM     91  F   UNL A   1      50.216  25.281  34.921  1.00  0.00    -0.200 F 
ENDBRANCH  58  81
ENDBRANCH  32  33
ENDBRANCH  25  27
ENDBRANCH  24  25
ENDBRANCH  23  24
ENDBRANCH  22  23
ENDBRANCH   1  22
TORSDOF 16
ENDMDL
MODEL 2
REMARK VINA RESULT:      -9.9      4.528     10.756
REMARK SMILES C[C@H](C(=O)OCCOCCOC(=O)c1ccc(-c2c3nc(c(-c4c(F)c(F)c(F)c(F)c4F)c4ccc([nH]4)c(-c4c(F)c(F)c(F)c(F)c4F)c4nc(c(-c5c(F)c(F)c(F)c(F)c5F)c5ccc2[nH]5)C=C4)C=C3)cc1)c1ccc(-c2ccccc2)c(F)c1
REMARK SMILES IDX 8 1 7 2 6 3 5 4 3 5 4 6 2 7 1 8 77 9 78 10 89 11 79 12 87 13
REMARK SMILES IDX 80 14 88 15 81 16 82 17 86 18 83 19 85 20 84 21 9 22 10 23
REMARK SMILES IDX 11 24 12 25 13 26 14 27 15 28 76 29 16 30 75 31 17 32 18 33
REMARK SMILES IDX 19 34 69 35 20 36 74 37 68 38 70 39 21 40 73 41 67 42 66 43
REMARK SMILES IDX 22 45 54 46 34 47 53 48 35 49 38 50 52 51 71 52 36 53 37 54
REMARK SMILES IDX 51 56 72 57 39 58 23 59 24 60 32 61 25 62 26 63 30 64 33 65
REMARK SMILES IDX 27 66 28 67 31 68 29 69 55 70 56 71 64 72 57 73 58 74 62 75
REMARK SMILES IDX 65 76 59 77 60 78 63 79 61 80 40 81 41 82 49 83 42 84 43 85
REMARK SMILES IDX 47 86 50 87 44 88 45 89 48 90 46 91
REMARK H PARENT 70 44 38 55
REMARK Flexibility Score: inf
ROOT
ATOM      1  O   UNL A   1      32.964  29.143  24.731  1.00  0.00    -0.374 OA
ENDROOT
BRANCH   1   2
ATOM      2  C   UNL A   1      33.278  28.623  23.436  1.00  0.00     0.202 C 
BRANCH   2   3
ATOM      3  C   UNL A   1      32.411  27.434  23.013  1.00  0.00     0.261 C 
BRANCH   3   4
ATOM      4  O   UNL A   1      32.731  26.294  23.836  1.00  0.00    -0.463 OA
BRANCH   4   5
ATOM      5  C   UNL A   1      33.594  25.387  23.316  1.00  0.00     0.313 C 
ATOM      6  O   UNL A   1      33.884  25.319  22.126  1.00  0.00    -0.252 OA
BRANCH   5   7
ATOM      7  C   UNL A   1      34.295  24.540  24.371  1.00  0.00     0.126 C 
ATOM      8  C   UNL A   1      33.949  25.101  25.760  1.00  0.00     0.025 C 
BRANCH   7   9
ATOM      9  C   UNL A   1      34.197  23.016  24.325  1.00  0.00    -0.031 A 
ATOM     10  C   UNL A   1      32.959  22.443  23.970  1.00  0.00     0.005 A 
ATOM     11  C   UNL A   1      35.221  22.136  24.694  1.00  0.00     0.044 A 
ATOM     12  C   UNL A   1      32.749  21.060  24.002  1.00  0.00     0.012 A 
ATOM     13  C   UNL A   1      35.005  20.751  24.721  1.00  0.00     0.131 A 
ATOM     14  C   UNL A   1      33.766  20.184  24.400  1.00  0.00     0.017 A 
ATOM     15  F   UNL A   1      36.028  19.967  25.097  1.00  0.00    -0.206 F 
BRANCH  14  16
ATOM     16  C   UNL A   1      33.490  18.746  24.550  1.00  0.00    -0.015 A 
ATOM     17  C   UNL A   1      32.725  18.253  25.620  1.00  0.00     0.009 A 
ATOM     18  C   UNL A   1      34.049  17.816  23.658  1.00  0.00     0.009 A 
ATOM     19  C   UNL A   1      32.537  16.878  25.797  1.00  0.00     0.001 A 
ATOM     20  C   UNL A   1      33.866  16.442  23.835  1.00  0.00     0.001 A 
ATOM     21  C   UNL A   1      33.112  15.975  24.907  1.00  0.00     0.000 A 
ENDBRANCH  14  16
ENDBRANCH   7   9
ENDBRANCH   5   7
ENDBRANCH   4   5
ENDBRANCH   3   4
ENDBRANCH   2   3
ENDBRANCH   1   2
BRANCH   1  22
ATOM     22  C   UNL A   1      31.654  29.692  24.879  1.00  0.00     0.202 C 
BRANCH  22  23
ATOM     23  C   UNL A   1      31.509  30.729  25.994  1.00  0.00     0.261 C 
BRANCH  23  24
ATOM     24  O   UNL A   1      32.526  30.552  26.994  1.00  0.00    -0.460 OA
BRANCH  24  25
ATOM     25  C   UNL A   1      33.234  31.668  27.275  1.00  0.00     0.338 C 
ATOM     26  O   UNL A   1      32.832  32.825  27.260  1.00  0.00    -0.246 OA
BRANCH  25  27
ATOM     27  C   UNL A   1      34.575  31.307  27.766  1.00  0.00     0.060 A 
ATOM     28  C   UNL A   1      34.797  29.962  28.091  1.00  0.00     0.016 A 
ATOM     29  C   UNL A   1      35.577  32.260  27.968  1.00  0.00     0.016 A 
ATOM     30  C   UNL A   1      35.994  29.578  28.685  1.00  0.00     0.010 A 
ATOM     31  C   UNL A   1      36.779  31.873  28.567  1.00  0.00     0.010 A 
ATOM     32  C   UNL A   1      36.973  30.539  28.967  1.00  0.00    -0.014 A 
BRANCH  32  33
ATOM     33  C   UNL A   1      38.123  30.168  29.824  1.00  0.00     0.031 A 
ATOM     34  C   UNL A   1      39.148  29.207  29.287  1.00  0.00     0.074 A 
ATOM     35  C   UNL A   1      38.276  30.713  31.042  1.00  0.00     0.049 A 
ATOM     36  N   UNL A   1      40.226  28.734  29.858  1.00  0.00    -0.248 NA
ATOM     37  C   UNL A   1      38.925  28.711  27.919  1.00  0.00     0.031 C 
ATOM     38  C   UNL A   1      37.367  31.680  31.653  1.00  0.00     0.029 A 
ATOM     39  N   UNL A   1      39.254  30.524  31.986  1.00  0.00    -0.354 N 
ATOM     40  C   UNL A   1      40.807  27.888  28.923  1.00  0.00     0.074 A 
ATOM     41  C   UNL A   1      39.947  27.883  27.760  1.00  0.00     0.031 C 
ATOM     42  C   UNL A   1      37.824  31.993  32.877  1.00  0.00     0.029 A 
ATOM     43  C   UNL A   1      39.041  31.228  33.144  1.00  0.00     0.049 A 
ATOM     44  H   UNL A   1      40.033  29.939  31.846  1.00  0.00     0.167 HD
ATOM     45  C   UNL A   1      41.962  27.187  29.022  1.00  0.00     0.037 A 
ATOM     46  C   UNL A   1      39.740  31.236  34.295  1.00  0.00     0.037 A 
ATOM     47  C   UNL A   1      42.814  27.194  30.181  1.00  0.00     0.049 A 
ATOM     48  C   UNL A   1      40.988  30.399  34.404  1.00  0.00     0.074 A 
ATOM     49  C   UNL A   1      44.010  26.527  30.378  1.00  0.00     0.029 A 
ATOM     50  N   UNL A   1      42.552  27.900  31.346  1.00  0.00    -0.354 N 
ATOM     51  N   UNL A   1      41.545  29.621  33.507  1.00  0.00    -0.248 NA
ATOM     52  C   UNL A   1      41.708  30.446  35.685  1.00  0.00     0.031 C 
ATOM     53  C   UNL A   1      44.449  26.794  31.679  1.00  0.00     0.029 A 
ATOM     54  C   UNL A   1      43.554  27.668  32.275  1.00  0.00     0.049 A 
ATOM     55  H   UNL A   1      41.770  28.480  31.492  1.00  0.00     0.167 HD
ATOM     56  C   UNL A   1      42.690  29.108  34.101  1.00  0.00     0.074 A 
ATOM     57  C   UNL A   1      42.757  29.675  35.433  1.00  0.00     0.031 C 
ATOM     58  C   UNL A   1      43.606  28.246  33.594  1.00  0.00     0.037 A 
BRANCH  45  59
ATOM     59  C   UNL A   1      42.359  26.338  27.850  1.00  0.00     0.064 A 
ATOM     60  C   UNL A   1      41.831  25.052  27.660  1.00  0.00     0.173 A 
ATOM     61  C   UNL A   1      43.257  26.827  26.889  1.00  0.00     0.173 A 
ATOM     62  F   UNL A   1      40.981  24.532  28.558  1.00  0.00    -0.203 F 
ATOM     63  C   UNL A   1      42.205  24.279  26.564  1.00  0.00     0.198 A 
ATOM     64  C   UNL A   1      43.607  26.063  25.779  1.00  0.00     0.198 A 
ATOM     65  F   UNL A   1      43.788  28.052  27.022  1.00  0.00    -0.203 F 
ATOM     66  F   UNL A   1      41.722  23.036  26.425  1.00  0.00    -0.200 F 
ATOM     67  C   UNL A   1      43.087  24.788  25.622  1.00  0.00     0.200 A 
ATOM     68  F   UNL A   1      44.451  26.559  24.864  1.00  0.00    -0.200 F 
ATOM     69  F   UNL A   1      43.441  24.045  24.564  1.00  0.00    -0.200 F 
ENDBRANCH  45  59
BRANCH  46  70
ATOM     70  C   UNL A   1      39.270  32.055  35.441  1.00  0.00     0.064 A 
ATOM     71  C   UNL A   1      39.627  33.405  35.564  1.00  0.00     0.173 A 
ATOM     72  C   UNL A   1      38.463  31.500  36.446  1.00  0.00     0.173 A 
ATOM     73  F   UNL A   1      40.417  33.974  34.643  1.00  0.00    -0.203 F 
ATOM     74  C   UNL A   1      39.208  34.164  36.655  1.00  0.00     0.198 A 
ATOM     75  C   UNL A   1      38.022  32.267  37.521  1.00  0.00     0.198 A 
ATOM     76  F   UNL A   1      38.096  30.212  36.377  1.00  0.00    -0.203 F 
ATOM     77  F   UNL A   1      39.600  35.440  36.771  1.00  0.00    -0.200 F 
ATOM     78  C   UNL A   1      38.401  33.596  37.629  1.00  0.00     0.200 A 
ATOM     79  F   UNL A   1      37.232  31.718  38.456  1.00  0.00    -0.200 F 
ATOM     80  F   UNL A   1      37.996  34.328  38.677  1.00  0.00    -0.200 F 
ENDBRANCH  46  70
BRANCH  58  81
ATOM     81  C   UNL A   1      44.774  27.888  34.464  1.00  0.00     0.064 A 
ATOM     82  C   UNL A   1      45.955  28.644  34.460  1.00  0.00     0.173 A 
ATOM     83  C   UNL A   1      44.694  26.799  35.346  1.00  0.00     0.173 A 
ATOM     84  F   UNL A   1      46.086  29.686  33.625  1.00  0.00    -0.203 F 
ATOM     85  C   UNL A   1      47.022  28.309  35.289  1.00  0.00     0.198 A 
ATOM     86  C   UNL A   1      45.752  26.484  36.195  1.00  0.00     0.198 A 
ATOM     87  F   UNL A   1      43.583  26.049  35.395  1.00  0.00    -0.203 F 
ATOM     88  F   UNL A   1      48.158  29.018  35.236  1.00  0.00    -0.200 F 
ATOM     89  C   UNL A   1      46.917  27.235  36.161  1.00  0.00     0.200 A 
ATOM     90  F   UNL A   1      45.642  25.455  37.046  1.00  0.00    -0.200 F 
ATOM     91  F   UNL A   1      47.942  26.918  36.963  1.00  0.00    -0.200 F 
ENDBRANCH  58  81
ENDBRANCH  32  33
ENDBRANCH  25  27
ENDBRANCH  24  25
ENDBRANCH  23  24
ENDBRANCH  22  23
ENDBRANCH   1  22
TORSDOF 16
ENDMDL
MODEL 3
REMARK VINA RESULT:      -9.8      5.201     10.859
REMARK SMILES C[C@H](C(=O)OCCOCCOC(=O)c1ccc(-c2c3nc(c(-c4c(F)c(F)c(F)c(F)c4F)c4ccc([nH]4)c(-c4c(F)c(F)c(F)c(F)c4F)c4nc(c(-c5c(F)c(F)c(F)c(F)c5F)c5ccc2[nH]5)C=C4)C=C3)cc1)c1ccc(-c2ccccc2)c(F)c1
REMARK SMILES IDX 8 1 7 2 6 3 5 4 3 5 4 6 2 7 1 8 77 9 78 10 89 11 79 12 87 13
REMARK SMILES IDX 80 14 88 15 81 16 82 17 86 18 83 19 85 20 84 21 9 22 10 23
REMARK SMILES IDX 11 24 12 25 13 26 14 27 15 28 76 29 16 30 75 31 17 32 18 33
REMARK SMILES IDX 19 34 69 35 20 36 74 37 68 38 70 39 21 40 73 41 67 42 66 43
REMARK SMILES IDX 22 45 54 46 34 47 53 48 35 49 38 50 52 51 71 52 36 53 37 54
REMARK SMILES IDX 51 56 72 57 39 58 23 59 24 60 32 61 25 62 26 63 30 64 33 65
REMARK SMILES IDX 27 66 28 67 31 68 29 69 55 70 56 71 64 72 57 73 58 74 62 75
REMARK SMILES IDX 65 76 59 77 60 78 63 79 61 80 40 81 41 82 49 83 42 84 43 85
REMARK SMILES IDX 47 86 50 87 44 88 45 89 48 90 46 91
REMARK H PARENT 70 44 38 55
REMARK Flexibility Score: inf
ROOT
ATOM      1  O   UNL A   1      35.835  21.717  25.854  1.00  0.00    -0.374 OA
ENDROOT
BRANCH   1   2
ATOM      2  C   UNL A   1      35.555  22.959  25.202  1.00  0.00     0.202 C 
BRANCH   2   3
ATOM      3  C   UNL A   1      35.301  22.831  23.697  1.00  0.00     0.261 C 
BRANCH   3   4
ATOM      4  O   UNL A   1      33.890  22.653  23.465  1.00  0.00    -0.463 OA
BRANCH   4   5
ATOM      5  C   UNL A   1      33.322  23.437  22.516  1.00  0.00     0.313 C 
ATOM      6  O   UNL A   1      33.466  23.268  21.309  1.00  0.00    -0.252 OA
BRANCH   5   7
ATOM      7  C   UNL A   1      32.358  24.474  23.080  1.00  0.00     0.126 C 
ATOM      8  C   UNL A   1      31.220  23.742  23.808  1.00  0.00     0.025 C 
BRANCH   7   9
ATOM      9  C   UNL A   1      32.889  25.659  23.886  1.00  0.00    -0.031 A 
ATOM     10  C   UNL A   1      32.905  25.550  25.291  1.00  0.00     0.005 A 
ATOM     11  C   UNL A   1      33.280  26.887  23.340  1.00  0.00     0.044 A 
ATOM     12  C   UNL A   1      33.276  26.622  26.111  1.00  0.00     0.012 A 
ATOM     13  C   UNL A   1      33.653  27.957  24.167  1.00  0.00     0.131 A 
ATOM     14  C   UNL A   1      33.639  27.858  25.564  1.00  0.00     0.017 A 
ATOM     15  F   UNL A   1      34.006  29.109  23.576  1.00  0.00    -0.206 F 
BRANCH  14  16
ATOM     16  C   UNL A   1      33.902  29.010  26.441  1.00  0.00    -0.015 A 
ATOM     17  C   UNL A   1      32.976  30.058  26.576  1.00  0.00     0.009 A 
ATOM     18  C   UNL A   1      35.127  29.125  27.119  1.00  0.00     0.009 A 
ATOM     19  C   UNL A   1      33.272  31.186  27.349  1.00  0.00     0.001 A 
ATOM     20  C   UNL A   1      35.427  30.251  27.889  1.00  0.00     0.001 A 
ATOM     21  C   UNL A   1      34.499  31.282  28.001  1.00  0.00     0.000 A 
ENDBRANCH  14  16
ENDBRANCH   7   9
ENDBRANCH   5   7
ENDBRANCH   4   5
ENDBRANCH   3   4
ENDBRANCH   2   3
ENDBRANCH   1   2
BRANCH   1  22
ATOM     22  C   UNL A   1      36.229  20.642  25.000  1.00  0.00     0.202 C 
BRANCH  22  23
ATOM     23  C   UNL A   1      37.710  20.266  25.074  1.00  0.00     0.261 C 
BRANCH  23  24
ATOM     24  O   UNL A   1      38.520  21.425  25.334  1.00  0.00    -0.460 OA
BRANCH  24  25
ATOM     25  C   UNL A   1      39.527  21.218  26.209  1.00  0.00     0.338 C 
ATOM     26  O   UNL A   1      40.136  20.172  26.406  1.00  0.00    -0.246 OA
BRANCH  25  27
ATOM     27  C   UNL A   1      39.930  22.491  26.831  1.00  0.00     0.060 A 
ATOM     28  C   UNL A   1      39.250  23.646  26.420  1.00  0.00     0.016 A 
ATOM     29  C   UNL A   1      40.985  22.576  27.743  1.00  0.00     0.016 A 
ATOM     30  C   UNL A   1      39.668  24.895  26.866  1.00  0.00     0.010 A 
ATOM     31  C   UNL A   1      41.405  23.832  28.188  1.00  0.00     0.010 A 
ATOM     32  C   UNL A   1      40.776  24.998  27.716  1.00  0.00    -0.014 A 
BRANCH  32  33
ATOM     33  C   UNL A   1      41.366  26.331  27.976  1.00  0.00     0.031 A 
ATOM     34  C   UNL A   1      42.760  26.615  27.486  1.00  0.00     0.074 A 
ATOM     35  C   UNL A   1      40.656  27.288  28.597  1.00  0.00     0.049 A 
ATOM     36  N   UNL A   1      43.480  27.701  27.607  1.00  0.00    -0.248 NA
ATOM     37  C   UNL A   1      43.433  25.524  26.763  1.00  0.00     0.031 C 
ATOM     38  C   UNL A   1      39.288  27.139  29.085  1.00  0.00     0.029 A 
ATOM     39  N   UNL A   1      40.996  28.576  28.928  1.00  0.00    -0.354 N 
ATOM     40  C   UNL A   1      44.686  27.425  26.977  1.00  0.00     0.074 A 
ATOM     41  C   UNL A   1      44.618  26.059  26.507  1.00  0.00     0.031 C 
ATOM     42  C   UNL A   1      38.905  28.290  29.664  1.00  0.00     0.029 A 
ATOM     43  C   UNL A   1      40.012  29.243  29.612  1.00  0.00     0.049 A 
ATOM     44  H   UNL A   1      41.863  28.981  28.697  1.00  0.00     0.167 HD
ATOM     45  C   UNL A   1      45.751  28.242  26.798  1.00  0.00     0.037 A 
ATOM     46  C   UNL A   1      40.015  30.478  30.150  1.00  0.00     0.037 A 
ATOM     47  C   UNL A   1      45.815  29.600  27.270  1.00  0.00     0.049 A 
ATOM     48  C   UNL A   1      41.235  31.347  29.992  1.00  0.00     0.074 A 
ATOM     49  C   UNL A   1      46.843  30.516  27.131  1.00  0.00     0.029 A 
ATOM     50  N   UNL A   1      44.807  30.235  27.981  1.00  0.00    -0.354 N 
ATOM     51  N   UNL A   1      42.362  31.088  29.374  1.00  0.00    -0.248 NA
ATOM     52  C   UNL A   1      41.181  32.683  30.602  1.00  0.00     0.031 C 
ATOM     53  C   UNL A   1      46.476  31.689  27.797  1.00  0.00     0.029 A 
ATOM     54  C   UNL A   1      45.198  31.523  28.307  1.00  0.00     0.049 A 
ATOM     55  H   UNL A   1      43.942  29.830  28.219  1.00  0.00     0.167 HD
ATOM     56  C   UNL A   1      43.139  32.232  29.497  1.00  0.00     0.074 A 
ATOM     57  C   UNL A   1      42.349  33.194  30.237  1.00  0.00     0.031 C 
ATOM     58  C   UNL A   1      44.394  32.468  29.039  1.00  0.00     0.037 A 
BRANCH  45  59
ATOM     59  C   UNL A   1      46.942  27.680  26.078  1.00  0.00     0.064 A 
ATOM     60  C   UNL A   1      47.034  27.707  24.678  1.00  0.00     0.173 A 
ATOM     61  C   UNL A   1      48.016  27.136  26.796  1.00  0.00     0.173 A 
ATOM     62  F   UNL A   1      46.027  28.203  23.943  1.00  0.00    -0.203 F 
ATOM     63  C   UNL A   1      48.148  27.187  24.024  1.00  0.00     0.198 A 
ATOM     64  C   UNL A   1      49.141  26.642  26.141  1.00  0.00     0.198 A 
ATOM     65  F   UNL A   1      47.978  27.089  28.137  1.00  0.00    -0.203 F 
ATOM     66  F   UNL A   1      48.197  27.181  22.684  1.00  0.00    -0.200 F 
ATOM     67  C   UNL A   1      49.203  26.661  24.756  1.00  0.00     0.200 A 
ATOM     68  F   UNL A   1      50.164  26.145  26.850  1.00  0.00    -0.200 F 
ATOM     69  F   UNL A   1      50.278  26.167  24.126  1.00  0.00    -0.200 F 
ENDBRANCH  45  59
BRANCH  46  70
ATOM     70  C   UNL A   1      38.826  30.962  30.898  1.00  0.00     0.064 A 
ATOM     71  C   UNL A   1      37.838  31.732  30.271  1.00  0.00     0.173 A 
ATOM     72  C   UNL A   1      38.662  30.673  32.261  1.00  0.00     0.173 A 
ATOM     73  F   UNL A   1      37.962  32.056  28.976  1.00  0.00    -0.203 F 
ATOM     74  C   UNL A   1      36.738  32.209  30.982  1.00  0.00     0.198 A 
ATOM     75  C   UNL A   1      37.548  31.127  32.964  1.00  0.00     0.198 A 
ATOM     76  F   UNL A   1      39.581  29.943  32.908  1.00  0.00    -0.203 F 
ATOM     77  F   UNL A   1      35.830  32.980  30.370  1.00  0.00    -0.200 F 
ATOM     78  C   UNL A   1      36.592  31.901  32.327  1.00  0.00     0.200 A 
ATOM     79  F   UNL A   1      37.405  30.818  34.261  1.00  0.00    -0.200 F 
ATOM     80  F   UNL A   1      35.532  32.357  33.009  1.00  0.00    -0.200 F 
ENDBRANCH  46  70
BRANCH  58  81
ATOM     81  C   UNL A   1      44.977  33.826  29.295  1.00  0.00     0.064 A 
ATOM     82  C   UNL A   1      44.779  34.893  28.407  1.00  0.00     0.173 A 
ATOM     83  C   UNL A   1      45.709  34.075  30.467  1.00  0.00     0.173 A 
ATOM     84  F   UNL A   1      44.100  34.703  27.265  1.00  0.00    -0.203 F 
ATOM     85  C   UNL A   1      45.311  36.153  28.670  1.00  0.00     0.198 A 
ATOM     86  C   UNL A   1      46.215  35.343  30.741  1.00  0.00     0.198 A 
ATOM     87  F   UNL A   1      45.920  33.091  31.354  1.00  0.00    -0.203 F 
ATOM     88  F   UNL A   1      45.148  37.145  27.785  1.00  0.00    -0.200 F 
ATOM     89  C   UNL A   1      46.022  36.378  29.840  1.00  0.00     0.200 A 
ATOM     90  F   UNL A   1      46.889  35.562  31.879  1.00  0.00    -0.200 F 
ATOM     91  F   UNL A   1      46.527  37.592  30.094  1.00  0.00    -0.200 F 
ENDBRANCH  58  81
ENDBRANCH  32  33
ENDBRANCH  25  27
ENDBRANCH  24  25
ENDBRANCH  23  24
ENDBRANCH  22  23
ENDBRANCH   1  22
TORSDOF 16
ENDMDL
