MODEL 1
REMARK VINA RESULT:     -10.6      0.000      0.000
REMARK SMILES C[C@H]([C@@H](C)O)[NH+]1CCC(C)(C(=O)OCCOCCOC(=O)c2ccc(-c3c4nc(c(-c5c(F)c(F)c(F)c(F)c5F)c5ccc([nH]5)c(-c5c(F)c(F)c(F)c(F)c5F)c5nc(c(-c6c(F)c(F)c(F)c(F)c6F)c6ccc3[nH]6)C=C5)C=C4)cc2)CC1
REMARK SMILES IDX 15 1 14 2 13 3 11 4 12 5 9 6 6 7 7 8 86 9 8 11 85 12 10 13
REMARK SMILES IDX 2 14 1 15 3 16 4 17 5 18 16 20 17 21 18 22 19 23 20 24 21 25
REMARK SMILES IDX 22 26 23 27 84 28 24 29 83 30 25 31 26 32 27 33 77 34 28 35
REMARK SMILES IDX 82 36 76 37 78 38 29 39 81 40 75 41 74 42 30 44 62 45 42 46
REMARK SMILES IDX 61 47 43 48 46 49 60 50 79 51 44 52 45 53 59 55 80 56 47 57
REMARK SMILES IDX 31 58 32 59 40 60 33 61 34 62 38 63 41 64 35 65 36 66 39 67
REMARK SMILES IDX 37 68 63 69 64 70 72 71 65 72 66 73 70 74 73 75 67 76 68 77
REMARK SMILES IDX 71 78 69 79 48 80 49 81 57 82 50 83 51 84 55 85 58 86 52 87
REMARK SMILES IDX 53 88 56 89 54 90
REMARK H PARENT 6 10 5 19 78 43 46 54
REMARK Flexibility Score: inf
ROOT
ATOM      1  C   UNL A   1      30.157  28.137  23.345  1.00  0.00     0.202 C 
ENDROOT
BRANCH   1   2
ATOM      2  C   UNL A   1      29.937  26.908  24.237  1.00  0.00     0.261 C 
BRANCH   2   3
ATOM      3  O   UNL A   1      31.130  26.142  24.523  1.00  0.00    -0.463 OA
BRANCH   3   4
ATOM      4  C   UNL A   1      31.476  25.267  23.541  1.00  0.00     0.312 C 
ATOM      5  O   UNL A   1      30.651  24.613  22.903  1.00  0.00    -0.252 OA
BRANCH   4   6
ATOM      6  C   UNL A   1      32.982  25.119  23.266  1.00  0.00     0.076 C 
ATOM      7  N   UNL A   1      34.877  23.215  24.563  1.00  0.00    -0.331 N 
ATOM      8  C   UNL A   1      34.156  22.752  23.384  1.00  0.00     0.263 C 
ATOM      9  C   UNL A   1      34.072  24.099  25.366  1.00  0.00     0.263 C 
ATOM     10  H   UNL A   1      35.003  22.408  25.174  1.00  0.00     0.348 HD
ATOM     11  C   UNL A   1      33.485  23.843  22.536  1.00  0.00     0.080 C 
ATOM     12  C   UNL A   1      33.702  25.370  24.615  1.00  0.00     0.080 C 
ATOM     13  C   UNL A   1      33.285  26.310  22.316  1.00  0.00     0.024 C 
BRANCH   7  14
ATOM     14  C   UNL A   1      36.330  23.438  24.434  1.00  0.00     0.209 C 
ATOM     15  C   UNL A   1      36.720  22.862  23.058  1.00  0.00     0.078 C 
BRANCH  14  16
ATOM     16  C   UNL A   1      37.351  22.969  25.536  1.00  0.00     0.169 C 
ATOM     17  C   UNL A   1      38.095  24.035  26.343  1.00  0.00     0.045 C 
BRANCH  16  18
ATOM     18  O   UNL A   1      36.668  22.127  26.484  1.00  0.00    -0.387 OA
ATOM     19  H   UNL A   1      35.926  22.615  26.874  1.00  0.00     0.211 HD
ENDBRANCH  16  18
ENDBRANCH  14  16
ENDBRANCH   7  14
ENDBRANCH   4   6
ENDBRANCH   3   4
ENDBRANCH   2   3
ENDBRANCH   1   2
BRANCH   1  20
ATOM     20  O   UNL A   1      30.554  29.357  23.961  1.00  0.00    -0.374 OA
BRANCH  20  21
ATOM     21  C   UNL A   1      31.395  29.264  25.106  1.00  0.00     0.202 C 
BRANCH  21  22
ATOM     22  C   UNL A   1      31.690  30.559  25.877  1.00  0.00     0.261 C 
BRANCH  22  23
ATOM     23  O   UNL A   1      32.713  30.383  26.875  1.00  0.00    -0.460 OA
BRANCH  23  24
ATOM     24  C   UNL A   1      33.350  31.526  27.237  1.00  0.00     0.338 C 
ATOM     25  O   UNL A   1      32.897  32.656  27.261  1.00  0.00    -0.246 OA
BRANCH  24  26
ATOM     26  C   UNL A   1      34.671  31.197  27.800  1.00  0.00     0.060 A 
ATOM     27  C   UNL A   1      34.912  29.870  28.181  1.00  0.00     0.016 A 
ATOM     28  C   UNL A   1      35.626  32.186  28.030  1.00  0.00     0.016 A 
ATOM     29  C   UNL A   1      36.115  29.525  28.792  1.00  0.00     0.010 A 
ATOM     30  C   UNL A   1      36.823  31.844  28.668  1.00  0.00     0.010 A 
ATOM     31  C   UNL A   1      37.068  30.516  29.064  1.00  0.00    -0.014 A 
BRANCH  31  32
ATOM     32  C   UNL A   1      38.278  30.173  29.848  1.00  0.00     0.031 A 
ATOM     33  C   UNL A   1      39.274  29.202  29.280  1.00  0.00     0.074 A 
ATOM     34  C   UNL A   1      38.489  30.737  31.051  1.00  0.00     0.049 A 
ATOM     35  N   UNL A   1      40.371  28.732  29.817  1.00  0.00    -0.248 NA
ATOM     36  C   UNL A   1      38.998  28.694  27.927  1.00  0.00     0.031 C 
ATOM     37  C   UNL A   1      37.614  31.723  31.683  1.00  0.00     0.029 A 
ATOM     38  N   UNL A   1      39.500  30.551  31.960  1.00  0.00    -0.354 N 
ATOM     39  C   UNL A   1      40.915  27.874  28.871  1.00  0.00     0.074 A 
ATOM     40  C   UNL A   1      40.022  27.873  27.732  1.00  0.00     0.031 C 
ATOM     41  C   UNL A   1      38.111  32.033  32.893  1.00  0.00     0.029 A 
ATOM     42  C   UNL A   1      39.321  31.247  33.130  1.00  0.00     0.049 A 
ATOM     43  H   UNL A   1      40.280  29.974  31.790  1.00  0.00     0.167 HD
ATOM     44  C   UNL A   1      42.059  27.154  28.951  1.00  0.00     0.037 A 
ATOM     45  C   UNL A   1      40.033  31.224  34.273  1.00  0.00     0.037 A 
ATOM     46  C   UNL A   1      42.946  27.159  30.083  1.00  0.00     0.049 A 
ATOM     47  C   UNL A   1      41.258  30.349  34.360  1.00  0.00     0.074 A 
ATOM     48  C   UNL A   1      44.155  26.505  30.234  1.00  0.00     0.029 A 
ATOM     49  N   UNL A   1      42.710  27.844  31.266  1.00  0.00    -0.354 N 
ATOM     50  N   UNL A   1      41.793  29.581  33.443  1.00  0.00    -0.248 NA
ATOM     51  C   UNL A   1      41.975  30.336  35.644  1.00  0.00     0.031 C 
ATOM     52  C   UNL A   1      44.626  26.748  31.529  1.00  0.00     0.029 A 
ATOM     53  C   UNL A   1      43.731  27.592  32.167  1.00  0.00     0.049 A 
ATOM     54  H   UNL A   1      41.933  28.423  31.438  1.00  0.00     0.167 HD
ATOM     55  C   UNL A   1      42.912  29.005  34.031  1.00  0.00     0.074 A 
ATOM     56  C   UNL A   1      42.993  29.529  35.378  1.00  0.00     0.031 C 
ATOM     57  C   UNL A   1      43.792  28.118  33.505  1.00  0.00     0.037 A 
BRANCH  44  58
ATOM     58  C   UNL A   1      42.415  26.273  27.790  1.00  0.00     0.064 A 
ATOM     59  C   UNL A   1      43.299  26.698  26.789  1.00  0.00     0.173 A 
ATOM     60  C   UNL A   1      41.924  24.961  27.725  1.00  0.00     0.173 A 
ATOM     61  F   UNL A   1      43.786  27.947  26.804  1.00  0.00    -0.203 F 
ATOM     62  C   UNL A   1      43.674  25.840  25.758  1.00  0.00     0.198 A 
ATOM     63  C   UNL A   1      42.317  24.100  26.704  1.00  0.00     0.198 A 
ATOM     64  F   UNL A   1      41.078  24.507  28.662  1.00  0.00    -0.203 F 
ATOM     65  F   UNL A   1      44.505  26.271  24.799  1.00  0.00    -0.200 F 
ATOM     66  C   UNL A   1      43.191  24.540  25.722  1.00  0.00     0.200 A 
ATOM     67  F   UNL A   1      41.857  22.842  26.677  1.00  0.00    -0.200 F 
ATOM     68  F   UNL A   1      43.566  23.711  24.737  1.00  0.00    -0.200 F 
ENDBRANCH  44  58
BRANCH  45  69
ATOM     69  C   UNL A   1      39.584  32.012  35.450  1.00  0.00     0.064 A 
ATOM     70  C   UNL A   1      38.627  31.510  36.342  1.00  0.00     0.173 A 
ATOM     71  C   UNL A   1      40.075  33.306  35.681  1.00  0.00     0.173 A 
ATOM     72  F   UNL A   1      38.106  30.289  36.147  1.00  0.00    -0.203 F 
ATOM     73  C   UNL A   1      38.162  32.280  37.408  1.00  0.00     0.198 A 
ATOM     74  C   UNL A   1      39.631  34.064  36.763  1.00  0.00     0.198 A 
ATOM     75  F   UNL A   1      40.987  33.837  34.854  1.00  0.00    -0.203 F 
ATOM     76  F   UNL A   1      37.208  31.796  38.213  1.00  0.00    -0.200 F 
ATOM     77  C   UNL A   1      38.667  33.554  37.619  1.00  0.00     0.200 A 
ATOM     78  F   UNL A   1      40.129  35.290  36.968  1.00  0.00    -0.200 F 
ATOM     79  F   UNL A   1      38.216  34.294  38.641  1.00  0.00    -0.200 F 
ENDBRANCH  45  69
BRANCH  57  80
ATOM     80  C   UNL A   1      44.919  27.662  34.384  1.00  0.00     0.064 A 
ATOM     81  C   UNL A   1      46.111  28.393  34.480  1.00  0.00     0.173 A 
ATOM     82  C   UNL A   1      44.785  26.512  35.177  1.00  0.00     0.173 A 
ATOM     83  F   UNL A   1      46.291  29.491  33.730  1.00  0.00    -0.203 F 
ATOM     84  C   UNL A   1      47.137  27.980  35.325  1.00  0.00     0.198 A 
ATOM     85  C   UNL A   1      45.803  26.116  36.041  1.00  0.00     0.198 A 
ATOM     86  F   UNL A   1      43.661  25.782  35.126  1.00  0.00    -0.203 F 
ATOM     87  F   UNL A   1      48.285  28.672  35.371  1.00  0.00    -0.200 F 
ATOM     88  C   UNL A   1      46.979  26.846  36.109  1.00  0.00     0.200 A 
ATOM     89  F   UNL A   1      45.644  25.029  36.807  1.00  0.00    -0.200 F 
ATOM     90  F   UNL A   1      47.965  26.456  36.929  1.00  0.00    -0.200 F 
ENDBRANCH  57  80
ENDBRANCH  31  32
ENDBRANCH  24  26
ENDBRANCH  23  24
ENDBRANCH  22  23
ENDBRANCH  21  22
ENDBRANCH  20  21
ENDBRANCH   1  20
TORSDOF 17
ENDMDL
MODEL 2
REMARK VINA RESULT:     -10.6      1.246      2.297
REMARK SMILES C[C@H]([C@@H](C)O)[NH+]1CCC(C)(C(=O)OCCOCCOC(=O)c2ccc(-c3c4nc(c(-c5c(F)c(F)c(F)c(F)c5F)c5ccc([nH]5)c(-c5c(F)c(F)c(F)c(F)c5F)c5nc(c(-c6c(F)c(F)c(F)c(F)c6F)c6ccc3[nH]6)C=C5)C=C4)cc2)CC1
REMARK SMILES IDX 15 1 14 2 13 3 11 4 12 5 9 6 6 7 7 8 86 9 8 11 85 12 10 13
REMARK SMILES IDX 2 14 1 15 3 16 4 17 5 18 16 20 17 21 18 22 19 23 20 24 21 25
REMARK SMILES IDX 22 26 23 27 84 28 24 29 83 30 25 31 26 32 27 33 77 34 28 35
REMARK SMILES IDX 82 36 76 37 78 38 29 39 81 40 75 41 74 42 30 44 62 45 42 46
REMARK SMILES IDX 61 47 43 48 46 49 60 50 79 51 44 52 45 53 59 55 80 56 47 57
REMARK SMILES IDX 31 58 32 59 40 60 33 61 34 62 38 63 41 64 35 65 36 66 39 67
REMARK SMILES IDX 37 68 63 69 64 70 72 71 65 72 66 73 70 74 73 75 67 76 68 77
REMARK SMILES IDX 71 78 69 79 48 80 49 81 57 82 50 83 51 84 55 85 58 86 52 87
REMARK SMILES IDX 53 88 56 89 54 90
REMARK H PARENT 6 10 5 19 78 43 46 54
REMARK Flexibility Score: inf
ROOT
ATOM      1  C   UNL A   1      32.132  28.446  22.896  1.00  0.00     0.202 C 
ENDROOT
BRANCH   1   2
ATOM      2  C   UNL A   1      31.586  27.013  22.938  1.00  0.00     0.261 C 
BRANCH   2   3
ATOM      3  O   UNL A   1      32.250  26.136  23.877  1.00  0.00    -0.463 OA
BRANCH   3   4
ATOM      4  C   UNL A   1      31.489  25.090  24.294  1.00  0.00     0.312 C 
ATOM      5  O   UNL A   1      30.293  24.981  24.026  1.00  0.00    -0.252 OA
BRANCH   4   6
ATOM      6  C   UNL A   1      32.206  24.027  25.144  1.00  0.00     0.076 C 
ATOM      7  N   UNL A   1      33.587  21.568  24.173  1.00  0.00    -0.331 N 
ATOM      8  C   UNL A   1      34.366  22.798  24.239  1.00  0.00     0.263 C 
ATOM      9  C   UNL A   1      32.218  21.825  23.807  1.00  0.00     0.263 C 
ATOM     10  H   UNL A   1      33.937  21.035  23.377  1.00  0.00     0.348 HD
ATOM     11  C   UNL A   1      33.755  23.935  25.073  1.00  0.00     0.080 C 
ATOM     12  C   UNL A   1      31.504  22.678  24.844  1.00  0.00     0.080 C 
ATOM     13  C   UNL A   1      31.863  24.449  26.599  1.00  0.00     0.024 C 
BRANCH   7  14
ATOM     14  C   UNL A   1      33.917  20.495  25.131  1.00  0.00     0.209 C 
ATOM     15  C   UNL A   1      35.443  20.297  25.028  1.00  0.00     0.078 C 
BRANCH  14  16
ATOM     16  C   UNL A   1      33.180  19.105  25.119  1.00  0.00     0.169 C 
ATOM     17  C   UNL A   1      33.857  17.926  24.418  1.00  0.00     0.045 C 
BRANCH  16  18
ATOM     18  O   UNL A   1      32.925  18.695  26.476  1.00  0.00    -0.387 OA
ATOM     19  H   UNL A   1      33.000  17.729  26.541  1.00  0.00     0.211 HD
ENDBRANCH  16  18
ENDBRANCH  14  16
ENDBRANCH   7  14
ENDBRANCH   4   6
ENDBRANCH   3   4
ENDBRANCH   2   3
ENDBRANCH   1   2
BRANCH   1  20
ATOM     20  O   UNL A   1      32.468  29.079  24.126  1.00  0.00    -0.374 OA
BRANCH  20  21
ATOM     21  C   UNL A   1      31.397  29.613  24.897  1.00  0.00     0.202 C 
BRANCH  21  22
ATOM     22  C   UNL A   1      31.760  30.465  26.122  1.00  0.00     0.261 C 
BRANCH  22  23
ATOM     23  O   UNL A   1      33.176  30.477  26.382  1.00  0.00    -0.460 OA
BRANCH  23  24
ATOM     24  C   UNL A   1      33.593  31.484  27.192  1.00  0.00     0.338 C 
ATOM     25  O   UNL A   1      32.966  32.469  27.538  1.00  0.00    -0.246 OA
BRANCH  24  26
ATOM     26  C   UNL A   1      34.898  31.136  27.779  1.00  0.00     0.060 A 
ATOM     27  C   UNL A   1      35.084  29.825  28.241  1.00  0.00     0.016 A 
ATOM     28  C   UNL A   1      35.892  32.098  27.953  1.00  0.00     0.016 A 
ATOM     29  C   UNL A   1      36.272  29.471  28.877  1.00  0.00     0.010 A 
ATOM     30  C   UNL A   1      37.074  31.747  28.616  1.00  0.00     0.010 A 
ATOM     31  C   UNL A   1      37.264  30.436  29.092  1.00  0.00    -0.014 A 
BRANCH  31  32
ATOM     32  C   UNL A   1      38.458  30.093  29.900  1.00  0.00     0.031 A 
ATOM     33  C   UNL A   1      39.461  29.116  29.356  1.00  0.00     0.074 A 
ATOM     34  C   UNL A   1      38.647  30.662  31.105  1.00  0.00     0.049 A 
ATOM     35  N   UNL A   1      40.546  28.646  29.915  1.00  0.00    -0.248 NA
ATOM     36  C   UNL A   1      39.210  28.603  28.000  1.00  0.00     0.031 C 
ATOM     37  C   UNL A   1      37.763  31.652  31.716  1.00  0.00     0.029 A 
ATOM     38  N   UNL A   1      39.640  30.476  32.034  1.00  0.00    -0.354 N 
ATOM     39  C   UNL A   1      41.105  27.782  28.983  1.00  0.00     0.074 A 
ATOM     40  C   UNL A   1      40.234  27.779  27.828  1.00  0.00     0.031 C 
ATOM     41  C   UNL A   1      38.238  31.967  32.934  1.00  0.00     0.029 A 
ATOM     42  C   UNL A   1      39.441  31.178  33.197  1.00  0.00     0.049 A 
ATOM     43  H   UNL A   1      40.421  29.896  31.881  1.00  0.00     0.167 HD
ATOM     44  C   UNL A   1      42.245  27.058  29.088  1.00  0.00     0.037 A 
ATOM     45  C   UNL A   1      40.131  31.158  34.353  1.00  0.00     0.037 A 
ATOM     46  C   UNL A   1      43.111  27.066  30.237  1.00  0.00     0.049 A 
ATOM     47  C   UNL A   1      41.352  30.279  34.468  1.00  0.00     0.074 A 
ATOM     48  C   UNL A   1      44.315  26.408  30.413  1.00  0.00     0.029 A 
ATOM     49  N   UNL A   1      42.854  27.756  31.412  1.00  0.00    -0.354 N 
ATOM     50  N   UNL A   1      41.902  29.505  33.565  1.00  0.00    -0.248 NA
ATOM     51  C   UNL A   1      42.044  30.269  35.765  1.00  0.00     0.031 C 
ATOM     52  C   UNL A   1      44.761  26.656  31.716  1.00  0.00     0.029 A 
ATOM     53  C   UNL A   1      43.857  27.505  32.334  1.00  0.00     0.049 A 
ATOM     54  H   UNL A   1      42.076  28.338  31.567  1.00  0.00     0.167 HD
ATOM     55  C   UNL A   1      43.007  28.929  34.176  1.00  0.00     0.074 A 
ATOM     56  C   UNL A   1      43.064  29.458  35.522  1.00  0.00     0.031 C 
ATOM     57  C   UNL A   1      43.894  28.037  33.671  1.00  0.00     0.037 A 
BRANCH  44  58
ATOM     58  C   UNL A   1      42.621  26.172  27.939  1.00  0.00     0.064 A 
ATOM     59  C   UNL A   1      42.059  24.898  27.779  1.00  0.00     0.173 A 
ATOM     60  C   UNL A   1      43.496  26.637  26.946  1.00  0.00     0.173 A 
ATOM     61  F   UNL A   1      41.225  24.406  28.706  1.00  0.00    -0.203 F 
ATOM     62  C   UNL A   1      42.366  24.118  26.666  1.00  0.00     0.198 A 
ATOM     63  C   UNL A   1      43.784  25.864  25.826  1.00  0.00     0.198 A 
ATOM     64  F   UNL A   1      44.056  27.852  27.054  1.00  0.00    -0.203 F 
ATOM     65  F   UNL A   1      41.834  22.894  26.541  1.00  0.00    -0.200 F 
ATOM     66  C   UNL A   1      43.220  24.605  25.687  1.00  0.00     0.200 A 
ATOM     67  F   UNL A   1      44.601  26.340  24.876  1.00  0.00    -0.200 F 
ATOM     68  F   UNL A   1      43.501  23.859  24.609  1.00  0.00    -0.200 F 
ENDBRANCH  44  58
BRANCH  45  69
ATOM     69  C   UNL A   1      39.662  31.952  35.518  1.00  0.00     0.064 A 
ATOM     70  C   UNL A   1      38.678  31.461  36.388  1.00  0.00     0.173 A 
ATOM     71  C   UNL A   1      40.161  33.241  35.760  1.00  0.00     0.173 A 
ATOM     72  F   UNL A   1      38.150  30.245  36.181  1.00  0.00    -0.203 F 
ATOM     73  C   UNL A   1      38.197  32.237  37.441  1.00  0.00     0.198 A 
ATOM     74  C   UNL A   1      39.699  34.005  36.830  1.00  0.00     0.198 A 
ATOM     75  F   UNL A   1      41.099  33.761  34.954  1.00  0.00    -0.203 F 
ATOM     76  F   UNL A   1      37.218  31.765  38.224  1.00  0.00    -0.200 F 
ATOM     77  C   UNL A   1      38.710  33.506  37.664  1.00  0.00     0.200 A 
ATOM     78  F   UNL A   1      40.205  35.226  37.046  1.00  0.00    -0.200 F 
ATOM     79  F   UNL A   1      38.242  34.253  38.674  1.00  0.00    -0.200 F 
ENDBRANCH  45  69
BRANCH  57  80
ATOM     80  C   UNL A   1      45.002  27.581  34.573  1.00  0.00     0.064 A 
ATOM     81  C   UNL A   1      44.874  26.429  35.362  1.00  0.00     0.173 A 
ATOM     82  C   UNL A   1      46.222  28.273  34.612  1.00  0.00     0.173 A 
ATOM     83  F   UNL A   1      43.721  25.742  35.369  1.00  0.00    -0.203 F 
ATOM     84  C   UNL A   1      45.920  25.995  36.169  1.00  0.00     0.198 A 
ATOM     85  C   UNL A   1      47.276  27.822  35.402  1.00  0.00     0.198 A 
ATOM     86  F   UNL A   1      46.397  29.378  33.872  1.00  0.00    -0.203 F 
ATOM     87  F   UNL A   1      45.762  24.913  36.945  1.00  0.00    -0.200 F 
ATOM     88  C   UNL A   1      47.123  26.687  36.184  1.00  0.00     0.200 A 
ATOM     89  F   UNL A   1      48.441  28.484  35.404  1.00  0.00    -0.200 F 
ATOM     90  F   UNL A   1      48.132  26.262  36.955  1.00  0.00    -0.200 F 
ENDBRANCH  57  80
ENDBRANCH  31  32
ENDBRANCH  24  26
ENDBRANCH  23  24
ENDBRANCH  22  23
ENDBRANCH  21  22
ENDBRANCH  20  21
ENDBRANCH   1  20
TORSDOF 17
ENDMDL
MODEL 3
REMARK VINA RESULT:     -10.5      4.534      9.080
REMARK SMILES C[C@H]([C@@H](C)O)[NH+]1CCC(C)(C(=O)OCCOCCOC(=O)c2ccc(-c3c4nc(c(-c5c(F)c(F)c(F)c(F)c5F)c5ccc([nH]5)c(-c5c(F)c(F)c(F)c(F)c5F)c5nc(c(-c6c(F)c(F)c(F)c(F)c6F)c6ccc3[nH]6)C=C5)C=C4)cc2)CC1
REMARK SMILES IDX 15 1 14 2 13 3 11 4 12 5 9 6 6 7 7 8 86 9 8 11 85 12 10 13
REMARK SMILES IDX 2 14 1 15 3 16 4 17 5 18 16 20 17 21 18 22 19 23 20 24 21 25
REMARK SMILES IDX 22 26 23 27 84 28 24 29 83 30 25 31 26 32 27 33 77 34 28 35
REMARK SMILES IDX 82 36 76 37 78 38 29 39 81 40 75 41 74 42 30 44 62 45 42 46
REMARK SMILES IDX 61 47 43 48 46 49 60 50 79 51 44 52 45 53 59 55 80 56 47 57
REMARK SMILES IDX 31 58 32 59 40 60 33 61 34 62 38 63 41 64 35 65 36 66 39 67
REMARK SMILES IDX 37 68 63 69 64 70 72 71 65 72 66 73 70 74 73 75 67 76 68 77
REMARK SMILES IDX 71 78 69 79 48 80 49 81 57 82 50 83 51 84 55 85 58 86 52 87
REMARK SMILES IDX 53 88 56 89 54 90
REMARK H PARENT 6 10 5 19 78 43 46 54
REMARK Flexibility Score: inf
ROOT
ATOM      1  C   UNL A   1      33.946  32.901  28.482  1.00  0.00     0.202 C 
ENDROOT
BRANCH   1   2
ATOM      2  C   UNL A   1      34.445  31.531  28.004  1.00  0.00     0.261 C 
BRANCH   2   3
ATOM      3  O   UNL A   1      33.447  30.715  27.348  1.00  0.00    -0.463 OA
BRANCH   3   4
ATOM      4  C   UNL A   1      33.924  29.539  26.860  1.00  0.00     0.312 C 
ATOM      5  O   UNL A   1      35.125  29.288  26.768  1.00  0.00    -0.252 OA
BRANCH   4   6
ATOM      6  C   UNL A   1      32.868  28.515  26.410  1.00  0.00     0.076 C 
ATOM      7  N   UNL A   1      32.587  27.282  23.708  1.00  0.00    -0.331 N 
ATOM      8  C   UNL A   1      33.474  26.625  24.661  1.00  0.00     0.263 C 
ATOM      9  C   UNL A   1      32.617  28.714  23.854  1.00  0.00     0.263 C 
ATOM     10  H   UNL A   1      32.986  27.141  22.780  1.00  0.00     0.348 HD
ATOM     11  C   UNL A   1      33.318  27.055  26.127  1.00  0.00     0.080 C 
ATOM     12  C   UNL A   1      32.113  29.157  25.219  1.00  0.00     0.080 C 
ATOM     13  C   UNL A   1      31.904  28.444  27.625  1.00  0.00     0.024 C 
BRANCH   7  14
ATOM     14  C   UNL A   1      31.331  26.592  23.353  1.00  0.00     0.209 C 
ATOM     15  C   UNL A   1      30.313  27.709  23.048  1.00  0.00     0.078 C 
BRANCH  14  16
ATOM     16  C   UNL A   1      30.685  25.498  24.282  1.00  0.00     0.169 C 
ATOM     17  C   UNL A   1      29.787  25.955  25.433  1.00  0.00     0.045 C 
BRANCH  16  18
ATOM     18  O   UNL A   1      29.905  24.595  23.475  1.00  0.00    -0.387 OA
ATOM     19  H   UNL A   1      29.778  24.979  22.593  1.00  0.00     0.211 HD
ENDBRANCH  16  18
ENDBRANCH  14  16
ENDBRANCH   7  14
ENDBRANCH   4   6
ENDBRANCH   3   4
ENDBRANCH   2   3
ENDBRANCH   1   2
BRANCH   1  20
ATOM     20  O   UNL A   1      34.801  33.679  29.313  1.00  0.00    -0.374 OA
BRANCH  20  21
ATOM     21  C   UNL A   1      34.200  34.350  30.417  1.00  0.00     0.202 C 
BRANCH  21  22
ATOM     22  C   UNL A   1      34.386  33.729  31.809  1.00  0.00     0.261 C 
BRANCH  22  23
ATOM     23  O   UNL A   1      34.927  32.396  31.749  1.00  0.00    -0.460 OA
BRANCH  23  24
ATOM     24  C   UNL A   1      35.968  32.171  32.591  1.00  0.00     0.338 C 
ATOM     25  O   UNL A   1      36.000  32.338  33.797  1.00  0.00    -0.246 OA
BRANCH  24  26
ATOM     26  C   UNL A   1      37.055  31.496  31.862  1.00  0.00     0.060 A 
ATOM     27  C   UNL A   1      38.087  30.914  32.611  1.00  0.00     0.016 A 
ATOM     28  C   UNL A   1      37.107  31.506  30.469  1.00  0.00     0.016 A 
ATOM     29  C   UNL A   1      39.178  30.335  31.965  1.00  0.00     0.010 A 
ATOM     30  C   UNL A   1      38.216  30.947  29.823  1.00  0.00     0.010 A 
ATOM     31  C   UNL A   1      39.262  30.372  30.567  1.00  0.00    -0.014 A 
BRANCH  31  32
ATOM     32  C   UNL A   1      40.491  29.890  29.894  1.00  0.00     0.031 A 
ATOM     33  C   UNL A   1      41.633  30.841  29.676  1.00  0.00     0.074 A 
ATOM     34  C   UNL A   1      40.586  28.610  29.492  1.00  0.00     0.049 A 
ATOM     35  N   UNL A   1      42.775  30.638  29.071  1.00  0.00    -0.248 NA
ATOM     36  C   UNL A   1      41.469  32.200  30.215  1.00  0.00     0.031 C 
ATOM     37  C   UNL A   1      39.559  27.588  29.686  1.00  0.00     0.029 A 
ATOM     38  N   UNL A   1      41.592  27.955  28.826  1.00  0.00    -0.354 N 
ATOM     39  C   UNL A   1      43.464  31.841  29.153  1.00  0.00     0.074 A 
ATOM     40  C   UNL A   1      42.608  32.774  29.853  1.00  0.00     0.031 C 
ATOM     41  C   UNL A   1      39.975  26.440  29.124  1.00  0.00     0.029 A 
ATOM     42  C   UNL A   1      41.283  26.656  28.507  1.00  0.00     0.049 A 
ATOM     43  H   UNL A   1      42.453  28.376  28.600  1.00  0.00     0.167 HD
ATOM     44  C   UNL A   1      44.700  32.134  28.685  1.00  0.00     0.037 A 
ATOM     45  C   UNL A   1      41.963  25.756  27.770  1.00  0.00     0.037 A 
ATOM     46  C   UNL A   1      45.550  31.202  27.993  1.00  0.00     0.049 A 
ATOM     47  C   UNL A   1      43.303  26.139  27.193  1.00  0.00     0.074 A 
ATOM     48  C   UNL A   1      46.839  31.391  27.529  1.00  0.00     0.029 A 
ATOM     49  N   UNL A   1      45.186  29.908  27.651  1.00  0.00    -0.354 N 
ATOM     50  N   UNL A   1      43.969  27.261  27.319  1.00  0.00    -0.248 NA
ATOM     51  C   UNL A   1      43.983  25.131  26.367  1.00  0.00     0.031 C 
ATOM     52  C   UNL A   1      47.237  30.230  26.858  1.00  0.00     0.029 A 
ATOM     53  C   UNL A   1      46.211  29.302  26.944  1.00  0.00     0.049 A 
ATOM     54  H   UNL A   1      44.327  29.484  27.877  1.00  0.00     0.167 HD
ATOM     55  C   UNL A   1      45.147  27.090  26.604  1.00  0.00     0.074 A 
ATOM     56  C   UNL A   1      45.116  25.748  26.063  1.00  0.00     0.031 C 
ATOM     57  C   UNL A   1      46.161  27.967  26.408  1.00  0.00     0.037 A 
BRANCH  44  58
ATOM     58  C   UNL A   1      45.212  33.529  28.882  1.00  0.00     0.064 A 
ATOM     59  C   UNL A   1      45.980  33.880  30.000  1.00  0.00     0.173 A 
ATOM     60  C   UNL A   1      44.993  34.505  27.898  1.00  0.00     0.173 A 
ATOM     61  F   UNL A   1      46.207  32.984  30.971  1.00  0.00    -0.203 F 
ATOM     62  C   UNL A   1      46.507  35.163  30.129  1.00  0.00     0.198 A 
ATOM     63  C   UNL A   1      45.538  35.779  28.021  1.00  0.00     0.198 A 
ATOM     64  F   UNL A   1      44.266  34.216  26.808  1.00  0.00    -0.203 F 
ATOM     65  F   UNL A   1      47.223  35.485  31.215  1.00  0.00    -0.200 F 
ATOM     66  C   UNL A   1      46.293  36.108  29.136  1.00  0.00     0.200 A 
ATOM     67  F   UNL A   1      45.339  36.688  27.056  1.00  0.00    -0.200 F 
ATOM     68  F   UNL A   1      46.815  37.337  29.255  1.00  0.00    -0.200 F 
ENDBRANCH  44  58
BRANCH  45  69
ATOM     69  C   UNL A   1      41.374  24.422  27.487  1.00  0.00     0.064 A 
ATOM     70  C   UNL A   1      40.239  24.283  26.676  1.00  0.00     0.173 A 
ATOM     71  C   UNL A   1      41.912  23.260  28.060  1.00  0.00     0.173 A 
ATOM     72  F   UNL A   1      39.671  25.369  26.129  1.00  0.00    -0.203 F 
ATOM     73  C   UNL A   1      39.652  23.036  26.466  1.00  0.00     0.198 A 
ATOM     74  C   UNL A   1      41.342  22.010  27.826  1.00  0.00     0.198 A 
ATOM     75  F   UNL A   1      42.993  23.338  28.849  1.00  0.00    -0.203 F 
ATOM     76  F   UNL A   1      38.537  22.939  25.732  1.00  0.00    -0.200 F 
ATOM     77  C   UNL A   1      40.206  21.900  27.038  1.00  0.00     0.200 A 
ATOM     78  F   UNL A   1      41.886  20.915  28.374  1.00  0.00    -0.200 F 
ATOM     79  F   UNL A   1      39.639  20.702  26.840  1.00  0.00    -0.200 F 
ENDBRANCH  45  69
BRANCH  57  80
ATOM     80  C   UNL A   1      47.322  27.503  25.579  1.00  0.00     0.064 A 
ATOM     81  C   UNL A   1      47.369  27.733  24.197  1.00  0.00     0.173 A 
ATOM     82  C   UNL A   1      48.420  26.869  26.180  1.00  0.00     0.173 A 
ATOM     83  F   UNL A   1      46.336  28.322  23.576  1.00  0.00    -0.203 F 
ATOM     84  C   UNL A   1      48.467  27.329  23.442  1.00  0.00     0.198 A 
ATOM     85  C   UNL A   1      49.528  26.489  25.426  1.00  0.00     0.198 A 
ATOM     86  F   UNL A   1      48.425  26.631  27.500  1.00  0.00    -0.203 F 
ATOM     87  F   UNL A   1      48.473  27.523  22.115  1.00  0.00    -0.200 F 
ATOM     88  C   UNL A   1      49.547  26.714  24.058  1.00  0.00     0.200 A 
ATOM     89  F   UNL A   1      50.576  25.908  26.024  1.00  0.00    -0.200 F 
ATOM     90  F   UNL A   1      50.607  26.335  23.330  1.00  0.00    -0.200 F 
ENDBRANCH  57  80
ENDBRANCH  31  32
ENDBRANCH  24  26
ENDBRANCH  23  24
ENDBRANCH  22  23
ENDBRANCH  21  22
ENDBRANCH  20  21
ENDBRANCH   1  20
TORSDOF 17
ENDMDL
