MODEL 1
REMARK VINA RESULT:     -10.2      0.000      0.000
REMARK SMILES CC[C@H](Oc1ccc(C)nc1C[NH3+])C(=O)OCCOCCOC(=O)c1ccc(-c2c3nc(c(-c4c(F)c(F)c(F)c(F)c4F)c4ccc([nH]4)c(-c4c(F)c(F)c(F)c(F)c4F)c4nc(c(-c5c(F)c(F)c(F)c(F)c5F)c5ccc2[nH]5)C=C4)C=C3)cc1
REMARK SMILES IDX 18 1 17 2 16 3 14 4 15 5 3 6 2 7 1 8 4 9 5 10 6 11 11 12
REMARK SMILES IDX 7 13 10 14 8 15 9 16 12 17 13 18 19 22 20 23 21 24 22 25
REMARK SMILES IDX 23 26 24 27 25 28 26 29 87 30 27 31 86 32 28 33 29 34 30 35
REMARK SMILES IDX 80 36 31 37 85 38 79 39 81 40 32 41 84 42 78 43 77 44 33 46
REMARK SMILES IDX 65 47 45 48 64 49 46 50 49 51 63 52 82 53 47 54 48 55 62 57
REMARK SMILES IDX 83 58 50 59 34 60 35 61 43 62 36 63 37 64 41 65 44 66 38 67
REMARK SMILES IDX 39 68 42 69 40 70 66 71 67 72 75 73 68 74 69 75 73 76 76 77
REMARK SMILES IDX 70 78 71 79 74 80 72 81 51 82 52 83 60 84 53 85 54 86 58 87
REMARK SMILES IDX 61 88 55 89 56 90 59 91 57 92
REMARK H PARENT 13 19 13 20 13 21 81 45 49 56
REMARK Flexibility Score: inf
ROOT
ATOM      1  C   UNL A   1      33.868  27.432  25.097  1.00  0.00     0.202 C 
ENDROOT
BRANCH   1   2
ATOM      2  C   UNL A   1      33.257  26.654  26.266  1.00  0.00     0.261 C 
BRANCH   2   3
ATOM      3  O   UNL A   1      33.282  25.240  26.004  1.00  0.00    -0.461 OA
BRANCH   3   4
ATOM      4  C   UNL A   1      32.081  24.596  26.028  1.00  0.00     0.347 C 
ATOM      5  O   UNL A   1      31.316  24.570  26.986  1.00  0.00    -0.248 OA
BRANCH   4   6
ATOM      6  C   UNL A   1      31.787  23.875  24.707  1.00  0.00     0.282 C 
BRANCH   6   7
ATOM      7  C   UNL A   1      32.710  22.657  24.569  1.00  0.00     0.054 C 
ATOM      8  C   UNL A   1      32.199  21.582  23.620  1.00  0.00     0.008 C 
ENDBRANCH   6   7
BRANCH   6   9
ATOM      9  O   UNL A   1      31.933  24.709  23.557  1.00  0.00    -0.477 OA
BRANCH   9  10
ATOM     10  C   UNL A   1      31.054  25.737  23.355  1.00  0.00     0.147 A 
ATOM     11  C   UNL A   1      29.847  25.894  24.037  1.00  0.00     0.050 A 
ATOM     12  C   UNL A   1      31.426  26.745  22.454  1.00  0.00     0.136 A 
ATOM     13  C   UNL A   1      29.036  27.000  23.777  1.00  0.00     0.027 A 
ATOM     14  N   UNL A   1      30.641  27.835  22.211  1.00  0.00    -0.248 NA
ATOM     15  C   UNL A   1      29.458  27.944  22.854  1.00  0.00     0.038 A 
ATOM     16  C   UNL A   1      28.633  29.155  22.539  1.00  0.00     0.067 C 
BRANCH  12  17
ATOM     17  C   UNL A   1      32.757  26.704  21.721  1.00  0.00     0.320 C 
BRANCH  17  18
ATOM     18  N   UNL A   1      33.455  27.995  21.698  1.00  0.00    -0.352 N 
ATOM     19  H   UNL A   1      32.855  28.714  22.100  1.00  0.00     0.344 HD
ATOM     20  H   UNL A   1      33.682  28.240  20.734  1.00  0.00     0.344 HD
ATOM     21  H   UNL A   1      34.315  27.926  22.243  1.00  0.00     0.344 HD
ENDBRANCH  17  18
ENDBRANCH  12  17
ENDBRANCH   9  10
ENDBRANCH   6   9
ENDBRANCH   4   6
ENDBRANCH   3   4
ENDBRANCH   2   3
ENDBRANCH   1   2
BRANCH   1  22
ATOM     22  O   UNL A   1      33.233  28.673  24.785  1.00  0.00    -0.374 OA
BRANCH  22  23
ATOM     23  C   UNL A   1      32.038  28.993  25.497  1.00  0.00     0.202 C 
BRANCH  23  24
ATOM     24  C   UNL A   1      31.877  30.456  25.927  1.00  0.00     0.261 C 
BRANCH  24  25
ATOM     25  O   UNL A   1      32.395  30.704  27.247  1.00  0.00    -0.460 OA
BRANCH  25  26
ATOM     26  C   UNL A   1      33.192  31.791  27.346  1.00  0.00     0.338 C 
ATOM     27  O   UNL A   1      32.869  32.966  27.206  1.00  0.00    -0.246 OA
BRANCH  26  28
ATOM     28  C   UNL A   1      34.539  31.412  27.807  1.00  0.00     0.060 A 
ATOM     29  C   UNL A   1      34.763  30.059  28.097  1.00  0.00     0.016 A 
ATOM     30  C   UNL A   1      35.531  32.363  28.058  1.00  0.00     0.016 A 
ATOM     31  C   UNL A   1      35.958  29.661  28.694  1.00  0.00     0.010 A 
ATOM     32  C   UNL A   1      36.727  31.962  28.665  1.00  0.00     0.010 A 
ATOM     33  C   UNL A   1      36.930  30.616  29.020  1.00  0.00    -0.014 A 
BRANCH  33  34
ATOM     34  C   UNL A   1      38.082  30.219  29.865  1.00  0.00     0.031 A 
ATOM     35  C   UNL A   1      39.097  29.255  29.315  1.00  0.00     0.074 A 
ATOM     36  C   UNL A   1      38.249  30.743  31.092  1.00  0.00     0.049 A 
ATOM     37  N   UNL A   1      40.176  28.771  29.877  1.00  0.00    -0.248 NA
ATOM     38  C   UNL A   1      38.866  28.773  27.943  1.00  0.00     0.031 C 
ATOM     39  C   UNL A   1      37.359  31.716  31.720  1.00  0.00     0.029 A 
ATOM     40  N   UNL A   1      39.229  30.526  32.029  1.00  0.00    -0.354 N 
ATOM     41  C   UNL A   1      40.747  27.927  28.934  1.00  0.00     0.074 A 
ATOM     42  C   UNL A   1      39.885  27.944  27.773  1.00  0.00     0.031 C 
ATOM     43  C   UNL A   1      37.832  32.009  32.945  1.00  0.00     0.029 A 
ATOM     44  C   UNL A   1      39.040  31.224  33.194  1.00  0.00     0.049 A 
ATOM     45  H   UNL A   1      39.995  29.926  31.878  1.00  0.00     0.167 HD
ATOM     46  C   UNL A   1      41.894  27.211  29.026  1.00  0.00     0.037 A 
ATOM     47  C   UNL A   1      39.752  31.217  34.337  1.00  0.00     0.037 A 
ATOM     48  C   UNL A   1      42.757  27.198  30.176  1.00  0.00     0.049 A 
ATOM     49  C   UNL A   1      40.987  30.358  34.437  1.00  0.00     0.074 A 
ATOM     50  C   UNL A   1      43.954  26.526  30.351  1.00  0.00     0.029 A 
ATOM     51  N   UNL A   1      42.510  27.888  31.353  1.00  0.00    -0.354 N 
ATOM     52  N   UNL A   1      41.536  29.588  33.530  1.00  0.00    -0.248 NA
ATOM     53  C   UNL A   1      41.701  30.371  35.722  1.00  0.00     0.031 C 
ATOM     54  C   UNL A   1      44.408  26.773  31.652  1.00  0.00     0.029 A 
ATOM     55  C   UNL A   1      43.518  27.636  32.269  1.00  0.00     0.049 A 
ATOM     56  H   UNL A   1      41.733  28.472  31.514  1.00  0.00     0.167 HD
ATOM     57  C   UNL A   1      42.670  29.049  34.122  1.00  0.00     0.074 A 
ATOM     58  C   UNL A   1      42.737  29.586  35.465  1.00  0.00     0.031 C 
ATOM     59  C   UNL A   1      43.576  28.186  33.600  1.00  0.00     0.037 A 
BRANCH  46  60
ATOM     60  C   UNL A   1      42.272  26.357  27.851  1.00  0.00     0.064 A 
ATOM     61  C   UNL A   1      41.705  25.090  27.649  1.00  0.00     0.173 A 
ATOM     62  C   UNL A   1      43.184  26.830  26.897  1.00  0.00     0.173 A 
ATOM     63  F   UNL A   1      40.839  24.589  28.542  1.00  0.00    -0.203 F 
ATOM     64  C   UNL A   1      42.053  24.320  26.543  1.00  0.00     0.198 A 
ATOM     65  C   UNL A   1      43.511  26.068  25.778  1.00  0.00     0.198 A 
ATOM     66  F   UNL A   1      43.751  28.037  27.043  1.00  0.00    -0.203 F 
ATOM     67  F   UNL A   1      41.528  23.097  26.388  1.00  0.00    -0.200 F 
ATOM     68  C   UNL A   1      42.950  24.811  25.605  1.00  0.00     0.200 A 
ATOM     69  F   UNL A   1      44.369  26.549  24.868  1.00  0.00    -0.200 F 
ATOM     70  F   UNL A   1      43.277  24.071  24.537  1.00  0.00    -0.200 F 
ENDBRANCH  46  60
BRANCH  47  71
ATOM     71  C   UNL A   1      39.315  32.045  35.490  1.00  0.00     0.064 A 
ATOM     72  C   UNL A   1      38.467  31.523  36.476  1.00  0.00     0.173 A 
ATOM     73  C   UNL A   1      39.721  33.382  35.618  1.00  0.00     0.173 A 
ATOM     74  F   UNL A   1      38.031  30.259  36.381  1.00  0.00    -0.203 F 
ATOM     75  C   UNL A   1      38.030  32.311  37.539  1.00  0.00     0.198 A 
ATOM     76  C   UNL A   1      39.303  34.161  36.695  1.00  0.00     0.198 A 
ATOM     77  F   UNL A   1      40.530  33.930  34.699  1.00  0.00    -0.203 F 
ATOM     78  F   UNL A   1      37.183  31.800  38.444  1.00  0.00    -0.200 F 
ATOM     79  C   UNL A   1      38.452  33.627  37.650  1.00  0.00     0.200 A 
ATOM     80  F   UNL A   1      39.721  35.430  36.804  1.00  0.00    -0.200 F 
ATOM     81  F   UNL A   1      38.032  34.384  38.673  1.00  0.00    -0.200 F 
ENDBRANCH  47  71
BRANCH  59  82
ATOM     82  C   UNL A   1      44.737  27.795  34.466  1.00  0.00     0.064 A 
ATOM     83  C   UNL A   1      45.913  28.557  34.506  1.00  0.00     0.173 A 
ATOM     84  C   UNL A   1      44.654  26.669  35.299  1.00  0.00     0.173 A 
ATOM     85  F   UNL A   1      46.047  29.634  33.717  1.00  0.00    -0.203 F 
ATOM     86  C   UNL A   1      46.974  28.192  35.332  1.00  0.00     0.198 A 
ATOM     87  C   UNL A   1      45.704  26.323  36.144  1.00  0.00     0.198 A 
ATOM     88  F   UNL A   1      43.547  25.910  35.303  1.00  0.00    -0.203 F 
ATOM     89  F   UNL A   1      48.105  28.911  35.324  1.00  0.00    -0.200 F 
ATOM     90  C   UNL A   1      46.866  27.081  36.155  1.00  0.00     0.200 A 
ATOM     91  F   UNL A   1      45.594  25.256  36.946  1.00  0.00    -0.200 F 
ATOM     92  F   UNL A   1      47.884  26.736  36.954  1.00  0.00    -0.200 F 
ENDBRANCH  59  82
ENDBRANCH  33  34
ENDBRANCH  26  28
ENDBRANCH  25  26
ENDBRANCH  24  25
ENDBRANCH  23  24
ENDBRANCH  22  23
ENDBRANCH   1  22
TORSDOF 19
ENDMDL
MODEL 2
REMARK VINA RESULT:     -10.2      1.757      7.799
REMARK SMILES CC[C@H](Oc1ccc(C)nc1C[NH3+])C(=O)OCCOCCOC(=O)c1ccc(-c2c3nc(c(-c4c(F)c(F)c(F)c(F)c4F)c4ccc([nH]4)c(-c4c(F)c(F)c(F)c(F)c4F)c4nc(c(-c5c(F)c(F)c(F)c(F)c5F)c5ccc2[nH]5)C=C4)C=C3)cc1
REMARK SMILES IDX 18 1 17 2 16 3 14 4 15 5 3 6 2 7 1 8 4 9 5 10 6 11 11 12
REMARK SMILES IDX 7 13 10 14 8 15 9 16 12 17 13 18 19 22 20 23 21 24 22 25
REMARK SMILES IDX 23 26 24 27 25 28 26 29 87 30 27 31 86 32 28 33 29 34 30 35
REMARK SMILES IDX 80 36 31 37 85 38 79 39 81 40 32 41 84 42 78 43 77 44 33 46
REMARK SMILES IDX 65 47 45 48 64 49 46 50 49 51 63 52 82 53 47 54 48 55 62 57
REMARK SMILES IDX 83 58 50 59 34 60 35 61 43 62 36 63 37 64 41 65 44 66 38 67
REMARK SMILES IDX 39 68 42 69 40 70 66 71 67 72 75 73 68 74 69 75 73 76 76 77
REMARK SMILES IDX 70 78 71 79 74 80 72 81 51 82 52 83 60 84 53 85 54 86 58 87
REMARK SMILES IDX 61 88 55 89 56 90 59 91 57 92
REMARK H PARENT 13 19 13 20 13 21 81 45 49 56
REMARK Flexibility Score: inf
ROOT
ATOM      1  C   UNL A   1      33.395  30.371  27.363  1.00  0.00     0.202 C 
ENDROOT
BRANCH   1   2
ATOM      2  C   UNL A   1      33.872  28.928  27.173  1.00  0.00     0.261 C 
BRANCH   2   3
ATOM      3  O   UNL A   1      33.143  28.287  26.112  1.00  0.00    -0.461 OA
BRANCH   3   4
ATOM      4  C   UNL A   1      32.170  27.410  26.488  1.00  0.00     0.347 C 
ATOM      5  O   UNL A   1      31.357  27.603  27.384  1.00  0.00    -0.248 OA
BRANCH   4   6
ATOM      6  C   UNL A   1      32.211  26.117  25.664  1.00  0.00     0.282 C 
BRANCH   6   7
ATOM      7  C   UNL A   1      33.494  25.340  25.987  1.00  0.00     0.054 C 
ATOM      8  C   UNL A   1      34.109  24.614  24.799  1.00  0.00     0.008 C 
ENDBRANCH   6   7
BRANCH   6   9
ATOM      9  O   UNL A   1      32.135  26.335  24.255  1.00  0.00    -0.477 OA
BRANCH   9  10
ATOM     10  C   UNL A   1      31.106  27.076  23.742  1.00  0.00     0.147 A 
ATOM     11  C   UNL A   1      29.754  26.825  23.978  1.00  0.00     0.050 A 
ATOM     12  C   UNL A   1      31.433  28.212  22.989  1.00  0.00     0.136 A 
ATOM     13  C   UNL A   1      28.781  27.664  23.432  1.00  0.00     0.027 A 
ATOM     14  N   UNL A   1      30.483  29.042  22.467  1.00  0.00    -0.248 NA
ATOM     15  C   UNL A   1      29.180  28.756  22.675  1.00  0.00     0.038 A 
ATOM     16  C   UNL A   1      28.181  29.695  22.070  1.00  0.00     0.067 C 
BRANCH  12  17
ATOM     17  C   UNL A   1      32.878  28.614  22.743  1.00  0.00     0.320 C 
BRANCH  17  18
ATOM     18  N   UNL A   1      33.355  29.673  23.640  1.00  0.00    -0.352 N 
ATOM     19  H   UNL A   1      34.367  29.604  23.740  1.00  0.00     0.344 HD
ATOM     20  H   UNL A   1      32.915  29.567  24.554  1.00  0.00     0.344 HD
ATOM     21  H   UNL A   1      33.113  30.583  23.249  1.00  0.00     0.344 HD
ENDBRANCH  17  18
ENDBRANCH  12  17
ENDBRANCH   9  10
ENDBRANCH   6   9
ENDBRANCH   4   6
ENDBRANCH   3   4
ENDBRANCH   2   3
ENDBRANCH   1   2
BRANCH   1  22
ATOM     22  O   UNL A   1      32.291  30.767  26.549  1.00  0.00    -0.374 OA
BRANCH  22  23
ATOM     23  C   UNL A   1      31.731  32.058  26.788  1.00  0.00     0.202 C 
BRANCH  23  24
ATOM     24  C   UNL A   1      32.706  33.140  27.267  1.00  0.00     0.261 C 
BRANCH  24  25
ATOM     25  O   UNL A   1      32.229  33.835  28.434  1.00  0.00    -0.460 OA
BRANCH  25  26
ATOM     26  C   UNL A   1      32.973  34.903  28.800  1.00  0.00     0.338 C 
ATOM     27  O   UNL A   1      32.709  36.088  28.626  1.00  0.00    -0.246 OA
BRANCH  26  28
ATOM     28  C   UNL A   1      34.134  34.481  29.602  1.00  0.00     0.060 A 
ATOM     29  C   UNL A   1      35.401  34.603  29.014  1.00  0.00     0.016 A 
ATOM     30  C   UNL A   1      33.990  33.878  30.854  1.00  0.00     0.016 A 
ATOM     31  C   UNL A   1      36.520  34.069  29.650  1.00  0.00     0.010 A 
ATOM     32  C   UNL A   1      35.115  33.336  31.486  1.00  0.00     0.010 A 
ATOM     33  C   UNL A   1      36.378  33.396  30.870  1.00  0.00    -0.014 A 
BRANCH  33  34
ATOM     34  C   UNL A   1      37.525  32.629  31.414  1.00  0.00     0.031 A 
ATOM     35  C   UNL A   1      38.058  32.976  32.777  1.00  0.00     0.074 A 
ATOM     36  C   UNL A   1      38.059  31.606  30.723  1.00  0.00     0.049 A 
ATOM     37  N   UNL A   1      39.051  32.441  33.443  1.00  0.00    -0.248 NA
ATOM     38  C   UNL A   1      37.379  34.072  33.486  1.00  0.00     0.031 C 
ATOM     39  C   UNL A   1      37.606  31.146  29.413  1.00  0.00     0.029 A 
ATOM     40  N   UNL A   1      39.104  30.771  31.032  1.00  0.00    -0.354 N 
ATOM     41  C   UNL A   1      39.118  33.137  34.643  1.00  0.00     0.074 A 
ATOM     42  C   UNL A   1      38.084  34.148  34.605  1.00  0.00     0.031 C 
ATOM     43  C   UNL A   1      38.374  30.112  29.026  1.00  0.00     0.029 A 
ATOM     44  C   UNL A   1      39.386  29.857  30.049  1.00  0.00     0.049 A 
ATOM     45  H   UNL A   1      39.602  30.822  31.880  1.00  0.00     0.167 HD
ATOM     46  C   UNL A   1      39.960  32.942  35.686  1.00  0.00     0.037 A 
ATOM     47  C   UNL A   1      40.363  28.931  29.977  1.00  0.00     0.037 A 
ATOM     48  C   UNL A   1      40.983  31.933  35.730  1.00  0.00     0.049 A 
ATOM     49  C   UNL A   1      41.329  28.781  31.123  1.00  0.00     0.074 A 
ATOM     50  C   UNL A   1      41.866  31.640  36.755  1.00  0.00     0.029 A 
ATOM     51  N   UNL A   1      41.265  31.052  34.697  1.00  0.00    -0.354 N 
ATOM     52  N   UNL A   1      41.366  29.422  32.266  1.00  0.00    -0.248 NA
ATOM     53  C   UNL A   1      42.390  27.776  30.968  1.00  0.00     0.031 C 
ATOM     54  C   UNL A   1      42.712  30.613  36.325  1.00  0.00     0.029 A 
ATOM     55  C   UNL A   1      42.325  30.234  35.049  1.00  0.00     0.049 A 
ATOM     56  H   UNL A   1      40.781  31.013  33.840  1.00  0.00     0.167 HD
ATOM     57  C   UNL A   1      42.431  28.881  32.974  1.00  0.00     0.074 A 
ATOM     58  C   UNL A   1      43.009  27.852  32.137  1.00  0.00     0.031 C 
ATOM     59  C   UNL A   1      42.886  29.207  34.208  1.00  0.00     0.037 A 
BRANCH  46  60
ATOM     60  C   UNL A   1      39.825  33.861  36.865  1.00  0.00     0.064 A 
ATOM     61  C   UNL A   1      40.488  35.095  36.917  1.00  0.00     0.173 A 
ATOM     62  C   UNL A   1      38.989  33.517  37.938  1.00  0.00     0.173 A 
ATOM     63  F   UNL A   1      41.308  35.462  35.921  1.00  0.00    -0.203 F 
ATOM     64  C   UNL A   1      40.335  35.943  38.010  1.00  0.00     0.198 A 
ATOM     65  C   UNL A   1      38.819  34.379  39.019  1.00  0.00     0.198 A 
ATOM     66  F   UNL A   1      38.329  32.349  37.934  1.00  0.00    -0.203 F 
ATOM     67  F   UNL A   1      41.007  37.102  38.056  1.00  0.00    -0.200 F 
ATOM     68  C   UNL A   1      39.496  35.588  39.056  1.00  0.00     0.200 A 
ATOM     69  F   UNL A   1      38.000  34.039  40.023  1.00  0.00    -0.200 F 
ATOM     70  F   UNL A   1      39.344  36.410  40.104  1.00  0.00    -0.200 F 
ENDBRANCH  46  60
BRANCH  47  71
ATOM     71  C   UNL A   1      40.485  28.074  28.771  1.00  0.00     0.064 A 
ATOM     72  C   UNL A   1      41.236  28.488  27.662  1.00  0.00     0.173 A 
ATOM     73  C   UNL A   1      39.838  26.832  28.695  1.00  0.00     0.173 A 
ATOM     74  F   UNL A   1      41.850  29.679  27.678  1.00  0.00    -0.203 F 
ATOM     75  C   UNL A   1      41.322  27.698  26.517  1.00  0.00     0.198 A 
ATOM     76  C   UNL A   1      39.945  26.032  27.559  1.00  0.00     0.198 A 
ATOM     77  F   UNL A   1      39.104  26.392  29.728  1.00  0.00    -0.203 F 
ATOM     78  F   UNL A   1      42.010  28.137  25.454  1.00  0.00    -0.200 F 
ATOM     79  C   UNL A   1      40.681  26.469  26.468  1.00  0.00     0.200 A 
ATOM     80  F   UNL A   1      39.332  24.841  27.520  1.00  0.00    -0.200 F 
ATOM     81  F   UNL A   1      40.766  25.710  25.368  1.00  0.00    -0.200 F 
ENDBRANCH  47  71
BRANCH  59  82
ATOM     82  C   UNL A   1      44.046  28.422  34.746  1.00  0.00     0.064 A 
ATOM     83  C   UNL A   1      45.368  28.863  34.587  1.00  0.00     0.173 A 
ATOM     84  C   UNL A   1      43.830  27.237  35.465  1.00  0.00     0.173 A 
ATOM     85  F   UNL A   1      45.628  29.982  33.893  1.00  0.00    -0.203 F 
ATOM     86  C   UNL A   1      46.433  28.133  35.110  1.00  0.00     0.198 A 
ATOM     87  C   UNL A   1      44.894  26.525  36.010  1.00  0.00     0.198 A 
ATOM     88  F   UNL A   1      42.583  26.776  35.650  1.00  0.00    -0.203 F 
ATOM     89  F   UNL A   1      47.691  28.550  34.912  1.00  0.00    -0.200 F 
ATOM     90  C   UNL A   1      46.195  26.970  35.827  1.00  0.00     0.200 A 
ATOM     91  F   UNL A   1      44.662  25.407  36.712  1.00  0.00    -0.200 F 
ATOM     92  F   UNL A   1      47.220  26.273  36.336  1.00  0.00    -0.200 F 
ENDBRANCH  59  82
ENDBRANCH  33  34
ENDBRANCH  26  28
ENDBRANCH  25  26
ENDBRANCH  24  25
ENDBRANCH  23  24
ENDBRANCH  22  23
ENDBRANCH   1  22
TORSDOF 19
ENDMDL
MODEL 3
REMARK VINA RESULT:     -10.1      0.466      7.482
REMARK SMILES CC[C@H](Oc1ccc(C)nc1C[NH3+])C(=O)OCCOCCOC(=O)c1ccc(-c2c3nc(c(-c4c(F)c(F)c(F)c(F)c4F)c4ccc([nH]4)c(-c4c(F)c(F)c(F)c(F)c4F)c4nc(c(-c5c(F)c(F)c(F)c(F)c5F)c5ccc2[nH]5)C=C4)C=C3)cc1
REMARK SMILES IDX 18 1 17 2 16 3 14 4 15 5 3 6 2 7 1 8 4 9 5 10 6 11 11 12
REMARK SMILES IDX 7 13 10 14 8 15 9 16 12 17 13 18 19 22 20 23 21 24 22 25
REMARK SMILES IDX 23 26 24 27 25 28 26 29 87 30 27 31 86 32 28 33 29 34 30 35
REMARK SMILES IDX 80 36 31 37 85 38 79 39 81 40 32 41 84 42 78 43 77 44 33 46
REMARK SMILES IDX 65 47 45 48 64 49 46 50 49 51 63 52 82 53 47 54 48 55 62 57
REMARK SMILES IDX 83 58 50 59 34 60 35 61 43 62 36 63 37 64 41 65 44 66 38 67
REMARK SMILES IDX 39 68 42 69 40 70 66 71 67 72 75 73 68 74 69 75 73 76 76 77
REMARK SMILES IDX 70 78 71 79 74 80 72 81 51 82 52 83 60 84 53 85 54 86 58 87
REMARK SMILES IDX 61 88 55 89 56 90 59 91 57 92
REMARK H PARENT 13 19 13 20 13 21 81 45 49 56
REMARK Flexibility Score: inf
ROOT
ATOM      1  C   UNL A   1      34.014  26.830  24.832  1.00  0.00     0.202 C 
ENDROOT
BRANCH   1   2
ATOM      2  C   UNL A   1      33.552  26.133  26.115  1.00  0.00     0.261 C 
BRANCH   2   3
ATOM      3  O   UNL A   1      33.226  24.756  25.857  1.00  0.00    -0.461 OA
BRANCH   3   4
ATOM      4  C   UNL A   1      31.908  24.420  25.930  1.00  0.00     0.347 C 
ATOM      5  O   UNL A   1      31.180  24.632  26.893  1.00  0.00    -0.248 OA
BRANCH   4   6
ATOM      6  C   UNL A   1      31.422  23.715  24.658  1.00  0.00     0.282 C 
BRANCH   6   7
ATOM      7  C   UNL A   1      32.163  22.381  24.493  1.00  0.00     0.054 C 
ATOM      8  C   UNL A   1      32.224  21.865  23.062  1.00  0.00     0.008 C 
ENDBRANCH   6   7
BRANCH   6   9
ATOM      9  O   UNL A   1      31.589  24.495  23.473  1.00  0.00    -0.477 OA
BRANCH   9  10
ATOM     10  C   UNL A   1      30.848  25.632  23.305  1.00  0.00     0.147 A 
ATOM     11  C   UNL A   1      29.710  25.953  24.046  1.00  0.00     0.050 A 
ATOM     12  C   UNL A   1      31.305  26.577  22.377  1.00  0.00     0.136 A 
ATOM     13  C   UNL A   1      29.043  27.158  23.817  1.00  0.00     0.027 A 
ATOM     14  N   UNL A   1      30.662  27.762  22.162  1.00  0.00    -0.248 NA
ATOM     15  C   UNL A   1      29.540  28.032  22.863  1.00  0.00     0.038 A 
ATOM     16  C   UNL A   1      28.870  29.343  22.578  1.00  0.00     0.067 C 
BRANCH  12  17
ATOM     17  C   UNL A   1      32.578  26.354  21.577  1.00  0.00     0.320 C 
BRANCH  17  18
ATOM     18  N   UNL A   1      33.489  27.505  21.589  1.00  0.00    -0.352 N 
ATOM     19  H   UNL A   1      33.285  28.092  22.398  1.00  0.00     0.344 HD
ATOM     20  H   UNL A   1      33.363  28.047  20.734  1.00  0.00     0.344 HD
ATOM     21  H   UNL A   1      34.453  27.175  21.644  1.00  0.00     0.344 HD
ENDBRANCH  17  18
ENDBRANCH  12  17
ENDBRANCH   9  10
ENDBRANCH   6   9
ENDBRANCH   4   6
ENDBRANCH   3   4
ENDBRANCH   2   3
ENDBRANCH   1   2
BRANCH   1  22
ATOM     22  O   UNL A   1      33.545  28.167  24.655  1.00  0.00    -0.374 OA
BRANCH  22  23
ATOM     23  C   UNL A   1      32.490  28.609  25.509  1.00  0.00     0.202 C 
BRANCH  23  24
ATOM     24  C   UNL A   1      32.402  30.120  25.750  1.00  0.00     0.261 C 
BRANCH  24  25
ATOM     25  O   UNL A   1      32.511  30.464  27.144  1.00  0.00    -0.460 OA
BRANCH  25  26
ATOM     26  C   UNL A   1      33.283  31.544  27.400  1.00  0.00     0.338 C 
ATOM     27  O   UNL A   1      32.929  32.718  27.447  1.00  0.00    -0.246 OA
BRANCH  26  28
ATOM     28  C   UNL A   1      34.646  31.134  27.782  1.00  0.00     0.060 A 
ATOM     29  C   UNL A   1      34.859  29.774  28.045  1.00  0.00     0.016 A 
ATOM     30  C   UNL A   1      35.668  32.063  27.987  1.00  0.00     0.016 A 
ATOM     31  C   UNL A   1      36.077  29.346  28.569  1.00  0.00     0.010 A 
ATOM     32  C   UNL A   1      36.888  31.632  28.521  1.00  0.00     0.010 A 
ATOM     33  C   UNL A   1      37.084  30.278  28.850  1.00  0.00    -0.014 A 
BRANCH  33  34
ATOM     34  C   UNL A   1      38.274  29.850  29.626  1.00  0.00     0.031 A 
ATOM     35  C   UNL A   1      38.468  30.379  31.021  1.00  0.00     0.074 A 
ATOM     36  C   UNL A   1      39.148  28.966  29.114  1.00  0.00     0.049 A 
ATOM     37  N   UNL A   1      39.433  30.141  31.874  1.00  0.00    -0.248 NA
ATOM     38  C   UNL A   1      37.434  31.298  31.523  1.00  0.00     0.031 C 
ATOM     39  C   UNL A   1      39.048  28.351  27.793  1.00  0.00     0.029 A 
ATOM     40  N   UNL A   1      40.296  28.435  29.649  1.00  0.00    -0.354 N 
ATOM     41  C   UNL A   1      39.125  30.883  33.007  1.00  0.00     0.074 A 
ATOM     42  C   UNL A   1      37.900  31.598  32.726  1.00  0.00     0.031 C 
ATOM     43  C   UNL A   1      40.097  27.528  27.617  1.00  0.00     0.029 A 
ATOM     44  C   UNL A   1      40.953  27.581  28.800  1.00  0.00     0.049 A 
ATOM     45  H   UNL A   1      40.616  28.648  30.555  1.00  0.00     0.167 HD
ATOM     46  C   UNL A   1      39.801  30.952  34.180  1.00  0.00     0.037 A 
ATOM     47  C   UNL A   1      42.122  26.930  28.957  1.00  0.00     0.037 A 
ATOM     48  C   UNL A   1      41.015  30.236  34.464  1.00  0.00     0.049 A 
ATOM     49  C   UNL A   1      42.888  27.078  30.246  1.00  0.00     0.074 A 
ATOM     50  C   UNL A   1      41.755  30.220  35.634  1.00  0.00     0.029 A 
ATOM     51  N   UNL A   1      41.672  29.411  33.564  1.00  0.00    -0.354 N 
ATOM     52  N   UNL A   1      42.574  27.756  31.323  1.00  0.00    -0.248 NA
ATOM     53  C   UNL A   1      44.171  26.367  30.341  1.00  0.00     0.031 C 
ATOM     54  C   UNL A   1      42.886  29.422  35.426  1.00  0.00     0.029 A 
ATOM     55  C   UNL A   1      42.823  28.903  34.143  1.00  0.00     0.049 A 
ATOM     56  H   UNL A   1      41.365  29.214  32.650  1.00  0.00     0.167 HD
ATOM     57  C   UNL A   1      43.602  27.532  32.229  1.00  0.00     0.074 A 
ATOM     58  C   UNL A   1      44.546  26.647  31.580  1.00  0.00     0.031 C 
ATOM     59  C   UNL A   1      43.750  28.015  33.487  1.00  0.00     0.037 A 
BRANCH  46  60
ATOM     60  C   UNL A   1      39.250  31.857  35.243  1.00  0.00     0.064 A 
ATOM     61  C   UNL A   1      38.438  31.368  36.276  1.00  0.00     0.173 A 
ATOM     62  C   UNL A   1      39.572  33.222  35.247  1.00  0.00     0.173 A 
ATOM     63  F   UNL A   1      38.090  30.074  36.307  1.00  0.00    -0.203 F 
ATOM     64  C   UNL A   1      37.952  32.220  37.266  1.00  0.00     0.198 A 
ATOM     65  C   UNL A   1      39.105  34.065  36.252  1.00  0.00     0.198 A 
ATOM     66  F   UNL A   1      40.350  33.736  34.282  1.00  0.00    -0.203 F 
ATOM     67  F   UNL A   1      37.146  31.739  38.223  1.00  0.00    -0.200 F 
ATOM     68  C   UNL A   1      38.291  33.565  37.257  1.00  0.00     0.200 A 
ATOM     69  F   UNL A   1      39.443  35.362  36.248  1.00  0.00    -0.200 F 
ATOM     70  F   UNL A   1      37.828  34.380  38.215  1.00  0.00    -0.200 F 
ENDBRANCH  46  60
BRANCH  47  71
ATOM     71  C   UNL A   1      42.650  26.079  27.860  1.00  0.00     0.064 A 
ATOM     72  C   UNL A   1      43.561  26.588  26.924  1.00  0.00     0.173 A 
ATOM     73  C   UNL A   1      42.240  24.746  27.714  1.00  0.00     0.173 A 
ATOM     74  F   UNL A   1      43.961  27.866  27.008  1.00  0.00    -0.203 F 
ATOM     75  C   UNL A   1      44.030  25.800  25.875  1.00  0.00     0.198 A 
ATOM     76  C   UNL A   1      42.729  23.951  26.679  1.00  0.00     0.198 A 
ATOM     77  F   UNL A   1      41.367  24.212  28.581  1.00  0.00    -0.203 F 
ATOM     78  F   UNL A   1      44.867  26.325  24.969  1.00  0.00    -0.200 F 
ATOM     79  C   UNL A   1      43.618  24.481  25.756  1.00  0.00     0.200 A 
ATOM     80  F   UNL A   1      42.336  22.675  26.573  1.00  0.00    -0.200 F 
ATOM     81  F   UNL A   1      44.071  23.724  24.748  1.00  0.00    -0.200 F 
ENDBRANCH  47  71
BRANCH  59  82
ATOM     82  C   UNL A   1      44.957  27.572  34.259  1.00  0.00     0.064 A 
ATOM     83  C   UNL A   1      44.947  26.400  35.030  1.00  0.00     0.173 A 
ATOM     84  C   UNL A   1      46.152  28.305  34.193  1.00  0.00     0.173 A 
ATOM     85  F   UNL A   1      43.824  25.673  35.137  1.00  0.00    -0.203 F 
ATOM     86  C   UNL A   1      46.083  25.991  35.724  1.00  0.00     0.198 A 
ATOM     87  C   UNL A   1      47.293  27.878  34.866  1.00  0.00     0.198 A 
ATOM     88  F   UNL A   1      46.215  29.430  33.464  1.00  0.00    -0.203 F 
ATOM     89  F   UNL A   1      46.039  24.891  36.488  1.00  0.00    -0.200 F 
ATOM     90  C   UNL A   1      47.256  26.725  35.636  1.00  0.00     0.200 A 
ATOM     91  F   UNL A   1      48.429  28.583  34.770  1.00  0.00    -0.200 F 
ATOM     92  F   UNL A   1      48.350  26.326  36.299  1.00  0.00    -0.200 F 
ENDBRANCH  59  82
ENDBRANCH  33  34
ENDBRANCH  26  28
ENDBRANCH  25  26
ENDBRANCH  24  25
ENDBRANCH  23  24
ENDBRANCH  22  23
ENDBRANCH   1  22
TORSDOF 19
ENDMDL
