MODEL 1
REMARK VINA RESULT:     -11.2      0.000      0.000
REMARK SMILES COc1ccc(C(=O)N2CSC[C@H]2C(=O)OCCOCCOC(=O)c2ccc(-c3c4nc(c(-c5c(F)c(F)c(F)c(F)c5F)c5ccc([nH]5)c(-c5c(F)c(F)c(F)c(F)c5F)c5nc(c(-c6c(F)c(F)c(F)c(F)c6F)c6ccc3[nH]6)C=C5)C=C4)cc2)cc1C#N
REMARK SMILES IDX 18 1 17 2 16 3 14 4 15 5 13 6 9 7 10 8 11 9 12 10 7 11 8 12
REMARK SMILES IDX 6 13 3 14 4 15 89 16 5 17 88 18 2 19 1 20 90 21 91 22 19 23
REMARK SMILES IDX 20 24 21 25 22 26 23 27 24 28 25 29 26 30 87 31 27 32 86 33
REMARK SMILES IDX 28 34 29 35 30 36 80 37 31 38 85 39 79 40 81 41 32 42 84 43
REMARK SMILES IDX 78 44 77 45 33 47 65 48 45 49 64 50 46 51 49 52 63 53 82 54
REMARK SMILES IDX 47 55 48 56 62 58 83 59 50 60 34 61 35 62 43 63 36 64 37 65
REMARK SMILES IDX 41 66 44 67 38 68 39 69 42 70 40 71 66 72 67 73 75 74 68 75
REMARK SMILES IDX 69 76 73 77 76 78 70 79 71 80 74 81 72 82 51 83 52 84 60 85
REMARK SMILES IDX 53 86 54 87 58 88 61 89 55 90 56 91 59 92 57 93
REMARK H PARENT 81 46 49 57
REMARK Flexibility Score: inf
ROOT
ATOM      1  C   UNL A   1      33.814  19.218  24.686  1.00  0.00     0.202 C 
ENDROOT
BRANCH   1   2
ATOM      2  C   UNL A   1      33.131  20.150  25.691  1.00  0.00     0.261 C 
BRANCH   2   3
ATOM      3  O   UNL A   1      32.013  20.883  25.156  1.00  0.00    -0.462 OA
BRANCH   3   4
ATOM      4  C   UNL A   1      32.338  21.705  24.121  1.00  0.00     0.329 C 
ATOM      5  O   UNL A   1      32.498  21.329  22.961  1.00  0.00    -0.250 OA
BRANCH   4   6
ATOM      6  C   UNL A   1      32.630  23.150  24.521  1.00  0.00     0.206 C 
ATOM      7  N   UNL A   1      32.683  23.612  25.917  1.00  0.00    -0.315 N 
ATOM      8  C   UNL A   1      34.002  23.558  26.500  1.00  0.00     0.191 C 
ATOM      9  S   UNL A   1      35.116  24.025  25.163  1.00  0.00    -0.138 SA
ATOM     10  C   UNL A   1      33.967  23.505  23.853  1.00  0.00     0.108 C 
BRANCH   7  11
ATOM     11  C   UNL A   1      31.577  24.262  26.443  1.00  0.00     0.255 C 
ATOM     12  O   UNL A   1      30.825  23.721  27.252  1.00  0.00    -0.269 OA
BRANCH  11  13
ATOM     13  C   UNL A   1      31.148  25.580  25.892  1.00  0.00     0.041 A 
ATOM     14  C   UNL A   1      30.687  28.005  24.520  1.00  0.00     0.136 A 
ATOM     15  C   UNL A   1      29.928  26.860  24.234  1.00  0.00     0.048 A 
ATOM     16  C   UNL A   1      31.657  27.944  25.528  1.00  0.00     0.095 A 
ATOM     17  C   UNL A   1      30.166  25.649  24.902  1.00  0.00     0.018 A 
ATOM     18  C   UNL A   1      31.892  26.728  26.193  1.00  0.00     0.037 A 
BRANCH  14  19
ATOM     19  O   UNL A   1      30.340  29.116  23.798  1.00  0.00    -0.495 OA
ATOM     20  C   UNL A   1      30.358  28.968  22.376  1.00  0.00     0.278 C 
ENDBRANCH  14  19
BRANCH  16  21
ATOM     21  C   UNL A   1      32.444  29.070  25.939  1.00  0.00     0.103 C 
ATOM     22  N   UNL A   1      33.043  30.008  26.257  1.00  0.00    -0.192 NA
ENDBRANCH  16  21
ENDBRANCH  11  13
ENDBRANCH   7  11
ENDBRANCH   4   6
ENDBRANCH   3   4
ENDBRANCH   2   3
ENDBRANCH   1   2
BRANCH   1  23
ATOM     23  O   UNL A   1      35.231  19.138  24.641  1.00  0.00    -0.374 OA
BRANCH  23  24
ATOM     24  C   UNL A   1      36.007  20.276  25.001  1.00  0.00     0.202 C 
BRANCH  24  25
ATOM     25  C   UNL A   1      37.544  20.196  25.001  1.00  0.00     0.261 C 
BRANCH  25  26
ATOM     26  O   UNL A   1      38.236  21.408  25.327  1.00  0.00    -0.460 OA
BRANCH  26  27
ATOM     27  C   UNL A   1      39.316  21.227  26.126  1.00  0.00     0.338 C 
ATOM     28  O   UNL A   1      39.953  20.205  26.309  1.00  0.00    -0.246 OA
BRANCH  27  29
ATOM     29  C   UNL A   1      39.730  22.525  26.675  1.00  0.00     0.060 A 
ATOM     30  C   UNL A   1      39.133  23.684  26.163  1.00  0.00     0.016 A 
ATOM     31  C   UNL A   1      40.761  22.601  27.612  1.00  0.00     0.016 A 
ATOM     32  C   UNL A   1      39.584  24.932  26.573  1.00  0.00     0.010 A 
ATOM     33  C   UNL A   1      41.218  23.856  28.016  1.00  0.00     0.010 A 
ATOM     34  C   UNL A   1      40.652  25.025  27.475  1.00  0.00    -0.014 A 
BRANCH  34  35
ATOM     35  C   UNL A   1      41.256  26.347  27.755  1.00  0.00     0.031 A 
ATOM     36  C   UNL A   1      42.657  26.623  27.292  1.00  0.00     0.074 A 
ATOM     37  C   UNL A   1      40.542  27.294  28.388  1.00  0.00     0.049 A 
ATOM     38  N   UNL A   1      43.393  27.690  27.466  1.00  0.00    -0.248 NA
ATOM     39  C   UNL A   1      43.323  25.551  26.535  1.00  0.00     0.031 C 
ATOM     40  C   UNL A   1      39.163  27.142  28.845  1.00  0.00     0.029 A 
ATOM     41  N   UNL A   1      40.885  28.567  28.761  1.00  0.00    -0.354 N 
ATOM     42  C   UNL A   1      44.608  27.415  26.853  1.00  0.00     0.074 A 
ATOM     43  C   UNL A   1      44.526  26.068  26.333  1.00  0.00     0.031 C 
ATOM     44  C   UNL A   1      38.775  28.281  29.443  1.00  0.00     0.029 A 
ATOM     45  C   UNL A   1      39.895  29.220  29.452  1.00  0.00     0.049 A 
ATOM     46  H   UNL A   1      41.758  28.975  28.554  1.00  0.00     0.167 HD
ATOM     47  C   UNL A   1      45.689  28.221  26.728  1.00  0.00     0.037 A 
ATOM     48  C   UNL A   1      39.905  30.427  30.048  1.00  0.00     0.037 A 
ATOM     49  C   UNL A   1      45.754  29.561  27.250  1.00  0.00     0.049 A 
ATOM     50  C   UNL A   1      41.151  31.273  29.964  1.00  0.00     0.074 A 
ATOM     51  C   UNL A   1      46.792  30.472  27.157  1.00  0.00     0.029 A 
ATOM     52  N   UNL A   1      44.745  30.179  27.976  1.00  0.00    -0.354 N 
ATOM     53  N   UNL A   1      42.284  31.020  29.355  1.00  0.00    -0.248 NA
ATOM     54  C   UNL A   1      41.116  32.572  30.647  1.00  0.00     0.031 C 
ATOM     55  C   UNL A   1      46.441  31.609  27.891  1.00  0.00     0.029 A 
ATOM     56  C   UNL A   1      45.152  31.443  28.370  1.00  0.00     0.049 A 
ATOM     57  H   UNL A   1      43.869  29.777  28.178  1.00  0.00     0.167 HD
ATOM     58  C   UNL A   1      43.082  32.139  29.552  1.00  0.00     0.074 A 
ATOM     59  C   UNL A   1      42.297  33.079  30.322  1.00  0.00     0.031 C 
ATOM     60  C   UNL A   1      44.351  32.370  29.132  1.00  0.00     0.037 A 
BRANCH  47  61
ATOM     61  C   UNL A   1      46.902  27.668  26.035  1.00  0.00     0.064 A 
ATOM     62  C   UNL A   1      47.043  27.705  24.640  1.00  0.00     0.173 A 
ATOM     63  C   UNL A   1      47.960  27.130  26.785  1.00  0.00     0.173 A 
ATOM     64  F   UNL A   1      46.057  28.196  23.873  1.00  0.00    -0.203 F 
ATOM     65  C   UNL A   1      48.184  27.201  24.020  1.00  0.00     0.198 A 
ATOM     66  C   UNL A   1      49.116  26.662  26.165  1.00  0.00     0.198 A 
ATOM     67  F   UNL A   1      47.881  27.073  28.123  1.00  0.00    -0.203 F 
ATOM     68  F   UNL A   1      48.275  27.200  22.683  1.00  0.00    -0.200 F 
ATOM     69  C   UNL A   1      49.223  26.688  24.783  1.00  0.00     0.200 A 
ATOM     70  F   UNL A   1      50.124  26.184  26.907  1.00  0.00    -0.200 F 
ATOM     71  F   UNL A   1      50.326  26.216  24.187  1.00  0.00    -0.200 F 
ENDBRANCH  47  61
BRANCH  48  72
ATOM     72  C   UNL A   1      38.711  30.898  30.798  1.00  0.00     0.064 A 
ATOM     73  C   UNL A   1      37.662  31.565  30.150  1.00  0.00     0.173 A 
ATOM     74  C   UNL A   1      38.603  30.714  32.186  1.00  0.00     0.173 A 
ATOM     75  F   UNL A   1      37.725  31.785  28.828  1.00  0.00    -0.203 F 
ATOM     76  C   UNL A   1      36.569  32.054  30.862  1.00  0.00     0.198 A 
ATOM     77  C   UNL A   1      37.492  31.168  32.890  1.00  0.00     0.198 A 
ATOM     78  F   UNL A   1      39.576  30.079  32.857  1.00  0.00    -0.203 F 
ATOM     79  F   UNL A   1      35.610  32.741  30.225  1.00  0.00    -0.200 F 
ATOM     80  C   UNL A   1      36.481  31.849  32.231  1.00  0.00     0.200 A 
ATOM     81  F   UNL A   1      37.403  30.951  34.210  1.00  0.00    -0.200 F 
ATOM     82  F   UNL A   1      35.429  32.317  32.915  1.00  0.00    -0.200 F 
ENDBRANCH  48  72
BRANCH  60  83
ATOM     83  C   UNL A   1      44.956  33.708  29.454  1.00  0.00     0.064 A 
ATOM     84  C   UNL A   1      44.834  34.806  28.590  1.00  0.00     0.173 A 
ATOM     85  C   UNL A   1      45.627  33.905  30.672  1.00  0.00     0.173 A 
ATOM     86  F   UNL A   1      44.214  34.671  27.409  1.00  0.00    -0.203 F 
ATOM     87  C   UNL A   1      45.390  36.041  28.918  1.00  0.00     0.198 A 
ATOM     88  C   UNL A   1      46.145  35.151  31.015  1.00  0.00     0.198 A 
ATOM     89  F   UNL A   1      45.765  32.892  31.542  1.00  0.00    -0.203 F 
ATOM     90  F   UNL A   1      45.312  37.059  28.050  1.00  0.00    -0.200 F 
ATOM     91  C   UNL A   1      46.035  36.214  30.133  1.00  0.00     0.200 A 
ATOM     92  F   UNL A   1      46.749  35.322  32.199  1.00  0.00    -0.200 F 
ATOM     93  F   UNL A   1      46.557  37.406  30.452  1.00  0.00    -0.200 F 
ENDBRANCH  60  83
ENDBRANCH  34  35
ENDBRANCH  27  29
ENDBRANCH  26  27
ENDBRANCH  25  26
ENDBRANCH  24  25
ENDBRANCH  23  24
ENDBRANCH   1  23
TORSDOF 18
ENDMDL
MODEL 2
REMARK VINA RESULT:     -11.1      0.893      1.867
REMARK SMILES COc1ccc(C(=O)N2CSC[C@H]2C(=O)OCCOCCOC(=O)c2ccc(-c3c4nc(c(-c5c(F)c(F)c(F)c(F)c5F)c5ccc([nH]5)c(-c5c(F)c(F)c(F)c(F)c5F)c5nc(c(-c6c(F)c(F)c(F)c(F)c6F)c6ccc3[nH]6)C=C5)C=C4)cc2)cc1C#N
REMARK SMILES IDX 18 1 17 2 16 3 14 4 15 5 13 6 9 7 10 8 11 9 12 10 7 11 8 12
REMARK SMILES IDX 6 13 3 14 4 15 89 16 5 17 88 18 2 19 1 20 90 21 91 22 19 23
REMARK SMILES IDX 20 24 21 25 22 26 23 27 24 28 25 29 26 30 87 31 27 32 86 33
REMARK SMILES IDX 28 34 29 35 30 36 80 37 31 38 85 39 79 40 81 41 32 42 84 43
REMARK SMILES IDX 78 44 77 45 33 47 65 48 45 49 64 50 46 51 49 52 63 53 82 54
REMARK SMILES IDX 47 55 48 56 62 58 83 59 50 60 34 61 35 62 43 63 36 64 37 65
REMARK SMILES IDX 41 66 44 67 38 68 39 69 42 70 40 71 66 72 67 73 75 74 68 75
REMARK SMILES IDX 69 76 73 77 76 78 70 79 71 80 74 81 72 82 51 83 52 84 60 85
REMARK SMILES IDX 53 86 54 87 58 88 61 89 55 90 56 91 59 92 57 93
REMARK H PARENT 81 46 49 57
REMARK Flexibility Score: inf
ROOT
ATOM      1  C   UNL A   1      35.117  20.549  24.999  1.00  0.00     0.202 C 
ENDROOT
BRANCH   1   2
ATOM      2  C   UNL A   1      34.759  21.428  26.201  1.00  0.00     0.261 C 
BRANCH   2   3
ATOM      3  O   UNL A   1      33.371  21.375  26.581  1.00  0.00    -0.462 OA
BRANCH   3   4
ATOM      4  C   UNL A   1      32.515  21.274  25.529  1.00  0.00     0.329 C 
ATOM      5  O   UNL A   1      32.160  20.211  25.023  1.00  0.00    -0.250 OA
BRANCH   4   6
ATOM      6  C   UNL A   1      32.108  22.609  24.907  1.00  0.00     0.206 C 
ATOM      7  N   UNL A   1      32.644  23.907  25.345  1.00  0.00    -0.315 N 
ATOM      8  C   UNL A   1      33.815  24.330  24.617  1.00  0.00     0.191 C 
ATOM      9  S   UNL A   1      33.521  23.799  22.921  1.00  0.00    -0.138 SA
ATOM     10  C   UNL A   1      32.380  22.466  23.401  1.00  0.00     0.108 C 
BRANCH   7  11
ATOM     11  C   UNL A   1      31.876  24.688  26.196  1.00  0.00     0.255 C 
ATOM     12  O   UNL A   1      31.397  24.243  27.237  1.00  0.00    -0.269 OA
BRANCH  11  13
ATOM     13  C   UNL A   1      31.442  26.051  25.776  1.00  0.00     0.041 A 
ATOM     14  C   UNL A   1      31.038  28.645  24.735  1.00  0.00     0.136 A 
ATOM     15  C   UNL A   1      30.486  27.521  24.101  1.00  0.00     0.048 A 
ATOM     16  C   UNL A   1      31.763  28.472  25.919  1.00  0.00     0.095 A 
ATOM     17  C   UNL A   1      30.699  26.229  24.606  1.00  0.00     0.018 A 
ATOM     18  C   UNL A   1      31.974  27.175  26.420  1.00  0.00     0.037 A 
BRANCH  14  19
ATOM     19  O   UNL A   1      30.742  29.842  24.136  1.00  0.00    -0.495 OA
ATOM     20  C   UNL A   1      29.487  29.905  23.455  1.00  0.00     0.278 C 
ENDBRANCH  14  19
BRANCH  16  21
ATOM     21  C   UNL A   1      32.316  29.556  26.676  1.00  0.00     0.103 C 
ATOM     22  N   UNL A   1      32.790  30.444  27.250  1.00  0.00    -0.192 NA
ENDBRANCH  16  21
ENDBRANCH  11  13
ENDBRANCH   7  11
ENDBRANCH   4   6
ENDBRANCH   3   4
ENDBRANCH   2   3
ENDBRANCH   1   2
BRANCH   1  23
ATOM     23  O   UNL A   1      36.325  19.803  25.001  1.00  0.00    -0.374 OA
BRANCH  23  24
ATOM     24  C   UNL A   1      37.570  20.487  25.091  1.00  0.00     0.202 C 
BRANCH  24  25
ATOM     25  C   UNL A   1      38.834  19.737  25.547  1.00  0.00     0.261 C 
BRANCH  25  26
ATOM     26  O   UNL A   1      40.019  20.531  25.689  1.00  0.00    -0.460 OA
BRANCH  26  27
ATOM     27  C   UNL A   1      40.514  20.562  26.951  1.00  0.00     0.338 C 
ATOM     28  O   UNL A   1      40.828  19.621  27.658  1.00  0.00    -0.246 OA
BRANCH  27  29
ATOM     29  C   UNL A   1      40.765  21.957  27.335  1.00  0.00     0.060 A 
ATOM     30  C   UNL A   1      40.137  22.971  26.600  1.00  0.00     0.016 A 
ATOM     31  C   UNL A   1      41.679  22.260  28.343  1.00  0.00     0.016 A 
ATOM     32  C   UNL A   1      40.444  24.301  26.858  1.00  0.00     0.010 A 
ATOM     33  C   UNL A   1      41.992  23.597  28.595  1.00  0.00     0.010 A 
ATOM     34  C   UNL A   1      41.398  24.619  27.833  1.00  0.00    -0.014 A 
BRANCH  34  35
ATOM     35  C   UNL A   1      41.864  26.018  27.967  1.00  0.00     0.031 A 
ATOM     36  C   UNL A   1      43.203  26.399  27.403  1.00  0.00     0.074 A 
ATOM     37  C   UNL A   1      41.081  26.936  28.559  1.00  0.00     0.049 A 
ATOM     38  N   UNL A   1      43.823  27.550  27.445  1.00  0.00    -0.248 NA
ATOM     39  C   UNL A   1      43.946  25.341  26.701  1.00  0.00     0.031 C 
ATOM     40  C   UNL A   1      39.750  26.680  29.105  1.00  0.00     0.029 A 
ATOM     41  N   UNL A   1      41.298  28.267  28.804  1.00  0.00    -0.354 N 
ATOM     42  C   UNL A   1      45.031  27.353  26.789  1.00  0.00     0.074 A 
ATOM     43  C   UNL A   1      45.073  25.963  26.389  1.00  0.00     0.031 C 
ATOM     44  C   UNL A   1      39.268  27.820  29.627  1.00  0.00     0.029 A 
ATOM     45  C   UNL A   1      40.275  28.870  29.494  1.00  0.00     0.049 A 
ATOM     46  H   UNL A   1      42.109  28.746  28.514  1.00  0.00     0.167 HD
ATOM     47  C   UNL A   1      46.008  28.255  26.536  1.00  0.00     0.037 A 
ATOM     48  C   UNL A   1      40.181  30.119  29.986  1.00  0.00     0.037 A 
ATOM     49  C   UNL A   1      45.949  29.635  26.940  1.00  0.00     0.049 A 
ATOM     50  C   UNL A   1      41.319  31.082  29.760  1.00  0.00     0.074 A 
ATOM     51  C   UNL A   1      46.873  30.639  26.711  1.00  0.00     0.029 A 
ATOM     52  N   UNL A   1      44.913  30.204  27.667  1.00  0.00    -0.354 N 
ATOM     53  N   UNL A   1      42.443  30.898  29.110  1.00  0.00    -0.248 NA
ATOM     54  C   UNL A   1      41.173  32.426  30.333  1.00  0.00     0.031 C 
ATOM     55  C   UNL A   1      46.434  31.794  27.367  1.00  0.00     0.029 A 
ATOM     56  C   UNL A   1      45.195  31.534  27.931  1.00  0.00     0.049 A 
ATOM     57  H   UNL A   1      44.097  29.731  27.953  1.00  0.00     0.167 HD
ATOM     58  C   UNL A   1      43.120  32.109  29.167  1.00  0.00     0.074 A 
ATOM     59  C   UNL A   1      42.273  33.025  29.900  1.00  0.00     0.031 C 
ATOM     60  C   UNL A   1      44.335  32.435  28.657  1.00  0.00     0.037 A 
BRANCH  47  61
ATOM     61  C   UNL A   1      47.240  27.774  25.822  1.00  0.00     0.064 A 
ATOM     62  C   UNL A   1      48.361  27.294  26.515  1.00  0.00     0.173 A 
ATOM     63  C   UNL A   1      47.280  27.752  24.419  1.00  0.00     0.173 A 
ATOM     64  F   UNL A   1      48.382  27.303  27.857  1.00  0.00    -0.203 F 
ATOM     65  C   UNL A   1      49.486  26.837  25.831  1.00  0.00     0.198 A 
ATOM     66  C   UNL A   1      48.391  27.258  23.739  1.00  0.00     0.198 A 
ATOM     67  F   UNL A   1      46.234  28.194  23.705  1.00  0.00    -0.203 F 
ATOM     68  F   UNL A   1      50.565  26.431  26.515  1.00  0.00    -0.200 F 
ATOM     69  C   UNL A   1      49.496  26.810  24.445  1.00  0.00     0.200 A 
ATOM     70  F   UNL A   1      48.389  27.218  22.399  1.00  0.00    -0.200 F 
ATOM     71  F   UNL A   1      50.573  26.358  23.789  1.00  0.00    -0.200 F 
ENDBRANCH  47  61
BRANCH  48  72
ATOM     72  C   UNL A   1      38.978  30.526  30.760  1.00  0.00     0.064 A 
ATOM     73  C   UNL A   1      37.867  31.102  30.129  1.00  0.00     0.173 A 
ATOM     74  C   UNL A   1      38.924  30.369  32.155  1.00  0.00     0.173 A 
ATOM     75  F   UNL A   1      37.876  31.293  28.802  1.00  0.00    -0.203 F 
ATOM     76  C   UNL A   1      36.764  31.532  30.864  1.00  0.00     0.198 A 
ATOM     77  C   UNL A   1      37.804  30.763  32.883  1.00  0.00     0.198 A 
ATOM     78  F   UNL A   1      39.957  29.819  32.811  1.00  0.00    -0.203 F 
ATOM     79  F   UNL A   1      35.741  32.136  30.240  1.00  0.00    -0.200 F 
ATOM     80  C   UNL A   1      36.730  31.356  32.238  1.00  0.00     0.200 A 
ATOM     81  F   UNL A   1      37.769  30.573  34.209  1.00  0.00    -0.200 F 
ATOM     82  F   UNL A   1      35.668  31.767  32.944  1.00  0.00    -0.200 F 
ENDBRANCH  48  72
BRANCH  60  83
ATOM     83  C   UNL A   1      44.802  33.854  28.832  1.00  0.00     0.064 A 
ATOM     84  C   UNL A   1      45.505  34.269  29.972  1.00  0.00     0.173 A 
ATOM     85  C   UNL A   1      44.581  34.800  27.818  1.00  0.00     0.173 A 
ATOM     86  F   UNL A   1      45.733  33.410  30.976  1.00  0.00    -0.203 F 
ATOM     87  C   UNL A   1      45.942  35.585  30.104  1.00  0.00     0.198 A 
ATOM     88  C   UNL A   1      45.055  36.103  27.935  1.00  0.00     0.198 A 
ATOM     89  F   UNL A   1      43.922  34.455  26.701  1.00  0.00    -0.203 F 
ATOM     90  F   UNL A   1      46.561  35.973  31.228  1.00  0.00    -0.200 F 
ATOM     91  C   UNL A   1      45.725  36.497  29.082  1.00  0.00     0.200 A 
ATOM     92  F   UNL A   1      44.863  36.977  26.937  1.00  0.00    -0.200 F 
ATOM     93  F   UNL A   1      46.157  37.760  29.206  1.00  0.00    -0.200 F 
ENDBRANCH  60  83
ENDBRANCH  34  35
ENDBRANCH  27  29
ENDBRANCH  26  27
ENDBRANCH  25  26
ENDBRANCH  24  25
ENDBRANCH  23  24
ENDBRANCH   1  23
TORSDOF 18
ENDMDL
MODEL 3
REMARK VINA RESULT:     -11.1      4.063      7.335
REMARK SMILES COc1ccc(C(=O)N2CSC[C@H]2C(=O)OCCOCCOC(=O)c2ccc(-c3c4nc(c(-c5c(F)c(F)c(F)c(F)c5F)c5ccc([nH]5)c(-c5c(F)c(F)c(F)c(F)c5F)c5nc(c(-c6c(F)c(F)c(F)c(F)c6F)c6ccc3[nH]6)C=C5)C=C4)cc2)cc1C#N
REMARK SMILES IDX 18 1 17 2 16 3 14 4 15 5 13 6 9 7 10 8 11 9 12 10 7 11 8 12
REMARK SMILES IDX 6 13 3 14 4 15 89 16 5 17 88 18 2 19 1 20 90 21 91 22 19 23
REMARK SMILES IDX 20 24 21 25 22 26 23 27 24 28 25 29 26 30 87 31 27 32 86 33
REMARK SMILES IDX 28 34 29 35 30 36 80 37 31 38 85 39 79 40 81 41 32 42 84 43
REMARK SMILES IDX 78 44 77 45 33 47 65 48 45 49 64 50 46 51 49 52 63 53 82 54
REMARK SMILES IDX 47 55 48 56 62 58 83 59 50 60 34 61 35 62 43 63 36 64 37 65
REMARK SMILES IDX 41 66 44 67 38 68 39 69 42 70 40 71 66 72 67 73 75 74 68 75
REMARK SMILES IDX 69 76 73 77 76 78 70 79 71 80 74 81 72 82 51 83 52 84 60 85
REMARK SMILES IDX 53 86 54 87 58 88 61 89 55 90 56 91 59 92 57 93
REMARK H PARENT 81 46 49 57
REMARK Flexibility Score: inf
ROOT
ATOM      1  C   UNL A   1      30.056  29.203  23.141  1.00  0.00     0.202 C 
ENDROOT
BRANCH   1   2
ATOM      2  C   UNL A   1      29.326  27.856  23.122  1.00  0.00     0.261 C 
BRANCH   2   3
ATOM      3  O   UNL A   1      30.195  26.713  23.024  1.00  0.00    -0.462 OA
BRANCH   3   4
ATOM      4  C   UNL A   1      30.309  26.006  24.181  1.00  0.00     0.329 C 
ATOM      5  O   UNL A   1      29.436  25.946  25.045  1.00  0.00    -0.250 OA
BRANCH   4   6
ATOM      6  C   UNL A   1      31.681  25.376  24.413  1.00  0.00     0.206 C 
ATOM      7  N   UNL A   1      32.829  25.576  23.515  1.00  0.00    -0.315 N 
ATOM      8  C   UNL A   1      33.672  26.688  23.883  1.00  0.00     0.191 C 
ATOM      9  S   UNL A   1      33.698  26.669  25.684  1.00  0.00    -0.138 SA
ATOM     10  C   UNL A   1      32.103  25.806  25.826  1.00  0.00     0.108 C 
BRANCH   7  11
ATOM     11  C   UNL A   1      33.131  24.584  22.594  1.00  0.00     0.255 C 
ATOM     12  O   UNL A   1      33.046  24.770  21.382  1.00  0.00    -0.269 OA
BRANCH  11  13
ATOM     13  C   UNL A   1      33.384  23.187  23.052  1.00  0.00     0.041 A 
ATOM     14  C   UNL A   1      33.706  20.700  24.350  1.00  0.00     0.136 A 
ATOM     15  C   UNL A   1      32.545  20.983  23.614  1.00  0.00     0.048 A 
ATOM     16  C   UNL A   1      34.729  21.654  24.402  1.00  0.00     0.095 A 
ATOM     17  C   UNL A   1      32.375  22.224  22.982  1.00  0.00     0.018 A 
ATOM     18  C   UNL A   1      34.552  22.897  23.768  1.00  0.00     0.037 A 
BRANCH  14  19
ATOM     19  O   UNL A   1      33.739  19.447  24.905  1.00  0.00    -0.495 OA
ATOM     20  C   UNL A   1      33.319  18.377  24.056  1.00  0.00     0.278 C 
ENDBRANCH  14  19
BRANCH  16  21
ATOM     21  C   UNL A   1      35.977  21.441  25.074  1.00  0.00     0.103 C 
ATOM     22  N   UNL A   1      36.997  21.316  25.608  1.00  0.00    -0.192 NA
ENDBRANCH  16  21
ENDBRANCH  11  13
ENDBRANCH   7  11
ENDBRANCH   4   6
ENDBRANCH   3   4
ENDBRANCH   2   3
ENDBRANCH   1   2
BRANCH   1  23
ATOM     23  O   UNL A   1      31.316  29.318  23.786  1.00  0.00    -0.374 OA
BRANCH  23  24
ATOM     24  C   UNL A   1      31.368  29.701  25.156  1.00  0.00     0.202 C 
BRANCH  24  25
ATOM     25  C   UNL A   1      32.657  30.303  25.742  1.00  0.00     0.261 C 
BRANCH  25  26
ATOM     26  O   UNL A   1      32.582  30.741  27.105  1.00  0.00    -0.460 OA
BRANCH  26  27
ATOM     27  C   UNL A   1      33.328  31.841  27.372  1.00  0.00     0.338 C 
ATOM     28  O   UNL A   1      32.987  33.010  27.325  1.00  0.00    -0.246 OA
BRANCH  27  29
ATOM     29  C   UNL A   1      34.638  31.421  27.885  1.00  0.00     0.060 A 
ATOM     30  C   UNL A   1      34.791  30.097  28.312  1.00  0.00     0.016 A 
ATOM     31  C   UNL A   1      35.671  32.347  28.030  1.00  0.00     0.016 A 
ATOM     32  C   UNL A   1      35.978  29.697  28.912  1.00  0.00     0.010 A 
ATOM     33  C   UNL A   1      36.860  31.946  28.640  1.00  0.00     0.010 A 
ATOM     34  C   UNL A   1      37.006  30.628  29.111  1.00  0.00    -0.014 A 
BRANCH  34  35
ATOM     35  C   UNL A   1      38.184  30.250  29.923  1.00  0.00     0.031 A 
ATOM     36  C   UNL A   1      39.191  29.296  29.350  1.00  0.00     0.074 A 
ATOM     37  C   UNL A   1      38.358  30.781  31.146  1.00  0.00     0.049 A 
ATOM     38  N   UNL A   1      40.268  28.797  29.900  1.00  0.00    -0.248 NA
ATOM     39  C   UNL A   1      38.952  28.836  27.973  1.00  0.00     0.031 C 
ATOM     40  C   UNL A   1      37.461  31.745  31.780  1.00  0.00     0.029 A 
ATOM     41  N   UNL A   1      39.348  30.577  32.073  1.00  0.00    -0.354 N 
ATOM     42  C   UNL A   1      40.827  27.959  28.945  1.00  0.00     0.074 A 
ATOM     43  C   UNL A   1      39.953  27.986  27.793  1.00  0.00     0.031 C 
ATOM     44  C   UNL A   1      37.940  32.048  32.999  1.00  0.00     0.029 A 
ATOM     45  C   UNL A   1      39.147  31.263  33.245  1.00  0.00     0.049 A 
ATOM     46  H   UNL A   1      40.126  29.996  31.914  1.00  0.00     0.167 HD
ATOM     47  C   UNL A   1      41.972  27.241  29.022  1.00  0.00     0.037 A 
ATOM     48  C   UNL A   1      39.846  31.234  34.395  1.00  0.00     0.037 A 
ATOM     49  C   UNL A   1      42.833  27.226  30.177  1.00  0.00     0.049 A 
ATOM     50  C   UNL A   1      41.074  30.364  34.483  1.00  0.00     0.074 A 
ATOM     51  C   UNL A   1      44.029  26.553  30.349  1.00  0.00     0.029 A 
ATOM     52  N   UNL A   1      42.582  27.905  31.360  1.00  0.00    -0.354 N 
ATOM     53  N   UNL A   1      41.615  29.599  33.564  1.00  0.00    -0.248 NA
ATOM     54  C   UNL A   1      41.789  30.355  35.765  1.00  0.00     0.031 C 
ATOM     55  C   UNL A   1      44.461  26.762  31.663  1.00  0.00     0.029 A 
ATOM     56  C   UNL A   1      43.581  27.635  32.281  1.00  0.00     0.049 A 
ATOM     57  H   UNL A   1      41.808  28.493  31.520  1.00  0.00     0.167 HD
ATOM     58  C   UNL A   1      42.749  29.047  34.146  1.00  0.00     0.074 A 
ATOM     59  C   UNL A   1      42.827  29.578  35.490  1.00  0.00     0.031 C 
ATOM     60  C   UNL A   1      43.647  28.179  33.615  1.00  0.00     0.037 A 
BRANCH  47  61
ATOM     61  C   UNL A   1      42.344  26.384  27.845  1.00  0.00     0.064 A 
ATOM     62  C   UNL A   1      43.267  26.808  26.878  1.00  0.00     0.173 A 
ATOM     63  C   UNL A   1      41.800  25.097  27.709  1.00  0.00     0.173 A 
ATOM     64  F   UNL A   1      43.810  28.033  26.952  1.00  0.00    -0.203 F 
ATOM     65  C   UNL A   1      43.609  25.988  25.804  1.00  0.00     0.198 A 
ATOM     66  C   UNL A   1      42.173  24.266  26.656  1.00  0.00     0.198 A 
ATOM     67  F   UNL A   1      40.916  24.637  28.608  1.00  0.00    -0.203 F 
ATOM     68  F   UNL A   1      44.454  26.435  24.864  1.00  0.00    -0.200 F 
ATOM     69  C   UNL A   1      43.070  24.715  25.700  1.00  0.00     0.200 A 
ATOM     70  F   UNL A   1      41.662  23.030  26.568  1.00  0.00    -0.200 F 
ATOM     71  F   UNL A   1      43.410  23.923  24.674  1.00  0.00    -0.200 F 
ENDBRANCH  47  61
BRANCH  48  72
ATOM     72  C   UNL A   1      39.392  32.034  35.564  1.00  0.00     0.064 A 
ATOM     73  C   UNL A   1      39.861  33.338  35.780  1.00  0.00     0.173 A 
ATOM     74  C   UNL A   1      38.495  31.502  36.504  1.00  0.00     0.173 A 
ATOM     75  F   UNL A   1      40.735  33.885  34.922  1.00  0.00    -0.203 F 
ATOM     76  C   UNL A   1      39.476  34.065  36.904  1.00  0.00     0.198 A 
ATOM     77  C   UNL A   1      38.080  32.245  37.606  1.00  0.00     0.198 A 
ATOM     78  F   UNL A   1      38.011  30.262  36.345  1.00  0.00    -0.203 F 
ATOM     79  F   UNL A   1      39.988  35.285  37.117  1.00  0.00    -0.200 F 
ATOM     80  C   UNL A   1      38.581  33.521  37.813  1.00  0.00     0.200 A 
ATOM     81  F   UNL A   1      37.201  31.722  38.472  1.00  0.00    -0.200 F 
ATOM     82  F   UNL A   1      38.209  34.222  38.893  1.00  0.00    -0.200 F 
ENDBRANCH  48  72
BRANCH  60  83
ATOM     83  C   UNL A   1      44.819  27.784  34.470  1.00  0.00     0.064 A 
ATOM     84  C   UNL A   1      45.995  28.546  34.515  1.00  0.00     0.173 A 
ATOM     85  C   UNL A   1      44.741  26.650  35.294  1.00  0.00     0.173 A 
ATOM     86  F   UNL A   1      46.128  29.632  33.740  1.00  0.00    -0.203 F 
ATOM     87  C   UNL A   1      47.062  28.168  35.327  1.00  0.00     0.198 A 
ATOM     88  C   UNL A   1      45.793  26.299  36.135  1.00  0.00     0.198 A 
ATOM     89  F   UNL A   1      43.635  25.890  35.299  1.00  0.00    -0.203 F 
ATOM     90  F   UNL A   1      48.199  28.878  35.309  1.00  0.00    -0.200 F 
ATOM     91  C   UNL A   1      46.956  27.051  36.143  1.00  0.00     0.200 A 
ATOM     92  F   UNL A   1      45.679  25.232  36.939  1.00  0.00    -0.200 F 
ATOM     93  F   UNL A   1      47.978  26.697  36.933  1.00  0.00    -0.200 F 
ENDBRANCH  60  83
ENDBRANCH  34  35
ENDBRANCH  27  29
ENDBRANCH  26  27
ENDBRANCH  25  26
ENDBRANCH  24  25
ENDBRANCH  23  24
ENDBRANCH   1  23
TORSDOF 18
ENDMDL
