MODEL 1
REMARK VINA RESULT:     -13.6      0.000      0.000
REMARK SMILES O=C(OCCOCCOC(=O)c1ccc(-c2c3nc(c(-c4c(F)c(F)c(F)c(F)c4F)c4ccc([nH]4)c(-c4c(F)c(F)c(F)c(F)c4F)c4nc(c(-c5c(F)c(F)c(F)c(F)c5F)c5ccc2[nH]5)C=C4)C=C3)cc1)C1=Cc2cc(Cl)cc(C#Cc3ccccc3)c2O[C@@H]1C(F)(F)F
REMARK SMILES IDX 6 1 5 2 4 3 3 4 2 5 1 6 75 7 76 8 93 9 77 10 92 11 78 12
REMARK SMILES IDX 91 13 79 14 82 15 80 16 81 17 94 18 95 19 96 20 97 21 83 22
REMARK SMILES IDX 84 23 85 24 86 25 90 26 87 27 89 28 88 29 7 30 8 31 9 32
REMARK SMILES IDX 10 33 11 34 12 35 13 36 74 37 14 38 73 39 15 40 16 41 17 42
REMARK SMILES IDX 67 43 18 44 72 45 66 46 68 47 19 48 71 49 65 50 64 51 20 53
REMARK SMILES IDX 52 54 32 55 51 56 33 57 36 58 50 59 69 60 34 61 35 62 49 64
REMARK SMILES IDX 70 65 37 66 21 67 22 68 30 69 23 70 24 71 28 72 31 73 25 74
REMARK SMILES IDX 26 75 29 76 27 77 53 78 54 79 62 80 55 81 56 82 60 83 63 84
REMARK SMILES IDX 57 85 58 86 61 87 59 88 38 89 39 90 47 91 40 92 41 93 45 94
REMARK SMILES IDX 48 95 42 96 43 97 46 98 44 99
REMARK H PARENT 68 52 36 63
REMARK Flexibility Score: inf
ROOT
ATOM      1  O   UNL A   1      38.191  21.975  25.721  1.00  0.00    -0.374 OA
ENDROOT
BRANCH   1   2
ATOM      2  C   UNL A   1      37.179  21.703  24.576  1.00  0.00     0.202 C 
BRANCH   2   3
ATOM      3  C   UNL A   1      35.642  22.954  23.671  1.00  0.00     0.261 C 
BRANCH   3   4
ATOM      4  O   UNL A   1      35.296  24.414  24.030  1.00  0.00    -0.460 OA
BRANCH   4   5
ATOM      5  C   UNL A   1      34.190  24.855  23.427  1.00  0.00     0.338 C 
ATOM      6  O   UNL A   1      34.024  25.266  22.310  1.00  0.00    -0.246 OA
BRANCH   5   7
ATOM      7  C   UNL A   1      33.391  24.915  24.628  1.00  0.00     0.087 C 
ATOM      8  C   UNL A   1      34.055  25.834  25.602  1.00  0.00     0.027 C 
ATOM      9  C   UNL A   1      31.686  25.256  23.774  1.00  0.00     0.316 C 
ATOM     10  C   UNL A   1      33.402  27.486  26.010  1.00  0.00     0.020 A 
ATOM     11  O   UNL A   1      31.010  27.015  24.160  1.00  0.00    -0.474 OA
ATOM     12  C   UNL A   1      34.171  28.304  26.785  1.00  0.00     0.032 A 
ATOM     13  C   UNL A   1      31.970  28.138  25.219  1.00  0.00     0.143 A 
ATOM     14  C   UNL A   1      33.727  29.623  26.811  1.00  0.00     0.043 A 
ATOM     15  C   UNL A   1      31.646  29.459  25.256  1.00  0.00     0.069 A 
ATOM     16  Cl  UNL A   1      34.619  30.740  27.796  1.00  0.00    -0.084 Cl
ATOM     17  C   UNL A   1      32.579  30.151  26.074  1.00  0.00     0.041 A 
BRANCH   9  18
ATOM     18  C   UNL A   1      30.971  23.860  23.908  1.00  0.00     0.430 C 
ATOM     19  F   UNL A   1      30.435  23.601  25.114  1.00  0.00    -0.167 F 
ATOM     20  F   UNL A   1      29.920  23.866  23.034  1.00  0.00    -0.167 F 
ATOM     21  F   UNL A   1      31.725  22.806  23.514  1.00  0.00    -0.167 F 
ENDBRANCH   9  18
BRANCH  15  22
ATOM     22  C   UNL A   1      30.542  30.118  24.611  1.00  0.00    -0.058 C 
ATOM     23  C   UNL A   1      29.690  30.598  23.905  1.00  0.00    -0.062 C 
BRANCH  23  24
ATOM     24  C   UNL A   1      28.848  31.083  22.829  1.00  0.00     0.025 A 
ATOM     25  C   UNL A   1      28.526  32.445  22.753  1.00  0.00     0.017 A 
ATOM     26  C   UNL A   1      28.570  30.269  21.724  1.00  0.00     0.017 A 
ATOM     27  C   UNL A   1      28.028  32.998  21.563  1.00  0.00     0.001 A 
ATOM     28  C   UNL A   1      28.079  30.820  20.532  1.00  0.00     0.001 A 
ATOM     29  C   UNL A   1      27.829  32.188  20.444  1.00  0.00     0.000 A 
ENDBRANCH  23  24
ENDBRANCH  15  22
ENDBRANCH   5   7
ENDBRANCH   4   5
ENDBRANCH   3   4
ENDBRANCH   2   3
ENDBRANCH   1   2
BRANCH   1  30
ATOM     30  C   UNL A   1      39.544  21.554  25.919  1.00  0.00     0.202 C 
BRANCH  30  31
ATOM     31  C   UNL A   1      40.411  22.003  27.085  1.00  0.00     0.261 C 
BRANCH  31  32
ATOM     32  O   UNL A   1      40.157  23.297  27.600  1.00  0.00    -0.460 OA
BRANCH  32  33
ATOM     33  C   UNL A   1      40.922  24.304  27.108  1.00  0.00     0.338 C 
ATOM     34  O   UNL A   1      41.827  24.234  26.302  1.00  0.00    -0.246 OA
BRANCH  33  35
ATOM     35  C   UNL A   1      40.481  25.516  27.831  1.00  0.00     0.060 A 
ATOM     36  C   UNL A   1      39.322  25.543  28.605  1.00  0.00     0.016 A 
ATOM     37  C   UNL A   1      41.353  26.595  27.864  1.00  0.00     0.016 A 
ATOM     38  C   UNL A   1      39.135  26.573  29.559  1.00  0.00     0.010 A 
ATOM     39  C   UNL A   1      41.170  27.588  28.824  1.00  0.00     0.010 A 
ATOM     40  C   UNL A   1      40.107  27.567  29.744  1.00  0.00    -0.014 A 
BRANCH  40  41
ATOM     41  C   UNL A   1      40.039  28.664  30.779  1.00  0.00     0.031 A 
ATOM     42  C   UNL A   1      40.966  28.555  31.962  1.00  0.00     0.074 A 
ATOM     43  C   UNL A   1      39.093  29.636  30.825  1.00  0.00     0.049 A 
ATOM     44  N   UNL A   1      40.974  29.243  33.076  1.00  0.00    -0.248 NA
ATOM     45  C   UNL A   1      41.949  27.459  31.927  1.00  0.00     0.031 C 
ATOM     46  C   UNL A   1      37.982  29.790  29.901  1.00  0.00     0.029 A 
ATOM     47  N   UNL A   1      38.864  30.658  31.733  1.00  0.00    -0.354 N 
ATOM     48  C   UNL A   1      41.928  28.633  33.874  1.00  0.00     0.074 A 
ATOM     49  C   UNL A   1      42.383  27.455  33.175  1.00  0.00     0.031 C 
ATOM     50  C   UNL A   1      37.234  30.858  30.224  1.00  0.00     0.029 A 
ATOM     51  C   UNL A   1      37.760  31.441  31.450  1.00  0.00     0.049 A 
ATOM     52  H   UNL A   1      39.441  30.814  32.515  1.00  0.00     0.167 HD
ATOM     53  C   UNL A   1      42.438  29.044  35.055  1.00  0.00     0.037 A 
ATOM     54  C   UNL A   1      37.200  32.480  32.109  1.00  0.00     0.037 A 
ATOM     55  C   UNL A   1      42.063  30.252  35.728  1.00  0.00     0.049 A 
ATOM     56  C   UNL A   1      37.810  32.942  33.412  1.00  0.00     0.074 A 
ATOM     57  C   UNL A   1      42.644  30.821  36.847  1.00  0.00     0.029 A 
ATOM     58  N   UNL A   1      41.017  31.077  35.352  1.00  0.00    -0.354 N 
ATOM     59  N   UNL A   1      38.839  32.458  34.060  1.00  0.00    -0.248 NA
ATOM     60  C   UNL A   1      37.182  34.098  34.080  1.00  0.00     0.031 C 
ATOM     61  C   UNL A   1      41.910  31.956  37.189  1.00  0.00     0.029 A 
ATOM     62  C   UNL A   1      40.913  32.130  36.245  1.00  0.00     0.049 A 
ATOM     63  H   UNL A   1      40.436  30.935  34.570  1.00  0.00     0.167 HD
ATOM     64  C   UNL A   1      39.007  33.271  35.174  1.00  0.00     0.074 A 
ATOM     65  C   UNL A   1      37.988  34.292  35.113  1.00  0.00     0.031 C 
ATOM     66  C   UNL A   1      39.924  33.170  36.165  1.00  0.00     0.037 A 
BRANCH  53  67
ATOM     67  C   UNL A   1      43.517  28.205  35.666  1.00  0.00     0.064 A 
ATOM     68  C   UNL A   1      43.216  27.188  36.587  1.00  0.00     0.173 A 
ATOM     69  C   UNL A   1      44.854  28.384  35.291  1.00  0.00     0.173 A 
ATOM     70  F   UNL A   1      41.951  26.989  36.988  1.00  0.00    -0.203 F 
ATOM     71  C   UNL A   1      44.222  26.403  37.136  1.00  0.00     0.198 A 
ATOM     72  C   UNL A   1      45.853  27.567  35.810  1.00  0.00     0.198 A 
ATOM     73  F   UNL A   1      45.190  29.341  34.413  1.00  0.00    -0.203 F 
ATOM     74  F   UNL A   1      43.920  25.480  38.059  1.00  0.00    -0.200 F 
ATOM     75  C   UNL A   1      45.539  26.585  36.738  1.00  0.00     0.200 A 
ATOM     76  F   UNL A   1      47.122  27.731  35.413  1.00  0.00    -0.200 F 
ATOM     77  F   UNL A   1      46.505  25.814  37.251  1.00  0.00    -0.200 F 
ENDBRANCH  53  67
BRANCH  54  78
ATOM     78  C   UNL A   1      35.991  33.194  31.588  1.00  0.00     0.064 A 
ATOM     79  C   UNL A   1      36.021  33.828  30.332  1.00  0.00     0.173 A 
ATOM     80  C   UNL A   1      34.838  33.374  32.366  1.00  0.00     0.173 A 
ATOM     81  F   UNL A   1      37.110  33.719  29.557  1.00  0.00    -0.203 F 
ATOM     82  C   UNL A   1      34.982  34.658  29.909  1.00  0.00     0.198 A 
ATOM     83  C   UNL A   1      33.780  34.173  31.924  1.00  0.00     0.198 A 
ATOM     84  F   UNL A   1      34.745  32.795  33.573  1.00  0.00    -0.203 F 
ATOM     85  F   UNL A   1      35.092  35.328  28.754  1.00  0.00    -0.200 F 
ATOM     86  C   UNL A   1      33.862  34.831  30.705  1.00  0.00     0.200 A 
ATOM     87  F   UNL A   1      32.694  34.331  32.692  1.00  0.00    -0.200 F 
ATOM     88  F   UNL A   1      32.876  35.648  30.311  1.00  0.00    -0.200 F 
ENDBRANCH  54  78
BRANCH  66  89
ATOM     89  C   UNL A   1      39.922  34.213  37.245  1.00  0.00     0.064 A 
ATOM     90  C   UNL A   1      40.684  35.386  37.140  1.00  0.00     0.173 A 
ATOM     91  C   UNL A   1      39.075  34.077  38.356  1.00  0.00     0.173 A 
ATOM     92  F   UNL A   1      41.519  35.558  36.103  1.00  0.00    -0.203 F 
ATOM     93  C   UNL A   1      40.606  36.378  38.113  1.00  0.00     0.198 A 
ATOM     94  C   UNL A   1      38.972  35.087  39.308  1.00  0.00     0.198 A 
ATOM     95  F   UNL A   1      38.320  32.978  38.500  1.00  0.00    -0.203 F 
ATOM     96  F   UNL A   1      41.369  37.475  38.010  1.00  0.00    -0.200 F 
ATOM     97  C   UNL A   1      39.741  36.235  39.188  1.00  0.00     0.200 A 
ATOM     98  F   UNL A   1      38.119  34.955  40.333  1.00  0.00    -0.200 F 
ATOM     99  F   UNL A   1      39.648  37.203  40.109  1.00  0.00    -0.200 F 
ENDBRANCH  66  89
ENDBRANCH  40  41
ENDBRANCH  33  35
ENDBRANCH  32  33
ENDBRANCH  31  32
ENDBRANCH  30  31
ENDBRANCH   1  30
TORSDOF 17
ENDMDL
MODEL 2
REMARK VINA RESULT:     -13.5      3.363      9.007
REMARK SMILES O=C(OCCOCCOC(=O)c1ccc(-c2c3nc(c(-c4c(F)c(F)c(F)c(F)c4F)c4ccc([nH]4)c(-c4c(F)c(F)c(F)c(F)c4F)c4nc(c(-c5c(F)c(F)c(F)c(F)c5F)c5ccc2[nH]5)C=C4)C=C3)cc1)C1=Cc2cc(Cl)cc(C#Cc3ccccc3)c2O[C@@H]1C(F)(F)F
REMARK SMILES IDX 6 1 5 2 4 3 3 4 2 5 1 6 75 7 76 8 93 9 77 10 92 11 78 12
REMARK SMILES IDX 91 13 79 14 82 15 80 16 81 17 94 18 95 19 96 20 97 21 83 22
REMARK SMILES IDX 84 23 85 24 86 25 90 26 87 27 89 28 88 29 7 30 8 31 9 32
REMARK SMILES IDX 10 33 11 34 12 35 13 36 74 37 14 38 73 39 15 40 16 41 17 42
REMARK SMILES IDX 67 43 18 44 72 45 66 46 68 47 19 48 71 49 65 50 64 51 20 53
REMARK SMILES IDX 52 54 32 55 51 56 33 57 36 58 50 59 69 60 34 61 35 62 49 64
REMARK SMILES IDX 70 65 37 66 21 67 22 68 30 69 23 70 24 71 28 72 31 73 25 74
REMARK SMILES IDX 26 75 29 76 27 77 53 78 54 79 62 80 55 81 56 82 60 83 63 84
REMARK SMILES IDX 57 85 58 86 61 87 59 88 38 89 39 90 47 91 40 92 41 93 45 94
REMARK SMILES IDX 48 95 42 96 43 97 46 98 44 99
REMARK H PARENT 68 52 36 63
REMARK Flexibility Score: inf
ROOT
ATOM      1  O   UNL A   1      33.423  32.217  28.289  1.00  0.00    -0.374 OA
ENDROOT
BRANCH   1   2
ATOM      2  C   UNL A   1      32.894  31.262  27.185  1.00  0.00     0.202 C 
BRANCH   2   3
ATOM      3  C   UNL A   1      32.193  29.201  27.264  1.00  0.00     0.261 C 
BRANCH   3   4
ATOM      4  O   UNL A   1      31.713  28.333  26.083  1.00  0.00    -0.460 OA
BRANCH   4   5
ATOM      5  C   UNL A   1      31.828  27.023  26.313  1.00  0.00     0.338 C 
ATOM      6  O   UNL A   1      31.685  26.397  27.330  1.00  0.00    -0.246 OA
BRANCH   5   7
ATOM      7  C   UNL A   1      32.426  26.709  25.038  1.00  0.00     0.087 C 
ATOM      8  C   UNL A   1      33.895  26.508  25.232  1.00  0.00     0.027 C 
ATOM      9  C   UNL A   1      31.183  25.318  24.517  1.00  0.00     0.316 C 
ATOM     10  C   UNL A   1      34.694  24.873  25.140  1.00  0.00     0.020 A 
ATOM     11  O   UNL A   1      32.005  23.580  24.462  1.00  0.00    -0.474 OA
ATOM     12  C   UNL A   1      36.009  24.784  25.492  1.00  0.00     0.032 A 
ATOM     13  C   UNL A   1      33.764  23.400  24.882  1.00  0.00     0.143 A 
ATOM     14  C   UNL A   1      36.451  23.473  25.658  1.00  0.00     0.043 A 
ATOM     15  C   UNL A   1      34.268  22.160  25.125  1.00  0.00     0.069 A 
ATOM     16  Cl  UNL A   1      38.121  23.248  26.076  1.00  0.00    -0.084 Cl
ATOM     17  C   UNL A   1      35.629  22.272  25.518  1.00  0.00     0.041 A 
BRANCH   9  18
ATOM     18  C   UNL A   1      30.319  26.049  23.423  1.00  0.00     0.430 C 
ATOM     19  F   UNL A   1      30.085  27.353  23.650  1.00  0.00    -0.167 F 
ATOM     20  F   UNL A   1      31.030  26.002  22.256  1.00  0.00    -0.167 F 
ATOM     21  F   UNL A   1      29.152  25.428  23.126  1.00  0.00    -0.167 F 
ENDBRANCH   9  18
BRANCH  15  22
ATOM     22  C   UNL A   1      33.597  20.893  25.006  1.00  0.00    -0.058 C 
ATOM     23  C   UNL A   1      33.215  19.754  24.902  1.00  0.00    -0.062 C 
BRANCH  23  24
ATOM     24  C   UNL A   1      33.050  18.325  24.724  1.00  0.00     0.025 A 
ATOM     25  C   UNL A   1      33.649  17.683  23.631  1.00  0.00     0.017 A 
ATOM     26  C   UNL A   1      32.528  17.536  25.757  1.00  0.00     0.017 A 
ATOM     27  C   UNL A   1      33.811  16.289  23.621  1.00  0.00     0.001 A 
ATOM     28  C   UNL A   1      32.695  16.144  25.751  1.00  0.00     0.001 A 
ATOM     29  C   UNL A   1      33.355  15.522  24.694  1.00  0.00     0.000 A 
ENDBRANCH  23  24
ENDBRANCH  15  22
ENDBRANCH   5   7
ENDBRANCH   4   5
ENDBRANCH   3   4
ENDBRANCH   2   3
ENDBRANCH   1   2
BRANCH   1  30
ATOM     30  C   UNL A   1      33.990  33.529  28.224  1.00  0.00     0.202 C 
BRANCH  30  31
ATOM     31  C   UNL A   1      33.256  34.792  28.647  1.00  0.00     0.261 C 
BRANCH  31  32
ATOM     32  O   UNL A   1      32.551  34.733  29.875  1.00  0.00    -0.460 OA
BRANCH  32  33
ATOM     33  C   UNL A   1      32.904  35.644  30.817  1.00  0.00     0.338 C 
ATOM     34  O   UNL A   1      32.528  36.793  30.928  1.00  0.00    -0.246 OA
BRANCH  33  35
ATOM     35  C   UNL A   1      33.926  34.970  31.645  1.00  0.00     0.060 A 
ATOM     36  C   UNL A   1      33.645  33.830  32.397  1.00  0.00     0.016 A 
ATOM     37  C   UNL A   1      35.239  35.401  31.520  1.00  0.00     0.016 A 
ATOM     38  C   UNL A   1      34.704  33.015  32.865  1.00  0.00     0.010 A 
ATOM     39  C   UNL A   1      36.271  34.578  31.965  1.00  0.00     0.010 A 
ATOM     40  C   UNL A   1      36.039  33.333  32.576  1.00  0.00    -0.014 A 
BRANCH  40  41
ATOM     41  C   UNL A   1      37.234  32.497  32.965  1.00  0.00     0.031 A 
ATOM     42  C   UNL A   1      37.948  32.864  34.240  1.00  0.00     0.074 A 
ATOM     43  C   UNL A   1      37.825  31.564  32.175  1.00  0.00     0.049 A 
ATOM     44  N   UNL A   1      39.100  32.443  34.697  1.00  0.00    -0.248 NA
ATOM     45  C   UNL A   1      37.328  33.919  35.059  1.00  0.00     0.031 C 
ATOM     46  C   UNL A   1      37.422  31.213  30.823  1.00  0.00     0.029 A 
ATOM     47  N   UNL A   1      38.947  30.774  32.363  1.00  0.00    -0.354 N 
ATOM     48  C   UNL A   1      39.349  33.212  35.821  1.00  0.00     0.074 A 
ATOM     49  C   UNL A   1      38.300  34.201  35.907  1.00  0.00     0.031 C 
ATOM     50  C   UNL A   1      38.213  30.248  30.324  1.00  0.00     0.029 A 
ATOM     51  C   UNL A   1      39.257  29.952  31.294  1.00  0.00     0.049 A 
ATOM     52  H   UNL A   1      39.480  30.794  33.191  1.00  0.00     0.167 HD
ATOM     53  C   UNL A   1      40.322  33.074  36.748  1.00  0.00     0.037 A 
ATOM     54  C   UNL A   1      40.278  29.090  31.087  1.00  0.00     0.037 A 
ATOM     55  C   UNL A   1      41.324  32.049  36.731  1.00  0.00     0.049 A 
ATOM     56  C   UNL A   1      41.335  28.929  32.154  1.00  0.00     0.074 A 
ATOM     57  C   UNL A   1      42.247  31.744  37.714  1.00  0.00     0.029 A 
ATOM     58  N   UNL A   1      41.536  31.167  35.687  1.00  0.00    -0.354 N 
ATOM     59  N   UNL A   1      41.447  29.542  33.305  1.00  0.00    -0.248 NA
ATOM     60  C   UNL A   1      42.413  27.956  31.895  1.00  0.00     0.031 C 
ATOM     61  C   UNL A   1      43.064  30.718  37.239  1.00  0.00     0.029 A 
ATOM     62  C   UNL A   1      42.606  30.341  35.988  1.00  0.00     0.049 A 
ATOM     63  H   UNL A   1      41.008  31.132  34.857  1.00  0.00     0.167 HD
ATOM     64  C   UNL A   1      42.568  28.999  33.920  1.00  0.00     0.074 A 
ATOM     65  C   UNL A   1      43.098  27.995  33.028  1.00  0.00     0.031 C 
ATOM     66  C   UNL A   1      43.113  29.315  35.119  1.00  0.00     0.037 A 
BRANCH  53  67
ATOM     67  C   UNL A   1      40.308  34.024  37.905  1.00  0.00     0.064 A 
ATOM     68  C   UNL A   1      39.547  33.760  39.056  1.00  0.00     0.173 A 
ATOM     69  C   UNL A   1      41.097  35.181  37.885  1.00  0.00     0.173 A 
ATOM     70  F   UNL A   1      38.764  32.672  39.115  1.00  0.00    -0.203 F 
ATOM     71  C   UNL A   1      39.553  34.639  40.131  1.00  0.00     0.198 A 
ATOM     72  C   UNL A   1      41.134  36.036  38.981  1.00  0.00     0.198 A 
ATOM     73  F   UNL A   1      41.843  35.474  36.808  1.00  0.00    -0.203 F 
ATOM     74  F   UNL A   1      38.773  34.399  41.194  1.00  0.00    -0.200 F 
ATOM     75  C   UNL A   1      40.356  35.770  40.098  1.00  0.00     0.200 A 
ATOM     76  F   UNL A   1      41.922  37.119  38.956  1.00  0.00    -0.200 F 
ATOM     77  F   UNL A   1      40.377  36.606  41.144  1.00  0.00    -0.200 F 
ENDBRANCH  53  67
BRANCH  54  78
ATOM     78  C   UNL A   1      40.394  28.283  29.831  1.00  0.00     0.064 A 
ATOM     79  C   UNL A   1      41.167  28.749  28.751  1.00  0.00     0.173 A 
ATOM     80  C   UNL A   1      39.648  27.113  29.625  1.00  0.00     0.173 A 
ATOM     81  F   UNL A   1      41.875  29.880  28.878  1.00  0.00    -0.203 F 
ATOM     82  C   UNL A   1      41.138  28.116  27.507  1.00  0.00     0.198 A 
ATOM     83  C   UNL A   1      39.652  26.458  28.390  1.00  0.00     0.198 A 
ATOM     84  F   UNL A   1      38.892  26.616  30.614  1.00  0.00    -0.203 F 
ATOM     85  F   UNL A   1      41.804  28.648  26.473  1.00  0.00    -0.200 F 
ATOM     86  C   UNL A   1      40.379  26.972  27.327  1.00  0.00     0.200 A 
ATOM     87  F   UNL A   1      38.925  25.345  28.222  1.00  0.00    -0.200 F 
ATOM     88  F   UNL A   1      40.330  26.380  26.126  1.00  0.00    -0.200 F 
ENDBRANCH  54  78
BRANCH  66  89
ATOM     89  C   UNL A   1      44.313  28.540  35.582  1.00  0.00     0.064 A 
ATOM     90  C   UNL A   1      45.619  28.995  35.353  1.00  0.00     0.173 A 
ATOM     91  C   UNL A   1      44.148  27.374  36.346  1.00  0.00     0.173 A 
ATOM     92  F   UNL A   1      45.831  30.098  34.618  1.00  0.00    -0.203 F 
ATOM     93  C   UNL A   1      46.715  28.305  35.861  1.00  0.00     0.198 A 
ATOM     94  C   UNL A   1      45.244  26.707  36.883  1.00  0.00     0.198 A 
ATOM     95  F   UNL A   1      42.919  26.901  36.600  1.00  0.00    -0.203 F 
ATOM     96  F   UNL A   1      47.957  28.738  35.600  1.00  0.00    -0.200 F 
ATOM     97  C   UNL A   1      46.527  27.170  36.637  1.00  0.00     0.200 A 
ATOM     98  F   UNL A   1      45.057  25.624  37.651  1.00  0.00    -0.200 F 
ATOM     99  F   UNL A   1      47.583  26.522  37.148  1.00  0.00    -0.200 F 
ENDBRANCH  66  89
ENDBRANCH  40  41
ENDBRANCH  33  35
ENDBRANCH  32  33
ENDBRANCH  31  32
ENDBRANCH  30  31
ENDBRANCH   1  30
TORSDOF 17
ENDMDL
MODEL 3
REMARK VINA RESULT:     -13.3      1.407      2.254
REMARK SMILES O=C(OCCOCCOC(=O)c1ccc(-c2c3nc(c(-c4c(F)c(F)c(F)c(F)c4F)c4ccc([nH]4)c(-c4c(F)c(F)c(F)c(F)c4F)c4nc(c(-c5c(F)c(F)c(F)c(F)c5F)c5ccc2[nH]5)C=C4)C=C3)cc1)C1=Cc2cc(Cl)cc(C#Cc3ccccc3)c2O[C@@H]1C(F)(F)F
REMARK SMILES IDX 6 1 5 2 4 3 3 4 2 5 1 6 75 7 76 8 93 9 77 10 92 11 78 12
REMARK SMILES IDX 91 13 79 14 82 15 80 16 81 17 94 18 95 19 96 20 97 21 83 22
REMARK SMILES IDX 84 23 85 24 86 25 90 26 87 27 89 28 88 29 7 30 8 31 9 32
REMARK SMILES IDX 10 33 11 34 12 35 13 36 74 37 14 38 73 39 15 40 16 41 17 42
REMARK SMILES IDX 67 43 18 44 72 45 66 46 68 47 19 48 71 49 65 50 64 51 20 53
REMARK SMILES IDX 52 54 32 55 51 56 33 57 36 58 50 59 69 60 34 61 35 62 49 64
REMARK SMILES IDX 70 65 37 66 21 67 22 68 30 69 23 70 24 71 28 72 31 73 25 74
REMARK SMILES IDX 26 75 29 76 27 77 53 78 54 79 62 80 55 81 56 82 60 83 63 84
REMARK SMILES IDX 57 85 58 86 61 87 59 88 38 89 39 90 47 91 40 92 41 93 45 94
REMARK SMILES IDX 48 95 42 96 43 97 46 98 44 99
REMARK H PARENT 68 52 36 63
REMARK Flexibility Score: inf
ROOT
ATOM      1  O   UNL A   1      37.741  21.594  25.680  1.00  0.00    -0.374 OA
ENDROOT
BRANCH   1   2
ATOM      2  C   UNL A   1      36.580  21.356  24.677  1.00  0.00     0.202 C 
BRANCH   2   3
ATOM      3  C   UNL A   1      35.173  22.728  23.735  1.00  0.00     0.261 C 
BRANCH   3   4
ATOM      4  O   UNL A   1      35.231  24.269  23.735  1.00  0.00    -0.460 OA
BRANCH   4   5
ATOM      5  C   UNL A   1      34.160  24.834  23.173  1.00  0.00     0.338 C 
ATOM      6  O   UNL A   1      34.026  25.342  22.092  1.00  0.00    -0.246 OA
BRANCH   5   7
ATOM      7  C   UNL A   1      33.368  24.861  24.379  1.00  0.00     0.087 C 
ATOM      8  C   UNL A   1      34.023  25.772  25.366  1.00  0.00     0.027 C 
ATOM      9  C   UNL A   1      31.653  25.191  23.542  1.00  0.00     0.316 C 
ATOM     10  C   UNL A   1      33.348  27.407  25.808  1.00  0.00     0.020 A 
ATOM     11  O   UNL A   1      30.952  26.932  23.963  1.00  0.00    -0.474 OA
ATOM     12  C   UNL A   1      34.110  28.221  26.593  1.00  0.00     0.032 A 
ATOM     13  C   UNL A   1      31.901  28.050  25.038  1.00  0.00     0.143 A 
ATOM     14  C   UNL A   1      33.645  29.533  26.646  1.00  0.00     0.043 A 
ATOM     15  C   UNL A   1      31.558  29.365  25.100  1.00  0.00     0.069 A 
ATOM     16  Cl  UNL A   1      34.527  30.646  27.646  1.00  0.00    -0.084 Cl
ATOM     17  C   UNL A   1      32.485  30.057  25.925  1.00  0.00     0.041 A 
BRANCH   9  18
ATOM     18  C   UNL A   1      30.960  23.782  23.655  1.00  0.00     0.430 C 
ATOM     19  F   UNL A   1      29.744  23.692  23.088  1.00  0.00    -0.167 F 
ATOM     20  F   UNL A   1      31.747  22.895  22.975  1.00  0.00    -0.167 F 
ATOM     21  F   UNL A   1      30.908  23.284  24.913  1.00  0.00    -0.167 F 
ENDBRANCH   9  18
BRANCH  15  22
ATOM     22  C   UNL A   1      30.440  30.019  24.474  1.00  0.00    -0.058 C 
ATOM     23  C   UNL A   1      29.592  30.524  23.781  1.00  0.00    -0.062 C 
BRANCH  23  24
ATOM     24  C   UNL A   1      28.776  31.088  22.723  1.00  0.00     0.025 A 
ATOM     25  C   UNL A   1      28.489  32.460  22.718  1.00  0.00     0.017 A 
ATOM     26  C   UNL A   1      28.491  30.343  21.573  1.00  0.00     0.017 A 
ATOM     27  C   UNL A   1      28.021  33.089  21.554  1.00  0.00     0.001 A 
ATOM     28  C   UNL A   1      28.030  30.970  20.407  1.00  0.00     0.001 A 
ATOM     29  C   UNL A   1      27.815  32.346  20.390  1.00  0.00     0.000 A 
ENDBRANCH  23  24
ENDBRANCH  15  22
ENDBRANCH   5   7
ENDBRANCH   4   5
ENDBRANCH   3   4
ENDBRANCH   2   3
ENDBRANCH   1   2
BRANCH   1  30
ATOM     30  C   UNL A   1      39.054  21.033  25.769  1.00  0.00     0.202 C 
BRANCH  30  31
ATOM     31  C   UNL A   1      40.229  21.727  26.441  1.00  0.00     0.261 C 
BRANCH  31  32
ATOM     32  O   UNL A   1      40.035  23.078  26.817  1.00  0.00    -0.460 OA
BRANCH  32  33
ATOM     33  C   UNL A   1      41.026  23.945  26.486  1.00  0.00     0.338 C 
ATOM     34  O   UNL A   1      42.016  23.733  25.818  1.00  0.00    -0.246 OA
BRANCH  33  35
ATOM     35  C   UNL A   1      40.695  25.201  27.193  1.00  0.00     0.060 A 
ATOM     36  C   UNL A   1      39.765  25.250  28.231  1.00  0.00     0.016 A 
ATOM     37  C   UNL A   1      41.470  26.317  26.913  1.00  0.00     0.016 A 
ATOM     38  C   UNL A   1      39.749  26.360  29.110  1.00  0.00     0.010 A 
ATOM     39  C   UNL A   1      41.461  27.391  27.800  1.00  0.00     0.010 A 
ATOM     40  C   UNL A   1      40.665  27.412  28.959  1.00  0.00    -0.014 A 
BRANCH  40  41
ATOM     41  C   UNL A   1      40.779  28.601  29.880  1.00  0.00     0.031 A 
ATOM     42  C   UNL A   1      41.912  28.598  30.874  1.00  0.00     0.074 A 
ATOM     43  C   UNL A   1      39.847  29.580  30.012  1.00  0.00     0.049 A 
ATOM     44  N   UNL A   1      42.120  29.388  31.897  1.00  0.00    -0.248 NA
ATOM     45  C   UNL A   1      42.883  27.498  30.759  1.00  0.00     0.031 C 
ATOM     46  C   UNL A   1      38.581  29.653  29.301  1.00  0.00     0.029 A 
ATOM     47  N   UNL A   1      39.781  30.684  30.847  1.00  0.00    -0.354 N 
ATOM     48  C   UNL A   1      43.212  28.849  32.556  1.00  0.00     0.074 A 
ATOM     49  C   UNL A   1      43.543  27.608  31.897  1.00  0.00     0.031 C 
ATOM     50  C   UNL A   1      37.895  30.752  29.658  1.00  0.00     0.029 A 
ATOM     51  C   UNL A   1      38.634  31.444  30.703  1.00  0.00     0.049 A 
ATOM     52  H   UNL A   1      40.492  30.909  31.489  1.00  0.00     0.167 HD
ATOM     53  C   UNL A   1      43.930  29.367  33.578  1.00  0.00     0.037 A 
ATOM     54  C   UNL A   1      38.195  32.545  31.355  1.00  0.00     0.037 A 
ATOM     55  C   UNL A   1      43.674  30.635  34.193  1.00  0.00     0.049 A 
ATOM     56  C   UNL A   1      39.033  33.123  32.472  1.00  0.00     0.074 A 
ATOM     57  C   UNL A   1      44.447  31.302  35.125  1.00  0.00     0.029 A 
ATOM     58  N   UNL A   1      42.567  31.427  33.944  1.00  0.00    -0.354 N 
ATOM     59  N   UNL A   1      40.170  32.695  32.958  1.00  0.00    -0.248 NA
ATOM     60  C   UNL A   1      38.527  34.340  33.134  1.00  0.00     0.031 C 
ATOM     61  C   UNL A   1      43.778  32.469  35.490  1.00  0.00     0.029 A 
ATOM     62  C   UNL A   1      42.619  32.561  34.737  1.00  0.00     0.049 A 
ATOM     63  H   UNL A   1      41.852  31.217  33.301  1.00  0.00     0.167 HD
ATOM     64  C   UNL A   1      40.534  33.608  33.941  1.00  0.00     0.074 A 
ATOM     65  C   UNL A   1      39.511  34.625  33.975  1.00  0.00     0.031 C 
ATOM     66  C   UNL A   1      41.621  33.594  34.747  1.00  0.00     0.037 A 
BRANCH  53  67
ATOM     67  C   UNL A   1      45.113  28.581  34.052  1.00  0.00     0.064 A 
ATOM     68  C   UNL A   1      44.994  27.629  35.077  1.00  0.00     0.173 A 
ATOM     69  C   UNL A   1      46.364  28.745  33.444  1.00  0.00     0.173 A 
ATOM     70  F   UNL A   1      43.818  27.448  35.700  1.00  0.00    -0.203 F 
ATOM     71  C   UNL A   1      46.094  26.894  35.499  1.00  0.00     0.198 A 
ATOM     72  C   UNL A   1      47.453  27.975  33.839  1.00  0.00     0.198 A 
ATOM     73  F   UNL A   1      46.527  29.641  32.458  1.00  0.00    -0.203 F 
ATOM     74  F   UNL A   1      45.970  26.035  36.520  1.00  0.00    -0.200 F 
ATOM     75  C   UNL A   1      47.320  27.058  34.871  1.00  0.00     0.200 A 
ATOM     76  F   UNL A   1      48.633  28.122  33.222  1.00  0.00    -0.200 F 
ATOM     77  F   UNL A   1      48.374  26.333  35.264  1.00  0.00    -0.200 F 
ENDBRANCH  53  67
BRANCH  54  78
ATOM     78  C   UNL A   1      36.902  33.214  31.005  1.00  0.00     0.064 A 
ATOM     79  C   UNL A   1      35.794  33.124  31.866  1.00  0.00     0.173 A 
ATOM     80  C   UNL A   1      36.700  33.839  29.766  1.00  0.00     0.173 A 
ATOM     81  F   UNL A   1      35.919  32.508  33.051  1.00  0.00    -0.203 F 
ATOM     82  C   UNL A   1      34.530  33.571  31.477  1.00  0.00     0.198 A 
ATOM     83  C   UNL A   1      35.442  34.323  29.394  1.00  0.00     0.198 A 
ATOM     84  F   UNL A   1      37.716  33.959  28.899  1.00  0.00    -0.203 F 
ATOM     85  F   UNL A   1      33.476  33.372  32.281  1.00  0.00    -0.200 F 
ATOM     86  C   UNL A   1      34.354  34.169  30.241  1.00  0.00     0.200 A 
ATOM     87  F   UNL A   1      35.277  34.910  28.201  1.00  0.00    -0.200 F 
ATOM     88  F   UNL A   1      33.136  34.574  29.857  1.00  0.00    -0.200 F 
ENDBRANCH  54  78
BRANCH  66  89
ATOM     89  C   UNL A   1      41.810  34.735  35.706  1.00  0.00     0.064 A 
ATOM     90  C   UNL A   1      41.344  34.675  37.027  1.00  0.00     0.173 A 
ATOM     91  C   UNL A   1      42.550  35.864  35.321  1.00  0.00     0.173 A 
ATOM     92  F   UNL A   1      40.620  33.623  37.440  1.00  0.00    -0.203 F 
ATOM     93  C   UNL A   1      41.600  35.708  37.922  1.00  0.00     0.198 A 
ATOM     94  C   UNL A   1      42.836  36.878  36.229  1.00  0.00     0.198 A 
ATOM     95  F   UNL A   1      43.026  35.967  34.071  1.00  0.00    -0.203 F 
ATOM     96  F   UNL A   1      41.115  35.647  39.170  1.00  0.00    -0.200 F 
ATOM     97  C   UNL A   1      42.358  36.802  37.528  1.00  0.00     0.200 A 
ATOM     98  F   UNL A   1      43.587  37.922  35.851  1.00  0.00    -0.200 F 
ATOM     99  F   UNL A   1      42.626  37.783  38.400  1.00  0.00    -0.200 F 
ENDBRANCH  66  89
ENDBRANCH  40  41
ENDBRANCH  33  35
ENDBRANCH  32  33
ENDBRANCH  31  32
ENDBRANCH  30  31
ENDBRANCH   1  30
TORSDOF 17
ENDMDL
