MODEL 1
REMARK VINA RESULT:     -12.7      0.000      0.000
REMARK SMILES Cc1cc(NC(=O)N2CCO[C@@H](CC(=O)OCCOCCOC(=O)c3ccc(-c4c5nc(c(-c6c(F)c(F)c(F)c(F)c6F)c6ccc([nH]6)c(-c6c(F)c(F)c(F)c(F)c6F)c6nc(c(-c7c(F)c(F)c(F)c(F)c7F)c7ccc4[nH]7)C=C6)C=C5)cc3)C2)ccc1F
REMARK SMILES IDX 18 1 17 2 16 3 14 4 15 5 13 6 12 7 8 8 9 9 88 10 10 11 11 12
REMARK SMILES IDX 6 13 5 14 7 16 4 17 1 18 2 19 3 20 91 21 90 22 92 23 89 24
REMARK SMILES IDX 19 25 20 26 21 27 22 28 23 29 24 30 25 31 26 32 87 33 27 34
REMARK SMILES IDX 86 35 28 36 29 37 30 38 80 39 31 40 85 41 79 42 81 43 32 44
REMARK SMILES IDX 84 45 78 46 77 47 33 49 65 50 45 51 64 52 46 53 49 54 63 55
REMARK SMILES IDX 82 56 47 57 48 58 62 60 83 61 50 62 34 63 35 64 43 65 36 66
REMARK SMILES IDX 37 67 41 68 44 69 38 70 39 71 42 72 40 73 66 74 67 75 75 76
REMARK SMILES IDX 68 77 69 78 73 79 76 80 70 81 71 82 74 83 72 84 51 85 52 86
REMARK SMILES IDX 60 87 53 88 54 89 58 90 61 91 55 92 56 93 59 94 57 95
REMARK H PARENT 5 15 81 48 49 59
REMARK Flexibility Score: inf
ROOT
ATOM      1  C   UNL A   1      33.678  28.985  26.649  1.00  0.00     0.202 C 
ENDROOT
BRANCH   1   2
ATOM      2  C   UNL A   1      32.862  28.921  25.356  1.00  0.00     0.261 C 
BRANCH   2   3
ATOM      3  O   UNL A   1      31.450  28.690  25.543  1.00  0.00    -0.463 OA
BRANCH   3   4
ATOM      4  C   UNL A   1      31.049  27.435  25.217  1.00  0.00     0.308 C 
ATOM      5  O   UNL A   1      30.563  27.122  24.135  1.00  0.00    -0.252 OA
BRANCH   4   6
ATOM      6  C   UNL A   1      31.162  26.431  26.326  1.00  0.00     0.156 C 
BRANCH   6   7
ATOM      7  C   UNL A   1      31.753  25.047  26.078  1.00  0.00     0.149 C 
ATOM      8  N   UNL A   1      33.820  23.654  26.191  1.00  0.00    -0.320 N 
ATOM      9  C   UNL A   1      33.245  22.921  27.321  1.00  0.00     0.150 C 
ATOM     10  C   UNL A   1      33.300  25.024  26.061  1.00  0.00     0.154 C 
ATOM     11  C   UNL A   1      31.725  22.929  27.235  1.00  0.00     0.182 C 
ATOM     12  O   UNL A   1      31.237  24.271  27.194  1.00  0.00    -0.374 OA
BRANCH   8  13
ATOM     13  C   UNL A   1      35.067  23.348  25.705  1.00  0.00     0.322 C 
ATOM     14  N   UNL A   1      35.317  22.102  25.203  1.00  0.00    -0.308 N 
ATOM     15  H   UNL A   1      36.267  21.845  25.224  1.00  0.00     0.171 HD
ATOM     16  O   UNL A   1      35.991  24.162  25.727  1.00  0.00    -0.248 OA
BRANCH  14  17
ATOM     17  C   UNL A   1      34.470  21.116  24.660  1.00  0.00     0.043 A 
ATOM     18  C   UNL A   1      34.364  17.298  24.593  1.00  0.00     0.047 C 
ATOM     19  C   UNL A   1      33.997  18.736  24.389  1.00  0.00    -0.013 A 
ATOM     20  C   UNL A   1      34.843  19.773  24.818  1.00  0.00     0.032 A 
ATOM     21  C   UNL A   1      32.769  19.068  23.817  1.00  0.00     0.126 A 
ATOM     22  C   UNL A   1      32.421  20.391  23.585  1.00  0.00     0.041 A 
ATOM     23  F   UNL A   1      31.907  18.101  23.473  1.00  0.00    -0.207 F 
ATOM     24  C   UNL A   1      33.292  21.411  23.971  1.00  0.00     0.029 A 
ENDBRANCH  14  17
ENDBRANCH   8  13
ENDBRANCH   6   7
ENDBRANCH   4   6
ENDBRANCH   3   4
ENDBRANCH   2   3
ENDBRANCH   1   2
BRANCH   1  25
ATOM     25  O   UNL A   1      34.347  30.196  26.985  1.00  0.00    -0.374 OA
BRANCH  25  26
ATOM     26  C   UNL A   1      33.642  31.256  27.624  1.00  0.00     0.202 C 
BRANCH  26  27
ATOM     27  C   UNL A   1      34.421  32.160  28.575  1.00  0.00     0.261 C 
BRANCH  27  28
ATOM     28  O   UNL A   1      35.817  32.125  28.297  1.00  0.00    -0.460 OA
BRANCH  28  29
ATOM     29  C   UNL A   1      36.558  31.629  29.314  1.00  0.00     0.338 C 
ATOM     30  O   UNL A   1      36.818  32.157  30.379  1.00  0.00    -0.246 OA
BRANCH  29  31
ATOM     31  C   UNL A   1      37.061  30.300  28.956  1.00  0.00     0.060 A 
ATOM     32  C   UNL A   1      37.054  29.313  29.953  1.00  0.00     0.016 A 
ATOM     33  C   UNL A   1      37.819  30.183  27.796  1.00  0.00     0.016 A 
ATOM     34  C   UNL A   1      38.029  28.335  29.921  1.00  0.00     0.010 A 
ATOM     35  C   UNL A   1      38.777  29.204  27.759  1.00  0.00     0.010 A 
ATOM     36  C   UNL A   1      38.950  28.385  28.879  1.00  0.00    -0.014 A 
BRANCH  36  37
ATOM     37  C   UNL A   1      40.294  27.864  29.008  1.00  0.00     0.031 A 
ATOM     38  C   UNL A   1      40.645  26.547  28.482  1.00  0.00     0.074 A 
ATOM     39  C   UNL A   1      41.231  28.730  29.452  1.00  0.00     0.049 A 
ATOM     40  N   UNL A   1      41.687  25.890  28.857  1.00  0.00    -0.248 NA
ATOM     41  C   UNL A   1      39.828  25.847  27.501  1.00  0.00     0.031 C 
ATOM     42  C   UNL A   1      42.676  28.639  29.302  1.00  0.00     0.029 A 
ATOM     43  N   UNL A   1      41.031  29.856  30.272  1.00  0.00    -0.354 N 
ATOM     44  C   UNL A   1      41.842  24.844  27.984  1.00  0.00     0.074 A 
ATOM     45  C   UNL A   1      40.617  24.806  27.214  1.00  0.00     0.031 C 
ATOM     46  C   UNL A   1      43.256  29.474  30.180  1.00  0.00     0.029 A 
ATOM     47  C   UNL A   1      42.202  29.985  31.042  1.00  0.00     0.049 A 
ATOM     48  H   UNL A   1      40.235  30.435  30.301  1.00  0.00     0.167 HD
ATOM     49  C   UNL A   1      43.057  24.231  27.907  1.00  0.00     0.037 A 
ATOM     50  C   UNL A   1      42.173  29.810  32.396  1.00  0.00     0.037 A 
ATOM     51  C   UNL A   1      44.011  24.833  28.836  1.00  0.00     0.049 A 
ATOM     52  C   UNL A   1      43.052  28.681  32.874  1.00  0.00     0.074 A 
ATOM     53  C   UNL A   1      44.991  25.798  28.665  1.00  0.00     0.029 A 
ATOM     54  N   UNL A   1      43.805  24.723  30.208  1.00  0.00    -0.354 N 
ATOM     55  N   UNL A   1      43.377  27.650  32.144  1.00  0.00    -0.248 NA
ATOM     56  C   UNL A   1      43.629  28.629  34.212  1.00  0.00     0.031 C 
ATOM     57  C   UNL A   1      45.373  26.274  29.942  1.00  0.00     0.029 A 
ATOM     58  C   UNL A   1      44.631  25.594  30.893  1.00  0.00     0.049 A 
ATOM     59  H   UNL A   1      43.162  24.110  30.632  1.00  0.00     0.167 HD
ATOM     60  C   UNL A   1      44.179  26.810  32.874  1.00  0.00     0.074 A 
ATOM     61  C   UNL A   1      44.318  27.476  34.156  1.00  0.00     0.031 C 
ATOM     62  C   UNL A   1      44.651  25.639  32.348  1.00  0.00     0.037 A 
BRANCH  49  63
ATOM     63  C   UNL A   1      43.449  23.323  26.768  1.00  0.00     0.064 A 
ATOM     64  C   UNL A   1      43.128  21.948  26.787  1.00  0.00     0.173 A 
ATOM     65  C   UNL A   1      44.186  23.743  25.647  1.00  0.00     0.173 A 
ATOM     66  F   UNL A   1      42.346  21.421  27.738  1.00  0.00    -0.203 F 
ATOM     67  C   UNL A   1      43.610  21.053  25.831  1.00  0.00     0.198 A 
ATOM     68  C   UNL A   1      44.714  22.841  24.718  1.00  0.00     0.198 A 
ATOM     69  F   UNL A   1      44.382  25.046  25.398  1.00  0.00    -0.203 F 
ATOM     70  F   UNL A   1      43.282  19.755  25.912  1.00  0.00    -0.200 F 
ATOM     71  C   UNL A   1      44.435  21.493  24.818  1.00  0.00     0.200 A 
ATOM     72  F   UNL A   1      45.499  23.287  23.728  1.00  0.00    -0.200 F 
ATOM     73  F   UNL A   1      44.940  20.625  23.930  1.00  0.00    -0.200 F 
ENDBRANCH  49  63
BRANCH  50  74
ATOM     74  C   UNL A   1      40.878  30.186  33.023  1.00  0.00     0.064 A 
ATOM     75  C   UNL A   1      40.596  31.548  33.237  1.00  0.00     0.173 A 
ATOM     76  C   UNL A   1      39.807  29.287  33.089  1.00  0.00     0.173 A 
ATOM     77  F   UNL A   1      41.587  32.453  33.178  1.00  0.00    -0.203 F 
ATOM     78  C   UNL A   1      39.290  31.998  33.433  1.00  0.00     0.198 A 
ATOM     79  C   UNL A   1      38.501  29.741  33.280  1.00  0.00     0.198 A 
ATOM     80  F   UNL A   1      40.006  27.978  32.876  1.00  0.00    -0.203 F 
ATOM     81  F   UNL A   1      39.051  33.310  33.573  1.00  0.00    -0.200 F 
ATOM     82  C   UNL A   1      38.240  31.094  33.433  1.00  0.00     0.200 A 
ATOM     83  F   UNL A   1      37.481  28.869  33.250  1.00  0.00    -0.200 F 
ATOM     84  F   UNL A   1      36.978  31.526  33.564  1.00  0.00    -0.200 F 
ENDBRANCH  50  74
BRANCH  62  85
ATOM     85  C   UNL A   1      45.274  24.477  33.098  1.00  0.00     0.064 A 
ATOM     86  C   UNL A   1      46.560  24.490  33.663  1.00  0.00     0.173 A 
ATOM     87  C   UNL A   1      44.503  23.324  33.404  1.00  0.00     0.173 A 
ATOM     88  F   UNL A   1      47.361  25.558  33.570  1.00  0.00    -0.203 F 
ATOM     89  C   UNL A   1      47.058  23.418  34.413  1.00  0.00     0.198 A 
ATOM     90  C   UNL A   1      44.977  22.287  34.209  1.00  0.00     0.198 A 
ATOM     91  F   UNL A   1      43.246  23.172  32.963  1.00  0.00    -0.203 F 
ATOM     92  F   UNL A   1      48.310  23.468  34.887  1.00  0.00    -0.200 F 
ATOM     93  C   UNL A   1      46.263  22.325  34.699  1.00  0.00     0.200 A 
ATOM     94  F   UNL A   1      44.167  21.266  34.522  1.00  0.00    -0.200 F 
ATOM     95  F   UNL A   1      46.724  21.327  35.464  1.00  0.00    -0.200 F 
ENDBRANCH  62  85
ENDBRANCH  36  37
ENDBRANCH  29  31
ENDBRANCH  28  29
ENDBRANCH  27  28
ENDBRANCH  26  27
ENDBRANCH  25  26
ENDBRANCH   1  25
TORSDOF 17
ENDMDL
MODEL 2
REMARK VINA RESULT:     -12.6      4.109     10.264
REMARK SMILES Cc1cc(NC(=O)N2CCO[C@@H](CC(=O)OCCOCCOC(=O)c3ccc(-c4c5nc(c(-c6c(F)c(F)c(F)c(F)c6F)c6ccc([nH]6)c(-c6c(F)c(F)c(F)c(F)c6F)c6nc(c(-c7c(F)c(F)c(F)c(F)c7F)c7ccc4[nH]7)C=C6)C=C5)cc3)C2)ccc1F
REMARK SMILES IDX 18 1 17 2 16 3 14 4 15 5 13 6 12 7 8 8 9 9 88 10 10 11 11 12
REMARK SMILES IDX 6 13 5 14 7 16 4 17 1 18 2 19 3 20 91 21 90 22 92 23 89 24
REMARK SMILES IDX 19 25 20 26 21 27 22 28 23 29 24 30 25 31 26 32 87 33 27 34
REMARK SMILES IDX 86 35 28 36 29 37 30 38 80 39 31 40 85 41 79 42 81 43 32 44
REMARK SMILES IDX 84 45 78 46 77 47 33 49 65 50 45 51 64 52 46 53 49 54 63 55
REMARK SMILES IDX 82 56 47 57 48 58 62 60 83 61 50 62 34 63 35 64 43 65 36 66
REMARK SMILES IDX 37 67 41 68 44 69 38 70 39 71 42 72 40 73 66 74 67 75 75 76
REMARK SMILES IDX 68 77 69 78 73 79 76 80 70 81 71 82 74 83 72 84 51 85 52 86
REMARK SMILES IDX 60 87 53 88 54 89 58 90 61 91 55 92 56 93 59 94 57 95
REMARK H PARENT 5 15 81 48 49 59
REMARK Flexibility Score: inf
ROOT
ATOM      1  C   UNL A   1      38.573  20.681  25.277  1.00  0.00     0.202 C 
ENDROOT
BRANCH   1   2
ATOM      2  C   UNL A   1      37.132  21.122  25.012  1.00  0.00     0.261 C 
BRANCH   2   3
ATOM      3  O   UNL A   1      36.597  22.051  25.978  1.00  0.00    -0.463 OA
BRANCH   3   4
ATOM      4  C   UNL A   1      36.657  23.349  25.587  1.00  0.00     0.308 C 
ATOM      5  O   UNL A   1      37.636  24.074  25.734  1.00  0.00    -0.252 OA
BRANCH   4   6
ATOM      6  C   UNL A   1      35.379  23.893  25.017  1.00  0.00     0.156 C 
BRANCH   6   7
ATOM      7  C   UNL A   1      34.042  23.214  25.296  1.00  0.00     0.149 C 
ATOM      8  N   UNL A   1      31.614  23.580  25.741  1.00  0.00    -0.320 N 
ATOM      9  C   UNL A   1      31.308  23.055  24.408  1.00  0.00     0.150 C 
ATOM     10  C   UNL A   1      32.956  24.174  25.837  1.00  0.00     0.154 C 
ATOM     11  C   UNL A   1      32.381  22.069  23.971  1.00  0.00     0.182 C 
ATOM     12  O   UNL A   1      33.666  22.692  23.992  1.00  0.00    -0.374 OA
BRANCH   8  13
ATOM     13  C   UNL A   1      30.618  24.002  26.586  1.00  0.00     0.322 C 
ATOM     14  N   UNL A   1      30.231  25.312  26.584  1.00  0.00    -0.308 N 
ATOM     15  H   UNL A   1      29.810  25.607  27.424  1.00  0.00     0.171 HD
ATOM     16  O   UNL A   1      30.066  23.233  27.375  1.00  0.00    -0.248 OA
BRANCH  14  17
ATOM     17  C   UNL A   1      30.322  26.322  25.606  1.00  0.00     0.043 A 
ATOM     18  C   UNL A   1      32.294  29.563  25.156  1.00  0.00     0.047 C 
ATOM     19  C   UNL A   1      31.370  28.411  24.901  1.00  0.00    -0.013 A 
ATOM     20  C   UNL A   1      31.156  27.419  25.871  1.00  0.00     0.032 A 
ATOM     21  C   UNL A   1      30.750  28.277  23.658  1.00  0.00     0.126 A 
ATOM     22  C   UNL A   1      29.862  27.240  23.409  1.00  0.00     0.041 A 
ATOM     23  F   UNL A   1      30.999  29.165  22.685  1.00  0.00    -0.207 F 
ATOM     24  C   UNL A   1      29.620  26.286  24.399  1.00  0.00     0.029 A 
ENDBRANCH  14  17
ENDBRANCH   8  13
ENDBRANCH   6   7
ENDBRANCH   4   6
ENDBRANCH   3   4
ENDBRANCH   2   3
ENDBRANCH   1   2
BRANCH   1  25
ATOM     25  O   UNL A   1      39.294  21.281  26.349  1.00  0.00    -0.374 OA
BRANCH  25  26
ATOM     26  C   UNL A   1      40.583  20.798  26.710  1.00  0.00     0.202 C 
BRANCH  26  27
ATOM     27  C   UNL A   1      41.457  21.686  27.592  1.00  0.00     0.261 C 
BRANCH  27  28
ATOM     28  O   UNL A   1      40.825  22.934  27.859  1.00  0.00    -0.460 OA
BRANCH  28  29
ATOM     29  C   UNL A   1      41.311  23.954  27.115  1.00  0.00     0.338 C 
ATOM     30  O   UNL A   1      42.322  23.973  26.439  1.00  0.00    -0.246 OA
BRANCH  29  31
ATOM     31  C   UNL A   1      40.430  25.118  27.240  1.00  0.00     0.060 A 
ATOM     32  C   UNL A   1      40.649  26.193  26.367  1.00  0.00     0.016 A 
ATOM     33  C   UNL A   1      39.680  25.243  28.404  1.00  0.00     0.016 A 
ATOM     34  C   UNL A   1      40.353  27.470  26.804  1.00  0.00     0.010 A 
ATOM     35  C   UNL A   1      39.374  26.509  28.830  1.00  0.00     0.010 A 
ATOM     36  C   UNL A   1      39.834  27.602  28.088  1.00  0.00    -0.014 A 
BRANCH  36  37
ATOM     37  C   UNL A   1      40.025  28.796  28.882  1.00  0.00     0.031 A 
ATOM     38  C   UNL A   1      38.964  29.791  29.013  1.00  0.00     0.074 A 
ATOM     39  C   UNL A   1      41.143  28.838  29.640  1.00  0.00     0.049 A 
ATOM     40  N   UNL A   1      39.173  31.003  29.395  1.00  0.00    -0.248 NA
ATOM     41  C   UNL A   1      37.572  29.505  28.696  1.00  0.00     0.031 C 
ATOM     42  C   UNL A   1      41.402  29.671  30.805  1.00  0.00     0.029 A 
ATOM     43  N   UNL A   1      42.360  28.174  29.401  1.00  0.00    -0.354 N 
ATOM     44  C   UNL A   1      37.948  31.562  29.654  1.00  0.00     0.074 A 
ATOM     45  C   UNL A   1      36.981  30.626  29.123  1.00  0.00     0.031 C 
ATOM     46  C   UNL A   1      42.725  29.686  31.040  1.00  0.00     0.029 A 
ATOM     47  C   UNL A   1      43.364  29.013  29.922  1.00  0.00     0.049 A 
ATOM     48  H   UNL A   1      42.484  27.302  28.962  1.00  0.00     0.167 HD
ATOM     49  C   UNL A   1      37.891  32.680  30.432  1.00  0.00     0.037 A 
ATOM     50  C   UNL A   1      44.280  29.603  29.098  1.00  0.00     0.037 A 
ATOM     51  C   UNL A   1      39.227  33.099  30.851  1.00  0.00     0.049 A 
ATOM     52  C   UNL A   1      44.243  31.110  29.145  1.00  0.00     0.074 A 
ATOM     53  C   UNL A   1      39.949  32.875  32.013  1.00  0.00     0.029 A 
ATOM     54  N   UNL A   1      40.142  33.548  29.903  1.00  0.00    -0.354 N 
ATOM     55  N   UNL A   1      43.187  31.806  29.461  1.00  0.00    -0.248 NA
ATOM     56  C   UNL A   1      45.397  31.947  28.836  1.00  0.00     0.031 C 
ATOM     57  C   UNL A   1      41.306  33.186  31.760  1.00  0.00     0.029 A 
ATOM     58  C   UNL A   1      41.411  33.608  30.445  1.00  0.00     0.049 A 
ATOM     59  H   UNL A   1      39.916  33.789  28.976  1.00  0.00     0.167 HD
ATOM     60  C   UNL A   1      43.487  33.143  29.403  1.00  0.00     0.074 A 
ATOM     61  C   UNL A   1      44.886  33.177  29.022  1.00  0.00     0.031 C 
ATOM     62  C   UNL A   1      42.546  34.098  29.675  1.00  0.00     0.037 A 
BRANCH  49  63
ATOM     63  C   UNL A   1      36.615  33.178  31.064  1.00  0.00     0.064 A 
ATOM     64  C   UNL A   1      35.699  33.968  30.336  1.00  0.00     0.173 A 
ATOM     65  C   UNL A   1      36.262  32.946  32.406  1.00  0.00     0.173 A 
ATOM     66  F   UNL A   1      35.849  34.189  29.024  1.00  0.00    -0.203 F 
ATOM     67  C   UNL A   1      34.593  34.574  30.932  1.00  0.00     0.198 A 
ATOM     68  C   UNL A   1      35.185  33.595  33.017  1.00  0.00     0.198 A 
ATOM     69  F   UNL A   1      36.928  32.053  33.151  1.00  0.00    -0.203 F 
ATOM     70  F   UNL A   1      33.767  35.326  30.190  1.00  0.00    -0.200 F 
ATOM     71  C   UNL A   1      34.357  34.420  32.282  1.00  0.00     0.200 A 
ATOM     72  F   UNL A   1      34.957  33.420  34.327  1.00  0.00    -0.200 F 
ATOM     73  F   UNL A   1      33.324  35.044  32.865  1.00  0.00    -0.200 F 
ENDBRANCH  49  63
BRANCH  50  74
ATOM     74  C   UNL A   1      44.591  28.810  27.879  1.00  0.00     0.064 A 
ATOM     75  C   UNL A   1      45.499  27.740  27.978  1.00  0.00     0.173 A 
ATOM     76  C   UNL A   1      43.775  28.862  26.742  1.00  0.00     0.173 A 
ATOM     77  F   UNL A   1      46.300  27.639  29.051  1.00  0.00    -0.203 F 
ATOM     78  C   UNL A   1      45.536  26.727  27.019  1.00  0.00     0.198 A 
ATOM     79  C   UNL A   1      43.811  27.845  25.787  1.00  0.00     0.198 A 
ATOM     80  F   UNL A   1      42.876  29.847  26.597  1.00  0.00    -0.203 F 
ATOM     81  F   UNL A   1      46.372  25.690  27.176  1.00  0.00    -0.200 F 
ATOM     82  C   UNL A   1      44.676  26.770  25.934  1.00  0.00     0.200 A 
ATOM     83  F   UNL A   1      42.958  27.872  24.752  1.00  0.00    -0.200 F 
ATOM     84  F   UNL A   1      44.667  25.772  25.039  1.00  0.00    -0.200 F 
ENDBRANCH  50  74
BRANCH  62  85
ATOM     85  C   UNL A   1      42.621  35.581  29.364  1.00  0.00     0.064 A 
ATOM     86  C   UNL A   1      43.388  36.509  30.088  1.00  0.00     0.173 A 
ATOM     87  C   UNL A   1      42.011  36.101  28.192  1.00  0.00     0.173 A 
ATOM     88  F   UNL A   1      44.124  36.146  31.144  1.00  0.00    -0.203 F 
ATOM     89  C   UNL A   1      43.484  37.854  29.711  1.00  0.00     0.198 A 
ATOM     90  C   UNL A   1      42.164  37.425  27.782  1.00  0.00     0.198 A 
ATOM     91  F   UNL A   1      41.268  35.336  27.379  1.00  0.00    -0.203 F 
ATOM     92  F   UNL A   1      44.193  38.703  30.467  1.00  0.00    -0.200 F 
ATOM     93  C   UNL A   1      42.886  38.308  28.552  1.00  0.00     0.200 A 
ATOM     94  F   UNL A   1      41.624  37.829  26.622  1.00  0.00    -0.200 F 
ATOM     95  F   UNL A   1      43.027  39.583  28.166  1.00  0.00    -0.200 F 
ENDBRANCH  62  85
ENDBRANCH  36  37
ENDBRANCH  29  31
ENDBRANCH  28  29
ENDBRANCH  27  28
ENDBRANCH  26  27
ENDBRANCH  25  26
ENDBRANCH   1  25
TORSDOF 17
ENDMDL
MODEL 3
REMARK VINA RESULT:     -12.5      4.076     10.002
REMARK SMILES Cc1cc(NC(=O)N2CCO[C@@H](CC(=O)OCCOCCOC(=O)c3ccc(-c4c5nc(c(-c6c(F)c(F)c(F)c(F)c6F)c6ccc([nH]6)c(-c6c(F)c(F)c(F)c(F)c6F)c6nc(c(-c7c(F)c(F)c(F)c(F)c7F)c7ccc4[nH]7)C=C6)C=C5)cc3)C2)ccc1F
REMARK SMILES IDX 18 1 17 2 16 3 14 4 15 5 13 6 12 7 8 8 9 9 88 10 10 11 11 12
REMARK SMILES IDX 6 13 5 14 7 16 4 17 1 18 2 19 3 20 91 21 90 22 92 23 89 24
REMARK SMILES IDX 19 25 20 26 21 27 22 28 23 29 24 30 25 31 26 32 87 33 27 34
REMARK SMILES IDX 86 35 28 36 29 37 30 38 80 39 31 40 85 41 79 42 81 43 32 44
REMARK SMILES IDX 84 45 78 46 77 47 33 49 65 50 45 51 64 52 46 53 49 54 63 55
REMARK SMILES IDX 82 56 47 57 48 58 62 60 83 61 50 62 34 63 35 64 43 65 36 66
REMARK SMILES IDX 37 67 41 68 44 69 38 70 39 71 42 72 40 73 66 74 67 75 75 76
REMARK SMILES IDX 68 77 69 78 73 79 76 80 70 81 71 82 74 83 72 84 51 85 52 86
REMARK SMILES IDX 60 87 53 88 54 89 58 90 61 91 55 92 56 93 59 94 57 95
REMARK H PARENT 5 15 81 48 49 59
REMARK Flexibility Score: inf
ROOT
ATOM      1  C   UNL A   1      39.307  19.778  25.516  1.00  0.00     0.202 C 
ENDROOT
BRANCH   1   2
ATOM      2  C   UNL A   1      38.459  21.021  25.792  1.00  0.00     0.261 C 
BRANCH   2   3
ATOM      3  O   UNL A   1      37.854  21.612  24.622  1.00  0.00    -0.463 OA
BRANCH   3   4
ATOM      4  C   UNL A   1      37.439  22.891  24.802  1.00  0.00     0.308 C 
ATOM      5  O   UNL A   1      37.699  23.572  25.789  1.00  0.00    -0.252 OA
BRANCH   4   6
ATOM      6  C   UNL A   1      36.540  23.418  23.722  1.00  0.00     0.156 C 
BRANCH   6   7
ATOM      7  C   UNL A   1      35.145  22.838  23.508  1.00  0.00     0.149 C 
ATOM      8  N   UNL A   1      32.919  22.421  24.554  1.00  0.00    -0.320 N 
ATOM      9  C   UNL A   1      32.339  23.456  23.695  1.00  0.00     0.150 C 
ATOM     10  C   UNL A   1      34.352  22.620  24.818  1.00  0.00     0.154 C 
ATOM     11  C   UNL A   1      33.129  23.567  22.399  1.00  0.00     0.182 C 
ATOM     12  O   UNL A   1      34.502  23.844  22.677  1.00  0.00    -0.374 OA
BRANCH   8  13
ATOM     13  C   UNL A   1      32.147  21.731  25.456  1.00  0.00     0.322 C 
ATOM     14  N   UNL A   1      31.842  20.419  25.230  1.00  0.00    -0.308 N 
ATOM     15  H   UNL A   1      31.025  20.113  25.688  1.00  0.00     0.171 HD
ATOM     16  O   UNL A   1      31.695  22.268  26.468  1.00  0.00    -0.248 OA
BRANCH  14  17
ATOM     17  C   UNL A   1      32.476  19.420  24.464  1.00  0.00     0.043 A 
ATOM     18  C   UNL A   1      35.122  16.734  25.077  1.00  0.00     0.047 C 
ATOM     19  C   UNL A   1      34.082  17.583  24.411  1.00  0.00    -0.013 A 
ATOM     20  C   UNL A   1      33.478  18.658  25.083  1.00  0.00     0.032 A 
ATOM     21  C   UNL A   1      33.652  17.274  23.120  1.00  0.00     0.126 A 
ATOM     22  C   UNL A   1      32.718  18.066  22.468  1.00  0.00     0.041 A 
ATOM     23  F   UNL A   1      34.152  16.205  22.485  1.00  0.00    -0.207 F 
ATOM     24  C   UNL A   1      32.161  19.162  23.129  1.00  0.00     0.029 A 
ENDBRANCH  14  17
ENDBRANCH   8  13
ENDBRANCH   6   7
ENDBRANCH   4   6
ENDBRANCH   3   4
ENDBRANCH   2   3
ENDBRANCH   1   2
BRANCH   1  25
ATOM     25  O   UNL A   1      40.535  19.611  26.216  1.00  0.00    -0.374 OA
BRANCH  25  26
ATOM     26  C   UNL A   1      41.093  20.688  26.961  1.00  0.00     0.202 C 
BRANCH  26  27
ATOM     27  C   UNL A   1      41.809  21.794  26.191  1.00  0.00     0.261 C 
BRANCH  27  28
ATOM     28  O   UNL A   1      41.044  22.995  26.179  1.00  0.00    -0.460 OA
BRANCH  28  29
ATOM     29  C   UNL A   1      41.655  24.031  26.799  1.00  0.00     0.338 C 
ATOM     30  O   UNL A   1      42.809  24.102  27.177  1.00  0.00    -0.246 OA
BRANCH  29  31
ATOM     31  C   UNL A   1      40.698  25.122  26.994  1.00  0.00     0.060 A 
ATOM     32  C   UNL A   1      40.780  26.220  26.126  1.00  0.00     0.016 A 
ATOM     33  C   UNL A   1      40.012  25.177  28.203  1.00  0.00     0.016 A 
ATOM     34  C   UNL A   1      40.416  27.466  26.599  1.00  0.00     0.010 A 
ATOM     35  C   UNL A   1      39.638  26.412  28.666  1.00  0.00     0.010 A 
ATOM     36  C   UNL A   1      39.968  27.544  27.913  1.00  0.00    -0.014 A 
BRANCH  36  37
ATOM     37  C   UNL A   1      40.116  28.742  28.712  1.00  0.00     0.031 A 
ATOM     38  C   UNL A   1      39.032  29.716  28.817  1.00  0.00     0.074 A 
ATOM     39  C   UNL A   1      41.213  28.804  29.498  1.00  0.00     0.049 A 
ATOM     40  N   UNL A   1      39.208  30.931  29.205  1.00  0.00    -0.248 NA
ATOM     41  C   UNL A   1      37.655  29.403  28.465  1.00  0.00     0.031 C 
ATOM     42  C   UNL A   1      41.427  29.642  30.670  1.00  0.00     0.029 A 
ATOM     43  N   UNL A   1      42.449  28.164  29.290  1.00  0.00    -0.354 N 
ATOM     44  C   UNL A   1      37.967  31.467  29.433  1.00  0.00     0.074 A 
ATOM     45  C   UNL A   1      37.032  30.513  28.878  1.00  0.00     0.031 C 
ATOM     46  C   UNL A   1      42.743  29.682  30.938  1.00  0.00     0.029 A 
ATOM     47  C   UNL A   1      43.423  29.022  29.836  1.00  0.00     0.049 A 
ATOM     48  H   UNL A   1      42.601  27.295  28.854  1.00  0.00     0.167 HD
ATOM     49  C   UNL A   1      37.870  32.583  30.210  1.00  0.00     0.037 A 
ATOM     50  C   UNL A   1      44.347  29.630  29.035  1.00  0.00     0.037 A 
ATOM     51  C   UNL A   1      39.186  33.027  30.662  1.00  0.00     0.049 A 
ATOM     52  C   UNL A   1      44.281  31.137  29.081  1.00  0.00     0.074 A 
ATOM     53  C   UNL A   1      39.883  32.816  31.842  1.00  0.00     0.029 A 
ATOM     54  N   UNL A   1      40.116  33.494  29.738  1.00  0.00    -0.354 N 
ATOM     55  N   UNL A   1      43.203  31.811  29.371  1.00  0.00    -0.248 NA
ATOM     56  C   UNL A   1      45.426  31.995  28.802  1.00  0.00     0.031 C 
ATOM     57  C   UNL A   1      41.240  33.153  31.623  1.00  0.00     0.029 A 
ATOM     58  C   UNL A   1      41.370  33.578  30.311  1.00  0.00     0.049 A 
ATOM     59  H   UNL A   1      39.909  33.732  28.805  1.00  0.00     0.167 HD
ATOM     60  C   UNL A   1      43.479  33.154  29.322  1.00  0.00     0.074 A 
ATOM     61  C   UNL A   1      44.887  33.215  28.975  1.00  0.00     0.031 C 
ATOM     62  C   UNL A   1      42.513  34.090  29.570  1.00  0.00     0.037 A 
BRANCH  49  63
ATOM     63  C   UNL A   1      36.569  33.056  30.810  1.00  0.00     0.064 A 
ATOM     64  C   UNL A   1      35.701  33.909  30.094  1.00  0.00     0.173 A 
ATOM     65  C   UNL A   1      36.144  32.737  32.112  1.00  0.00     0.173 A 
ATOM     66  F   UNL A   1      35.922  34.218  28.810  1.00  0.00    -0.203 F 
ATOM     67  C   UNL A   1      34.573  34.489  30.674  1.00  0.00     0.198 A 
ATOM     68  C   UNL A   1      35.044  33.358  32.713  1.00  0.00     0.198 A 
ATOM     69  F   UNL A   1      36.759  31.784  32.826  1.00  0.00    -0.203 F 
ATOM     70  F   UNL A   1      33.796  35.304  29.946  1.00  0.00    -0.200 F 
ATOM     71  C   UNL A   1      34.266  34.245  31.996  1.00  0.00     0.200 A 
ATOM     72  F   UNL A   1      34.748  33.096  33.993  1.00  0.00    -0.200 F 
ATOM     73  F   UNL A   1      33.212  34.843  32.569  1.00  0.00    -0.200 F 
ENDBRANCH  49  63
BRANCH  50  74
ATOM     74  C   UNL A   1      44.704  28.845  27.824  1.00  0.00     0.064 A 
ATOM     75  C   UNL A   1      45.654  27.813  27.939  1.00  0.00     0.173 A 
ATOM     76  C   UNL A   1      43.900  28.857  26.679  1.00  0.00     0.173 A 
ATOM     77  F   UNL A   1      46.446  27.750  29.022  1.00  0.00    -0.203 F 
ATOM     78  C   UNL A   1      45.743  26.797  26.986  1.00  0.00     0.198 A 
ATOM     79  C   UNL A   1      43.988  27.837  25.730  1.00  0.00     0.198 A 
ATOM     80  F   UNL A   1      42.963  29.803  26.518  1.00  0.00    -0.203 F 
ATOM     81  F   UNL A   1      46.619  25.796  27.158  1.00  0.00    -0.200 F 
ATOM     82  C   UNL A   1      44.894  26.800  25.892  1.00  0.00     0.200 A 
ATOM     83  F   UNL A   1      43.146  27.824  24.685  1.00  0.00    -0.200 F 
ATOM     84  F   UNL A   1      44.935  25.797  25.003  1.00  0.00    -0.200 F 
ENDBRANCH  50  74
BRANCH  62  85
ATOM     85  C   UNL A   1      42.568  35.575  29.262  1.00  0.00     0.064 A 
ATOM     86  C   UNL A   1      43.326  36.512  29.984  1.00  0.00     0.173 A 
ATOM     87  C   UNL A   1      41.945  36.089  28.093  1.00  0.00     0.173 A 
ATOM     88  F   UNL A   1      44.072  36.156  31.035  1.00  0.00    -0.203 F 
ATOM     89  C   UNL A   1      43.403  37.859  29.609  1.00  0.00     0.198 A 
ATOM     90  C   UNL A   1      42.079  37.416  27.685  1.00  0.00     0.198 A 
ATOM     91  F   UNL A   1      41.209  35.316  27.282  1.00  0.00    -0.203 F 
ATOM     92  F   UNL A   1      44.104  38.715  30.363  1.00  0.00    -0.200 F 
ATOM     93  C   UNL A   1      42.793  38.307  28.453  1.00  0.00     0.200 A 
ATOM     94  F   UNL A   1      41.529  37.814  26.529  1.00  0.00    -0.200 F 
ATOM     95  F   UNL A   1      42.916  39.584  28.069  1.00  0.00    -0.200 F 
ENDBRANCH  62  85
ENDBRANCH  36  37
ENDBRANCH  29  31
ENDBRANCH  28  29
ENDBRANCH  27  28
ENDBRANCH  26  27
ENDBRANCH  25  26
ENDBRANCH   1  25
TORSDOF 17
ENDMDL
