MODEL 1
REMARK VINA RESULT:     -11.7      0.000      0.000
REMARK SMILES Cc1cc(Oc2ccnc(C(=O)OCCOCCOC(=O)c3ccc(-c4c5nc(c(-c6c(F)c(F)c(F)c(F)c6F)c6ccc([nH]6)c(-c6c(F)c(F)c(F)c(F)c6F)c6nc(c(-c7c(F)c(F)c(F)c(F)c7F)c7ccc4[nH]7)C=C6)C=C5)cc3)c2)cc(C)c1Cl
REMARK SMILES IDX 16 1 15 2 14 3 13 4 11 5 12 6 10 7 6 8 7 9 85 10 8 11 9 12
REMARK SMILES IDX 5 13 4 14 1 15 2 16 3 17 89 18 87 19 90 20 86 21 88 22 17 23
REMARK SMILES IDX 18 24 19 25 20 26 21 27 22 28 23 29 84 30 24 31 83 32 25 33
REMARK SMILES IDX 26 34 27 35 77 36 28 37 82 38 76 39 78 40 29 41 81 42 75 43
REMARK SMILES IDX 74 44 30 46 62 47 42 48 61 49 43 50 46 51 60 52 79 53 44 54
REMARK SMILES IDX 45 55 59 57 80 58 47 59 31 60 32 61 40 62 33 63 34 64 38 65
REMARK SMILES IDX 41 66 35 67 36 68 39 69 37 70 63 71 64 72 72 73 65 74 66 75
REMARK SMILES IDX 70 76 73 77 67 78 68 79 71 80 69 81 48 82 49 83 57 84 50 85
REMARK SMILES IDX 51 86 55 87 58 88 52 89 53 90 56 91 54 92
REMARK H PARENT 78 45 46 56
REMARK Flexibility Score: inf
ROOT
ATOM      1  O   UNL A   1      32.477  29.726  24.994  1.00  0.00    -0.374 OA
ENDROOT
BRANCH   1   2
ATOM      2  C   UNL A   1      32.182  28.483  24.361  1.00  0.00     0.202 C 
BRANCH   2   3
ATOM      3  C   UNL A   1      30.741  27.988  24.511  1.00  0.00     0.261 C 
BRANCH   3   4
ATOM      4  O   UNL A   1      30.714  26.601  24.897  1.00  0.00    -0.459 OA
BRANCH   4   5
ATOM      5  C   UNL A   1      31.170  26.339  26.152  1.00  0.00     0.357 C 
ATOM      6  O   UNL A   1      30.984  27.033  27.140  1.00  0.00    -0.244 OA
BRANCH   5   7
ATOM      7  C   UNL A   1      31.850  25.007  26.180  1.00  0.00     0.152 A 
ATOM      8  C   UNL A   1      33.419  23.404  25.369  1.00  0.00     0.131 A 
ATOM      9  C   UNL A   1      33.052  22.555  26.410  1.00  0.00     0.067 A 
ATOM     10  C   UNL A   1      32.828  24.661  25.257  1.00  0.00     0.083 A 
ATOM     11  C   UNL A   1      32.045  22.970  27.260  1.00  0.00     0.116 A 
ATOM     12  N   UNL A   1      31.436  24.169  27.167  1.00  0.00    -0.249 NA
BRANCH   8  13
ATOM     13  O   UNL A   1      34.430  23.135  24.475  1.00  0.00    -0.457 OA
BRANCH  13  14
ATOM     14  C   UNL A   1      35.712  22.873  24.903  1.00  0.00     0.128 A 
ATOM     15  C   UNL A   1      38.664  24.367  26.773  1.00  0.00     0.046 C 
ATOM     16  C   UNL A   1      37.806  23.369  26.042  1.00  0.00    -0.028 A 
ATOM     17  C   UNL A   1      36.518  23.753  25.626  1.00  0.00     0.052 A 
ATOM     18  C   UNL A   1      38.248  22.056  25.784  1.00  0.00     0.047 A 
ATOM     19  C   UNL A   1      37.426  21.146  25.094  1.00  0.00    -0.028 A 
ATOM     20  Cl  UNL A   1      39.813  21.550  26.338  1.00  0.00    -0.084 Cl
ATOM     21  C   UNL A   1      36.164  21.575  24.652  1.00  0.00     0.052 A 
ATOM     22  C   UNL A   1      37.847  19.724  24.839  1.00  0.00     0.046 C 
ENDBRANCH  13  14
ENDBRANCH   8  13
ENDBRANCH   5   7
ENDBRANCH   4   5
ENDBRANCH   3   4
ENDBRANCH   2   3
ENDBRANCH   1   2
BRANCH   1  23
ATOM     23  C   UNL A   1      31.367  30.499  25.455  1.00  0.00     0.202 C 
BRANCH  23  24
ATOM     24  C   UNL A   1      31.673  31.482  26.591  1.00  0.00     0.261 C 
BRANCH  24  25
ATOM     25  O   UNL A   1      32.866  31.113  27.310  1.00  0.00    -0.460 OA
BRANCH  25  26
ATOM     26  C   UNL A   1      33.697  32.139  27.603  1.00  0.00     0.338 C 
ATOM     27  O   UNL A   1      33.419  33.329  27.662  1.00  0.00    -0.246 OA
BRANCH  26  28
ATOM     28  C   UNL A   1      35.013  31.620  28.023  1.00  0.00     0.060 A 
ATOM     29  C   UNL A   1      35.122  30.242  28.254  1.00  0.00     0.016 A 
ATOM     30  C   UNL A   1      36.098  32.467  28.256  1.00  0.00     0.016 A 
ATOM     31  C   UNL A   1      36.306  29.711  28.763  1.00  0.00     0.010 A 
ATOM     32  C   UNL A   1      37.282  31.933  28.778  1.00  0.00     0.010 A 
ATOM     33  C   UNL A   1      37.381  30.559  29.064  1.00  0.00    -0.014 A 
BRANCH  33  34
ATOM     34  C   UNL A   1      38.549  30.034  29.811  1.00  0.00     0.031 A 
ATOM     35  C   UNL A   1      38.805  30.533  31.208  1.00  0.00     0.074 A 
ATOM     36  C   UNL A   1      39.359  29.109  29.267  1.00  0.00     0.049 A 
ATOM     37  N   UNL A   1      39.797  30.265  32.018  1.00  0.00    -0.248 NA
ATOM     38  C   UNL A   1      37.804  31.457  31.765  1.00  0.00     0.031 C 
ATOM     39  C   UNL A   1      39.187  28.508  27.945  1.00  0.00     0.029 A 
ATOM     40  N   UNL A   1      40.497  28.519  29.760  1.00  0.00    -0.354 N 
ATOM     41  C   UNL A   1      39.541  30.984  33.178  1.00  0.00     0.074 A 
ATOM     42  C   UNL A   1      38.317  31.726  32.957  1.00  0.00     0.031 C 
ATOM     43  C   UNL A   1      40.191  27.641  27.727  1.00  0.00     0.029 A 
ATOM     44  C   UNL A   1      41.094  27.654  28.877  1.00  0.00     0.049 A 
ATOM     45  H   UNL A   1      40.851  28.699  30.660  1.00  0.00     0.167 HD
ATOM     46  C   UNL A   1      40.255  31.016  34.328  1.00  0.00     0.037 A 
ATOM     47  C   UNL A   1      42.252  26.971  28.979  1.00  0.00     0.037 A 
ATOM     48  C   UNL A   1      41.475  30.283  34.546  1.00  0.00     0.049 A 
ATOM     49  C   UNL A   1      43.076  27.096  30.235  1.00  0.00     0.074 A 
ATOM     50  C   UNL A   1      42.280  30.263  35.671  1.00  0.00     0.029 A 
ATOM     51  N   UNL A   1      42.064  29.441  33.616  1.00  0.00    -0.354 N 
ATOM     52  N   UNL A   1      42.826  27.777  31.327  1.00  0.00    -0.248 NA
ATOM     53  C   UNL A   1      44.346  26.356  30.272  1.00  0.00     0.031 C 
ATOM     54  C   UNL A   1      43.378  29.438  35.408  1.00  0.00     0.029 A 
ATOM     55  C   UNL A   1      43.230  28.905  34.138  1.00  0.00     0.049 A 
ATOM     56  H   UNL A   1      41.705  29.250  32.719  1.00  0.00     0.167 HD
ATOM     57  C   UNL A   1      43.881  27.515  32.191  1.00  0.00     0.074 A 
ATOM     58  C   UNL A   1      44.773  26.610  31.500  1.00  0.00     0.031 C 
ATOM     59  C   UNL A   1      44.091  27.981  33.447  1.00  0.00     0.037 A 
BRANCH  46  60
ATOM     60  C   UNL A   1      39.745  31.885  35.439  1.00  0.00     0.064 A 
ATOM     61  C   UNL A   1      40.166  33.215  35.581  1.00  0.00     0.173 A 
ATOM     62  C   UNL A   1      38.785  31.400  36.339  1.00  0.00     0.173 A 
ATOM     63  F   UNL A   1      41.093  33.721  34.754  1.00  0.00    -0.203 F 
ATOM     64  C   UNL A   1      39.658  34.022  36.596  1.00  0.00     0.198 A 
ATOM     65  C   UNL A   1      38.259  32.217  37.336  1.00  0.00     0.198 A 
ATOM     66  F   UNL A   1      38.346  30.135  36.243  1.00  0.00    -0.203 F 
ATOM     67  F   UNL A   1      40.102  35.279  36.735  1.00  0.00    -0.200 F 
ATOM     68  C   UNL A   1      38.700  33.525  37.466  1.00  0.00     0.200 A 
ATOM     69  F   UNL A   1      37.324  31.739  38.169  1.00  0.00    -0.200 F 
ATOM     70  F   UNL A   1      38.202  34.307  38.434  1.00  0.00    -0.200 F 
ENDBRANCH  46  60
BRANCH  47  71
ATOM     71  C   UNL A   1      42.718  26.115  27.856  1.00  0.00     0.064 A 
ATOM     72  C   UNL A   1      42.389  24.753  27.802  1.00  0.00     0.173 A 
ATOM     73  C   UNL A   1      43.538  26.629  26.841  1.00  0.00     0.173 A 
ATOM     74  F   UNL A   1      41.631  24.209  28.764  1.00  0.00    -0.203 F 
ATOM     75  C   UNL A   1      42.884  23.933  26.789  1.00  0.00     0.198 A 
ATOM     76  C   UNL A   1      44.008  25.815  25.813  1.00  0.00     0.198 A 
ATOM     77  F   UNL A   1      43.885  27.924  26.849  1.00  0.00    -0.203 F 
ATOM     78  F   UNL A   1      42.601  22.623  26.793  1.00  0.00    -0.200 F 
ATOM     79  C   UNL A   1      43.690  24.465  25.794  1.00  0.00     0.200 A 
ATOM     80  F   UNL A   1      44.779  26.335  24.849  1.00  0.00    -0.200 F 
ATOM     81  F   UNL A   1      44.170  23.676  24.824  1.00  0.00    -0.200 F 
ENDBRANCH  47  71
BRANCH  59  82
ATOM     82  C   UNL A   1      45.298  27.474  34.182  1.00  0.00     0.064 A 
ATOM     83  C   UNL A   1      46.530  28.139  34.128  1.00  0.00     0.173 A 
ATOM     84  C   UNL A   1      45.200  26.333  34.994  1.00  0.00     0.173 A 
ATOM     85  F   UNL A   1      46.677  29.226  33.355  1.00  0.00    -0.203 F 
ATOM     86  C   UNL A   1      47.628  27.669  34.843  1.00  0.00     0.198 A 
ATOM     87  C   UNL A   1      46.293  25.882  35.729  1.00  0.00     0.198 A 
ATOM     88  F   UNL A   1      44.040  25.665  35.086  1.00  0.00    -0.203 F 
ATOM     89  F   UNL A   1      48.809  28.295  34.744  1.00  0.00    -0.200 F 
ATOM     90  C   UNL A   1      47.507  26.546  35.648  1.00  0.00     0.200 A 
ATOM     91  F   UNL A   1      46.169  24.804  36.517  1.00  0.00    -0.200 F 
ATOM     92  F   UNL A   1      48.563  26.100  36.343  1.00  0.00    -0.200 F 
ENDBRANCH  59  82
ENDBRANCH  33  34
ENDBRANCH  26  28
ENDBRANCH  25  26
ENDBRANCH  24  25
ENDBRANCH  23  24
ENDBRANCH   1  23
TORSDOF 16
ENDMDL
MODEL 2
REMARK VINA RESULT:     -11.6      5.809     10.236
REMARK SMILES Cc1cc(Oc2ccnc(C(=O)OCCOCCOC(=O)c3ccc(-c4c5nc(c(-c6c(F)c(F)c(F)c(F)c6F)c6ccc([nH]6)c(-c6c(F)c(F)c(F)c(F)c6F)c6nc(c(-c7c(F)c(F)c(F)c(F)c7F)c7ccc4[nH]7)C=C6)C=C5)cc3)c2)cc(C)c1Cl
REMARK SMILES IDX 16 1 15 2 14 3 13 4 11 5 12 6 10 7 6 8 7 9 85 10 8 11 9 12
REMARK SMILES IDX 5 13 4 14 1 15 2 16 3 17 89 18 87 19 90 20 86 21 88 22 17 23
REMARK SMILES IDX 18 24 19 25 20 26 21 27 22 28 23 29 84 30 24 31 83 32 25 33
REMARK SMILES IDX 26 34 27 35 77 36 28 37 82 38 76 39 78 40 29 41 81 42 75 43
REMARK SMILES IDX 74 44 30 46 62 47 42 48 61 49 43 50 46 51 60 52 79 53 44 54
REMARK SMILES IDX 45 55 59 57 80 58 47 59 31 60 32 61 40 62 33 63 34 64 38 65
REMARK SMILES IDX 41 66 35 67 36 68 39 69 37 70 63 71 64 72 72 73 65 74 66 75
REMARK SMILES IDX 70 76 73 77 67 78 68 79 71 80 69 81 48 82 49 83 57 84 50 85
REMARK SMILES IDX 51 86 55 87 58 88 52 89 53 90 56 91 54 92
REMARK H PARENT 78 45 46 56
REMARK Flexibility Score: inf
ROOT
ATOM      1  O   UNL A   1      46.034  21.490  25.481  1.00  0.00    -0.374 OA
ENDROOT
BRANCH   1   2
ATOM      2  C   UNL A   1      45.868  22.504  24.492  1.00  0.00     0.202 C 
BRANCH   2   3
ATOM      3  C   UNL A   1      46.532  23.848  24.803  1.00  0.00     0.261 C 
BRANCH   3   4
ATOM      4  O   UNL A   1      45.579  24.923  24.708  1.00  0.00    -0.459 OA
BRANCH   4   5
ATOM      5  C   UNL A   1      46.043  26.145  25.084  1.00  0.00     0.357 C 
ATOM      6  O   UNL A   1      47.208  26.511  25.043  1.00  0.00    -0.244 OA
BRANCH   5   7
ATOM      7  C   UNL A   1      44.899  27.033  25.458  1.00  0.00     0.152 A 
ATOM      8  C   UNL A   1      43.936  28.890  26.604  1.00  0.00     0.131 A 
ATOM      9  C   UNL A   1      42.719  28.608  25.987  1.00  0.00     0.067 A 
ATOM     10  C   UNL A   1      45.054  28.107  26.324  1.00  0.00     0.083 A 
ATOM     11  C   UNL A   1      42.651  27.498  25.167  1.00  0.00     0.116 A 
ATOM     12  N   UNL A   1      43.706  26.706  24.893  1.00  0.00    -0.249 NA
BRANCH   8  13
ATOM     13  O   UNL A   1      44.155  29.982  27.411  1.00  0.00    -0.457 OA
BRANCH  13  14
ATOM     14  C   UNL A   1      44.686  31.149  26.907  1.00  0.00     0.128 A 
ATOM     15  C   UNL A   1      43.776  34.412  25.185  1.00  0.00     0.046 C 
ATOM     16  C   UNL A   1      44.595  33.348  25.864  1.00  0.00    -0.028 A 
ATOM     17  C   UNL A   1      43.954  32.180  26.318  1.00  0.00     0.052 A 
ATOM     18  C   UNL A   1      45.980  33.497  26.078  1.00  0.00     0.047 A 
ATOM     19  C   UNL A   1      46.720  32.482  26.711  1.00  0.00    -0.028 A 
ATOM     20  Cl  UNL A   1      46.776  34.954  25.572  1.00  0.00    -0.084 Cl
ATOM     21  C   UNL A   1      46.059  31.310  27.111  1.00  0.00     0.052 A 
ATOM     22  C   UNL A   1      48.191  32.625  26.996  1.00  0.00     0.046 C 
ENDBRANCH  13  14
ENDBRANCH   8  13
ENDBRANCH   5   7
ENDBRANCH   4   5
ENDBRANCH   3   4
ENDBRANCH   2   3
ENDBRANCH   1   2
BRANCH   1  23
ATOM     23  C   UNL A   1      45.970  20.133  25.038  1.00  0.00     0.202 C 
BRANCH  23  24
ATOM     24  C   UNL A   1      44.579  19.641  24.620  1.00  0.00     0.261 C 
BRANCH  24  25
ATOM     25  O   UNL A   1      43.769  19.297  25.761  1.00  0.00    -0.460 OA
BRANCH  25  26
ATOM     26  C   UNL A   1      42.524  19.826  25.757  1.00  0.00     0.338 C 
ATOM     27  O   UNL A   1      41.487  19.289  25.391  1.00  0.00    -0.246 OA
BRANCH  26  28
ATOM     28  C   UNL A   1      42.532  21.140  26.428  1.00  0.00     0.060 A 
ATOM     29  C   UNL A   1      42.638  22.280  25.620  1.00  0.00     0.016 A 
ATOM     30  C   UNL A   1      42.510  21.257  27.820  1.00  0.00     0.016 A 
ATOM     31  C   UNL A   1      42.768  23.540  26.202  1.00  0.00     0.010 A 
ATOM     32  C   UNL A   1      42.651  22.521  28.402  1.00  0.00     0.010 A 
ATOM     33  C   UNL A   1      42.814  23.664  27.598  1.00  0.00    -0.014 A 
BRANCH  33  34
ATOM     34  C   UNL A   1      43.176  24.964  28.212  1.00  0.00     0.031 A 
ATOM     35  C   UNL A   1      42.095  25.981  28.456  1.00  0.00     0.074 A 
ATOM     36  C   UNL A   1      44.445  25.229  28.570  1.00  0.00     0.049 A 
ATOM     37  N   UNL A   1      42.191  27.202  28.916  1.00  0.00    -0.248 NA
ATOM     38  C   UNL A   1      40.720  25.562  28.139  1.00  0.00     0.031 C 
ATOM     39  C   UNL A   1      45.572  24.308  28.436  1.00  0.00     0.029 A 
ATOM     40  N   UNL A   1      44.999  26.362  29.115  1.00  0.00    -0.354 N 
ATOM     41  C   UNL A   1      40.892  27.697  28.945  1.00  0.00     0.074 A 
ATOM     42  C   UNL A   1      40.030  26.655  28.426  1.00  0.00     0.031 C 
ATOM     43  C   UNL A   1      46.687  24.916  28.876  1.00  0.00     0.029 A 
ATOM     44  C   UNL A   1      46.359  26.280  29.288  1.00  0.00     0.049 A 
ATOM     45  H   UNL A   1      44.472  27.157  29.358  1.00  0.00     0.167 HD
ATOM     46  C   UNL A   1      40.458  28.905  29.376  1.00  0.00     0.037 A 
ATOM     47  C   UNL A   1      47.238  27.210  29.710  1.00  0.00     0.037 A 
ATOM     48  C   UNL A   1      41.316  29.941  29.886  1.00  0.00     0.049 A 
ATOM     49  C   UNL A   1      46.739  28.579  30.095  1.00  0.00     0.074 A 
ATOM     50  C   UNL A   1      40.971  31.205  30.332  1.00  0.00     0.029 A 
ATOM     51  N   UNL A   1      42.691  29.830  30.019  1.00  0.00    -0.354 N 
ATOM     52  N   UNL A   1      45.510  29.037  30.121  1.00  0.00    -0.248 NA
ATOM     53  C   UNL A   1      47.750  29.562  30.511  1.00  0.00     0.031 C 
ATOM     54  C   UNL A   1      42.144  31.875  30.698  1.00  0.00     0.029 A 
ATOM     55  C   UNL A   1      43.212  31.009  30.527  1.00  0.00     0.049 A 
ATOM     56  H   UNL A   1      43.219  29.032  29.788  1.00  0.00     0.167 HD
ATOM     57  C   UNL A   1      45.598  30.341  30.593  1.00  0.00     0.074 A 
ATOM     58  C   UNL A   1      46.999  30.601  30.845  1.00  0.00     0.031 C 
ATOM     59  C   UNL A   1      44.606  31.241  30.801  1.00  0.00     0.037 A 
BRANCH  46  60
ATOM     60  C   UNL A   1      38.985  29.180  29.299  1.00  0.00     0.064 A 
ATOM     61  C   UNL A   1      38.177  29.165  30.445  1.00  0.00     0.173 A 
ATOM     62  C   UNL A   1      38.386  29.515  28.076  1.00  0.00     0.173 A 
ATOM     63  F   UNL A   1      38.701  28.838  31.636  1.00  0.00    -0.203 F 
ATOM     64  C   UNL A   1      36.818  29.458  30.366  1.00  0.00     0.198 A 
ATOM     65  C   UNL A   1      37.032  29.832  28.004  1.00  0.00     0.198 A 
ATOM     66  F   UNL A   1      39.116  29.547  26.951  1.00  0.00    -0.203 F 
ATOM     67  F   UNL A   1      36.058  29.403  31.468  1.00  0.00    -0.200 F 
ATOM     68  C   UNL A   1      36.249  29.799  29.148  1.00  0.00     0.200 A 
ATOM     69  F   UNL A   1      36.486  30.174  26.829  1.00  0.00    -0.200 F 
ATOM     70  F   UNL A   1      34.943  30.093  29.076  1.00  0.00    -0.200 F 
ENDBRANCH  46  60
BRANCH  47  71
ATOM     71  C   UNL A   1      48.689  26.893  29.777  1.00  0.00     0.064 A 
ATOM     72  C   UNL A   1      49.507  27.008  28.644  1.00  0.00     0.173 A 
ATOM     73  C   UNL A   1      49.278  26.427  30.961  1.00  0.00     0.173 A 
ATOM     74  F   UNL A   1      48.984  27.424  27.482  1.00  0.00    -0.203 F 
ATOM     75  C   UNL A   1      50.852  26.644  28.687  1.00  0.00     0.198 A 
ATOM     76  C   UNL A   1      50.629  26.091  31.011  1.00  0.00     0.198 A 
ATOM     77  F   UNL A   1      48.539  26.294  32.073  1.00  0.00    -0.203 F 
ATOM     78  F   UNL A   1      51.596  26.710  27.575  1.00  0.00    -0.200 F 
ATOM     79  C   UNL A   1      51.413  26.189  29.871  1.00  0.00     0.200 A 
ATOM     80  F   UNL A   1      51.169  25.660  32.159  1.00  0.00    -0.200 F 
ATOM     81  F   UNL A   1      52.704  25.834  29.910  1.00  0.00    -0.200 F 
ENDBRANCH  47  71
BRANCH  59  82
ATOM     82  C   UNL A   1      44.987  32.570  31.387  1.00  0.00     0.064 A 
ATOM     83  C   UNL A   1      45.163  33.707  30.588  1.00  0.00     0.173 A 
ATOM     84  C   UNL A   1      45.126  32.713  32.777  1.00  0.00     0.173 A 
ATOM     85  F   UNL A   1      45.054  33.617  29.253  1.00  0.00    -0.203 F 
ATOM     86  C   UNL A   1      45.486  34.937  31.155  1.00  0.00     0.198 A 
ATOM     87  C   UNL A   1      45.422  33.950  33.343  1.00  0.00     0.198 A 
ATOM     88  F   UNL A   1      44.960  31.656  33.586  1.00  0.00    -0.203 F 
ATOM     89  F   UNL A   1      45.691  36.003  30.369  1.00  0.00    -0.200 F 
ATOM     90  C   UNL A   1      45.607  35.059  32.532  1.00  0.00     0.200 A 
ATOM     91  F   UNL A   1      45.525  34.068  34.674  1.00  0.00    -0.200 F 
ATOM     92  F   UNL A   1      45.909  36.246  33.077  1.00  0.00    -0.200 F 
ENDBRANCH  59  82
ENDBRANCH  33  34
ENDBRANCH  26  28
ENDBRANCH  25  26
ENDBRANCH  24  25
ENDBRANCH  23  24
ENDBRANCH   1  23
TORSDOF 16
ENDMDL
MODEL 3
REMARK VINA RESULT:     -11.5      4.321     10.062
REMARK SMILES Cc1cc(Oc2ccnc(C(=O)OCCOCCOC(=O)c3ccc(-c4c5nc(c(-c6c(F)c(F)c(F)c(F)c6F)c6ccc([nH]6)c(-c6c(F)c(F)c(F)c(F)c6F)c6nc(c(-c7c(F)c(F)c(F)c(F)c7F)c7ccc4[nH]7)C=C6)C=C5)cc3)c2)cc(C)c1Cl
REMARK SMILES IDX 16 1 15 2 14 3 13 4 11 5 12 6 10 7 6 8 7 9 85 10 8 11 9 12
REMARK SMILES IDX 5 13 4 14 1 15 2 16 3 17 89 18 87 19 90 20 86 21 88 22 17 23
REMARK SMILES IDX 18 24 19 25 20 26 21 27 22 28 23 29 84 30 24 31 83 32 25 33
REMARK SMILES IDX 26 34 27 35 77 36 28 37 82 38 76 39 78 40 29 41 81 42 75 43
REMARK SMILES IDX 74 44 30 46 62 47 42 48 61 49 43 50 46 51 60 52 79 53 44 54
REMARK SMILES IDX 45 55 59 57 80 58 47 59 31 60 32 61 40 62 33 63 34 64 38 65
REMARK SMILES IDX 41 66 35 67 36 68 39 69 37 70 63 71 64 72 72 73 65 74 66 75
REMARK SMILES IDX 70 76 73 77 67 78 68 79 71 80 69 81 48 82 49 83 57 84 50 85
REMARK SMILES IDX 51 86 55 87 58 88 52 89 53 90 56 91 54 92
REMARK H PARENT 78 45 46 56
REMARK Flexibility Score: inf
ROOT
ATOM      1  O   UNL A   1      36.476  20.655  25.119  1.00  0.00    -0.374 OA
ENDROOT
BRANCH   1   2
ATOM      2  C   UNL A   1      35.066  20.533  24.943  1.00  0.00     0.202 C 
BRANCH   2   3
ATOM      3  C   UNL A   1      34.270  21.837  25.045  1.00  0.00     0.261 C 
BRANCH   3   4
ATOM      4  O   UNL A   1      35.137  22.977  24.904  1.00  0.00    -0.459 OA
BRANCH   4   5
ATOM      5  C   UNL A   1      35.158  23.543  23.667  1.00  0.00     0.357 C 
ATOM      6  O   UNL A   1      35.763  23.116  22.695  1.00  0.00    -0.244 OA
BRANCH   5   7
ATOM      7  C   UNL A   1      34.235  24.720  23.628  1.00  0.00     0.152 A 
ATOM      8  C   UNL A   1      32.835  26.357  24.652  1.00  0.00     0.131 A 
ATOM      9  C   UNL A   1      32.621  26.922  23.397  1.00  0.00     0.067 A 
ATOM     10  C   UNL A   1      33.670  25.250  24.781  1.00  0.00     0.083 A 
ATOM     11  C   UNL A   1      33.197  26.306  22.302  1.00  0.00     0.116 A 
ATOM     12  N   UNL A   1      33.991  25.221  22.389  1.00  0.00    -0.249 NA
BRANCH   8  13
ATOM     13  O   UNL A   1      32.356  26.887  25.828  1.00  0.00    -0.457 OA
BRANCH  13  14
ATOM     14  C   UNL A   1      32.691  28.163  26.225  1.00  0.00     0.128 A 
ATOM     15  C   UNL A   1      31.351  31.705  26.536  1.00  0.00     0.046 C 
ATOM     16  C   UNL A   1      32.278  30.525  26.648  1.00  0.00    -0.028 A 
ATOM     17  C   UNL A   1      31.843  29.270  26.185  1.00  0.00     0.052 A 
ATOM     18  C   UNL A   1      33.560  30.638  27.222  1.00  0.00     0.047 A 
ATOM     19  C   UNL A   1      34.407  29.518  27.309  1.00  0.00    -0.028 A 
ATOM     20  Cl  UNL A   1      34.091  32.167  27.847  1.00  0.00    -0.084 Cl
ATOM     21  C   UNL A   1      33.960  28.290  26.795  1.00  0.00     0.052 A 
ATOM     22  C   UNL A   1      35.764  29.591  27.955  1.00  0.00     0.046 C 
ENDBRANCH  13  14
ENDBRANCH   8  13
ENDBRANCH   5   7
ENDBRANCH   4   5
ENDBRANCH   3   4
ENDBRANCH   2   3
ENDBRANCH   1   2
BRANCH   1  23
ATOM     23  C   UNL A   1      37.267  19.498  24.844  1.00  0.00     0.202 C 
BRANCH  23  24
ATOM     24  C   UNL A   1      38.746  19.602  25.231  1.00  0.00     0.261 C 
BRANCH  24  25
ATOM     25  O   UNL A   1      39.022  20.808  25.970  1.00  0.00    -0.460 OA
BRANCH  25  26
ATOM     26  C   UNL A   1      40.168  20.788  26.689  1.00  0.00     0.338 C 
ATOM     27  O   UNL A   1      40.939  19.850  26.836  1.00  0.00    -0.246 OA
BRANCH  26  28
ATOM     28  C   UNL A   1      40.483  22.146  27.173  1.00  0.00     0.060 A 
ATOM     29  C   UNL A   1      39.823  23.221  26.565  1.00  0.00     0.016 A 
ATOM     30  C   UNL A   1      41.454  22.372  28.151  1.00  0.00     0.016 A 
ATOM     31  C   UNL A   1      40.164  24.531  26.899  1.00  0.00     0.010 A 
ATOM     32  C   UNL A   1      41.803  23.687  28.477  1.00  0.00     0.010 A 
ATOM     33  C   UNL A   1      41.184  24.772  27.830  1.00  0.00    -0.014 A 
BRANCH  33  34
ATOM     34  C   UNL A   1      41.701  26.148  28.018  1.00  0.00     0.031 A 
ATOM     35  C   UNL A   1      43.067  26.492  27.489  1.00  0.00     0.074 A 
ATOM     36  C   UNL A   1      40.959  27.088  28.630  1.00  0.00     0.049 A 
ATOM     37  N   UNL A   1      43.745  27.606  27.598  1.00  0.00    -0.248 NA
ATOM     38  C   UNL A   1      43.760  25.435  26.734  1.00  0.00     0.031 C 
ATOM     39  C   UNL A   1      39.602  26.895  29.138  1.00  0.00     0.029 A 
ATOM     40  N   UNL A   1      41.250  28.395  28.935  1.00  0.00    -0.354 N 
ATOM     41  C   UNL A   1      44.941  27.386  26.926  1.00  0.00     0.074 A 
ATOM     42  C   UNL A   1      44.911  26.022  26.440  1.00  0.00     0.031 C 
ATOM     43  C   UNL A   1      39.181  28.041  29.702  1.00  0.00     0.029 A 
ATOM     44  C   UNL A   1      40.252  29.034  29.628  1.00  0.00     0.049 A 
ATOM     45  H   UNL A   1      42.095  28.833  28.681  1.00  0.00     0.167 HD
ATOM     46  C   UNL A   1      45.967  28.246  26.724  1.00  0.00     0.037 A 
ATOM     47  C   UNL A   1      40.218  30.272  30.160  1.00  0.00     0.037 A 
ATOM     48  C   UNL A   1      45.999  29.600  27.211  1.00  0.00     0.049 A 
ATOM     49  C   UNL A   1      41.412  31.178  29.999  1.00  0.00     0.074 A 
ATOM     50  C   UNL A   1      47.001  30.544  27.071  1.00  0.00     0.029 A 
ATOM     51  N   UNL A   1      44.981  30.201  27.934  1.00  0.00    -0.354 N 
ATOM     52  N   UNL A   1      42.538  30.963  29.362  1.00  0.00    -0.248 NA
ATOM     53  C   UNL A   1      41.331  32.502  30.634  1.00  0.00     0.031 C 
ATOM     54  C   UNL A   1      46.605  31.705  27.744  1.00  0.00     0.029 A 
ATOM     55  C   UNL A   1      45.336  31.500  28.259  1.00  0.00     0.049 A 
ATOM     56  H   UNL A   1      44.130  29.769  28.179  1.00  0.00     0.167 HD
ATOM     57  C   UNL A   1      43.276  32.133  29.483  1.00  0.00     0.074 A 
ATOM     58  C   UNL A   1      42.470  33.058  30.251  1.00  0.00     0.031 C 
ATOM     59  C   UNL A   1      44.510  32.418  28.999  1.00  0.00     0.037 A 
BRANCH  46  60
ATOM     60  C   UNL A   1      47.151  27.745  25.951  1.00  0.00     0.064 A 
ATOM     61  C   UNL A   1      47.175  27.768  24.549  1.00  0.00     0.173 A 
ATOM     62  C   UNL A   1      48.296  27.287  26.620  1.00  0.00     0.173 A 
ATOM     63  F   UNL A   1      46.100  28.185  23.863  1.00  0.00    -0.203 F 
ATOM     64  C   UNL A   1      48.294  27.334  23.844  1.00  0.00     0.198 A 
ATOM     65  C   UNL A   1      49.423  26.877  25.914  1.00  0.00     0.198 A 
ATOM     66  F   UNL A   1      48.326  27.248  27.961  1.00  0.00    -0.203 F 
ATOM     67  F   UNL A   1      48.281  27.331  22.505  1.00  0.00    -0.200 F 
ATOM     68  C   UNL A   1      49.419  26.897  24.527  1.00  0.00     0.200 A 
ATOM     69  F   UNL A   1      50.514  26.467  26.575  1.00  0.00    -0.200 F 
ATOM     70  F   UNL A   1      50.501  26.490  23.848  1.00  0.00    -0.200 F 
ENDBRANCH  46  60
BRANCH  47  71
ATOM     71  C   UNL A   1      39.021  30.732  30.912  1.00  0.00     0.064 A 
ATOM     72  C   UNL A   1      38.003  31.456  30.277  1.00  0.00     0.173 A 
ATOM     73  C   UNL A   1      38.893  30.497  32.289  1.00  0.00     0.173 A 
ATOM     74  F   UNL A   1      38.094  31.729  28.967  1.00  0.00    -0.203 F 
ATOM     75  C   UNL A   1      36.915  31.950  30.994  1.00  0.00     0.198 A 
ATOM     76  C   UNL A   1      37.791  30.966  33.000  1.00  0.00     0.198 A 
ATOM     77  F   UNL A   1      39.841  29.814  32.946  1.00  0.00    -0.203 F 
ATOM     78  F   UNL A   1      35.985  32.688  30.373  1.00  0.00    -0.200 F 
ATOM     79  C   UNL A   1      36.808  31.702  32.355  1.00  0.00     0.200 A 
ATOM     80  F   UNL A   1      37.687  30.716  34.313  1.00  0.00    -0.200 F 
ATOM     81  F   UNL A   1      35.765  32.181  33.045  1.00  0.00    -0.200 F 
ENDBRANCH  47  71
BRANCH  59  82
ATOM     82  C   UNL A   1      45.043  33.802  29.228  1.00  0.00     0.064 A 
ATOM     83  C   UNL A   1      45.845  34.112  30.334  1.00  0.00     0.173 A 
ATOM     84  C   UNL A   1      44.787  34.819  28.294  1.00  0.00     0.173 A 
ATOM     85  F   UNL A   1      46.106  33.177  31.261  1.00  0.00    -0.203 F 
ATOM     86  C   UNL A   1      46.355  35.396  30.510  1.00  0.00     0.198 A 
ATOM     87  C   UNL A   1      45.321  36.094  28.460  1.00  0.00     0.198 A 
ATOM     88  F   UNL A   1      44.031  34.571  27.214  1.00  0.00    -0.203 F 
ATOM     89  F   UNL A   1      47.084  35.682  31.598  1.00  0.00    -0.200 F 
ATOM     90  C   UNL A   1      46.099  36.383  29.570  1.00  0.00     0.200 A 
ATOM     91  F   UNL A   1      45.083  37.043  27.543  1.00  0.00    -0.200 F 
ATOM     92  F   UNL A   1      46.598  37.615  29.737  1.00  0.00    -0.200 F 
ENDBRANCH  59  82
ENDBRANCH  33  34
ENDBRANCH  26  28
ENDBRANCH  25  26
ENDBRANCH  24  25
ENDBRANCH  23  24
ENDBRANCH   1  23
TORSDOF 16
ENDMDL
