MODEL 1
REMARK VINA RESULT:     -12.3      0.000      0.000
REMARK SMILES C[C@H](C(=O)OCCOCCOC(=O)c1ccc(-c2c3nc(c(-c4c(F)c(F)c(F)c(F)c4F)c4ccc([nH]4)c(-c4c(F)c(F)c(F)c(F)c4F)c4nc(c(-c5c(F)c(F)c(F)c(F)c5F)c5ccc2[nH]5)C=C4)C=C3)cc1)c1ccc2c(c1)[nH]c1ccc(Cl)cc12
REMARK SMILES IDX 9 1 8 2 7 3 6 4 5 5 3 6 4 7 2 8 1 9 77 10 78 11 82 12 79 13
REMARK SMILES IDX 81 14 80 15 83 16 90 17 84 18 89 20 85 21 87 22 86 23 88 24
REMARK SMILES IDX 10 25 11 26 12 27 13 28 14 29 15 30 76 31 16 32 75 33 17 34
REMARK SMILES IDX 18 35 19 36 69 37 20 38 74 39 68 40 70 41 21 42 73 43 67 44
REMARK SMILES IDX 66 45 22 47 54 48 34 49 53 50 35 51 38 52 52 53 71 54 36 55
REMARK SMILES IDX 37 56 51 58 72 59 39 60 23 61 24 62 32 63 25 64 26 65 30 66
REMARK SMILES IDX 33 67 27 68 28 69 31 70 29 71 55 72 56 73 64 74 57 75 58 76
REMARK SMILES IDX 62 77 65 78 59 79 60 80 63 81 61 82 40 83 41 84 49 85 42 86
REMARK SMILES IDX 43 87 47 88 50 89 44 90 45 91 48 92 46 93
REMARK H PARENT 83 19 70 46 38 57
REMARK Flexibility Score: inf
ROOT
ATOM      1  C   UNL A   1      45.672  21.671  24.584  1.00  0.00     0.202 C 
ENDROOT
BRANCH   1   2
ATOM      2  O   UNL A   1      44.728  20.793  23.982  1.00  0.00    -0.374 OA
BRANCH   2   3
ATOM      3  C   UNL A   1      44.693  19.455  24.500  1.00  0.00     0.202 C 
BRANCH   3   4
ATOM      4  C   UNL A   1      43.491  19.074  25.384  1.00  0.00     0.261 C 
BRANCH   4   5
ATOM      5  O   UNL A   1      42.570  20.179  25.523  1.00  0.00    -0.463 OA
BRANCH   5   6
ATOM      6  C   UNL A   1      41.336  19.862  26.008  1.00  0.00     0.313 C 
ATOM      7  O   UNL A   1      40.744  18.823  25.737  1.00  0.00    -0.252 OA
BRANCH   6   8
ATOM      8  C   UNL A   1      40.778  20.909  26.971  1.00  0.00     0.126 C 
ATOM      9  C   UNL A   1      41.868  21.800  27.594  1.00  0.00     0.025 C 
BRANCH   8  10
ATOM     10  C   UNL A   1      39.642  21.790  26.476  1.00  0.00    -0.032 A 
ATOM     11  C   UNL A   1      39.424  23.121  26.843  1.00  0.00     0.005 A 
ATOM     12  C   UNL A   1      38.714  21.152  25.632  1.00  0.00     0.031 A 
ATOM     13  C   UNL A   1      38.277  23.815  26.394  1.00  0.00     0.011 A 
ATOM     14  C   UNL A   1      37.529  21.803  25.329  1.00  0.00     0.047 A 
ATOM     15  C   UNL A   1      37.289  23.132  25.647  1.00  0.00     0.007 A 
ATOM     16  N   UNL A   1      36.406  21.298  24.733  1.00  0.00    -0.355 N 
ATOM     17  C   UNL A   1      36.011  23.458  25.079  1.00  0.00     0.009 A 
ATOM     18  C   UNL A   1      35.447  22.266  24.616  1.00  0.00     0.047 A 
ATOM     19  H   UNL A   1      36.302  20.367  24.431  1.00  0.00     0.167 HD
ATOM     20  C   UNL A   1      35.260  24.642  24.935  1.00  0.00     0.031 A 
ATOM     21  C   UNL A   1      34.144  22.163  24.124  1.00  0.00     0.028 A 
ATOM     22  C   UNL A   1      33.979  24.565  24.373  1.00  0.00     0.041 A 
ATOM     23  C   UNL A   1      33.416  23.345  24.006  1.00  0.00     0.022 A 
ATOM     24  Cl  UNL A   1      33.078  26.011  24.118  1.00  0.00    -0.084 Cl
ENDBRANCH   8  10
ENDBRANCH   6   8
ENDBRANCH   5   6
ENDBRANCH   4   5
ENDBRANCH   3   4
ENDBRANCH   2   3
ENDBRANCH   1   2
BRANCH   1  25
ATOM     25  C   UNL A   1      45.192  22.584  25.719  1.00  0.00     0.261 C 
BRANCH  25  26
ATOM     26  O   UNL A   1      44.165  23.484  25.294  1.00  0.00    -0.460 OA
BRANCH  26  27
ATOM     27  C   UNL A   1      44.559  24.775  25.297  1.00  0.00     0.338 C 
ATOM     28  O   UNL A   1      45.420  25.293  24.592  1.00  0.00    -0.246 OA
BRANCH  27  29
ATOM     29  C   UNL A   1      43.685  25.567  26.171  1.00  0.00     0.060 A 
ATOM     30  C   UNL A   1      44.038  26.907  26.369  1.00  0.00     0.016 A 
ATOM     31  C   UNL A   1      42.586  25.009  26.830  1.00  0.00     0.016 A 
ATOM     32  C   UNL A   1      43.342  27.676  27.292  1.00  0.00     0.010 A 
ATOM     33  C   UNL A   1      41.888  25.783  27.759  1.00  0.00     0.010 A 
ATOM     34  C   UNL A   1      42.298  27.103  28.027  1.00  0.00    -0.014 A 
BRANCH  34  35
ATOM     35  C   UNL A   1      41.764  27.837  29.195  1.00  0.00     0.031 A 
ATOM     36  C   UNL A   1      42.488  27.727  30.507  1.00  0.00     0.074 A 
ATOM     37  C   UNL A   1      40.693  28.638  29.068  1.00  0.00     0.049 A 
ATOM     38  N   UNL A   1      42.215  28.284  31.659  1.00  0.00    -0.248 NA
ATOM     39  C   UNL A   1      43.686  26.871  30.524  1.00  0.00     0.031 C 
ATOM     40  C   UNL A   1      39.944  28.851  27.832  1.00  0.00     0.029 A 
ATOM     41  N   UNL A   1      40.055  29.423  29.993  1.00  0.00    -0.354 N 
ATOM     42  C   UNL A   1      43.202  27.846  32.533  1.00  0.00     0.074 A 
ATOM     43  C   UNL A   1      44.060  26.948  31.792  1.00  0.00     0.031 C 
ATOM     44  C   UNL A   1      38.936  29.706  28.077  1.00  0.00     0.029 A 
ATOM     45  C   UNL A   1      38.957  30.077  29.490  1.00  0.00     0.049 A 
ATOM     46  H   UNL A   1      40.353  29.510  30.926  1.00  0.00     0.167 HD
ATOM     47  C   UNL A   1      43.382  28.178  33.832  1.00  0.00     0.037 A 
ATOM     48  C   UNL A   1      38.063  30.867  30.113  1.00  0.00     0.037 A 
ATOM     49  C   UNL A   1      42.522  29.073  34.560  1.00  0.00     0.049 A 
ATOM     50  C   UNL A   1      38.247  31.168  31.577  1.00  0.00     0.074 A 
ATOM     51  C   UNL A   1      42.618  29.484  35.878  1.00  0.00     0.029 A 
ATOM     52  N   UNL A   1      41.399  29.691  34.029  1.00  0.00    -0.354 N 
ATOM     53  N   UNL A   1      39.194  30.770  32.393  1.00  0.00    -0.248 NA
ATOM     54  C   UNL A   1      37.241  32.034  32.207  1.00  0.00     0.031 C 
ATOM     55  C   UNL A   1      41.523  30.309  36.157  1.00  0.00     0.029 A 
ATOM     56  C   UNL A   1      40.778  30.459  34.999  1.00  0.00     0.049 A 
ATOM     57  H   UNL A   1      41.089  29.597  33.099  1.00  0.00     0.167 HD
ATOM     58  C   UNL A   1      38.914  31.355  33.621  1.00  0.00     0.074 A 
ATOM     59  C   UNL A   1      37.717  32.149  33.439  1.00  0.00     0.031 C 
ATOM     60  C   UNL A   1      39.588  31.246  34.793  1.00  0.00     0.037 A 
BRANCH  47  61
ATOM     61  C   UNL A   1      44.539  27.549  34.553  1.00  0.00     0.064 A 
ATOM     62  C   UNL A   1      44.417  26.315  35.211  1.00  0.00     0.173 A 
ATOM     63  C   UNL A   1      45.793  28.178  34.570  1.00  0.00     0.173 A 
ATOM     64  F   UNL A   1      43.237  25.679  35.240  1.00  0.00    -0.203 F 
ATOM     65  C   UNL A   1      45.499  25.749  35.880  1.00  0.00     0.198 A 
ATOM     66  C   UNL A   1      46.881  27.595  35.214  1.00  0.00     0.198 A 
ATOM     67  F   UNL A   1      45.965  29.358  33.956  1.00  0.00    -0.203 F 
ATOM     68  F   UNL A   1      45.346  24.594  36.544  1.00  0.00    -0.200 F 
ATOM     69  C   UNL A   1      46.732  26.385  35.875  1.00  0.00     0.200 A 
ATOM     70  F   UNL A   1      48.073  28.206  35.199  1.00  0.00    -0.200 F 
ATOM     71  F   UNL A   1      47.774  25.837  36.515  1.00  0.00    -0.200 F 
ENDBRANCH  47  61
BRANCH  48  72
ATOM     72  C   UNL A   1      36.910  31.420  29.354  1.00  0.00     0.064 A 
ATOM     73  C   UNL A   1      36.864  32.769  28.982  1.00  0.00     0.173 A 
ATOM     74  C   UNL A   1      35.828  30.604  28.990  1.00  0.00     0.173 A 
ATOM     75  F   UNL A   1      37.864  33.594  29.326  1.00  0.00    -0.203 F 
ATOM     76  C   UNL A   1      35.771  33.287  28.289  1.00  0.00     0.198 A 
ATOM     77  C   UNL A   1      34.750  31.117  28.272  1.00  0.00     0.198 A 
ATOM     78  F   UNL A   1      35.823  29.305  29.322  1.00  0.00    -0.203 F 
ATOM     79  F   UNL A   1      35.731  34.592  27.984  1.00  0.00    -0.200 F 
ATOM     80  C   UNL A   1      34.718  32.460  27.929  1.00  0.00     0.200 A 
ATOM     81  F   UNL A   1      33.742  30.310  27.914  1.00  0.00    -0.200 F 
ATOM     82  F   UNL A   1      33.671  32.957  27.257  1.00  0.00    -0.200 F 
ENDBRANCH  48  72
BRANCH  60  83
ATOM     83  C   UNL A   1      39.063  32.029  35.962  1.00  0.00     0.064 A 
ATOM     84  C   UNL A   1      38.198  31.456  36.906  1.00  0.00     0.173 A 
ATOM     85  C   UNL A   1      39.466  33.359  36.162  1.00  0.00     0.173 A 
ATOM     86  F   UNL A   1      37.772  30.194  36.751  1.00  0.00    -0.203 F 
ATOM     87  C   UNL A   1      37.735  32.194  37.992  1.00  0.00     0.198 A 
ATOM     88  C   UNL A   1      39.027  34.083  37.266  1.00  0.00     0.198 A 
ATOM     89  F   UNL A   1      40.300  33.952  35.294  1.00  0.00    -0.203 F 
ATOM     90  F   UNL A   1      36.870  31.642  38.854  1.00  0.00    -0.200 F 
ATOM     91  C   UNL A   1      38.155  33.503  38.176  1.00  0.00     0.200 A 
ATOM     92  F   UNL A   1      39.447  35.342  37.452  1.00  0.00    -0.200 F 
ATOM     93  F   UNL A   1      37.715  34.208  39.226  1.00  0.00    -0.200 F 
ENDBRANCH  60  83
ENDBRANCH  34  35
ENDBRANCH  27  29
ENDBRANCH  26  27
ENDBRANCH  25  26
ENDBRANCH   1  25
TORSDOF 15
ENDMDL
MODEL 2
REMARK VINA RESULT:     -12.0      4.078      9.167
REMARK SMILES C[C@H](C(=O)OCCOCCOC(=O)c1ccc(-c2c3nc(c(-c4c(F)c(F)c(F)c(F)c4F)c4ccc([nH]4)c(-c4c(F)c(F)c(F)c(F)c4F)c4nc(c(-c5c(F)c(F)c(F)c(F)c5F)c5ccc2[nH]5)C=C4)C=C3)cc1)c1ccc2c(c1)[nH]c1ccc(Cl)cc12
REMARK SMILES IDX 9 1 8 2 7 3 6 4 5 5 3 6 4 7 2 8 1 9 77 10 78 11 82 12 79 13
REMARK SMILES IDX 81 14 80 15 83 16 90 17 84 18 89 20 85 21 87 22 86 23 88 24
REMARK SMILES IDX 10 25 11 26 12 27 13 28 14 29 15 30 76 31 16 32 75 33 17 34
REMARK SMILES IDX 18 35 19 36 69 37 20 38 74 39 68 40 70 41 21 42 73 43 67 44
REMARK SMILES IDX 66 45 22 47 54 48 34 49 53 50 35 51 38 52 52 53 71 54 36 55
REMARK SMILES IDX 37 56 51 58 72 59 39 60 23 61 24 62 32 63 25 64 26 65 30 66
REMARK SMILES IDX 33 67 27 68 28 69 31 70 29 71 55 72 56 73 64 74 57 75 58 76
REMARK SMILES IDX 62 77 65 78 59 79 60 80 63 81 61 82 40 83 41 84 49 85 42 86
REMARK SMILES IDX 43 87 47 88 50 89 44 90 45 91 48 92 46 93
REMARK H PARENT 83 19 70 46 38 57
REMARK Flexibility Score: inf
ROOT
ATOM      1  C   UNL A   1      31.457  30.043  25.370  1.00  0.00     0.202 C 
ENDROOT
BRANCH   1   2
ATOM      2  O   UNL A   1      32.555  29.316  24.833  1.00  0.00    -0.374 OA
BRANCH   2   3
ATOM      3  C   UNL A   1      32.414  27.888  24.808  1.00  0.00     0.202 C 
BRANCH   3   4
ATOM      4  C   UNL A   1      31.458  27.259  25.839  1.00  0.00     0.261 C 
BRANCH   4   5
ATOM      5  O   UNL A   1      30.587  26.285  25.221  1.00  0.00    -0.463 OA
BRANCH   5   6
ATOM      6  C   UNL A   1      30.768  24.993  25.621  1.00  0.00     0.313 C 
ATOM      7  O   UNL A   1      30.545  24.596  26.760  1.00  0.00    -0.252 OA
BRANCH   6   8
ATOM      8  C   UNL A   1      31.229  24.071  24.494  1.00  0.00     0.126 C 
ATOM      9  C   UNL A   1      31.084  24.703  23.097  1.00  0.00     0.025 C 
BRANCH   8  10
ATOM     10  C   UNL A   1      32.609  23.445  24.613  1.00  0.00    -0.032 A 
ATOM     11  C   UNL A   1      32.887  22.076  24.585  1.00  0.00     0.005 A 
ATOM     12  C   UNL A   1      33.661  24.352  24.837  1.00  0.00     0.031 A 
ATOM     13  C   UNL A   1      34.202  21.602  24.801  1.00  0.00     0.011 A 
ATOM     14  C   UNL A   1      34.906  23.858  25.194  1.00  0.00     0.047 A 
ATOM     15  C   UNL A   1      35.229  22.510  25.146  1.00  0.00     0.007 A 
ATOM     16  N   UNL A   1      35.989  24.540  25.675  1.00  0.00    -0.355 N 
ATOM     17  C   UNL A   1      36.622  22.418  25.483  1.00  0.00     0.009 A 
ATOM     18  C   UNL A   1      37.030  23.685  25.910  1.00  0.00     0.047 A 
ATOM     19  H   UNL A   1      36.017  25.512  25.830  1.00  0.00     0.167 HD
ATOM     20  C   UNL A   1      37.576  21.380  25.497  1.00  0.00     0.031 A 
ATOM     21  C   UNL A   1      38.289  23.955  26.452  1.00  0.00     0.028 A 
ATOM     22  C   UNL A   1      38.866  21.654  25.968  1.00  0.00     0.041 A 
ATOM     23  C   UNL A   1      39.208  22.908  26.470  1.00  0.00     0.022 A 
ATOM     24  Cl  UNL A   1      40.065  20.418  25.919  1.00  0.00    -0.084 Cl
ENDBRANCH   8  10
ENDBRANCH   6   8
ENDBRANCH   5   6
ENDBRANCH   4   5
ENDBRANCH   3   4
ENDBRANCH   2   3
ENDBRANCH   1   2
BRANCH   1  25
ATOM     25  C   UNL A   1      31.740  31.089  26.455  1.00  0.00     0.261 C 
BRANCH  25  26
ATOM     26  O   UNL A   1      32.869  30.741  27.261  1.00  0.00    -0.460 OA
BRANCH  26  27
ATOM     27  C   UNL A   1      33.641  31.804  27.576  1.00  0.00     0.338 C 
ATOM     28  O   UNL A   1      33.287  32.972  27.697  1.00  0.00    -0.246 OA
BRANCH  27  29
ATOM     29  C   UNL A   1      34.992  31.356  27.933  1.00  0.00     0.060 A 
ATOM     30  C   UNL A   1      35.171  29.980  28.121  1.00  0.00     0.016 A 
ATOM     31  C   UNL A   1      36.045  32.252  28.141  1.00  0.00     0.016 A 
ATOM     32  C   UNL A   1      36.383  29.500  28.598  1.00  0.00     0.010 A 
ATOM     33  C   UNL A   1      37.263  31.767  28.622  1.00  0.00     0.010 A 
ATOM     34  C   UNL A   1      37.417  30.396  28.898  1.00  0.00    -0.014 A 
BRANCH  34  35
ATOM     35  C   UNL A   1      38.582  29.906  29.667  1.00  0.00     0.031 A 
ATOM     36  C   UNL A   1      38.782  30.408  31.069  1.00  0.00     0.074 A 
ATOM     37  C   UNL A   1      39.405  28.982  29.146  1.00  0.00     0.049 A 
ATOM     38  N   UNL A   1      39.719  30.115  31.933  1.00  0.00    -0.248 NA
ATOM     39  C   UNL A   1      37.788  31.374  31.567  1.00  0.00     0.031 C 
ATOM     40  C   UNL A   1      39.276  28.397  27.813  1.00  0.00     0.029 A 
ATOM     41  N   UNL A   1      40.511  28.373  29.680  1.00  0.00    -0.354 N 
ATOM     42  C   UNL A   1      39.429  30.858  33.070  1.00  0.00     0.074 A 
ATOM     43  C   UNL A   1      38.252  31.645  32.777  1.00  0.00     0.031 C 
ATOM     44  C   UNL A   1      40.275  27.515  27.628  1.00  0.00     0.029 A 
ATOM     45  C   UNL A   1      41.123  27.498  28.817  1.00  0.00     0.049 A 
ATOM     46  H   UNL A   1      40.835  28.547  30.592  1.00  0.00     0.167 HD
ATOM     47  C   UNL A   1      40.080  30.869  34.257  1.00  0.00     0.037 A 
ATOM     48  C   UNL A   1      42.253  26.783  28.971  1.00  0.00     0.037 A 
ATOM     49  C   UNL A   1      41.252  30.082  34.538  1.00  0.00     0.049 A 
ATOM     50  C   UNL A   1      42.999  26.864  30.277  1.00  0.00     0.074 A 
ATOM     51  C   UNL A   1      41.986  30.012  35.709  1.00  0.00     0.029 A 
ATOM     52  N   UNL A   1      41.865  29.232  33.629  1.00  0.00    -0.354 N 
ATOM     53  N   UNL A   1      42.708  27.550  31.356  1.00  0.00    -0.248 NA
ATOM     54  C   UNL A   1      44.226  26.064  30.390  1.00  0.00     0.031 C 
ATOM     55  C   UNL A   1      43.073  29.159  35.490  1.00  0.00     0.029 A 
ATOM     56  C   UNL A   1      42.984  28.652  34.204  1.00  0.00     0.049 A 
ATOM     57  H   UNL A   1      41.552  29.065  32.710  1.00  0.00     0.167 HD
ATOM     58  C   UNL A   1      43.698  27.248  32.282  1.00  0.00     0.074 A 
ATOM     59  C   UNL A   1      44.590  26.302  31.643  1.00  0.00     0.031 C 
ATOM     60  C   UNL A   1      43.855  27.709  33.548  1.00  0.00     0.037 A 
BRANCH  47  61
ATOM     61  C   UNL A   1      39.554  31.780  35.327  1.00  0.00     0.064 A 
ATOM     62  C   UNL A   1      38.635  31.335  36.291  1.00  0.00     0.173 A 
ATOM     63  C   UNL A   1      39.990  33.111  35.406  1.00  0.00     0.173 A 
ATOM     64  F   UNL A   1      38.173  30.076  36.253  1.00  0.00    -0.203 F 
ATOM     65  C   UNL A   1      38.152  32.195  37.274  1.00  0.00     0.198 A 
ATOM     66  C   UNL A   1      39.528  33.960  36.408  1.00  0.00     0.198 A 
ATOM     67  F   UNL A   1      40.869  33.588  34.511  1.00  0.00    -0.203 F 
ATOM     68  F   UNL A   1      37.237  31.762  38.152  1.00  0.00    -0.200 F 
ATOM     69  C   UNL A   1      38.605  33.505  37.336  1.00  0.00     0.200 A 
ATOM     70  F   UNL A   1      39.975  35.222  36.472  1.00  0.00    -0.200 F 
ATOM     71  F   UNL A   1      38.143  34.331  38.285  1.00  0.00    -0.200 F 
ENDBRANCH  47  61
BRANCH  48  72
ATOM     72  C   UNL A   1      42.751  25.938  27.853  1.00  0.00     0.064 A 
ATOM     73  C   UNL A   1      42.353  24.602  27.719  1.00  0.00     0.173 A 
ATOM     74  C   UNL A   1      43.640  26.453  26.899  1.00  0.00     0.173 A 
ATOM     75  F   UNL A   1      41.521  24.056  28.619  1.00  0.00    -0.203 F 
ATOM     76  C   UNL A   1      42.839  23.807  26.682  1.00  0.00     0.198 A 
ATOM     77  C   UNL A   1      44.102  25.667  25.846  1.00  0.00     0.198 A 
ATOM     78  F   UNL A   1      44.053  27.727  26.982  1.00  0.00    -0.203 F 
ATOM     79  F   UNL A   1      42.477  22.519  26.601  1.00  0.00    -0.200 F 
ATOM     80  C   UNL A   1      43.708  24.342  25.742  1.00  0.00     0.200 A 
ATOM     81  F   UNL A   1      44.930  26.192  24.933  1.00  0.00    -0.200 F 
ATOM     82  F   UNL A   1      44.169  23.580  24.742  1.00  0.00    -0.200 F 
ENDBRANCH  48  72
BRANCH  60  83
ATOM     83  C   UNL A   1      45.017  27.173  34.335  1.00  0.00     0.064 A 
ATOM     84  C   UNL A   1      46.258  27.825  34.354  1.00  0.00     0.173 A 
ATOM     85  C   UNL A   1      44.869  26.016  35.115  1.00  0.00     0.173 A 
ATOM     86  F   UNL A   1      46.453  28.927  33.614  1.00  0.00    -0.203 F 
ATOM     87  C   UNL A   1      47.318  27.322  35.103  1.00  0.00     0.198 A 
ATOM     88  C   UNL A   1      45.921  25.534  35.888  1.00  0.00     0.198 A 
ATOM     89  F   UNL A   1      43.699  25.360  35.140  1.00  0.00    -0.203 F 
ATOM     90  F   UNL A   1      48.511  27.932  35.067  1.00  0.00    -0.200 F 
ATOM     91  C   UNL A   1      47.147  26.182  35.875  1.00  0.00     0.200 A 
ATOM     92  F   UNL A   1      45.749  24.443  36.647  1.00  0.00    -0.200 F 
ATOM     93  F   UNL A   1      48.166  25.704  36.602  1.00  0.00    -0.200 F 
ENDBRANCH  60  83
ENDBRANCH  34  35
ENDBRANCH  27  29
ENDBRANCH  26  27
ENDBRANCH  25  26
ENDBRANCH   1  25
TORSDOF 15
ENDMDL
MODEL 3
REMARK VINA RESULT:     -12.0      5.223     11.547
REMARK SMILES C[C@H](C(=O)OCCOCCOC(=O)c1ccc(-c2c3nc(c(-c4c(F)c(F)c(F)c(F)c4F)c4ccc([nH]4)c(-c4c(F)c(F)c(F)c(F)c4F)c4nc(c(-c5c(F)c(F)c(F)c(F)c5F)c5ccc2[nH]5)C=C4)C=C3)cc1)c1ccc2c(c1)[nH]c1ccc(Cl)cc12
REMARK SMILES IDX 9 1 8 2 7 3 6 4 5 5 3 6 4 7 2 8 1 9 77 10 78 11 82 12 79 13
REMARK SMILES IDX 81 14 80 15 83 16 90 17 84 18 89 20 85 21 87 22 86 23 88 24
REMARK SMILES IDX 10 25 11 26 12 27 13 28 14 29 15 30 76 31 16 32 75 33 17 34
REMARK SMILES IDX 18 35 19 36 69 37 20 38 74 39 68 40 70 41 21 42 73 43 67 44
REMARK SMILES IDX 66 45 22 47 54 48 34 49 53 50 35 51 38 52 52 53 71 54 36 55
REMARK SMILES IDX 37 56 51 58 72 59 39 60 23 61 24 62 32 63 25 64 26 65 30 66
REMARK SMILES IDX 33 67 27 68 28 69 31 70 29 71 55 72 56 73 64 74 57 75 58 76
REMARK SMILES IDX 62 77 65 78 59 79 60 80 63 81 61 82 40 83 41 84 49 85 42 86
REMARK SMILES IDX 43 87 47 88 50 89 44 90 45 91 48 92 46 93
REMARK H PARENT 83 19 70 46 38 57
REMARK Flexibility Score: inf
ROOT
ATOM      1  C   UNL A   1      33.503  34.294  28.516  1.00  0.00     0.202 C 
ENDROOT
BRANCH   1   2
ATOM      2  O   UNL A   1      32.733  34.749  29.622  1.00  0.00    -0.374 OA
BRANCH   2   3
ATOM      3  C   UNL A   1      32.737  36.166  29.853  1.00  0.00     0.202 C 
BRANCH   3   4
ATOM      4  C   UNL A   1      33.296  36.657  31.201  1.00  0.00     0.261 C 
BRANCH   4   5
ATOM      5  O   UNL A   1      33.211  35.627  32.211  1.00  0.00    -0.463 OA
BRANCH   5   6
ATOM      6  C   UNL A   1      34.038  35.782  33.284  1.00  0.00     0.313 C 
ATOM      7  O   UNL A   1      34.151  36.830  33.911  1.00  0.00    -0.252 OA
BRANCH   6   8
ATOM      8  C   UNL A   1      34.778  34.501  33.667  1.00  0.00     0.126 C 
ATOM      9  C   UNL A   1      34.027  33.222  33.253  1.00  0.00     0.025 C 
BRANCH   8  10
ATOM     10  C   UNL A   1      36.235  34.376  33.251  1.00  0.00    -0.032 A 
ATOM     11  C   UNL A   1      37.333  34.391  34.116  1.00  0.00     0.005 A 
ATOM     12  C   UNL A   1      36.458  34.310  31.864  1.00  0.00     0.031 A 
ATOM     13  C   UNL A   1      38.652  34.363  33.609  1.00  0.00     0.011 A 
ATOM     14  C   UNL A   1      37.754  34.436  31.388  1.00  0.00     0.047 A 
ATOM     15  C   UNL A   1      38.870  34.420  32.212  1.00  0.00     0.007 A 
ATOM     16  N   UNL A   1      38.176  34.630  30.102  1.00  0.00    -0.355 N 
ATOM     17  C   UNL A   1      40.013  34.466  31.344  1.00  0.00     0.009 A 
ATOM     18  C   UNL A   1      39.541  34.706  30.050  1.00  0.00     0.047 A 
ATOM     19  H   UNL A   1      37.581  34.705  29.321  1.00  0.00     0.167 HD
ATOM     20  C   UNL A   1      41.406  34.357  31.527  1.00  0.00     0.031 A 
ATOM     21  C   UNL A   1      40.370  34.953  28.954  1.00  0.00     0.028 A 
ATOM     22  C   UNL A   1      42.249  34.529  30.421  1.00  0.00     0.041 A 
ATOM     23  C   UNL A   1      41.744  34.856  29.164  1.00  0.00     0.022 A 
ATOM     24  Cl  UNL A   1      43.948  34.322  30.611  1.00  0.00    -0.084 Cl
ENDBRANCH   8  10
ENDBRANCH   6   8
ENDBRANCH   5   6
ENDBRANCH   4   5
ENDBRANCH   3   4
ENDBRANCH   2   3
ENDBRANCH   1   2
BRANCH   1  25
ATOM     25  C   UNL A   1      34.639  33.299  28.785  1.00  0.00     0.261 C 
BRANCH  25  26
ATOM     26  O   UNL A   1      34.993  32.553  27.617  1.00  0.00    -0.460 OA
BRANCH  26  27
ATOM     27  C   UNL A   1      34.674  31.244  27.710  1.00  0.00     0.338 C 
ATOM     28  O   UNL A   1      33.603  30.717  27.428  1.00  0.00    -0.246 OA
BRANCH  27  29
ATOM     29  C   UNL A   1      35.866  30.458  28.051  1.00  0.00     0.060 A 
ATOM     30  C   UNL A   1      35.828  29.748  29.257  1.00  0.00     0.016 A 
ATOM     31  C   UNL A   1      37.013  30.457  27.253  1.00  0.00     0.016 A 
ATOM     32  C   UNL A   1      36.968  29.100  29.713  1.00  0.00     0.010 A 
ATOM     33  C   UNL A   1      38.159  29.805  27.714  1.00  0.00     0.010 A 
ATOM     34  C   UNL A   1      38.152  29.168  28.968  1.00  0.00    -0.014 A 
BRANCH  34  35
ATOM     35  C   UNL A   1      39.415  28.725  29.598  1.00  0.00     0.031 A 
ATOM     36  C   UNL A   1      39.884  29.426  30.842  1.00  0.00     0.074 A 
ATOM     37  C   UNL A   1      40.092  27.675  29.106  1.00  0.00     0.049 A 
ATOM     38  N   UNL A   1      40.949  29.207  31.570  1.00  0.00    -0.248 NA
ATOM     39  C   UNL A   1      39.037  30.525  31.334  1.00  0.00     0.031 C 
ATOM     40  C   UNL A   1      39.702  26.898  27.931  1.00  0.00     0.029 A 
ATOM     41  N   UNL A   1      41.250  27.081  29.537  1.00  0.00    -0.354 N 
ATOM     42  C   UNL A   1      40.899  30.138  32.599  1.00  0.00     0.074 A 
ATOM     43  C   UNL A   1      39.721  30.949  32.384  1.00  0.00     0.031 C 
ATOM     44  C   UNL A   1      40.614  25.931  27.729  1.00  0.00     0.029 A 
ATOM     45  C   UNL A   1      41.661  26.042  28.741  1.00  0.00     0.049 A 
ATOM     46  H   UNL A   1      41.740  27.373  30.339  1.00  0.00     0.167 HD
ATOM     47  C   UNL A   1      41.752  30.289  33.639  1.00  0.00     0.037 A 
ATOM     48  C   UNL A   1      42.770  25.282  28.817  1.00  0.00     0.037 A 
ATOM     49  C   UNL A   1      42.922  29.476  33.844  1.00  0.00     0.049 A 
ATOM     50  C   UNL A   1      43.741  25.514  29.945  1.00  0.00     0.074 A 
ATOM     51  C   UNL A   1      43.851  29.540  34.867  1.00  0.00     0.029 A 
ATOM     52  N   UNL A   1      43.326  28.453  32.998  1.00  0.00    -0.354 N 
ATOM     53  N   UNL A   1      43.677  26.381  30.928  1.00  0.00    -0.248 NA
ATOM     54  C   UNL A   1      44.934  24.659  29.979  1.00  0.00     0.031 C 
ATOM     55  C   UNL A   1      44.845  28.589  34.612  1.00  0.00     0.029 A 
ATOM     56  C   UNL A   1      44.505  27.894  33.462  1.00  0.00     0.049 A 
ATOM     57  H   UNL A   1      42.846  28.166  32.187  1.00  0.00     0.167 HD
ATOM     58  C   UNL A   1      44.804  26.159  31.709  1.00  0.00     0.074 A 
ATOM     59  C   UNL A   1      45.526  25.064  31.094  1.00  0.00     0.031 C 
ATOM     60  C   UNL A   1      45.205  26.801  32.834  1.00  0.00     0.037 A 
BRANCH  47  61
ATOM     61  C   UNL A   1      41.464  31.391  34.617  1.00  0.00     0.064 A 
ATOM     62  C   UNL A   1      42.163  32.608  34.587  1.00  0.00     0.173 A 
ATOM     63  C   UNL A   1      40.460  31.238  35.584  1.00  0.00     0.173 A 
ATOM     64  F   UNL A   1      43.145  32.801  33.693  1.00  0.00    -0.203 F 
ATOM     65  C   UNL A   1      41.887  33.617  35.506  1.00  0.00     0.198 A 
ATOM     66  C   UNL A   1      40.165  32.260  36.482  1.00  0.00     0.198 A 
ATOM     67  F   UNL A   1      39.759  30.096  35.656  1.00  0.00    -0.203 F 
ATOM     68  F   UNL A   1      42.602  34.751  35.490  1.00  0.00    -0.200 F 
ATOM     69  C   UNL A   1      40.883  33.446  36.447  1.00  0.00     0.200 A 
ATOM     70  F   UNL A   1      39.187  32.096  37.384  1.00  0.00    -0.200 F 
ATOM     71  F   UNL A   1      40.614  34.420  37.328  1.00  0.00    -0.200 F 
ENDBRANCH  47  61
BRANCH  48  72
ATOM     72  C   UNL A   1      43.023  24.239  27.788  1.00  0.00     0.064 A 
ATOM     73  C   UNL A   1      43.700  24.540  26.599  1.00  0.00     0.173 A 
ATOM     74  C   UNL A   1      42.588  22.918  27.975  1.00  0.00     0.173 A 
ATOM     75  F   UNL A   1      44.117  25.793  26.365  1.00  0.00    -0.203 F 
ATOM     76  C   UNL A   1      43.917  23.564  25.628  1.00  0.00     0.198 A 
ATOM     77  C   UNL A   1      42.831  21.937  27.016  1.00  0.00     0.198 A 
ATOM     78  F   UNL A   1      41.934  22.578  29.095  1.00  0.00    -0.203 F 
ATOM     79  F   UNL A   1      44.529  23.889  24.480  1.00  0.00    -0.200 F 
ATOM     80  C   UNL A   1      43.489  22.262  25.840  1.00  0.00     0.200 A 
ATOM     81  F   UNL A   1      42.427  20.678  27.232  1.00  0.00    -0.200 F 
ATOM     82  F   UNL A   1      43.704  21.324  24.909  1.00  0.00    -0.200 F 
ENDBRANCH  48  72
BRANCH  60  83
ATOM     83  C   UNL A   1      46.466  26.315  33.490  1.00  0.00     0.064 A 
ATOM     84  C   UNL A   1      47.716  26.872  33.187  1.00  0.00     0.173 A 
ATOM     85  C   UNL A   1      46.413  25.308  34.467  1.00  0.00     0.173 A 
ATOM     86  F   UNL A   1      47.821  27.827  32.251  1.00  0.00    -0.203 F 
ATOM     87  C   UNL A   1      48.872  26.420  33.818  1.00  0.00     0.198 A 
ATOM     88  C   UNL A   1      47.566  24.882  35.119  1.00  0.00     0.198 A 
ATOM     89  F   UNL A   1      45.240  24.748  34.800  1.00  0.00    -0.203 F 
ATOM     90  F   UNL A   1      50.063  26.931  33.477  1.00  0.00    -0.200 F 
ATOM     91  C   UNL A   1      48.796  25.431  34.788  1.00  0.00     0.200 A 
ATOM     92  F   UNL A   1      47.488  23.938  36.067  1.00  0.00    -0.200 F 
ATOM     93  F   UNL A   1      49.908  25.004  35.400  1.00  0.00    -0.200 F 
ENDBRANCH  60  83
ENDBRANCH  34  35
ENDBRANCH  27  29
ENDBRANCH  26  27
ENDBRANCH  25  26
ENDBRANCH   1  25
TORSDOF 15
ENDMDL
