MODEL 1
REMARK VINA RESULT:     -11.3      0.000      0.000
REMARK SMILES Cc1cc(C(=O)N[C@@H](C)C(=O)OCCOCCOC(=O)c2ccc(-c3c4nc(c(-c5c(F)c(F)c(F)c(F)c5F)c5ccc([nH]5)c(-c5c(F)c(F)c(F)c(F)c5F)c5nc(c(-c6c(F)c(F)c(F)c(F)c6F)c6ccc3[nH]6)C=C5)C=C4)cc2)cc(C)c1OC(F)F
REMARK SMILES IDX 14 1 13 2 12 3 10 4 11 5 8 6 9 7 7 8 5 9 6 10 4 12 1 13 2 14
REMARK SMILES IDX 3 15 87 16 85 17 84 18 86 19 88 20 89 21 90 22 91 23 15 24
REMARK SMILES IDX 16 25 17 26 18 27 19 28 20 29 21 30 22 31 83 32 23 33 82 34
REMARK SMILES IDX 24 35 25 36 26 37 76 38 27 39 81 40 75 41 77 42 28 43 80 44
REMARK SMILES IDX 74 45 73 46 29 48 61 49 41 50 60 51 42 52 45 53 59 54 78 55
REMARK SMILES IDX 43 56 44 57 58 59 79 60 46 61 30 62 31 63 39 64 32 65 33 66
REMARK SMILES IDX 37 67 40 68 34 69 35 70 38 71 36 72 62 73 63 74 71 75 64 76
REMARK SMILES IDX 65 77 69 78 72 79 66 80 67 81 70 82 68 83 47 84 48 85 56 86
REMARK SMILES IDX 49 87 50 88 54 89 57 90 51 91 52 92 55 93 53 94
REMARK H PARENT 7 11 77 47 45 58
REMARK Flexibility Score: inf
ROOT
ATOM      1  C   UNL A   1      34.833  33.617  28.028  1.00  0.00     0.202 C 
ENDROOT
BRANCH   1   2
ATOM      2  C   UNL A   1      33.659  32.633  28.051  1.00  0.00     0.261 C 
BRANCH   2   3
ATOM      3  O   UNL A   1      34.037  31.360  27.498  1.00  0.00    -0.462 OA
BRANCH   3   4
ATOM      4  C   UNL A   1      33.037  30.649  26.906  1.00  0.00     0.328 C 
ATOM      5  O   UNL A   1      31.861  30.995  26.871  1.00  0.00    -0.250 OA
BRANCH   4   6
ATOM      6  C   UNL A   1      33.522  29.284  26.382  1.00  0.00     0.189 C 
ATOM      7  C   UNL A   1      34.761  28.898  27.178  1.00  0.00     0.043 C 
BRANCH   6   8
ATOM      8  N   UNL A   1      33.823  29.273  24.944  1.00  0.00    -0.339 N 
ATOM      9  C   UNL A   1      33.876  28.262  24.017  1.00  0.00     0.251 C 
ATOM     10  O   UNL A   1      34.187  28.555  22.863  1.00  0.00    -0.269 OA
ATOM     11  H   UNL A   1      34.028  30.163  24.575  1.00  0.00     0.164 HD
BRANCH   9  12
ATOM     12  C   UNL A   1      33.578  26.838  24.336  1.00  0.00     0.040 A 
ATOM     13  C   UNL A   1      30.640  24.598  23.540  1.00  0.00     0.048 C 
ATOM     14  C   UNL A   1      31.979  24.951  24.130  1.00  0.00    -0.008 A 
ATOM     15  C   UNL A   1      32.371  26.294  23.876  1.00  0.00     0.021 A 
ATOM     16  C   UNL A   1      32.869  24.119  24.830  1.00  0.00     0.131 A 
ATOM     17  C   UNL A   1      34.065  24.686  25.349  1.00  0.00    -0.008 A 
ATOM     18  C   UNL A   1      34.383  26.040  25.131  1.00  0.00     0.021 A 
ATOM     19  C   UNL A   1      35.083  23.876  26.118  1.00  0.00     0.048 C 
BRANCH  16  20
ATOM     20  O   UNL A   1      32.804  22.783  25.084  1.00  0.00    -0.434 OA
BRANCH  20  21
ATOM     21  C   UNL A   1      33.075  21.760  24.153  1.00  0.00     0.542 C 
ATOM     22  F   UNL A   1      32.359  21.949  23.023  1.00  0.00    -0.167 F 
ATOM     23  F   UNL A   1      34.396  21.736  23.862  1.00  0.00    -0.167 F 
ENDBRANCH  20  21
ENDBRANCH  16  20
ENDBRANCH   9  12
ENDBRANCH   6   8
ENDBRANCH   4   6
ENDBRANCH   3   4
ENDBRANCH   2   3
ENDBRANCH   1   2
BRANCH   1  24
ATOM     24  O   UNL A   1      34.742  34.709  28.943  1.00  0.00    -0.374 OA
BRANCH  24  25
ATOM     25  C   UNL A   1      33.825  34.572  30.030  1.00  0.00     0.202 C 
BRANCH  25  26
ATOM     26  C   UNL A   1      34.422  34.172  31.385  1.00  0.00     0.261 C 
BRANCH  26  27
ATOM     27  O   UNL A   1      34.511  32.743  31.548  1.00  0.00    -0.460 OA
BRANCH  27  28
ATOM     28  C   UNL A   1      35.460  32.330  32.420  1.00  0.00     0.338 C 
ATOM     29  O   UNL A   1      35.460  32.458  33.636  1.00  0.00    -0.246 OA
BRANCH  28  30
ATOM     30  C   UNL A   1      36.477  31.518  31.726  1.00  0.00     0.060 A 
ATOM     31  C   UNL A   1      37.519  30.993  32.502  1.00  0.00     0.016 A 
ATOM     32  C   UNL A   1      36.476  31.362  30.339  1.00  0.00     0.016 A 
ATOM     33  C   UNL A   1      38.593  30.354  31.886  1.00  0.00     0.010 A 
ATOM     34  C   UNL A   1      37.561  30.726  29.721  1.00  0.00     0.010 A 
ATOM     35  C   UNL A   1      38.641  30.252  30.490  1.00  0.00    -0.014 A 
BRANCH  35  36
ATOM     36  C   UNL A   1      39.887  29.777  29.836  1.00  0.00     0.031 A 
ATOM     37  C   UNL A   1      41.039  30.732  29.676  1.00  0.00     0.074 A 
ATOM     38  C   UNL A   1      40.003  28.505  29.416  1.00  0.00     0.049 A 
ATOM     39  N   UNL A   1      42.208  30.537  29.120  1.00  0.00    -0.248 NA
ATOM     40  C   UNL A   1      40.850  32.088  30.217  1.00  0.00     0.031 C 
ATOM     41  C   UNL A   1      38.973  27.475  29.546  1.00  0.00     0.029 A 
ATOM     42  N   UNL A   1      41.043  27.863  28.790  1.00  0.00    -0.354 N 
ATOM     43  C   UNL A   1      42.887  31.744  29.233  1.00  0.00     0.074 A 
ATOM     44  C   UNL A   1      41.996  32.672  29.894  1.00  0.00     0.031 C 
ATOM     45  C   UNL A   1      39.427  26.333  29.003  1.00  0.00     0.029 A 
ATOM     46  C   UNL A   1      40.768  26.558  28.463  1.00  0.00     0.049 A 
ATOM     47  H   UNL A   1      41.904  28.298  28.593  1.00  0.00     0.167 HD
ATOM     48  C   UNL A   1      44.142  32.047  28.827  1.00  0.00     0.037 A 
ATOM     49  C   UNL A   1      41.508  25.657  27.787  1.00  0.00     0.037 A 
ATOM     50  C   UNL A   1      45.038  31.120  28.189  1.00  0.00     0.049 A 
ATOM     51  C   UNL A   1      42.881  26.043  27.299  1.00  0.00     0.074 A 
ATOM     52  C   UNL A   1      46.347  31.323  27.788  1.00  0.00     0.029 A 
ATOM     53  N   UNL A   1      44.715  29.814  27.854  1.00  0.00    -0.354 N 
ATOM     54  N   UNL A   1      43.531  27.170  27.454  1.00  0.00    -0.248 NA
ATOM     55  C   UNL A   1      43.625  25.025  26.541  1.00  0.00     0.031 C 
ATOM     56  C   UNL A   1      46.800  30.157  27.165  1.00  0.00     0.029 A 
ATOM     57  C   UNL A   1      45.790  29.210  27.223  1.00  0.00     0.049 A 
ATOM     58  H   UNL A   1      43.851  29.381  28.039  1.00  0.00     0.167 HD
ATOM     59  C   UNL A   1      44.767  26.986  26.847  1.00  0.00     0.074 A 
ATOM     60  C   UNL A   1      44.782  25.635  26.328  1.00  0.00     0.031 C 
ATOM     61  C   UNL A   1      45.797  27.858  26.730  1.00  0.00     0.037 A 
BRANCH  48  62
ATOM     62  C   UNL A   1      44.628  33.449  29.038  1.00  0.00     0.064 A 
ATOM     63  C   UNL A   1      45.345  33.815  30.186  1.00  0.00     0.173 A 
ATOM     64  C   UNL A   1      44.437  34.420  28.043  1.00  0.00     0.173 A 
ATOM     65  F   UNL A   1      45.543  32.926  31.171  1.00  0.00    -0.203 F 
ATOM     66  C   UNL A   1      45.846  35.107  30.334  1.00  0.00     0.198 A 
ATOM     67  C   UNL A   1      44.960  35.702  28.183  1.00  0.00     0.198 A 
ATOM     68  F   UNL A   1      43.762  34.116  26.923  1.00  0.00    -0.203 F 
ATOM     69  F   UNL A   1      46.508  35.444  31.449  1.00  0.00    -0.200 F 
ATOM     70  C   UNL A   1      45.661  36.045  29.329  1.00  0.00     0.200 A 
ATOM     71  F   UNL A   1      44.791  36.603  27.205  1.00  0.00    -0.200 F 
ATOM     72  F   UNL A   1      46.159  37.282  29.465  1.00  0.00    -0.200 F 
ENDBRANCH  48  62
BRANCH  49  73
ATOM     73  C   UNL A   1      40.967  24.301  27.508  1.00  0.00     0.064 A 
ATOM     74  C   UNL A   1      41.525  23.161  28.102  1.00  0.00     0.173 A 
ATOM     75  C   UNL A   1      39.915  24.114  26.598  1.00  0.00     0.173 A 
ATOM     76  F   UNL A   1      42.551  23.287  28.957  1.00  0.00    -0.203 F 
ATOM     77  C   UNL A   1      41.072  21.883  27.776  1.00  0.00     0.198 A 
ATOM     78  C   UNL A   1      39.444  22.838  26.295  1.00  0.00     0.198 A 
ATOM     79  F   UNL A   1      39.349  25.171  25.999  1.00  0.00    -0.203 F 
ATOM     80  F   UNL A   1      41.663  20.809  28.314  1.00  0.00    -0.200 F 
ATOM     81  C   UNL A   1      40.030  21.723  26.876  1.00  0.00     0.200 A 
ATOM     82  F   UNL A   1      38.431  22.689  25.431  1.00  0.00    -0.200 F 
ATOM     83  F   UNL A   1      39.600  20.495  26.557  1.00  0.00    -0.200 F 
ENDBRANCH  49  73
BRANCH  61  84
ATOM     84  C   UNL A   1      47.045  27.369  26.055  1.00  0.00     0.064 A 
ATOM     85  C   UNL A   1      47.246  27.523  24.676  1.00  0.00     0.173 A 
ATOM     86  C   UNL A   1      48.071  26.776  26.808  1.00  0.00     0.173 A 
ATOM     87  F   UNL A   1      46.288  28.069  23.912  1.00  0.00    -0.203 F 
ATOM     88  C   UNL A   1      48.420  27.081  24.071  1.00  0.00     0.198 A 
ATOM     89  C   UNL A   1      49.255  26.362  26.204  1.00  0.00     0.198 A 
ATOM     90  F   UNL A   1      47.932  26.612  28.132  1.00  0.00    -0.203 F 
ATOM     91  F   UNL A   1      48.572  27.199  22.744  1.00  0.00    -0.200 F 
ATOM     92  C   UNL A   1      49.426  26.508  24.835  1.00  0.00     0.200 A 
ATOM     93  F   UNL A   1      50.231  25.820  26.945  1.00  0.00    -0.200 F 
ATOM     94  F   UNL A   1      50.557  26.090  24.252  1.00  0.00    -0.200 F 
ENDBRANCH  61  84
ENDBRANCH  35  36
ENDBRANCH  28  30
ENDBRANCH  27  28
ENDBRANCH  26  27
ENDBRANCH  25  26
ENDBRANCH  24  25
ENDBRANCH   1  24
TORSDOF 18
ENDMDL
MODEL 2
REMARK VINA RESULT:     -11.0      4.423      8.667
REMARK SMILES Cc1cc(C(=O)N[C@@H](C)C(=O)OCCOCCOC(=O)c2ccc(-c3c4nc(c(-c5c(F)c(F)c(F)c(F)c5F)c5ccc([nH]5)c(-c5c(F)c(F)c(F)c(F)c5F)c5nc(c(-c6c(F)c(F)c(F)c(F)c6F)c6ccc3[nH]6)C=C5)C=C4)cc2)cc(C)c1OC(F)F
REMARK SMILES IDX 14 1 13 2 12 3 10 4 11 5 8 6 9 7 7 8 5 9 6 10 4 12 1 13 2 14
REMARK SMILES IDX 3 15 87 16 85 17 84 18 86 19 88 20 89 21 90 22 91 23 15 24
REMARK SMILES IDX 16 25 17 26 18 27 19 28 20 29 21 30 22 31 83 32 23 33 82 34
REMARK SMILES IDX 24 35 25 36 26 37 76 38 27 39 81 40 75 41 77 42 28 43 80 44
REMARK SMILES IDX 74 45 73 46 29 48 61 49 41 50 60 51 42 52 45 53 59 54 78 55
REMARK SMILES IDX 43 56 44 57 58 59 79 60 46 61 30 62 31 63 39 64 32 65 33 66
REMARK SMILES IDX 37 67 40 68 34 69 35 70 38 71 36 72 62 73 63 74 71 75 64 76
REMARK SMILES IDX 65 77 69 78 72 79 66 80 67 81 70 82 68 83 47 84 48 85 56 86
REMARK SMILES IDX 49 87 50 88 54 89 57 90 51 91 52 92 55 93 53 94
REMARK H PARENT 7 11 77 47 45 58
REMARK Flexibility Score: inf
ROOT
ATOM      1  C   UNL A   1      32.191  28.943  22.846  1.00  0.00     0.202 C 
ENDROOT
BRANCH   1   2
ATOM      2  C   UNL A   1      30.756  28.507  22.538  1.00  0.00     0.261 C 
BRANCH   2   3
ATOM      3  O   UNL A   1      30.650  27.073  22.475  1.00  0.00    -0.462 OA
BRANCH   3   4
ATOM      4  C   UNL A   1      29.962  26.482  23.491  1.00  0.00     0.328 C 
ATOM      5  O   UNL A   1      28.898  26.890  23.942  1.00  0.00    -0.250 OA
BRANCH   4   6
ATOM      6  C   UNL A   1      30.730  25.297  24.105  1.00  0.00     0.189 C 
ATOM      7  C   UNL A   1      30.704  24.156  23.097  1.00  0.00     0.043 C 
BRANCH   6   8
ATOM      8  N   UNL A   1      30.189  24.843  25.393  1.00  0.00    -0.339 N 
ATOM      9  C   UNL A   1      30.633  23.924  26.312  1.00  0.00     0.251 C 
ATOM     10  O   UNL A   1      29.942  23.730  27.311  1.00  0.00    -0.269 OA
ATOM     11  H   UNL A   1      29.345  25.282  25.647  1.00  0.00     0.164 HD
BRANCH   9  12
ATOM     12  C   UNL A   1      31.900  23.155  26.159  1.00  0.00     0.040 A 
ATOM     13  C   UNL A   1      35.539  24.166  26.280  1.00  0.00     0.048 C 
ATOM     14  C   UNL A   1      34.380  23.217  26.129  1.00  0.00    -0.008 A 
ATOM     15  C   UNL A   1      33.113  23.847  26.268  1.00  0.00     0.021 A 
ATOM     16  C   UNL A   1      34.414  21.826  25.926  1.00  0.00     0.131 A 
ATOM     17  C   UNL A   1      33.184  21.134  25.754  1.00  0.00    -0.008 A 
ATOM     18  C   UNL A   1      31.951  21.810  25.832  1.00  0.00     0.021 A 
ATOM     19  C   UNL A   1      33.114  19.641  25.526  1.00  0.00     0.048 C 
BRANCH  16  20
ATOM     20  O   UNL A   1      35.472  20.970  25.896  1.00  0.00    -0.434 OA
BRANCH  20  21
ATOM     21  C   UNL A   1      36.543  21.027  24.983  1.00  0.00     0.542 C 
ATOM     22  F   UNL A   1      36.942  19.780  24.645  1.00  0.00    -0.167 F 
ATOM     23  F   UNL A   1      36.172  21.706  23.874  1.00  0.00    -0.167 F 
ENDBRANCH  20  21
ENDBRANCH  16  20
ENDBRANCH   9  12
ENDBRANCH   6   8
ENDBRANCH   4   6
ENDBRANCH   3   4
ENDBRANCH   2   3
ENDBRANCH   1   2
BRANCH   1  24
ATOM     24  O   UNL A   1      32.497  29.131  24.228  1.00  0.00    -0.374 OA
BRANCH  24  25
ATOM     25  C   UNL A   1      31.412  29.473  25.093  1.00  0.00     0.202 C 
BRANCH  25  26
ATOM     26  C   UNL A   1      31.561  30.769  25.899  1.00  0.00     0.261 C 
BRANCH  26  27
ATOM     27  O   UNL A   1      32.480  30.631  27.000  1.00  0.00    -0.460 OA
BRANCH  27  28
ATOM     28  C   UNL A   1      33.187  31.747  27.293  1.00  0.00     0.338 C 
ATOM     29  O   UNL A   1      32.784  32.903  27.302  1.00  0.00    -0.246 OA
BRANCH  28  30
ATOM     30  C   UNL A   1      34.530  31.391  27.784  1.00  0.00     0.060 A 
ATOM     31  C   UNL A   1      34.764  30.047  28.104  1.00  0.00     0.016 A 
ATOM     32  C   UNL A   1      35.506  32.358  28.030  1.00  0.00     0.016 A 
ATOM     33  C   UNL A   1      35.956  29.673  28.719  1.00  0.00     0.010 A 
ATOM     34  C   UNL A   1      36.701  31.981  28.658  1.00  0.00     0.010 A 
ATOM     35  C   UNL A   1      36.915  30.643  29.037  1.00  0.00    -0.014 A 
BRANCH  35  36
ATOM     36  C   UNL A   1      38.072  30.272  29.892  1.00  0.00     0.031 A 
ATOM     37  C   UNL A   1      39.109  29.326  29.349  1.00  0.00     0.074 A 
ATOM     38  C   UNL A   1      38.214  30.794  31.123  1.00  0.00     0.049 A 
ATOM     39  N   UNL A   1      40.185  28.853  29.926  1.00  0.00    -0.248 NA
ATOM     40  C   UNL A   1      38.908  28.849  27.971  1.00  0.00     0.031 C 
ATOM     41  C   UNL A   1      37.299  31.748  31.746  1.00  0.00     0.029 A 
ATOM     42  N   UNL A   1      39.186  30.590  32.072  1.00  0.00    -0.354 N 
ATOM     43  C   UNL A   1      40.780  28.018  28.990  1.00  0.00     0.074 A 
ATOM     44  C   UNL A   1      39.939  28.031  27.812  1.00  0.00     0.031 C 
ATOM     45  C   UNL A   1      37.745  32.036  32.982  1.00  0.00     0.029 A 
ATOM     46  C   UNL A   1      38.961  31.267  33.244  1.00  0.00     0.049 A 
ATOM     47  H   UNL A   1      39.969  30.012  31.924  1.00  0.00     0.167 HD
ATOM     48  C   UNL A   1      41.927  27.308  29.101  1.00  0.00     0.037 A 
ATOM     49  C   UNL A   1      39.648  31.250  34.403  1.00  0.00     0.037 A 
ATOM     50  C   UNL A   1      42.777  27.309  30.262  1.00  0.00     0.049 A 
ATOM     51  C   UNL A   1      40.893  30.406  34.514  1.00  0.00     0.074 A 
ATOM     52  C   UNL A   1      43.985  26.661  30.447  1.00  0.00     0.029 A 
ATOM     53  N   UNL A   1      42.503  27.989  31.438  1.00  0.00    -0.354 N 
ATOM     54  N   UNL A   1      41.472  29.659  33.607  1.00  0.00    -0.248 NA
ATOM     55  C   UNL A   1      41.580  30.406  35.815  1.00  0.00     0.031 C 
ATOM     56  C   UNL A   1      44.419  26.907  31.753  1.00  0.00     0.029 A 
ATOM     57  C   UNL A   1      43.505  27.750  32.364  1.00  0.00     0.049 A 
ATOM     58  H   UNL A   1      41.715  28.558  31.592  1.00  0.00     0.167 HD
ATOM     59  C   UNL A   1      42.606  29.131  34.214  1.00  0.00     0.074 A 
ATOM     60  C   UNL A   1      42.639  29.650  35.564  1.00  0.00     0.031 C 
ATOM     61  C   UNL A   1      43.535  28.291  33.698  1.00  0.00     0.037 A 
BRANCH  48  62
ATOM     62  C   UNL A   1      42.334  26.446  27.944  1.00  0.00     0.064 A 
ATOM     63  C   UNL A   1      41.851  25.138  27.794  1.00  0.00     0.173 A 
ATOM     64  C   UNL A   1      43.158  26.965  26.933  1.00  0.00     0.173 A 
ATOM     65  F   UNL A   1      41.070  24.594  28.738  1.00  0.00    -0.203 F 
ATOM     66  C   UNL A   1      42.188  24.377  26.677  1.00  0.00     0.198 A 
ATOM     67  C   UNL A   1      43.472  26.209  25.808  1.00  0.00     0.198 A 
ATOM     68  F   UNL A   1      43.640  28.213  27.029  1.00  0.00    -0.203 F 
ATOM     69  F   UNL A   1      41.736  23.120  26.564  1.00  0.00    -0.200 F 
ATOM     70  C   UNL A   1      42.990  24.916  25.682  1.00  0.00     0.200 A 
ATOM     71  F   UNL A   1      44.237  26.737  24.841  1.00  0.00    -0.200 F 
ATOM     72  F   UNL A   1      43.297  24.187  24.599  1.00  0.00    -0.200 F 
ENDBRANCH  48  62
BRANCH  49  73
ATOM     73  C   UNL A   1      39.173  32.041  35.569  1.00  0.00     0.064 A 
ATOM     74  C   UNL A   1      39.563  33.375  35.748  1.00  0.00     0.173 A 
ATOM     75  C   UNL A   1      38.362  31.460  36.556  1.00  0.00     0.173 A 
ATOM     76  F   UNL A   1      40.361  33.965  34.845  1.00  0.00    -0.203 F 
ATOM     77  C   UNL A   1      39.185  34.091  36.882  1.00  0.00     0.198 A 
ATOM     78  C   UNL A   1      37.961  32.186  37.676  1.00  0.00     0.198 A 
ATOM     79  F   UNL A   1      37.964  30.186  36.435  1.00  0.00    -0.203 F 
ATOM     80  F   UNL A   1      39.622  35.344  37.057  1.00  0.00    -0.200 F 
ATOM     81  C   UNL A   1      38.381  33.496  37.844  1.00  0.00     0.200 A 
ATOM     82  F   UNL A   1      37.177  31.610  38.597  1.00  0.00    -0.200 F 
ATOM     83  F   UNL A   1      38.024  34.181  38.938  1.00  0.00    -0.200 F 
ENDBRANCH  49  73
BRANCH  61  84
ATOM     84  C   UNL A   1      44.692  27.915  34.577  1.00  0.00     0.064 A 
ATOM     85  C   UNL A   1      45.874  28.668  34.602  1.00  0.00     0.173 A 
ATOM     86  C   UNL A   1      44.598  26.809  35.437  1.00  0.00     0.173 A 
ATOM     87  F   UNL A   1      46.017  29.725  33.787  1.00  0.00    -0.203 F 
ATOM     88  C   UNL A   1      46.929  28.316  35.439  1.00  0.00     0.198 A 
ATOM     89  C   UNL A   1      45.643  26.477  36.294  1.00  0.00     0.198 A 
ATOM     90  F   UNL A   1      43.485  26.060  35.457  1.00  0.00    -0.203 F 
ATOM     91  F   UNL A   1      48.066  29.025  35.414  1.00  0.00    -0.200 F 
ATOM     92  C   UNL A   1      46.811  27.226  36.289  1.00  0.00     0.200 A 
ATOM     93  F   UNL A   1      45.523  25.432  37.123  1.00  0.00    -0.200 F 
ATOM     94  F   UNL A   1      47.824  26.893  37.099  1.00  0.00    -0.200 F 
ENDBRANCH  61  84
ENDBRANCH  35  36
ENDBRANCH  28  30
ENDBRANCH  27  28
ENDBRANCH  26  27
ENDBRANCH  25  26
ENDBRANCH  24  25
ENDBRANCH   1  24
TORSDOF 18
ENDMDL
MODEL 3
REMARK VINA RESULT:     -10.9      4.284      6.773
REMARK SMILES Cc1cc(C(=O)N[C@@H](C)C(=O)OCCOCCOC(=O)c2ccc(-c3c4nc(c(-c5c(F)c(F)c(F)c(F)c5F)c5ccc([nH]5)c(-c5c(F)c(F)c(F)c(F)c5F)c5nc(c(-c6c(F)c(F)c(F)c(F)c6F)c6ccc3[nH]6)C=C5)C=C4)cc2)cc(C)c1OC(F)F
REMARK SMILES IDX 14 1 13 2 12 3 10 4 11 5 8 6 9 7 7 8 5 9 6 10 4 12 1 13 2 14
REMARK SMILES IDX 3 15 87 16 85 17 84 18 86 19 88 20 89 21 90 22 91 23 15 24
REMARK SMILES IDX 16 25 17 26 18 27 19 28 20 29 21 30 22 31 83 32 23 33 82 34
REMARK SMILES IDX 24 35 25 36 26 37 76 38 27 39 81 40 75 41 77 42 28 43 80 44
REMARK SMILES IDX 74 45 73 46 29 48 61 49 41 50 60 51 42 52 45 53 59 54 78 55
REMARK SMILES IDX 43 56 44 57 58 59 79 60 46 61 30 62 31 63 39 64 32 65 33 66
REMARK SMILES IDX 37 67 40 68 34 69 35 70 38 71 36 72 62 73 63 74 71 75 64 76
REMARK SMILES IDX 65 77 69 78 72 79 66 80 67 81 70 82 68 83 47 84 48 85 56 86
REMARK SMILES IDX 49 87 50 88 54 89 57 90 51 91 52 92 55 93 53 94
REMARK H PARENT 7 11 77 47 45 58
REMARK Flexibility Score: inf
ROOT
ATOM      1  C   UNL A   1      32.447  28.186  22.819  1.00  0.00     0.202 C 
ENDROOT
BRANCH   1   2
ATOM      2  C   UNL A   1      31.970  26.732  22.733  1.00  0.00     0.261 C 
BRANCH   2   3
ATOM      3  O   UNL A   1      31.814  26.158  24.042  1.00  0.00    -0.462 OA
BRANCH   3   4
ATOM      4  C   UNL A   1      30.541  25.833  24.401  1.00  0.00     0.328 C 
ATOM      5  O   UNL A   1      29.660  25.496  23.618  1.00  0.00    -0.250 OA
BRANCH   4   6
ATOM      6  C   UNL A   1      30.284  26.051  25.904  1.00  0.00     0.189 C 
ATOM      7  C   UNL A   1      31.605  26.454  26.545  1.00  0.00     0.043 C 
BRANCH   6   8
ATOM      8  N   UNL A   1      29.730  24.875  26.588  1.00  0.00    -0.339 N 
ATOM      9  C   UNL A   1      30.188  23.588  26.734  1.00  0.00     0.251 C 
ATOM     10  O   UNL A   1      29.482  22.793  27.353  1.00  0.00    -0.269 OA
ATOM     11  H   UNL A   1      28.864  25.041  27.026  1.00  0.00     0.164 HD
BRANCH   9  12
ATOM     12  C   UNL A   1      31.486  23.109  26.181  1.00  0.00     0.040 A 
ATOM     13  C   UNL A   1      32.506  21.850  22.768  1.00  0.00     0.048 C 
ATOM     14  C   UNL A   1      32.709  22.225  24.211  1.00  0.00    -0.008 A 
ATOM     15  C   UNL A   1      31.528  22.709  24.840  1.00  0.00     0.021 A 
ATOM     16  C   UNL A   1      33.898  22.199  24.960  1.00  0.00     0.131 A 
ATOM     17  C   UNL A   1      33.842  22.547  26.337  1.00  0.00    -0.008 A 
ATOM     18  C   UNL A   1      32.636  22.956  26.937  1.00  0.00     0.021 A 
ATOM     19  C   UNL A   1      35.065  22.546  27.227  1.00  0.00     0.048 C 
BRANCH  16  20
ATOM     20  O   UNL A   1      35.172  21.917  24.571  1.00  0.00    -0.434 OA
BRANCH  20  21
ATOM     21  C   UNL A   1      36.050  22.818  23.936  1.00  0.00     0.542 C 
ATOM     22  F   UNL A   1      36.102  22.569  22.608  1.00  0.00    -0.167 F 
ATOM     23  F   UNL A   1      35.643  24.090  24.149  1.00  0.00    -0.167 F 
ENDBRANCH  20  21
ENDBRANCH  16  20
ENDBRANCH   9  12
ENDBRANCH   6   8
ENDBRANCH   4   6
ENDBRANCH   3   4
ENDBRANCH   2   3
ENDBRANCH   1   2
BRANCH   1  24
ATOM     24  O   UNL A   1      31.777  28.999  23.781  1.00  0.00    -0.374 OA
BRANCH  24  25
ATOM     25  C   UNL A   1      32.554  29.482  24.879  1.00  0.00     0.202 C 
BRANCH  25  26
ATOM     26  C   UNL A   1      31.845  30.427  25.857  1.00  0.00     0.261 C 
BRANCH  26  27
ATOM     27  O   UNL A   1      32.496  30.481  27.141  1.00  0.00    -0.460 OA
BRANCH  27  28
ATOM     28  C   UNL A   1      33.259  31.579  27.346  1.00  0.00     0.338 C 
ATOM     29  O   UNL A   1      32.898  32.748  27.345  1.00  0.00    -0.246 OA
BRANCH  28  30
ATOM     30  C   UNL A   1      34.622  31.190  27.751  1.00  0.00     0.060 A 
ATOM     31  C   UNL A   1      34.861  29.828  27.980  1.00  0.00     0.016 A 
ATOM     32  C   UNL A   1      35.614  32.137  28.007  1.00  0.00     0.016 A 
ATOM     33  C   UNL A   1      36.078  29.414  28.516  1.00  0.00     0.010 A 
ATOM     34  C   UNL A   1      36.835  31.719  28.555  1.00  0.00     0.010 A 
ATOM     35  C   UNL A   1      37.057  30.360  28.845  1.00  0.00    -0.014 A 
BRANCH  35  36
ATOM     36  C   UNL A   1      38.250  29.936  29.621  1.00  0.00     0.031 A 
ATOM     37  C   UNL A   1      38.429  30.445  31.026  1.00  0.00     0.074 A 
ATOM     38  C   UNL A   1      39.148  29.084  29.093  1.00  0.00     0.049 A 
ATOM     39  N   UNL A   1      39.401  30.220  31.873  1.00  0.00    -0.248 NA
ATOM     40  C   UNL A   1      37.369  31.324  31.546  1.00  0.00     0.031 C 
ATOM     41  C   UNL A   1      39.068  28.493  27.759  1.00  0.00     0.029 A 
ATOM     42  N   UNL A   1      40.308  28.572  29.620  1.00  0.00    -0.354 N 
ATOM     43  C   UNL A   1      39.077  30.937  33.018  1.00  0.00     0.074 A 
ATOM     44  C   UNL A   1      37.829  31.619  32.754  1.00  0.00     0.031 C 
ATOM     45  C   UNL A   1      40.143  27.708  27.565  1.00  0.00     0.029 A 
ATOM     46  C   UNL A   1      40.998  27.764  28.750  1.00  0.00     0.049 A 
ATOM     47  H   UNL A   1      40.616  28.767  30.534  1.00  0.00     0.167 HD
ATOM     48  C   UNL A   1      39.758  31.013  34.186  1.00  0.00     0.037 A 
ATOM     49  C   UNL A   1      42.192  27.156  28.890  1.00  0.00     0.037 A 
ATOM     50  C   UNL A   1      40.988  30.319  34.459  1.00  0.00     0.049 A 
ATOM     51  C   UNL A   1      42.953  27.306  30.183  1.00  0.00     0.074 A 
ATOM     52  C   UNL A   1      41.723  30.297  35.631  1.00  0.00     0.029 A 
ATOM     53  N   UNL A   1      41.667  29.529  33.545  1.00  0.00    -0.354 N 
ATOM     54  N   UNL A   1      42.615  27.945  31.276  1.00  0.00    -0.248 NA
ATOM     55  C   UNL A   1      44.265  26.645  30.261  1.00  0.00     0.031 C 
ATOM     56  C   UNL A   1      42.874  29.533  35.412  1.00  0.00     0.029 A 
ATOM     57  C   UNL A   1      42.830  29.039  34.117  1.00  0.00     0.049 A 
ATOM     58  H   UNL A   1      41.367  29.343  32.626  1.00  0.00     0.167 HD
ATOM     59  C   UNL A   1      43.650  27.735  32.179  1.00  0.00     0.074 A 
ATOM     60  C   UNL A   1      44.626  26.901  31.510  1.00  0.00     0.031 C 
ATOM     61  C   UNL A   1      43.781  28.193  33.447  1.00  0.00     0.037 A 
BRANCH  48  62
ATOM     62  C   UNL A   1      39.204  31.896  35.264  1.00  0.00     0.064 A 
ATOM     63  C   UNL A   1      38.436  31.379  36.317  1.00  0.00     0.173 A 
ATOM     64  C   UNL A   1      39.511  33.265  35.282  1.00  0.00     0.173 A 
ATOM     65  F   UNL A   1      38.106  30.079  36.338  1.00  0.00    -0.203 F 
ATOM     66  C   UNL A   1      37.987  32.205  37.345  1.00  0.00     0.198 A 
ATOM     67  C   UNL A   1      39.081  34.082  36.323  1.00  0.00     0.198 A 
ATOM     68  F   UNL A   1      40.249  33.805  34.300  1.00  0.00    -0.203 F 
ATOM     69  F   UNL A   1      37.233  31.696  38.329  1.00  0.00    -0.200 F 
ATOM     70  C   UNL A   1      38.317  33.552  37.352  1.00  0.00     0.200 A 
ATOM     71  F   UNL A   1      39.412  35.380  36.335  1.00  0.00    -0.200 F 
ATOM     72  F   UNL A   1      37.899  34.341  38.352  1.00  0.00    -0.200 F 
ENDBRANCH  48  62
BRANCH  49  73
ATOM     73  C   UNL A   1      42.765  26.362  27.771  1.00  0.00     0.064 A 
ATOM     74  C   UNL A   1      43.644  26.943  26.846  1.00  0.00     0.173 A 
ATOM     75  C   UNL A   1      42.402  25.022  27.574  1.00  0.00     0.173 A 
ATOM     76  F   UNL A   1      43.998  28.230  26.977  1.00  0.00    -0.203 F 
ATOM     77  C   UNL A   1      44.116  26.222  25.751  1.00  0.00     0.198 A 
ATOM     78  C   UNL A   1      42.897  24.294  26.494  1.00  0.00     0.198 A 
ATOM     79  F   UNL A   1      41.561  24.421  28.428  1.00  0.00    -0.203 F 
ATOM     80  F   UNL A   1      44.907  26.818  24.850  1.00  0.00    -0.200 F 
ATOM     81  C   UNL A   1      43.745  24.897  25.577  1.00  0.00     0.200 A 
ATOM     82  F   UNL A   1      42.543  23.011  26.336  1.00  0.00    -0.200 F 
ATOM     83  F   UNL A   1      44.192  24.206  24.520  1.00  0.00    -0.200 F 
ENDBRANCH  49  73
BRANCH  61  84
ATOM     84  C   UNL A   1      44.998  27.766  34.215  1.00  0.00     0.064 A 
ATOM     85  C   UNL A   1      45.020  26.578  34.959  1.00  0.00     0.173 A 
ATOM     86  C   UNL A   1      46.170  28.537  34.169  1.00  0.00     0.173 A 
ATOM     87  F   UNL A   1      43.920  25.815  35.045  1.00  0.00    -0.203 F 
ATOM     88  C   UNL A   1      46.165  26.188  35.648  1.00  0.00     0.198 A 
ATOM     89  C   UNL A   1      47.322  28.129  34.836  1.00  0.00     0.198 A 
ATOM     90  F   UNL A   1      46.203  29.678  33.466  1.00  0.00    -0.203 F 
ATOM     91  F   UNL A   1      46.151  25.070  36.388  1.00  0.00    -0.200 F 
ATOM     92  C   UNL A   1      47.317  26.959  35.580  1.00  0.00     0.200 A 
ATOM     93  F   UNL A   1      48.437  28.868  34.759  1.00  0.00    -0.200 F 
ATOM     94  F   UNL A   1      48.420  26.578  36.238  1.00  0.00    -0.200 F 
ENDBRANCH  61  84
ENDBRANCH  35  36
ENDBRANCH  28  30
ENDBRANCH  27  28
ENDBRANCH  26  27
ENDBRANCH  25  26
ENDBRANCH  24  25
ENDBRANCH   1  24
TORSDOF 18
ENDMDL
