MODEL 1
REMARK VINA RESULT:     -11.4      0.000      0.000
REMARK SMILES Cc1ccc(C)c(NC(=O)/C=C\C(=O)OCCOCCOC(=O)c2ccc(-c3c4nc(c(-c5c(F)c(F)c(F)c(F)c5F)c5ccc([nH]5)c(-c5c(F)c(F)c(F)c(F)c5F)c5nc(c(-c6c(F)c(F)c(F)c(F)c6F)c6ccc3[nH]6)C=C5)C=C4)cc2)c1
REMARK SMILES IDX 18 1 17 2 16 3 15 4 13 5 14 6 12 7 11 8 9 9 8 10 10 12 7 13
REMARK SMILES IDX 1 14 2 15 3 16 87 17 4 18 5 19 6 20 19 21 20 22 21 23 22 24
REMARK SMILES IDX 23 25 24 26 25 27 86 28 26 29 85 30 27 31 28 32 29 33 79 34
REMARK SMILES IDX 30 35 84 36 78 37 80 38 31 39 83 40 77 41 76 42 32 44 64 45
REMARK SMILES IDX 44 46 63 47 45 48 48 49 62 50 81 51 46 52 47 53 61 55 82 56
REMARK SMILES IDX 49 57 33 58 34 59 42 60 35 61 36 62 40 63 43 64 37 65 38 66
REMARK SMILES IDX 41 67 39 68 65 69 66 70 74 71 67 72 68 73 72 74 75 75 69 76
REMARK SMILES IDX 70 77 73 78 71 79 50 80 51 81 59 82 52 83 53 84 57 85 60 86
REMARK SMILES IDX 54 87 55 88 58 89 56 90
REMARK H PARENT 8 11 80 43 48 54
REMARK Flexibility Score: inf
ROOT
ATOM      1  O   UNL A   1      36.124  22.361  25.406  1.00  0.00    -0.374 OA
ENDROOT
BRANCH   1   2
ATOM      2  C   UNL A   1      36.149  23.330  24.367  1.00  0.00     0.202 C 
BRANCH   2   3
ATOM      3  C   UNL A   1      34.868  23.223  23.520  1.00  0.00     0.261 C 
BRANCH   3   4
ATOM      4  O   UNL A   1      33.928  24.212  23.985  1.00  0.00    -0.460 OA
BRANCH   4   5
ATOM      5  C   UNL A   1      32.813  24.364  23.204  1.00  0.00     0.331 C 
ATOM      6  O   UNL A   1      32.795  24.913  22.139  1.00  0.00    -0.247 OA
BRANCH   5   7
ATOM      7  C   UNL A   1      31.735  23.575  23.897  1.00  0.00     0.099 C 
ATOM      8  C   UNL A   1      30.957  23.606  24.999  1.00  0.00     0.079 C 
BRANCH   8   9
ATOM      9  C   UNL A   1      30.851  24.305  26.323  1.00  0.00     0.248 C 
ATOM     10  N   UNL A   1      30.713  25.656  26.553  1.00  0.00    -0.322 N 
ATOM     11  H   UNL A   1      30.038  25.809  27.254  1.00  0.00     0.170 HD
ATOM     12  O   UNL A   1      30.482  23.571  27.252  1.00  0.00    -0.270 OA
BRANCH  10  13
ATOM     13  C   UNL A   1      31.237  26.905  26.102  1.00  0.00     0.044 A 
ATOM     14  C   UNL A   1      34.118  29.258  27.189  1.00  0.00     0.044 C 
ATOM     15  C   UNL A   1      32.992  28.635  26.419  1.00  0.00    -0.049 A 
ATOM     16  C   UNL A   1      32.774  29.114  25.138  1.00  0.00     0.004 A 
ATOM     17  C   UNL A   1      32.239  27.525  26.887  1.00  0.00     0.029 A 
ATOM     18  C   UNL A   1      31.762  28.557  24.390  1.00  0.00     0.006 A 
ATOM     19  C   UNL A   1      30.979  27.492  24.875  1.00  0.00    -0.027 A 
ATOM     20  C   UNL A   1      29.914  26.986  24.003  1.00  0.00     0.046 C 
ENDBRANCH  10  13
ENDBRANCH   8   9
ENDBRANCH   5   7
ENDBRANCH   4   5
ENDBRANCH   3   4
ENDBRANCH   2   3
ENDBRANCH   1   2
BRANCH   1  21
ATOM     21  C   UNL A   1      36.520  21.031  25.076  1.00  0.00     0.202 C 
BRANCH  21  22
ATOM     22  C   UNL A   1      37.966  20.621  25.337  1.00  0.00     0.261 C 
BRANCH  22  23
ATOM     23  O   UNL A   1      38.981  21.649  25.485  1.00  0.00    -0.460 OA
BRANCH  23  24
ATOM     24  C   UNL A   1      39.877  21.620  26.509  1.00  0.00     0.338 C 
ATOM     25  O   UNL A   1      40.576  20.657  26.778  1.00  0.00    -0.246 OA
BRANCH  24  26
ATOM     26  C   UNL A   1      39.924  22.909  27.243  1.00  0.00     0.060 A 
ATOM     27  C   UNL A   1      39.001  23.922  26.961  1.00  0.00     0.016 A 
ATOM     28  C   UNL A   1      41.031  23.193  28.029  1.00  0.00     0.016 A 
ATOM     29  C   UNL A   1      39.331  25.264  27.249  1.00  0.00     0.010 A 
ATOM     30  C   UNL A   1      41.367  24.522  28.255  1.00  0.00     0.010 A 
ATOM     31  C   UNL A   1      40.584  25.600  27.793  1.00  0.00    -0.014 A 
BRANCH  31  32
ATOM     32  C   UNL A   1      40.857  26.935  28.426  1.00  0.00     0.031 A 
ATOM     33  C   UNL A   1      42.121  27.364  27.791  1.00  0.00     0.074 A 
ATOM     34  C   UNL A   1      40.243  27.758  29.335  1.00  0.00     0.049 A 
ATOM     35  N   UNL A   1      43.274  27.188  28.349  1.00  0.00    -0.248 NA
ATOM     36  C   UNL A   1      42.201  27.630  26.344  1.00  0.00     0.031 C 
ATOM     37  C   UNL A   1      39.095  27.512  30.186  1.00  0.00     0.029 A 
ATOM     38  N   UNL A   1      40.500  29.094  29.677  1.00  0.00    -0.354 N 
ATOM     39  C   UNL A   1      44.170  27.697  27.431  1.00  0.00     0.074 A 
ATOM     40  C   UNL A   1      43.523  27.621  26.153  1.00  0.00     0.031 C 
ATOM     41  C   UNL A   1      38.519  28.644  30.646  1.00  0.00     0.029 A 
ATOM     42  C   UNL A   1      39.398  29.742  30.325  1.00  0.00     0.049 A 
ATOM     43  H   UNL A   1      41.356  29.543  29.490  1.00  0.00     0.167 HD
ATOM     44  C   UNL A   1      45.055  28.618  27.890  1.00  0.00     0.037 A 
ATOM     45  C   UNL A   1      39.288  31.001  30.851  1.00  0.00     0.037 A 
ATOM     46  C   UNL A   1      45.191  28.514  29.327  1.00  0.00     0.049 A 
ATOM     47  C   UNL A   1      40.650  31.387  31.229  1.00  0.00     0.074 A 
ATOM     48  C   UNL A   1      45.683  27.587  30.224  1.00  0.00     0.029 A 
ATOM     49  N   UNL A   1      44.279  29.271  30.008  1.00  0.00    -0.354 N 
ATOM     50  N   UNL A   1      41.257  30.890  32.267  1.00  0.00    -0.248 NA
ATOM     51  C   UNL A   1      41.490  32.015  30.223  1.00  0.00     0.031 C 
ATOM     52  C   UNL A   1      45.025  27.827  31.468  1.00  0.00     0.029 A 
ATOM     53  C   UNL A   1      44.204  28.941  31.330  1.00  0.00     0.049 A 
ATOM     54  H   UNL A   1      43.734  29.978  29.592  1.00  0.00     0.167 HD
ATOM     55  C   UNL A   1      42.539  30.691  31.806  1.00  0.00     0.074 A 
ATOM     56  C   UNL A   1      42.672  31.551  30.631  1.00  0.00     0.031 C 
ATOM     57  C   UNL A   1      43.226  29.575  32.176  1.00  0.00     0.037 A 
BRANCH  44  58
ATOM     58  C   UNL A   1      45.276  29.939  27.185  1.00  0.00     0.064 A 
ATOM     59  C   UNL A   1      46.596  30.355  26.954  1.00  0.00     0.173 A 
ATOM     60  C   UNL A   1      44.287  30.937  26.999  1.00  0.00     0.173 A 
ATOM     61  F   UNL A   1      47.618  29.511  27.163  1.00  0.00    -0.203 F 
ATOM     62  C   UNL A   1      46.899  31.670  26.590  1.00  0.00     0.198 A 
ATOM     63  C   UNL A   1      44.585  32.227  26.578  1.00  0.00     0.198 A 
ATOM     64  F   UNL A   1      43.005  30.763  27.330  1.00  0.00    -0.203 F 
ATOM     65  F   UNL A   1      48.178  32.052  26.485  1.00  0.00    -0.200 F 
ATOM     66  C   UNL A   1      45.894  32.601  26.395  1.00  0.00     0.200 A 
ATOM     67  F   UNL A   1      43.592  33.117  26.439  1.00  0.00    -0.200 F 
ATOM     68  F   UNL A   1      46.184  33.872  26.088  1.00  0.00    -0.200 F 
ENDBRANCH  44  58
BRANCH  45  69
ATOM     69  C   UNL A   1      38.155  31.960  31.052  1.00  0.00     0.064 A 
ATOM     70  C   UNL A   1      37.578  32.685  29.987  1.00  0.00     0.173 A 
ATOM     71  C   UNL A   1      37.390  31.919  32.220  1.00  0.00     0.173 A 
ATOM     72  F   UNL A   1      38.224  32.807  28.819  1.00  0.00    -0.203 F 
ATOM     73  C   UNL A   1      36.285  33.231  30.063  1.00  0.00     0.198 A 
ATOM     74  C   UNL A   1      36.103  32.470  32.305  1.00  0.00     0.198 A 
ATOM     75  F   UNL A   1      37.854  31.252  33.272  1.00  0.00    -0.203 F 
ATOM     76  F   UNL A   1      35.742  33.829  28.993  1.00  0.00    -0.200 F 
ATOM     77  C   UNL A   1      35.536  33.093  31.214  1.00  0.00     0.200 A 
ATOM     78  F   UNL A   1      35.381  32.341  33.426  1.00  0.00    -0.200 F 
ATOM     79  F   UNL A   1      34.266  33.521  31.264  1.00  0.00    -0.200 F 
ENDBRANCH  45  69
BRANCH  57  80
ATOM     80  C   UNL A   1      42.891  28.954  33.494  1.00  0.00     0.064 A 
ATOM     81  C   UNL A   1      43.334  29.405  34.747  1.00  0.00     0.173 A 
ATOM     82  C   UNL A   1      42.023  27.855  33.469  1.00  0.00     0.173 A 
ATOM     83  F   UNL A   1      44.120  30.485  34.855  1.00  0.00    -0.203 F 
ATOM     84  C   UNL A   1      42.945  28.753  35.920  1.00  0.00     0.198 A 
ATOM     85  C   UNL A   1      41.612  27.227  34.637  1.00  0.00     0.198 A 
ATOM     86  F   UNL A   1      41.551  27.400  32.296  1.00  0.00    -0.203 F 
ATOM     87  F   UNL A   1      43.391  29.180  37.111  1.00  0.00    -0.200 F 
ATOM     88  C   UNL A   1      42.081  27.669  35.862  1.00  0.00     0.200 A 
ATOM     89  F   UNL A   1      40.750  26.203  34.572  1.00  0.00    -0.200 F 
ATOM     90  F   UNL A   1      41.689  27.055  36.987  1.00  0.00    -0.200 F 
ENDBRANCH  57  80
ENDBRANCH  31  32
ENDBRANCH  24  26
ENDBRANCH  23  24
ENDBRANCH  22  23
ENDBRANCH  21  22
ENDBRANCH   1  21
TORSDOF 16
ENDMDL
MODEL 2
REMARK VINA RESULT:     -11.2      5.138     10.294
REMARK SMILES Cc1ccc(C)c(NC(=O)/C=C\C(=O)OCCOCCOC(=O)c2ccc(-c3c4nc(c(-c5c(F)c(F)c(F)c(F)c5F)c5ccc([nH]5)c(-c5c(F)c(F)c(F)c(F)c5F)c5nc(c(-c6c(F)c(F)c(F)c(F)c6F)c6ccc3[nH]6)C=C5)C=C4)cc2)c1
REMARK SMILES IDX 18 1 17 2 16 3 15 4 13 5 14 6 12 7 11 8 9 9 8 10 10 12 7 13
REMARK SMILES IDX 1 14 2 15 3 16 87 17 4 18 5 19 6 20 19 21 20 22 21 23 22 24
REMARK SMILES IDX 23 25 24 26 25 27 86 28 26 29 85 30 27 31 28 32 29 33 79 34
REMARK SMILES IDX 30 35 84 36 78 37 80 38 31 39 83 40 77 41 76 42 32 44 64 45
REMARK SMILES IDX 44 46 63 47 45 48 48 49 62 50 81 51 46 52 47 53 61 55 82 56
REMARK SMILES IDX 49 57 33 58 34 59 42 60 35 61 36 62 40 63 43 64 37 65 38 66
REMARK SMILES IDX 41 67 39 68 65 69 66 70 74 71 67 72 68 73 72 74 75 75 69 76
REMARK SMILES IDX 70 77 73 78 71 79 50 80 51 81 59 82 52 83 53 84 57 85 60 86
REMARK SMILES IDX 54 87 55 88 58 89 56 90
REMARK H PARENT 8 11 80 43 48 54
REMARK Flexibility Score: inf
ROOT
ATOM      1  O   UNL A   1      34.511  36.343  33.615  1.00  0.00    -0.374 OA
ENDROOT
BRANCH   1   2
ATOM      2  C   UNL A   1      34.626  34.927  33.635  1.00  0.00     0.202 C 
BRANCH   2   3
ATOM      3  C   UNL A   1      35.844  34.512  34.481  1.00  0.00     0.261 C 
BRANCH   3   4
ATOM      4  O   UNL A   1      37.040  34.944  33.802  1.00  0.00    -0.460 OA
BRANCH   4   5
ATOM      5  C   UNL A   1      38.152  34.184  34.047  1.00  0.00     0.331 C 
ATOM      6  O   UNL A   1      39.261  34.618  34.181  1.00  0.00    -0.247 OA
BRANCH   5   7
ATOM      7  C   UNL A   1      37.636  32.785  34.259  1.00  0.00     0.099 C 
ATOM      8  C   UNL A   1      37.790  31.724  35.077  1.00  0.00     0.079 C 
BRANCH   8   9
ATOM      9  C   UNL A   1      38.728  31.192  36.120  1.00  0.00     0.248 C 
ATOM     10  N   UNL A   1      38.900  31.647  37.409  1.00  0.00    -0.322 N 
ATOM     11  H   UNL A   1      38.957  30.883  38.029  1.00  0.00     0.170 HD
ATOM     12  O   UNL A   1      39.097  30.024  35.919  1.00  0.00    -0.270 OA
BRANCH  10  13
ATOM     13  C   UNL A   1      39.021  32.870  38.134  1.00  0.00     0.044 A 
ATOM     14  C   UNL A   1      40.246  36.458  37.329  1.00  0.00     0.044 C 
ATOM     15  C   UNL A   1      39.642  35.273  38.023  1.00  0.00    -0.049 A 
ATOM     16  C   UNL A   1      38.922  35.529  39.179  1.00  0.00     0.004 A 
ATOM     17  C   UNL A   1      39.673  33.954  37.497  1.00  0.00     0.029 A 
ATOM     18  C   UNL A   1      38.336  34.472  39.837  1.00  0.00     0.006 A 
ATOM     19  C   UNL A   1      38.412  33.155  39.344  1.00  0.00    -0.027 A 
ATOM     20  C   UNL A   1      37.768  32.101  40.134  1.00  0.00     0.046 C 
ENDBRANCH  10  13
ENDBRANCH   8   9
ENDBRANCH   5   7
ENDBRANCH   4   5
ENDBRANCH   3   4
ENDBRANCH   2   3
ENDBRANCH   1   2
BRANCH   1  21
ATOM     21  C   UNL A   1      34.020  36.946  32.419  1.00  0.00     0.202 C 
BRANCH  21  22
ATOM     22  C   UNL A   1      32.822  36.307  31.725  1.00  0.00     0.261 C 
BRANCH  22  23
ATOM     23  O   UNL A   1      32.937  34.954  31.208  1.00  0.00    -0.460 OA
BRANCH  23  24
ATOM     24  C   UNL A   1      33.249  34.715  29.905  1.00  0.00     0.338 C 
ATOM     25  O   UNL A   1      32.611  35.148  28.960  1.00  0.00    -0.246 OA
BRANCH  24  26
ATOM     26  C   UNL A   1      34.476  33.891  29.770  1.00  0.00     0.060 A 
ATOM     27  C   UNL A   1      34.768  32.890  30.704  1.00  0.00     0.016 A 
ATOM     28  C   UNL A   1      35.447  34.279  28.859  1.00  0.00     0.016 A 
ATOM     29  C   UNL A   1      36.105  32.478  30.885  1.00  0.00     0.010 A 
ATOM     30  C   UNL A   1      36.766  33.904  29.087  1.00  0.00     0.010 A 
ATOM     31  C   UNL A   1      37.152  33.073  30.159  1.00  0.00    -0.014 A 
BRANCH  31  32
ATOM     32  C   UNL A   1      38.517  32.455  30.057  1.00  0.00     0.031 A 
ATOM     33  C   UNL A   1      38.244  31.104  29.525  1.00  0.00     0.074 A 
ATOM     34  C   UNL A   1      39.812  32.840  30.295  1.00  0.00     0.049 A 
ATOM     35  N   UNL A   1      38.146  30.063  30.286  1.00  0.00    -0.248 NA
ATOM     36  C   UNL A   1      37.662  30.911  28.185  1.00  0.00     0.031 C 
ATOM     37  C   UNL A   1      40.325  34.035  30.937  1.00  0.00     0.029 A 
ATOM     38  N   UNL A   1      41.025  32.228  29.945  1.00  0.00    -0.354 N 
ATOM     39  C   UNL A   1      37.867  29.034  29.410  1.00  0.00     0.074 A 
ATOM     40  C   UNL A   1      37.259  29.639  28.260  1.00  0.00     0.031 C 
ATOM     41  C   UNL A   1      41.621  34.283  30.645  1.00  0.00     0.029 A 
ATOM     42  C   UNL A   1      42.145  33.123  29.967  1.00  0.00     0.049 A 
ATOM     43  H   UNL A   1      41.100  31.275  29.708  1.00  0.00     0.167 HD
ATOM     44  C   UNL A   1      38.667  27.940  29.480  1.00  0.00     0.037 A 
ATOM     45  C   UNL A   1      43.476  32.890  29.748  1.00  0.00     0.037 A 
ATOM     46  C   UNL A   1      39.326  27.880  30.766  1.00  0.00     0.049 A 
ATOM     47  C   UNL A   1      43.692  31.485  30.106  1.00  0.00     0.074 A 
ATOM     48  C   UNL A   1      38.948  27.694  32.081  1.00  0.00     0.029 A 
ATOM     49  N   UNL A   1      40.511  28.563  30.794  1.00  0.00    -0.354 N 
ATOM     50  N   UNL A   1      43.713  31.073  31.340  1.00  0.00    -0.248 NA
ATOM     51  C   UNL A   1      43.474  30.474  29.086  1.00  0.00     0.031 C 
ATOM     52  C   UNL A   1      39.960  28.294  32.891  1.00  0.00     0.029 A 
ATOM     53  C   UNL A   1      40.972  28.765  32.062  1.00  0.00     0.049 A 
ATOM     54  H   UNL A   1      40.982  28.874  29.987  1.00  0.00     0.167 HD
ATOM     55  C   UNL A   1      43.020  29.885  31.278  1.00  0.00     0.074 A 
ATOM     56  C   UNL A   1      43.056  29.482  29.872  1.00  0.00     0.031 C 
ATOM     57  C   UNL A   1      42.160  29.550  32.280  1.00  0.00     0.037 A 
BRANCH  44  58
ATOM     58  C   UNL A   1      39.311  27.337  28.250  1.00  0.00     0.064 A 
ATOM     59  C   UNL A   1      39.318  25.939  28.123  1.00  0.00     0.173 A 
ATOM     60  C   UNL A   1      40.168  28.029  27.359  1.00  0.00     0.173 A 
ATOM     61  F   UNL A   1      38.594  25.180  28.958  1.00  0.00    -0.203 F 
ATOM     62  C   UNL A   1      40.137  25.291  27.194  1.00  0.00     0.198 A 
ATOM     63  C   UNL A   1      40.935  27.386  26.396  1.00  0.00     0.198 A 
ATOM     64  F   UNL A   1      40.409  29.340  27.450  1.00  0.00    -0.203 F 
ATOM     65  F   UNL A   1      40.193  23.953  27.179  1.00  0.00    -0.200 F 
ATOM     66  C   UNL A   1      40.938  26.014  26.327  1.00  0.00     0.200 A 
ATOM     67  F   UNL A   1      41.733  28.112  25.600  1.00  0.00    -0.200 F 
ATOM     68  F   UNL A   1      41.754  25.394  25.466  1.00  0.00    -0.200 F 
ENDBRANCH  44  58
BRANCH  45  69
ATOM     69  C   UNL A   1      44.615  33.713  29.228  1.00  0.00     0.064 A 
ATOM     70  C   UNL A   1      44.836  33.918  27.849  1.00  0.00     0.173 A 
ATOM     71  C   UNL A   1      45.291  34.599  30.072  1.00  0.00     0.173 A 
ATOM     72  F   UNL A   1      44.252  33.122  26.943  1.00  0.00    -0.203 F 
ATOM     73  C   UNL A   1      45.592  34.997  27.361  1.00  0.00     0.198 A 
ATOM     74  C   UNL A   1      46.056  35.672  29.590  1.00  0.00     0.198 A 
ATOM     75  F   UNL A   1      45.136  34.483  31.387  1.00  0.00    -0.203 F 
ATOM     76  F   UNL A   1      45.696  35.204  26.041  1.00  0.00    -0.200 F 
ATOM     77  C   UNL A   1      46.174  35.892  28.235  1.00  0.00     0.200 A 
ATOM     78  F   UNL A   1      46.626  36.536  30.441  1.00  0.00    -0.200 F 
ATOM     79  F   UNL A   1      46.814  36.981  27.781  1.00  0.00    -0.200 F 
ENDBRANCH  45  69
BRANCH  57  80
ATOM     80  C   UNL A   1      42.441  30.084  33.647  1.00  0.00     0.064 A 
ATOM     81  C   UNL A   1      41.958  31.294  34.168  1.00  0.00     0.173 A 
ATOM     82  C   UNL A   1      43.218  29.278  34.489  1.00  0.00     0.173 A 
ATOM     83  F   UNL A   1      41.162  32.091  33.442  1.00  0.00    -0.203 F 
ATOM     84  C   UNL A   1      42.275  31.688  35.471  1.00  0.00     0.198 A 
ATOM     85  C   UNL A   1      43.506  29.656  35.794  1.00  0.00     0.198 A 
ATOM     86  F   UNL A   1      43.683  28.098  34.046  1.00  0.00    -0.203 F 
ATOM     87  F   UNL A   1      41.825  32.857  35.951  1.00  0.00    -0.200 F 
ATOM     88  C   UNL A   1      43.043  30.866  36.282  1.00  0.00     0.200 A 
ATOM     89  F   UNL A   1      44.220  28.838  36.580  1.00  0.00    -0.200 F 
ATOM     90  F   UNL A   1      43.331  31.232  37.539  1.00  0.00    -0.200 F 
ENDBRANCH  57  80
ENDBRANCH  31  32
ENDBRANCH  24  26
ENDBRANCH  23  24
ENDBRANCH  22  23
ENDBRANCH  21  22
ENDBRANCH   1  21
TORSDOF 16
ENDMDL
MODEL 3
REMARK VINA RESULT:     -11.1      8.183     13.671
REMARK SMILES Cc1ccc(C)c(NC(=O)/C=C\C(=O)OCCOCCOC(=O)c2ccc(-c3c4nc(c(-c5c(F)c(F)c(F)c(F)c5F)c5ccc([nH]5)c(-c5c(F)c(F)c(F)c(F)c5F)c5nc(c(-c6c(F)c(F)c(F)c(F)c6F)c6ccc3[nH]6)C=C5)C=C4)cc2)c1
REMARK SMILES IDX 18 1 17 2 16 3 15 4 13 5 14 6 12 7 11 8 9 9 8 10 10 12 7 13
REMARK SMILES IDX 1 14 2 15 3 16 87 17 4 18 5 19 6 20 19 21 20 22 21 23 22 24
REMARK SMILES IDX 23 25 24 26 25 27 86 28 26 29 85 30 27 31 28 32 29 33 79 34
REMARK SMILES IDX 30 35 84 36 78 37 80 38 31 39 83 40 77 41 76 42 32 44 64 45
REMARK SMILES IDX 44 46 63 47 45 48 48 49 62 50 81 51 46 52 47 53 61 55 82 56
REMARK SMILES IDX 49 57 33 58 34 59 42 60 35 61 36 62 40 63 43 64 37 65 38 66
REMARK SMILES IDX 41 67 39 68 65 69 66 70 74 71 67 72 68 73 72 74 75 75 69 76
REMARK SMILES IDX 70 77 73 78 71 79 50 80 51 81 59 82 52 83 53 84 57 85 60 86
REMARK SMILES IDX 54 87 55 88 58 89 56 90
REMARK H PARENT 8 11 80 43 48 54
REMARK Flexibility Score: inf
ROOT
ATOM      1  O   UNL A   1      46.027  20.691  38.658  1.00  0.00    -0.374 OA
ENDROOT
BRANCH   1   2
ATOM      2  C   UNL A   1      46.800  19.585  38.215  1.00  0.00     0.202 C 
BRANCH   2   3
ATOM      3  C   UNL A   1      46.451  18.336  39.045  1.00  0.00     0.261 C 
BRANCH   3   4
ATOM      4  O   UNL A   1      45.104  17.936  38.726  1.00  0.00    -0.460 OA
BRANCH   4   5
ATOM      5  C   UNL A   1      44.718  16.730  39.248  1.00  0.00     0.331 C 
ATOM      6  O   UNL A   1      44.087  15.901  38.658  1.00  0.00    -0.247 OA
BRANCH   5   7
ATOM      7  C   UNL A   1      45.386  16.650  40.595  1.00  0.00     0.099 C 
ATOM      8  C   UNL A   1      45.100  16.442  41.897  1.00  0.00     0.079 C 
BRANCH   8   9
ATOM      9  C   UNL A   1      43.928  16.403  42.833  1.00  0.00     0.248 C 
ATOM     10  N   UNL A   1      43.366  15.297  43.433  1.00  0.00    -0.322 N 
ATOM     11  H   UNL A   1      43.172  15.491  44.378  1.00  0.00     0.170 HD
ATOM     12  O   UNL A   1      43.695  17.484  43.396  1.00  0.00    -0.270 OA
BRANCH  10  13
ATOM     13  C   UNL A   1      42.976  13.960  43.122  1.00  0.00     0.044 A 
ATOM     14  C   UNL A   1      43.263  10.511  44.866  1.00  0.00     0.044 C 
ATOM     15  C   UNL A   1      42.891  11.605  43.910  1.00  0.00    -0.049 A 
ATOM     16  C   UNL A   1      41.900  11.315  42.987  1.00  0.00     0.004 A 
ATOM     17  C   UNL A   1      43.409  12.926  43.986  1.00  0.00     0.029 A 
ATOM     18  C   UNL A   1      41.515  12.297  42.103  1.00  0.00     0.006 A 
ATOM     19  C   UNL A   1      42.068  13.591  42.143  1.00  0.00    -0.027 A 
ATOM     20  C   UNL A   1      41.600  14.556  41.143  1.00  0.00     0.046 C 
ENDBRANCH  10  13
ENDBRANCH   8   9
ENDBRANCH   5   7
ENDBRANCH   4   5
ENDBRANCH   3   4
ENDBRANCH   2   3
ENDBRANCH   1   2
BRANCH   1  21
ATOM     21  C   UNL A   1      46.291  21.960  38.061  1.00  0.00     0.202 C 
BRANCH  21  22
ATOM     22  C   UNL A   1      45.653  23.198  38.682  1.00  0.00     0.261 C 
BRANCH  22  23
ATOM     23  O   UNL A   1      44.977  24.156  37.826  1.00  0.00    -0.460 OA
BRANCH  23  24
ATOM     24  C   UNL A   1      45.671  25.063  37.086  1.00  0.00     0.338 C 
ATOM     25  O   UNL A   1      46.463  25.863  37.555  1.00  0.00    -0.246 OA
BRANCH  24  26
ATOM     26  C   UNL A   1      45.374  24.943  35.637  1.00  0.00     0.060 A 
ATOM     27  C   UNL A   1      45.748  23.797  34.926  1.00  0.00     0.016 A 
ATOM     28  C   UNL A   1      44.947  26.068  34.946  1.00  0.00     0.016 A 
ATOM     29  C   UNL A   1      45.940  23.877  33.530  1.00  0.00     0.010 A 
ATOM     30  C   UNL A   1      45.194  26.146  33.580  1.00  0.00     0.010 A 
ATOM     31  C   UNL A   1      45.785  25.096  32.846  1.00  0.00    -0.014 A 
BRANCH  31  32
ATOM     32  C   UNL A   1      45.641  25.171  31.353  1.00  0.00     0.031 A 
ATOM     33  C   UNL A   1      46.751  26.058  30.945  1.00  0.00     0.074 A 
ATOM     34  C   UNL A   1      44.818  24.633  30.397  1.00  0.00     0.049 A 
ATOM     35  N   UNL A   1      46.589  27.324  30.734  1.00  0.00    -0.248 NA
ATOM     36  C   UNL A   1      48.158  25.670  31.151  1.00  0.00     0.031 C 
ATOM     37  C   UNL A   1      43.597  23.865  30.545  1.00  0.00     0.029 A 
ATOM     38  N   UNL A   1      44.933  24.614  28.999  1.00  0.00    -0.354 N 
ATOM     39  C   UNL A   1      47.852  27.771  30.405  1.00  0.00     0.074 A 
ATOM     40  C   UNL A   1      48.774  26.846  30.998  1.00  0.00     0.031 C 
ATOM     41  C   UNL A   1      43.272  23.160  29.439  1.00  0.00     0.029 A 
ATOM     42  C   UNL A   1      44.138  23.599  28.372  1.00  0.00     0.049 A 
ATOM     43  H   UNL A   1      45.505  25.239  28.496  1.00  0.00     0.167 HD
ATOM     44  C   UNL A   1      47.967  28.474  29.250  1.00  0.00     0.037 A 
ATOM     45  C   UNL A   1      43.943  23.311  27.048  1.00  0.00     0.037 A 
ATOM     46  C   UNL A   1      46.684  29.016  28.860  1.00  0.00     0.049 A 
ATOM     47  C   UNL A   1      44.157  24.574  26.337  1.00  0.00     0.074 A 
ATOM     48  C   UNL A   1      45.801  29.958  29.351  1.00  0.00     0.029 A 
ATOM     49  N   UNL A   1      45.950  28.158  28.089  1.00  0.00    -0.354 N 
ATOM     50  N   UNL A   1      43.294  25.547  26.362  1.00  0.00    -0.248 NA
ATOM     51  C   UNL A   1      45.511  24.915  25.935  1.00  0.00     0.031 C 
ATOM     52  C   UNL A   1      44.512  29.623  28.836  1.00  0.00     0.029 A 
ATOM     53  C   UNL A   1      44.643  28.534  27.983  1.00  0.00     0.049 A 
ATOM     54  H   UNL A   1      46.324  27.356  27.657  1.00  0.00     0.167 HD
ATOM     55  C   UNL A   1      44.093  26.662  26.479  1.00  0.00     0.074 A 
ATOM     56  C   UNL A   1      45.422  26.242  26.035  1.00  0.00     0.031 C 
ATOM     57  C   UNL A   1      43.706  27.691  27.284  1.00  0.00     0.037 A 
BRANCH  44  58
ATOM     58  C   UNL A   1      49.016  28.142  28.210  1.00  0.00     0.064 A 
ATOM     59  C   UNL A   1      49.803  29.188  27.705  1.00  0.00     0.173 A 
ATOM     60  C   UNL A   1      49.081  26.929  27.480  1.00  0.00     0.173 A 
ATOM     61  F   UNL A   1      49.769  30.400  28.279  1.00  0.00    -0.203 F 
ATOM     62  C   UNL A   1      50.574  29.034  26.549  1.00  0.00     0.198 A 
ATOM     63  C   UNL A   1      49.894  26.761  26.366  1.00  0.00     0.198 A 
ATOM     64  F   UNL A   1      48.278  25.889  27.720  1.00  0.00    -0.203 F 
ATOM     65  F   UNL A   1      51.226  30.088  26.041  1.00  0.00    -0.200 F 
ATOM     66  C   UNL A   1      50.624  27.820  25.886  1.00  0.00     0.200 A 
ATOM     67  F   UNL A   1      49.888  25.585  25.721  1.00  0.00    -0.200 F 
ATOM     68  F   UNL A   1      51.328  27.684  24.755  1.00  0.00    -0.200 F 
ENDBRANCH  44  58
BRANCH  45  69
ATOM     69  C   UNL A   1      43.622  22.064  26.281  1.00  0.00     0.064 A 
ATOM     70  C   UNL A   1      44.621  21.253  25.701  1.00  0.00     0.173 A 
ATOM     71  C   UNL A   1      42.368  21.459  26.404  1.00  0.00     0.173 A 
ATOM     72  F   UNL A   1      45.861  21.728  25.519  1.00  0.00    -0.203 F 
ATOM     73  C   UNL A   1      44.397  19.905  25.373  1.00  0.00     0.198 A 
ATOM     74  C   UNL A   1      42.136  20.117  26.069  1.00  0.00     0.198 A 
ATOM     75  F   UNL A   1      41.370  22.150  26.946  1.00  0.00    -0.203 F 
ATOM     76  F   UNL A   1      45.403  19.148  24.913  1.00  0.00    -0.200 F 
ATOM     77  C   UNL A   1      43.162  19.330  25.589  1.00  0.00     0.200 A 
ATOM     78  F   UNL A   1      40.934  19.564  26.272  1.00  0.00    -0.200 F 
ATOM     79  F   UNL A   1      42.964  18.021  25.374  1.00  0.00    -0.200 F 
ENDBRANCH  45  69
BRANCH  57  80
ATOM     80  C   UNL A   1      42.241  27.900  27.493  1.00  0.00     0.064 A 
ATOM     81  C   UNL A   1      41.391  28.633  26.650  1.00  0.00     0.173 A 
ATOM     82  C   UNL A   1      41.669  27.269  28.605  1.00  0.00     0.173 A 
ATOM     83  F   UNL A   1      41.856  29.217  25.537  1.00  0.00    -0.203 F 
ATOM     84  C   UNL A   1      40.029  28.751  26.937  1.00  0.00     0.198 A 
ATOM     85  C   UNL A   1      40.309  27.361  28.872  1.00  0.00     0.198 A 
ATOM     86  F   UNL A   1      42.435  26.535  29.428  1.00  0.00    -0.203 F 
ATOM     87  F   UNL A   1      39.229  29.471  26.137  1.00  0.00    -0.200 F 
ATOM     88  C   UNL A   1      39.491  28.111  28.044  1.00  0.00     0.200 A 
ATOM     89  F   UNL A   1      39.794  26.711  29.924  1.00  0.00    -0.200 F 
ATOM     90  F   UNL A   1      38.180  28.205  28.310  1.00  0.00    -0.200 F 
ENDBRANCH  57  80
ENDBRANCH  31  32
ENDBRANCH  24  26
ENDBRANCH  23  24
ENDBRANCH  22  23
ENDBRANCH  21  22
ENDBRANCH   1  21
TORSDOF 16
ENDMDL
