MODEL 1
REMARK VINA RESULT:     -10.5      0.000      0.000
REMARK SMILES O=C(C[C@H](c1ccsc1)n1cccc1)OCCOCCOC(=O)c1ccc(-c2c3nc(c(-c4c(F)c(F)c(F)c(F)c4F)c4ccc([nH]4)c(-c4c(F)c(F)c(F)c(F)c4F)c4nc(c(-c5c(F)c(F)c(F)c(F)c5F)c5ccc2[nH]5)C=C4)C=C3)cc1
REMARK SMILES IDX 18 1 17 2 16 3 15 4 2 5 1 6 3 7 4 8 10 9 11 10 14 11 12 12
REMARK SMILES IDX 13 13 5 14 6 15 9 16 7 17 8 18 19 19 20 20 21 21 22 22 23 23
REMARK SMILES IDX 24 24 25 25 86 26 26 27 85 28 27 29 28 30 29 31 79 32 30 33
REMARK SMILES IDX 84 34 78 35 80 36 31 37 83 38 77 39 76 40 32 42 64 43 44 44
REMARK SMILES IDX 63 45 45 46 48 47 62 48 81 49 46 50 47 51 61 53 82 54 49 55
REMARK SMILES IDX 33 56 34 57 42 58 35 59 36 60 40 61 43 62 37 63 38 64 41 65
REMARK SMILES IDX 39 66 65 67 66 68 74 69 67 70 68 71 72 72 75 73 69 74 70 75
REMARK SMILES IDX 73 76 71 77 50 78 51 79 59 80 52 81 53 82 57 83 60 84 54 85
REMARK SMILES IDX 55 86 58 87 56 88
REMARK H PARENT 80 41 48 52
REMARK Flexibility Score: inf
ROOT
ATOM      1  O   UNL A   1      38.530  22.540  26.110  1.00  0.00    -0.374 OA
ENDROOT
BRANCH   1   2
ATOM      2  C   UNL A   1      37.643  23.656  26.138  1.00  0.00     0.202 C 
BRANCH   2   3
ATOM      3  C   UNL A   1      36.256  23.453  25.548  1.00  0.00     0.261 C 
BRANCH   3   4
ATOM      4  O   UNL A   1      35.241  23.123  26.506  1.00  0.00    -0.463 OA
BRANCH   4   5
ATOM      5  C   UNL A   1      34.631  21.925  26.635  1.00  0.00     0.308 C 
ATOM      6  O   UNL A   1      34.199  21.582  27.734  1.00  0.00    -0.252 OA
BRANCH   5   7
ATOM      7  C   UNL A   1      34.586  20.977  25.470  1.00  0.00     0.153 C 
BRANCH   7   8
ATOM      8  C   UNL A   1      33.193  20.605  25.009  1.00  0.00     0.128 C 
BRANCH   8   9
ATOM      9  N   UNL A   1      32.591  21.748  24.296  1.00  0.00    -0.346 N 
ATOM     10  C   UNL A   1      31.492  22.439  24.764  1.00  0.00     0.086 A 
ATOM     11  C   UNL A   1      33.142  22.451  23.255  1.00  0.00     0.086 A 
ATOM     12  C   UNL A   1      31.320  23.557  23.981  1.00  0.00     0.019 A 
ATOM     13  C   UNL A   1      32.362  23.563  23.026  1.00  0.00     0.019 A 
ENDBRANCH   8   9
BRANCH   8  14
ATOM     14  C   UNL A   1      33.145  19.299  24.271  1.00  0.00    -0.014 A 
ATOM     15  C   UNL A   1      32.306  19.000  23.147  1.00  0.00     0.017 A 
ATOM     16  C   UNL A   1      34.031  18.262  24.507  1.00  0.00     0.070 A 
ATOM     17  C   UNL A   1      32.600  17.783  22.577  1.00  0.00     0.065 A 
ATOM     18  S   UNL A   1      33.859  16.974  23.399  1.00  0.00    -0.152 S 
ENDBRANCH   8  14
ENDBRANCH   7   8
ENDBRANCH   5   7
ENDBRANCH   4   5
ENDBRANCH   3   4
ENDBRANCH   2   3
ENDBRANCH   1   2
BRANCH   1  19
ATOM     19  C   UNL A   1      38.156  21.402  25.321  1.00  0.00     0.202 C 
BRANCH  19  20
ATOM     20  C   UNL A   1      39.080  20.203  25.416  1.00  0.00     0.261 C 
BRANCH  20  21
ATOM     21  O   UNL A   1      40.115  20.503  26.334  1.00  0.00    -0.460 OA
BRANCH  21  22
ATOM     22  C   UNL A   1      41.240  19.815  26.114  1.00  0.00     0.338 C 
ATOM     23  O   UNL A   1      41.352  18.650  25.706  1.00  0.00    -0.246 OA
BRANCH  22  24
ATOM     24  C   UNL A   1      42.382  20.628  26.490  1.00  0.00     0.060 A 
ATOM     25  C   UNL A   1      42.323  21.174  27.775  1.00  0.00     0.016 A 
ATOM     26  C   UNL A   1      43.151  21.175  25.455  1.00  0.00     0.016 A 
ATOM     27  C   UNL A   1      42.759  22.460  27.935  1.00  0.00     0.010 A 
ATOM     28  C   UNL A   1      43.545  22.475  25.600  1.00  0.00     0.010 A 
ATOM     29  C   UNL A   1      43.271  23.119  26.815  1.00  0.00    -0.014 A 
BRANCH  29  30
ATOM     30  C   UNL A   1      43.643  24.518  26.944  1.00  0.00     0.031 A 
ATOM     31  C   UNL A   1      42.407  25.394  26.999  1.00  0.00     0.074 A 
ATOM     32  C   UNL A   1      44.982  24.748  27.049  1.00  0.00     0.049 A 
ATOM     33  N   UNL A   1      42.313  26.683  27.023  1.00  0.00    -0.248 NA
ATOM     34  C   UNL A   1      41.060  24.745  27.042  1.00  0.00     0.031 C 
ATOM     35  C   UNL A   1      46.029  23.705  26.964  1.00  0.00     0.029 A 
ATOM     36  N   UNL A   1      45.736  25.881  27.252  1.00  0.00    -0.354 N 
ATOM     37  C   UNL A   1      40.978  26.977  27.332  1.00  0.00     0.074 A 
ATOM     38  C   UNL A   1      40.229  25.764  27.234  1.00  0.00     0.031 C 
ATOM     39  C   UNL A   1      47.259  24.254  27.035  1.00  0.00     0.029 A 
ATOM     40  C   UNL A   1      47.139  25.686  27.218  1.00  0.00     0.049 A 
ATOM     41  H   UNL A   1      45.330  26.764  27.408  1.00  0.00     0.167 HD
ATOM     42  C   UNL A   1      40.586  28.184  27.809  1.00  0.00     0.037 A 
ATOM     43  C   UNL A   1      48.131  26.621  27.319  1.00  0.00     0.037 A 
ATOM     44  C   UNL A   1      41.659  29.117  27.788  1.00  0.00     0.049 A 
ATOM     45  C   UNL A   1      47.452  27.844  27.782  1.00  0.00     0.074 A 
ATOM     46  C   UNL A   1      42.283  29.758  26.750  1.00  0.00     0.029 A 
ATOM     47  N   UNL A   1      42.455  29.198  28.904  1.00  0.00    -0.354 N 
ATOM     48  N   UNL A   1      46.958  27.995  28.976  1.00  0.00    -0.248 NA
ATOM     49  C   UNL A   1      47.229  28.946  26.841  1.00  0.00     0.031 C 
ATOM     50  C   UNL A   1      43.624  29.881  27.169  1.00  0.00     0.029 A 
ATOM     51  C   UNL A   1      43.747  29.419  28.483  1.00  0.00     0.049 A 
ATOM     52  H   UNL A   1      42.155  29.112  29.838  1.00  0.00     0.167 HD
ATOM     53  C   UNL A   1      46.087  29.047  28.810  1.00  0.00     0.074 A 
ATOM     54  C   UNL A   1      46.515  29.751  27.623  1.00  0.00     0.031 C 
ATOM     55  C   UNL A   1      44.832  28.961  29.323  1.00  0.00     0.037 A 
BRANCH  42  56
ATOM     56  C   UNL A   1      39.318  28.556  28.491  1.00  0.00     0.064 A 
ATOM     57  C   UNL A   1      38.496  29.526  27.886  1.00  0.00     0.173 A 
ATOM     58  C   UNL A   1      39.066  28.254  29.838  1.00  0.00     0.173 A 
ATOM     59  F   UNL A   1      38.662  29.849  26.593  1.00  0.00    -0.203 F 
ATOM     60  C   UNL A   1      37.545  30.231  28.615  1.00  0.00     0.198 A 
ATOM     61  C   UNL A   1      38.082  28.935  30.555  1.00  0.00     0.198 A 
ATOM     62  F   UNL A   1      39.826  27.373  30.504  1.00  0.00    -0.203 F 
ATOM     63  F   UNL A   1      36.866  31.229  28.033  1.00  0.00    -0.200 F 
ATOM     64  C   UNL A   1      37.350  29.946  29.954  1.00  0.00     0.200 A 
ATOM     65  F   UNL A   1      37.898  28.659  31.854  1.00  0.00    -0.200 F 
ATOM     66  F   UNL A   1      36.483  30.670  30.675  1.00  0.00    -0.200 F 
ENDBRANCH  42  56
BRANCH  43  67
ATOM     67  C   UNL A   1      49.621  26.710  27.082  1.00  0.00     0.064 A 
ATOM     68  C   UNL A   1      50.255  26.774  25.834  1.00  0.00     0.173 A 
ATOM     69  C   UNL A   1      50.500  26.883  28.189  1.00  0.00     0.173 A 
ATOM     70  F   UNL A   1      49.586  26.564  24.697  1.00  0.00    -0.203 F 
ATOM     71  C   UNL A   1      51.622  27.078  25.702  1.00  0.00     0.198 A 
ATOM     72  C   UNL A   1      51.845  27.235  28.058  1.00  0.00     0.198 A 
ATOM     73  F   UNL A   1      50.077  26.739  29.452  1.00  0.00    -0.203 F 
ATOM     74  F   UNL A   1      52.174  27.138  24.481  1.00  0.00    -0.200 F 
ATOM     75  C   UNL A   1      52.405  27.348  26.809  1.00  0.00     0.200 A 
ATOM     76  F   UNL A   1      52.573  27.495  29.153  1.00  0.00    -0.200 F 
ATOM     77  F   UNL A   1      53.687  27.712  26.674  1.00  0.00    -0.200 F 
ENDBRANCH  43  67
BRANCH  55  78
ATOM     78  C   UNL A   1      44.726  28.004  30.496  1.00  0.00     0.064 A 
ATOM     79  C   UNL A   1      45.279  28.354  31.739  1.00  0.00     0.173 A 
ATOM     80  C   UNL A   1      44.219  26.698  30.396  1.00  0.00     0.173 A 
ATOM     81  F   UNL A   1      45.766  29.590  31.930  1.00  0.00    -0.203 F 
ATOM     82  C   UNL A   1      45.347  27.443  32.798  1.00  0.00     0.198 A 
ATOM     83  C   UNL A   1      44.279  25.787  31.452  1.00  0.00     0.198 A 
ATOM     84  F   UNL A   1      43.639  26.277  29.273  1.00  0.00    -0.203 F 
ATOM     85  F   UNL A   1      45.890  27.814  33.965  1.00  0.00    -0.200 F 
ATOM     86  C   UNL A   1      44.851  26.158  32.652  1.00  0.00     0.200 A 
ATOM     87  F   UNL A   1      43.776  24.552  31.300  1.00  0.00    -0.200 F 
ATOM     88  F   UNL A   1      44.911  25.285  33.668  1.00  0.00    -0.200 F 
ENDBRANCH  55  78
ENDBRANCH  29  30
ENDBRANCH  22  24
ENDBRANCH  21  22
ENDBRANCH  20  21
ENDBRANCH  19  20
ENDBRANCH   1  19
TORSDOF 17
ENDMDL
MODEL 2
REMARK VINA RESULT:     -10.3      2.016      3.074
REMARK SMILES O=C(C[C@H](c1ccsc1)n1cccc1)OCCOCCOC(=O)c1ccc(-c2c3nc(c(-c4c(F)c(F)c(F)c(F)c4F)c4ccc([nH]4)c(-c4c(F)c(F)c(F)c(F)c4F)c4nc(c(-c5c(F)c(F)c(F)c(F)c5F)c5ccc2[nH]5)C=C4)C=C3)cc1
REMARK SMILES IDX 18 1 17 2 16 3 15 4 2 5 1 6 3 7 4 8 10 9 11 10 14 11 12 12
REMARK SMILES IDX 13 13 5 14 6 15 9 16 7 17 8 18 19 19 20 20 21 21 22 22 23 23
REMARK SMILES IDX 24 24 25 25 86 26 26 27 85 28 27 29 28 30 29 31 79 32 30 33
REMARK SMILES IDX 84 34 78 35 80 36 31 37 83 38 77 39 76 40 32 42 64 43 44 44
REMARK SMILES IDX 63 45 45 46 48 47 62 48 81 49 46 50 47 51 61 53 82 54 49 55
REMARK SMILES IDX 33 56 34 57 42 58 35 59 36 60 40 61 43 62 37 63 38 64 41 65
REMARK SMILES IDX 39 66 65 67 66 68 74 69 67 70 68 71 72 72 75 73 69 74 70 75
REMARK SMILES IDX 73 76 71 77 50 78 51 79 59 80 52 81 53 82 57 83 60 84 54 85
REMARK SMILES IDX 55 86 58 87 56 88
REMARK H PARENT 80 41 48 52
REMARK Flexibility Score: inf
ROOT
ATOM      1  O   UNL A   1      38.384  22.171  25.963  1.00  0.00    -0.374 OA
ENDROOT
BRANCH   1   2
ATOM      2  C   UNL A   1      37.494  23.270  25.781  1.00  0.00     0.202 C 
BRANCH   2   3
ATOM      3  C   UNL A   1      36.065  22.945  25.374  1.00  0.00     0.261 C 
BRANCH   3   4
ATOM      4  O   UNL A   1      35.685  23.436  24.081  1.00  0.00    -0.463 OA
BRANCH   4   5
ATOM      5  C   UNL A   1      34.740  24.369  23.834  1.00  0.00     0.308 C 
ATOM      6  O   UNL A   1      34.324  24.518  22.686  1.00  0.00    -0.252 OA
BRANCH   5   7
ATOM      7  C   UNL A   1      34.292  25.293  24.932  1.00  0.00     0.153 C 
BRANCH   7   8
ATOM      8  C   UNL A   1      32.845  25.728  24.841  1.00  0.00     0.128 C 
BRANCH   8   9
ATOM      9  N   UNL A   1      31.982  24.685  25.429  1.00  0.00    -0.346 N 
ATOM     10  C   UNL A   1      31.239  23.802  24.673  1.00  0.00     0.086 A 
ATOM     11  C   UNL A   1      31.976  24.262  26.733  1.00  0.00     0.086 A 
ATOM     12  C   UNL A   1      30.721  22.844  25.515  1.00  0.00     0.019 A 
ATOM     13  C   UNL A   1      31.186  23.136  26.818  1.00  0.00     0.019 A 
ENDBRANCH   8   9
BRANCH   8  14
ATOM     14  C   UNL A   1      32.612  27.115  25.365  1.00  0.00    -0.014 A 
ATOM     15  C   UNL A   1      31.695  28.075  24.822  1.00  0.00     0.017 A 
ATOM     16  C   UNL A   1      33.163  27.581  26.547  1.00  0.00     0.070 A 
ATOM     17  C   UNL A   1      31.577  29.197  25.610  1.00  0.00     0.065 A 
ATOM     18  S   UNL A   1      32.582  29.125  26.987  1.00  0.00    -0.152 S 
ENDBRANCH   8  14
ENDBRANCH   7   8
ENDBRANCH   5   7
ENDBRANCH   4   5
ENDBRANCH   3   4
ENDBRANCH   2   3
ENDBRANCH   1   2
BRANCH   1  19
ATOM     19  C   UNL A   1      38.153  20.983  25.192  1.00  0.00     0.202 C 
BRANCH  19  20
ATOM     20  C   UNL A   1      39.113  19.837  25.447  1.00  0.00     0.261 C 
BRANCH  20  21
ATOM     21  O   UNL A   1      40.161  20.302  26.277  1.00  0.00    -0.460 OA
BRANCH  21  22
ATOM     22  C   UNL A   1      41.302  19.621  26.129  1.00  0.00     0.338 C 
ATOM     23  O   UNL A   1      41.444  18.440  25.781  1.00  0.00    -0.246 OA
BRANCH  22  24
ATOM     24  C   UNL A   1      42.419  20.469  26.505  1.00  0.00     0.060 A 
ATOM     25  C   UNL A   1      42.322  21.047  27.773  1.00  0.00     0.016 A 
ATOM     26  C   UNL A   1      43.197  21.004  25.471  1.00  0.00     0.016 A 
ATOM     27  C   UNL A   1      42.728  22.346  27.906  1.00  0.00     0.010 A 
ATOM     28  C   UNL A   1      43.562  22.315  25.588  1.00  0.00     0.010 A 
ATOM     29  C   UNL A   1      43.249  22.986  26.779  1.00  0.00    -0.014 A 
BRANCH  29  30
ATOM     30  C   UNL A   1      43.590  24.396  26.877  1.00  0.00     0.031 A 
ATOM     31  C   UNL A   1      42.333  25.243  26.924  1.00  0.00     0.074 A 
ATOM     32  C   UNL A   1      44.924  24.659  26.966  1.00  0.00     0.049 A 
ATOM     33  N   UNL A   1      42.210  26.530  26.923  1.00  0.00    -0.248 NA
ATOM     34  C   UNL A   1      41.003  24.564  26.991  1.00  0.00     0.031 C 
ATOM     35  C   UNL A   1      45.994  23.638  26.894  1.00  0.00     0.029 A 
ATOM     36  N   UNL A   1      45.652  25.812  27.140  1.00  0.00    -0.354 N 
ATOM     37  C   UNL A   1      40.870  26.799  27.237  1.00  0.00     0.074 A 
ATOM     38  C   UNL A   1      40.149  25.568  27.170  1.00  0.00     0.031 C 
ATOM     39  C   UNL A   1      47.211  24.217  26.944  1.00  0.00     0.029 A 
ATOM     40  C   UNL A   1      47.059  25.649  27.098  1.00  0.00     0.049 A 
ATOM     41  H   UNL A   1      45.227  26.689  27.282  1.00  0.00     0.167 HD
ATOM     42  C   UNL A   1      40.454  28.006  27.693  1.00  0.00     0.037 A 
ATOM     43  C   UNL A   1      48.030  26.609  27.173  1.00  0.00     0.037 A 
ATOM     44  C   UNL A   1      41.505  28.963  27.644  1.00  0.00     0.049 A 
ATOM     45  C   UNL A   1      47.326  27.825  27.616  1.00  0.00     0.074 A 
ATOM     46  C   UNL A   1      42.106  29.597  26.589  1.00  0.00     0.029 A 
ATOM     47  N   UNL A   1      42.307  29.085  28.753  1.00  0.00    -0.354 N 
ATOM     48  N   UNL A   1      46.838  27.989  28.812  1.00  0.00    -0.248 NA
ATOM     49  C   UNL A   1      47.070  28.902  26.655  1.00  0.00     0.031 C 
ATOM     50  C   UNL A   1      43.447  29.760  26.994  1.00  0.00     0.029 A 
ATOM     51  C   UNL A   1      43.590  29.327  28.317  1.00  0.00     0.049 A 
ATOM     52  H   UNL A   1      42.017  29.011  29.691  1.00  0.00     0.167 HD
ATOM     53  C   UNL A   1      45.941  29.016  28.631  1.00  0.00     0.074 A 
ATOM     54  C   UNL A   1      46.343  29.706  27.427  1.00  0.00     0.031 C 
ATOM     55  C   UNL A   1      44.693  28.912  29.156  1.00  0.00     0.037 A 
BRANCH  42  56
ATOM     56  C   UNL A   1      39.183  28.362  28.378  1.00  0.00     0.064 A 
ATOM     57  C   UNL A   1      38.398  29.394  27.830  1.00  0.00     0.173 A 
ATOM     58  C   UNL A   1      38.897  27.972  29.695  1.00  0.00     0.173 A 
ATOM     59  F   UNL A   1      38.597  29.804  26.567  1.00  0.00    -0.203 F 
ATOM     60  C   UNL A   1      37.452  30.071  28.591  1.00  0.00     0.198 A 
ATOM     61  C   UNL A   1      37.918  28.626  30.442  1.00  0.00     0.198 A 
ATOM     62  F   UNL A   1      39.623  27.026  30.309  1.00  0.00    -0.203 F 
ATOM     63  F   UNL A   1      36.809  31.125  28.071  1.00  0.00    -0.200 F 
ATOM     64  C   UNL A   1      37.223  29.697  29.903  1.00  0.00     0.200 A 
ATOM     65  F   UNL A   1      37.702  28.264  31.714  1.00  0.00    -0.200 F 
ATOM     66  F   UNL A   1      36.362  30.390  30.658  1.00  0.00    -0.200 F 
ENDBRANCH  42  56
BRANCH  43  67
ATOM     67  C   UNL A   1      49.515  26.727  26.922  1.00  0.00     0.064 A 
ATOM     68  C   UNL A   1      50.525  26.651  27.891  1.00  0.00     0.173 A 
ATOM     69  C   UNL A   1      49.999  26.786  25.583  1.00  0.00     0.173 A 
ATOM     70  F   UNL A   1      50.244  26.658  29.196  1.00  0.00    -0.203 F 
ATOM     71  C   UNL A   1      51.886  26.547  27.549  1.00  0.00     0.198 A 
ATOM     72  C   UNL A   1      51.344  26.631  25.242  1.00  0.00     0.198 A 
ATOM     73  F   UNL A   1      49.174  26.974  24.545  1.00  0.00    -0.203 F 
ATOM     74  F   UNL A   1      52.808  26.465  28.519  1.00  0.00    -0.200 F 
ATOM     75  C   UNL A   1      52.290  26.496  26.228  1.00  0.00     0.200 A 
ATOM     76  F   UNL A   1      51.699  26.581  23.950  1.00  0.00    -0.200 F 
ATOM     77  F   UNL A   1      53.578  26.319  25.908  1.00  0.00    -0.200 F 
ENDBRANCH  43  67
BRANCH  55  78
ATOM     78  C   UNL A   1      44.618  27.977  30.349  1.00  0.00     0.064 A 
ATOM     79  C   UNL A   1      45.144  28.378  31.588  1.00  0.00     0.173 A 
ATOM     80  C   UNL A   1      44.169  26.648  30.274  1.00  0.00     0.173 A 
ATOM     81  F   UNL A   1      45.574  29.638  31.756  1.00  0.00    -0.203 F 
ATOM     82  C   UNL A   1      45.242  27.493  32.667  1.00  0.00     0.198 A 
ATOM     83  C   UNL A   1      44.260  25.763  31.350  1.00  0.00     0.198 A 
ATOM     84  F   UNL A   1      43.619  26.178  29.156  1.00  0.00    -0.203 F 
ATOM     85  F   UNL A   1      45.758  27.913  33.831  1.00  0.00    -0.200 F 
ATOM     86  C   UNL A   1      44.805  26.184  32.546  1.00  0.00     0.200 A 
ATOM     87  F   UNL A   1      43.813  24.504  31.221  1.00  0.00    -0.200 F 
ATOM     88  F   UNL A   1      44.893  25.338  33.581  1.00  0.00    -0.200 F 
ENDBRANCH  55  78
ENDBRANCH  29  30
ENDBRANCH  22  24
ENDBRANCH  21  22
ENDBRANCH  20  21
ENDBRANCH  19  20
ENDBRANCH   1  19
TORSDOF 17
ENDMDL
MODEL 3
REMARK VINA RESULT:     -10.2      6.537     11.274
REMARK SMILES O=C(C[C@H](c1ccsc1)n1cccc1)OCCOCCOC(=O)c1ccc(-c2c3nc(c(-c4c(F)c(F)c(F)c(F)c4F)c4ccc([nH]4)c(-c4c(F)c(F)c(F)c(F)c4F)c4nc(c(-c5c(F)c(F)c(F)c(F)c5F)c5ccc2[nH]5)C=C4)C=C3)cc1
REMARK SMILES IDX 18 1 17 2 16 3 15 4 2 5 1 6 3 7 4 8 10 9 11 10 14 11 12 12
REMARK SMILES IDX 13 13 5 14 6 15 9 16 7 17 8 18 19 19 20 20 21 21 22 22 23 23
REMARK SMILES IDX 24 24 25 25 86 26 26 27 85 28 27 29 28 30 29 31 79 32 30 33
REMARK SMILES IDX 84 34 78 35 80 36 31 37 83 38 77 39 76 40 32 42 64 43 44 44
REMARK SMILES IDX 63 45 45 46 48 47 62 48 81 49 46 50 47 51 61 53 82 54 49 55
REMARK SMILES IDX 33 56 34 57 42 58 35 59 36 60 40 61 43 62 37 63 38 64 41 65
REMARK SMILES IDX 39 66 65 67 66 68 74 69 67 70 68 71 72 72 75 73 69 74 70 75
REMARK SMILES IDX 73 76 71 77 50 78 51 79 59 80 52 81 53 82 57 83 60 84 54 85
REMARK SMILES IDX 55 86 58 87 56 88
REMARK H PARENT 80 41 48 52
REMARK Flexibility Score: inf
ROOT
ATOM      1  O   UNL A   1      33.628  32.623  28.018  1.00  0.00    -0.374 OA
ENDROOT
BRANCH   1   2
ATOM      2  C   UNL A   1      34.561  31.588  27.719  1.00  0.00     0.202 C 
BRANCH   2   3
ATOM      3  C   UNL A   1      33.994  30.207  27.426  1.00  0.00     0.261 C 
BRANCH   3   4
ATOM      4  O   UNL A   1      32.562  30.146  27.381  1.00  0.00    -0.463 OA
BRANCH   4   5
ATOM      5  C   UNL A   1      31.825  29.480  26.465  1.00  0.00     0.308 C 
ATOM      6  O   UNL A   1      31.461  28.330  26.704  1.00  0.00    -0.252 OA
BRANCH   5   7
ATOM      7  C   UNL A   1      31.554  30.102  25.124  1.00  0.00     0.153 C 
BRANCH   7   8
ATOM      8  C   UNL A   1      30.840  29.199  24.141  1.00  0.00     0.128 C 
BRANCH   8   9
ATOM      9  N   UNL A   1      29.865  29.990  23.367  1.00  0.00    -0.346 N 
ATOM     10  C   UNL A   1      29.191  31.078  23.884  1.00  0.00     0.086 A 
ATOM     11  C   UNL A   1      29.671  29.958  22.010  1.00  0.00     0.086 A 
ATOM     12  C   UNL A   1      28.528  31.705  22.854  1.00  0.00     0.019 A 
ATOM     13  C   UNL A   1      28.830  30.995  21.669  1.00  0.00     0.019 A 
ENDBRANCH   8   9
BRANCH   8  14
ATOM     14  C   UNL A   1      31.778  28.365  23.317  1.00  0.00    -0.014 A 
ATOM     15  C   UNL A   1      33.016  28.809  22.746  1.00  0.00     0.017 A 
ATOM     16  C   UNL A   1      31.619  27.001  23.137  1.00  0.00     0.070 A 
ATOM     17  C   UNL A   1      33.738  27.781  22.186  1.00  0.00     0.065 A 
ATOM     18  S   UNL A   1      32.930  26.283  22.311  1.00  0.00    -0.152 S 
ENDBRANCH   8  14
ENDBRANCH   7   8
ENDBRANCH   5   7
ENDBRANCH   4   5
ENDBRANCH   3   4
ENDBRANCH   2   3
ENDBRANCH   1   2
BRANCH   1  19
ATOM     19  C   UNL A   1      34.120  33.968  28.111  1.00  0.00     0.202 C 
BRANCH  19  20
ATOM     20  C   UNL A   1      33.461  34.839  29.162  1.00  0.00     0.261 C 
BRANCH  20  21
ATOM     21  O   UNL A   1      33.609  34.213  30.424  1.00  0.00    -0.460 OA
BRANCH  21  22
ATOM     22  C   UNL A   1      33.314  35.012  31.454  1.00  0.00     0.338 C 
ATOM     23  O   UNL A   1      32.403  35.850  31.532  1.00  0.00    -0.246 OA
BRANCH  22  24
ATOM     24  C   UNL A   1      34.284  34.807  32.514  1.00  0.00     0.060 A 
ATOM     25  C   UNL A   1      35.532  35.396  32.295  1.00  0.00     0.016 A 
ATOM     26  C   UNL A   1      34.087  33.712  33.364  1.00  0.00     0.016 A 
ATOM     27  C   UNL A   1      36.640  34.680  32.656  1.00  0.00     0.010 A 
ATOM     28  C   UNL A   1      35.191  32.973  33.685  1.00  0.00     0.010 A 
ATOM     29  C   UNL A   1      36.444  33.433  33.255  1.00  0.00    -0.014 A 
BRANCH  29  30
ATOM     30  C   UNL A   1      37.608  32.615  33.551  1.00  0.00     0.031 A 
ATOM     31  C   UNL A   1      37.657  31.409  32.633  1.00  0.00     0.074 A 
ATOM     32  C   UNL A   1      38.428  33.113  34.519  1.00  0.00     0.049 A 
ATOM     33  N   UNL A   1      38.475  30.408  32.635  1.00  0.00    -0.248 NA
ATOM     34  C   UNL A   1      36.648  31.292  31.536  1.00  0.00     0.031 C 
ATOM     35  C   UNL A   1      38.165  34.343  35.300  1.00  0.00     0.029 A 
ATOM     36  N   UNL A   1      39.634  32.707  35.040  1.00  0.00    -0.354 N 
ATOM     37  C   UNL A   1      38.251  29.713  31.438  1.00  0.00     0.074 A 
ATOM     38  C   UNL A   1      37.058  30.230  30.848  1.00  0.00     0.031 C 
ATOM     39  C   UNL A   1      39.124  34.534  36.229  1.00  0.00     0.029 A 
ATOM     40  C   UNL A   1      40.120  33.488  36.118  1.00  0.00     0.049 A 
ATOM     41  H   UNL A   1      40.125  31.928  34.690  1.00  0.00     0.167 HD
ATOM     42  C   UNL A   1      39.154  28.847  30.915  1.00  0.00     0.037 A 
ATOM     43  C   UNL A   1      41.244  33.293  36.872  1.00  0.00     0.037 A 
ATOM     44  C   UNL A   1      40.239  28.635  31.810  1.00  0.00     0.049 A 
ATOM     45  C   UNL A   1      42.018  32.276  36.140  1.00  0.00     0.074 A 
ATOM     46  C   UNL A   1      40.314  27.956  32.997  1.00  0.00     0.029 A 
ATOM     47  N   UNL A   1      41.326  29.467  31.702  1.00  0.00    -0.354 N 
ATOM     48  N   UNL A   1      42.616  32.493  35.005  1.00  0.00    -0.248 NA
ATOM     49  C   UNL A   1      42.072  30.903  36.651  1.00  0.00     0.031 C 
ATOM     50  C   UNL A   1      41.255  28.681  33.758  1.00  0.00     0.029 A 
ATOM     51  C   UNL A   1      41.801  29.703  32.973  1.00  0.00     0.049 A 
ATOM     52  H   UNL A   1      41.698  29.831  30.866  1.00  0.00     0.167 HD
ATOM     53  C   UNL A   1      42.812  31.221  34.520  1.00  0.00     0.074 A 
ATOM     54  C   UNL A   1      42.750  30.334  35.658  1.00  0.00     0.031 C 
ATOM     55  C   UNL A   1      42.498  30.944  33.228  1.00  0.00     0.037 A 
BRANCH  42  56
ATOM     56  C   UNL A   1      39.237  28.300  29.535  1.00  0.00     0.064 A 
ATOM     57  C   UNL A   1      39.199  26.902  29.370  1.00  0.00     0.173 A 
ATOM     58  C   UNL A   1      39.683  29.061  28.443  1.00  0.00     0.173 A 
ATOM     59  F   UNL A   1      38.761  26.111  30.362  1.00  0.00    -0.203 F 
ATOM     60  C   UNL A   1      39.681  26.292  28.217  1.00  0.00     0.198 A 
ATOM     61  C   UNL A   1      40.126  28.446  27.272  1.00  0.00     0.198 A 
ATOM     62  F   UNL A   1      39.790  30.395  28.528  1.00  0.00    -0.203 F 
ATOM     63  F   UNL A   1      39.738  24.956  28.145  1.00  0.00    -0.200 F 
ATOM     64  C   UNL A   1      40.159  27.065  27.174  1.00  0.00     0.200 A 
ATOM     65  F   UNL A   1      40.593  29.198  26.265  1.00  0.00    -0.200 F 
ATOM     66  F   UNL A   1      40.685  26.479  26.091  1.00  0.00    -0.200 F 
ENDBRANCH  42  56
BRANCH  43  67
ATOM     67  C   UNL A   1      41.831  33.806  38.166  1.00  0.00     0.064 A 
ATOM     68  C   UNL A   1      42.981  34.598  38.293  1.00  0.00     0.173 A 
ATOM     69  C   UNL A   1      41.121  33.615  39.386  1.00  0.00     0.173 A 
ATOM     70  F   UNL A   1      43.797  34.818  37.260  1.00  0.00    -0.203 F 
ATOM     71  C   UNL A   1      43.335  35.217  39.506  1.00  0.00     0.198 A 
ATOM     72  C   UNL A   1      41.442  34.270  40.576  1.00  0.00     0.198 A 
ATOM     73  F   UNL A   1      40.064  32.795  39.462  1.00  0.00    -0.203 F 
ATOM     74  F   UNL A   1      44.440  35.974  39.567  1.00  0.00    -0.200 F 
ATOM     75  C   UNL A   1      42.544  35.086  40.633  1.00  0.00     0.200 A 
ATOM     76  F   UNL A   1      40.650  34.124  41.648  1.00  0.00    -0.200 F 
ATOM     77  F   UNL A   1      42.843  35.740  41.763  1.00  0.00    -0.200 F 
ENDBRANCH  43  67
BRANCH  55  78
ATOM     78  C   UNL A   1      42.531  32.165  32.326  1.00  0.00     0.064 A 
ATOM     79  C   UNL A   1      43.756  32.787  32.033  1.00  0.00     0.173 A 
ATOM     80  C   UNL A   1      41.381  32.819  31.854  1.00  0.00     0.173 A 
ATOM     81  F   UNL A   1      44.906  32.218  32.425  1.00  0.00    -0.203 F 
ATOM     82  C   UNL A   1      43.817  34.001  31.342  1.00  0.00     0.198 A 
ATOM     83  C   UNL A   1      41.438  34.029  31.160  1.00  0.00     0.198 A 
ATOM     84  F   UNL A   1      40.172  32.294  32.046  1.00  0.00    -0.203 F 
ATOM     85  F   UNL A   1      45.005  34.568  31.090  1.00  0.00    -0.200 F 
ATOM     86  C   UNL A   1      42.657  34.625  30.910  1.00  0.00     0.200 A 
ATOM     87  F   UNL A   1      40.306  34.608  30.731  1.00  0.00    -0.200 F 
ATOM     88  F   UNL A   1      42.716  35.786  30.243  1.00  0.00    -0.200 F 
ENDBRANCH  55  78
ENDBRANCH  29  30
ENDBRANCH  22  24
ENDBRANCH  21  22
ENDBRANCH  20  21
ENDBRANCH  19  20
ENDBRANCH   1  19
TORSDOF 17
ENDMDL
