MODEL 1
REMARK VINA RESULT:     -12.1      0.000      0.000
REMARK SMILES CC(=O)Nc1cccc(NS(=O)(=O)c2cccc(C(=O)OCCOCCOC(=O)c3ccc(-c4c5nc(c(-c6c(F)c(F)c(F)c(F)c6F)c6ccc([nH]6)c(-c6c(F)c(F)c(F)c(F)c6F)c6nc(c(-c7c(F)c(F)c(F)c(F)c7F)c7ccc4[nH]7)C=C6)C=C5)cc3)c2)c1
REMARK SMILES IDX 23 1 22 2 21 3 19 4 20 5 18 6 14 7 15 8 93 9 16 10 17 11
REMARK SMILES IDX 11 12 12 13 13 14 10 15 9 17 5 18 6 19 94 20 7 21 8 22 4 23
REMARK SMILES IDX 1 24 2 25 3 26 24 28 25 29 26 30 27 31 28 32 29 33 30 34
REMARK SMILES IDX 31 35 92 36 32 37 91 38 33 39 34 40 35 41 85 42 36 43 90 44
REMARK SMILES IDX 84 45 86 46 37 47 89 48 83 49 82 50 38 52 70 53 50 54 69 55
REMARK SMILES IDX 51 56 54 57 68 58 87 59 52 60 53 61 67 63 88 64 55 65 39 66
REMARK SMILES IDX 40 67 48 68 41 69 42 70 46 71 49 72 43 73 44 74 47 75 45 76
REMARK SMILES IDX 71 77 72 78 80 79 73 80 74 81 78 82 81 83 75 84 76 85 79 86
REMARK SMILES IDX 77 87 56 88 57 89 65 90 58 91 59 92 63 93 66 94 60 95 61 96
REMARK SMILES IDX 64 97 62 98
REMARK H PARENT 10 16 4 27 86 51 54 62
REMARK Flexibility Score: inf
ROOT
ATOM      1  C   UNL A   1      34.662  21.502  24.447  1.00  0.00     0.202 C 
ENDROOT
BRANCH   1   2
ATOM      2  C   UNL A   1      33.244  21.026  24.771  1.00  0.00     0.261 C 
BRANCH   2   3
ATOM      3  O   UNL A   1      32.422  22.142  25.166  1.00  0.00    -0.460 OA
BRANCH   3   4
ATOM      4  C   UNL A   1      31.918  22.892  24.156  1.00  0.00     0.338 C 
ATOM      5  O   UNL A   1      31.614  22.515  23.039  1.00  0.00    -0.246 OA
BRANCH   4   6
ATOM      6  C   UNL A   1      31.599  24.243  24.674  1.00  0.00     0.061 A 
ATOM      7  C   UNL A   1      31.821  26.652  24.669  1.00  0.00     0.088 A 
ATOM      8  C   UNL A   1      31.098  26.728  25.867  1.00  0.00     0.022 A 
ATOM      9  C   UNL A   1      32.042  25.412  24.045  1.00  0.00     0.038 A 
ATOM     10  C   UNL A   1      30.625  25.556  26.464  1.00  0.00     0.002 A 
ATOM     11  C   UNL A   1      30.879  24.317  25.873  1.00  0.00     0.016 A 
BRANCH   7  12
ATOM     12  S   UNL A   1      32.482  28.139  23.934  1.00  0.00     0.261 S 
ATOM     13  O   UNL A   1      33.884  27.900  23.664  1.00  0.00    -0.201 OA
ATOM     14  O   UNL A   1      32.067  29.262  24.746  1.00  0.00    -0.201 OA
BRANCH  12  15
ATOM     15  N   UNL A   1      31.728  28.290  22.398  1.00  0.00    -0.280 N 
ATOM     16  H   UNL A   1      32.229  28.131  21.565  1.00  0.00     0.180 HD
BRANCH  15  17
ATOM     17  C   UNL A   1      30.346  28.657  22.374  1.00  0.00     0.051 A 
ATOM     18  C   UNL A   1      28.562  30.232  21.975  1.00  0.00     0.043 A 
ATOM     19  C   UNL A   1      27.738  29.492  22.813  1.00  0.00     0.026 A 
ATOM     20  C   UNL A   1      29.901  29.857  21.814  1.00  0.00     0.052 A 
ATOM     21  C   UNL A   1      28.148  28.240  23.231  1.00  0.00     0.004 A 
ATOM     22  C   UNL A   1      29.425  27.793  22.948  1.00  0.00     0.027 A 
BRANCH  18  23
ATOM     23  N   UNL A   1      27.953  31.294  21.296  1.00  0.00    -0.326 N 
ATOM     24  C   UNL A   1      28.755  33.065  22.852  1.00  0.00     0.114 C 
ATOM     25  C   UNL A   1      28.054  32.628  21.594  1.00  0.00     0.221 C 
ATOM     26  O   UNL A   1      27.653  33.453  20.772  1.00  0.00    -0.275 OA
ATOM     27  H   UNL A   1      27.393  31.059  20.520  1.00  0.00     0.169 HD
ENDBRANCH  18  23
ENDBRANCH  15  17
ENDBRANCH  12  15
ENDBRANCH   7  12
ENDBRANCH   4   6
ENDBRANCH   3   4
ENDBRANCH   2   3
ENDBRANCH   1   2
BRANCH   1  28
ATOM     28  O   UNL A   1      35.682  20.614  24.906  1.00  0.00    -0.374 OA
BRANCH  28  29
ATOM     29  C   UNL A   1      37.021  21.098  24.812  1.00  0.00     0.202 C 
BRANCH  29  30
ATOM     30  C   UNL A   1      38.080  20.133  25.375  1.00  0.00     0.261 C 
BRANCH  30  31
ATOM     31  O   UNL A   1      39.402  20.709  25.368  1.00  0.00    -0.460 OA
BRANCH  31  32
ATOM     32  C   UNL A   1      40.096  20.606  26.528  1.00  0.00     0.338 C 
ATOM     33  O   UNL A   1      40.513  19.585  27.049  1.00  0.00    -0.246 OA
BRANCH  32  34
ATOM     34  C   UNL A   1      40.453  21.959  27.008  1.00  0.00     0.060 A 
ATOM     35  C   UNL A   1      39.774  23.051  26.455  1.00  0.00     0.016 A 
ATOM     36  C   UNL A   1      41.432  22.170  27.982  1.00  0.00     0.016 A 
ATOM     37  C   UNL A   1      40.091  24.355  26.850  1.00  0.00     0.010 A 
ATOM     38  C   UNL A   1      41.726  23.477  28.397  1.00  0.00     0.010 A 
ATOM     39  C   UNL A   1      41.087  24.586  27.810  1.00  0.00    -0.014 A 
BRANCH  39  40
ATOM     40  C   UNL A   1      41.584  25.972  28.060  1.00  0.00     0.031 A 
ATOM     41  C   UNL A   1      42.936  26.365  27.512  1.00  0.00     0.074 A 
ATOM     42  C   UNL A   1      40.855  26.891  28.724  1.00  0.00     0.049 A 
ATOM     43  N   UNL A   1      43.581  27.502  27.609  1.00  0.00    -0.248 NA
ATOM     44  C   UNL A   1      43.667  25.328  26.768  1.00  0.00     0.031 C 
ATOM     45  C   UNL A   1      39.535  26.671  29.312  1.00  0.00     0.029 A 
ATOM     46  N   UNL A   1      41.131  28.208  29.012  1.00  0.00    -0.354 N 
ATOM     47  C   UNL A   1      44.800  27.297  26.974  1.00  0.00     0.074 A 
ATOM     48  C   UNL A   1      44.829  25.917  26.545  1.00  0.00     0.031 C 
ATOM     49  C   UNL A   1      39.109  27.817  29.874  1.00  0.00     0.029 A 
ATOM     50  C   UNL A   1      40.133  28.848  29.707  1.00  0.00     0.049 A 
ATOM     51  H   UNL A   1      41.969  28.651  28.744  1.00  0.00     0.167 HD
ATOM     52  C   UNL A   1      45.799  28.179  26.731  1.00  0.00     0.037 A 
ATOM     53  C   UNL A   1      40.054  30.118  30.155  1.00  0.00     0.037 A 
ATOM     54  C   UNL A   1      45.769  29.566  27.107  1.00  0.00     0.049 A 
ATOM     55  C   UNL A   1      41.184  31.084  29.884  1.00  0.00     0.074 A 
ATOM     56  C   UNL A   1      46.713  30.547  26.858  1.00  0.00     0.029 A 
ATOM     57  N   UNL A   1      44.737  30.169  27.807  1.00  0.00    -0.354 N 
ATOM     58  N   UNL A   1      42.303  30.893  29.230  1.00  0.00    -0.248 NA
ATOM     59  C   UNL A   1      41.029  32.452  30.410  1.00  0.00     0.031 C 
ATOM     60  C   UNL A   1      46.269  31.737  27.442  1.00  0.00     0.029 A 
ATOM     61  C   UNL A   1      45.027  31.509  28.009  1.00  0.00     0.049 A 
ATOM     62  H   UNL A   1      43.921  29.713  28.117  1.00  0.00     0.167 HD
ATOM     63  C   UNL A   1      42.963  32.118  29.231  1.00  0.00     0.074 A 
ATOM     64  C   UNL A   1      42.114  33.050  29.941  1.00  0.00     0.031 C 
ATOM     65  C   UNL A   1      44.163  32.439  28.690  1.00  0.00     0.037 A 
BRANCH  52  66
ATOM     66  C   UNL A   1      47.012  27.659  26.016  1.00  0.00     0.064 A 
ATOM     67  C   UNL A   1      48.103  27.119  26.716  1.00  0.00     0.173 A 
ATOM     68  C   UNL A   1      47.088  27.705  24.616  1.00  0.00     0.173 A 
ATOM     69  F   UNL A   1      48.087  27.067  28.057  1.00  0.00    -0.203 F 
ATOM     70  C   UNL A   1      49.242  26.688  26.043  1.00  0.00     0.198 A 
ATOM     71  C   UNL A   1      48.214  27.239  23.945  1.00  0.00     0.198 A 
ATOM     72  F   UNL A   1      46.070  28.204  23.899  1.00  0.00    -0.203 F 
ATOM     73  F   UNL A   1      50.299  26.243  26.736  1.00  0.00    -0.200 F 
ATOM     74  C   UNL A   1      49.294  26.743  24.659  1.00  0.00     0.200 A 
ATOM     75  F   UNL A   1      48.259  27.279  22.607  1.00  0.00    -0.200 F 
ATOM     76  F   UNL A   1      50.393  26.328  24.012  1.00  0.00    -0.200 F 
ENDBRANCH  52  66
BRANCH  53  77
ATOM     77  C   UNL A   1      38.845  30.583  30.891  1.00  0.00     0.064 A 
ATOM     78  C   UNL A   1      37.747  31.124  30.204  1.00  0.00     0.173 A 
ATOM     79  C   UNL A   1      38.784  30.549  32.291  1.00  0.00     0.173 A 
ATOM     80  F   UNL A   1      37.770  31.206  28.866  1.00  0.00    -0.203 F 
ATOM     81  C   UNL A   1      36.648  31.637  30.891  1.00  0.00     0.198 A 
ATOM     82  C   UNL A   1      37.671  31.037  32.976  1.00  0.00     0.198 A 
ATOM     83  F   UNL A   1      39.807  30.045  32.996  1.00  0.00    -0.203 F 
ATOM     84  F   UNL A   1      35.640  32.201  30.210  1.00  0.00    -0.200 F 
ATOM     85  C   UNL A   1      36.609  31.590  32.276  1.00  0.00     0.200 A 
ATOM     86  F   UNL A   1      37.634  30.982  34.314  1.00  0.00    -0.200 F 
ATOM     87  F   UNL A   1      35.555  32.089  32.936  1.00  0.00    -0.200 F 
ENDBRANCH  53  77
BRANCH  65  88
ATOM     88  C   UNL A   1      44.617  33.868  28.781  1.00  0.00     0.064 A 
ATOM     89  C   UNL A   1      45.477  34.310  29.797  1.00  0.00     0.173 A 
ATOM     90  C   UNL A   1      44.233  34.795  27.799  1.00  0.00     0.173 A 
ATOM     91  F   UNL A   1      45.864  33.468  30.767  1.00  0.00    -0.203 F 
ATOM     92  C   UNL A   1      45.917  35.631  29.839  1.00  0.00     0.198 A 
ATOM     93  C   UNL A   1      44.699  36.107  27.826  1.00  0.00     0.198 A 
ATOM     94  F   UNL A   1      43.419  34.424  26.800  1.00  0.00    -0.203 F 
ATOM     95  F   UNL A   1      46.705  36.042  30.843  1.00  0.00    -0.200 F 
ATOM     96  C   UNL A   1      45.536  36.526  28.849  1.00  0.00     0.200 A 
ATOM     97  F   UNL A   1      44.343  36.964  26.860  1.00  0.00    -0.200 F 
ATOM     98  F   UNL A   1      45.972  37.792  28.884  1.00  0.00    -0.200 F 
ENDBRANCH  65  88
ENDBRANCH  39  40
ENDBRANCH  32  34
ENDBRANCH  31  32
ENDBRANCH  30  31
ENDBRANCH  29  30
ENDBRANCH  28  29
ENDBRANCH   1  28
TORSDOF 18
ENDMDL
MODEL 2
REMARK VINA RESULT:     -12.1      2.971      4.749
REMARK SMILES CC(=O)Nc1cccc(NS(=O)(=O)c2cccc(C(=O)OCCOCCOC(=O)c3ccc(-c4c5nc(c(-c6c(F)c(F)c(F)c(F)c6F)c6ccc([nH]6)c(-c6c(F)c(F)c(F)c(F)c6F)c6nc(c(-c7c(F)c(F)c(F)c(F)c7F)c7ccc4[nH]7)C=C6)C=C5)cc3)c2)c1
REMARK SMILES IDX 23 1 22 2 21 3 19 4 20 5 18 6 14 7 15 8 93 9 16 10 17 11
REMARK SMILES IDX 11 12 12 13 13 14 10 15 9 17 5 18 6 19 94 20 7 21 8 22 4 23
REMARK SMILES IDX 1 24 2 25 3 26 24 28 25 29 26 30 27 31 28 32 29 33 30 34
REMARK SMILES IDX 31 35 92 36 32 37 91 38 33 39 34 40 35 41 85 42 36 43 90 44
REMARK SMILES IDX 84 45 86 46 37 47 89 48 83 49 82 50 38 52 70 53 50 54 69 55
REMARK SMILES IDX 51 56 54 57 68 58 87 59 52 60 53 61 67 63 88 64 55 65 39 66
REMARK SMILES IDX 40 67 48 68 41 69 42 70 46 71 49 72 43 73 44 74 47 75 45 76
REMARK SMILES IDX 71 77 72 78 80 79 73 80 74 81 78 82 81 83 75 84 76 85 79 86
REMARK SMILES IDX 77 87 56 88 57 89 65 90 58 91 59 92 63 93 66 94 60 95 61 96
REMARK SMILES IDX 64 97 62 98
REMARK H PARENT 10 16 4 27 86 51 54 62
REMARK Flexibility Score: inf
ROOT
ATOM      1  C   UNL A   1      40.243  20.365  26.166  1.00  0.00     0.202 C 
ENDROOT
BRANCH   1   2
ATOM      2  C   UNL A   1      39.625  21.763  26.258  1.00  0.00     0.261 C 
BRANCH   2   3
ATOM      3  O   UNL A   1      38.478  21.857  25.390  1.00  0.00    -0.460 OA
BRANCH   3   4
ATOM      4  C   UNL A   1      37.522  22.741  25.767  1.00  0.00     0.338 C 
ATOM      5  O   UNL A   1      37.670  23.923  26.022  1.00  0.00    -0.246 OA
BRANCH   4   6
ATOM      6  C   UNL A   1      36.195  22.097  25.639  1.00  0.00     0.061 A 
ATOM      7  C   UNL A   1      33.831  21.934  26.129  1.00  0.00     0.088 A 
ATOM      8  C   UNL A   1      33.782  20.680  25.508  1.00  0.00     0.022 A 
ATOM      9  C   UNL A   1      35.030  22.668  26.164  1.00  0.00     0.038 A 
ATOM     10  C   UNL A   1      34.943  20.138  24.951  1.00  0.00     0.002 A 
ATOM     11  C   UNL A   1      36.147  20.841  25.021  1.00  0.00     0.016 A 
BRANCH   7  12
ATOM     12  S   UNL A   1      32.365  22.605  26.897  1.00  0.00     0.261 S 
ATOM     13  O   UNL A   1      32.504  22.422  28.327  1.00  0.00    -0.201 OA
ATOM     14  O   UNL A   1      31.213  22.082  26.195  1.00  0.00    -0.201 OA
BRANCH  12  15
ATOM     15  N   UNL A   1      32.419  24.301  26.634  1.00  0.00    -0.280 N 
ATOM     16  H   UNL A   1      32.929  24.895  27.232  1.00  0.00     0.180 HD
BRANCH  15  17
ATOM     17  C   UNL A   1      31.695  24.820  25.516  1.00  0.00     0.051 A 
ATOM     18  C   UNL A   1      31.509  25.423  23.187  1.00  0.00     0.043 A 
ATOM     19  C   UNL A   1      30.461  26.277  23.505  1.00  0.00     0.026 A 
ATOM     20  C   UNL A   1      32.185  24.747  24.209  1.00  0.00     0.052 A 
ATOM     21  C   UNL A   1      29.900  26.219  24.767  1.00  0.00     0.004 A 
ATOM     22  C   UNL A   1      30.473  25.434  25.750  1.00  0.00     0.027 A 
BRANCH  18  23
ATOM     23  N   UNL A   1      31.777  25.261  21.822  1.00  0.00    -0.326 N 
ATOM     24  C   UNL A   1      33.503  27.052  21.704  1.00  0.00     0.114 C 
ATOM     25  C   UNL A   1      32.727  25.920  21.086  1.00  0.00     0.221 C 
ATOM     26  O   UNL A   1      32.999  25.506  19.958  1.00  0.00    -0.275 OA
ATOM     27  H   UNL A   1      31.226  24.603  21.339  1.00  0.00     0.169 HD
ENDBRANCH  18  23
ENDBRANCH  15  17
ENDBRANCH  12  15
ENDBRANCH   7  12
ENDBRANCH   4   6
ENDBRANCH   3   4
ENDBRANCH   2   3
ENDBRANCH   1   2
BRANCH   1  28
ATOM     28  O   UNL A   1      41.665  20.359  26.300  1.00  0.00    -0.374 OA
BRANCH  28  29
ATOM     29  C   UNL A   1      42.242  19.148  26.787  1.00  0.00     0.202 C 
BRANCH  29  30
ATOM     30  C   UNL A   1      43.260  18.505  25.827  1.00  0.00     0.261 C 
BRANCH  30  31
ATOM     31  O   UNL A   1      43.382  19.239  24.592  1.00  0.00    -0.460 OA
BRANCH  31  32
ATOM     32  C   UNL A   1      44.646  19.555  24.216  1.00  0.00     0.338 C 
ATOM     33  O   UNL A   1      45.396  18.890  23.521  1.00  0.00    -0.246 OA
BRANCH  32  34
ATOM     34  C   UNL A   1      44.946  20.945  24.623  1.00  0.00     0.060 A 
ATOM     35  C   UNL A   1      45.420  21.160  25.923  1.00  0.00     0.016 A 
ATOM     36  C   UNL A   1      44.770  22.029  23.759  1.00  0.00     0.016 A 
ATOM     37  C   UNL A   1      45.693  22.457  26.371  1.00  0.00     0.010 A 
ATOM     38  C   UNL A   1      45.073  23.325  24.203  1.00  0.00     0.010 A 
ATOM     39  C   UNL A   1      45.501  23.558  25.524  1.00  0.00    -0.014 A 
BRANCH  39  40
ATOM     40  C   UNL A   1      45.567  24.946  26.069  1.00  0.00     0.031 A 
ATOM     41  C   UNL A   1      46.884  25.685  26.011  1.00  0.00     0.074 A 
ATOM     42  C   UNL A   1      44.488  25.573  26.578  1.00  0.00     0.049 A 
ATOM     43  N   UNL A   1      47.189  26.889  26.428  1.00  0.00    -0.248 NA
ATOM     44  C   UNL A   1      48.015  24.958  25.414  1.00  0.00     0.031 C 
ATOM     45  C   UNL A   1      43.148  25.001  26.704  1.00  0.00     0.029 A 
ATOM     46  N   UNL A   1      44.353  26.846  27.085  1.00  0.00    -0.354 N 
ATOM     47  C   UNL A   1      48.547  27.040  26.179  1.00  0.00     0.074 A 
ATOM     48  C   UNL A   1      49.019  25.791  25.626  1.00  0.00     0.031 C 
ATOM     49  C   UNL A   1      42.326  25.924  27.235  1.00  0.00     0.029 A 
ATOM     50  C   UNL A   1      43.081  27.147  27.509  1.00  0.00     0.049 A 
ATOM     51  H   UNL A   1      45.102  27.484  27.138  1.00  0.00     0.167 HD
ATOM     52  C   UNL A   1      49.335  28.128  26.355  1.00  0.00     0.037 A 
ATOM     53  C   UNL A   1      42.583  28.277  28.051  1.00  0.00     0.037 A 
ATOM     54  C   UNL A   1      48.875  29.393  26.858  1.00  0.00     0.049 A 
ATOM     55  C   UNL A   1      43.482  29.475  28.252  1.00  0.00     0.074 A 
ATOM     56  C   UNL A   1      49.591  30.566  27.024  1.00  0.00     0.029 A 
ATOM     57  N   UNL A   1      47.578  29.650  27.273  1.00  0.00    -0.354 N 
ATOM     58  N   UNL A   1      44.749  29.624  27.954  1.00  0.00    -0.248 NA
ATOM     59  C   UNL A   1      42.869  30.671  28.856  1.00  0.00     0.031 C 
ATOM     60  C   UNL A   1      48.735  31.525  27.575  1.00  0.00     0.029 A 
ATOM     61  C   UNL A   1      47.475  30.963  27.704  1.00  0.00     0.049 A 
ATOM     62  H   UNL A   1      46.842  28.998  27.264  1.00  0.00     0.167 HD
ATOM     63  C   UNL A   1      45.072  30.933  28.296  1.00  0.00     0.074 A 
ATOM     64  C   UNL A   1      43.866  31.542  28.813  1.00  0.00     0.031 C 
ATOM     65  C   UNL A   1      46.264  31.572  28.189  1.00  0.00     0.037 A 
BRANCH  52  66
ATOM     66  C   UNL A   1      50.785  27.989  25.992  1.00  0.00     0.064 A 
ATOM     67  C   UNL A   1      51.762  27.709  26.960  1.00  0.00     0.173 A 
ATOM     68  C   UNL A   1      51.203  28.140  24.662  1.00  0.00     0.173 A 
ATOM     69  F   UNL A   1      51.416  27.571  28.250  1.00  0.00    -0.203 F 
ATOM     70  C   UNL A   1      53.109  27.633  26.617  1.00  0.00     0.198 A 
ATOM     71  C   UNL A   1      52.547  28.027  24.318  1.00  0.00     0.198 A 
ATOM     72  F   UNL A   1      50.309  28.401  23.696  1.00  0.00    -0.203 F 
ATOM     73  F   UNL A   1      54.030  27.436  27.570  1.00  0.00    -0.200 F 
ATOM     74  C   UNL A   1      53.499  27.786  25.297  1.00  0.00     0.200 A 
ATOM     75  F   UNL A   1      52.923  28.162  23.038  1.00  0.00    -0.200 F 
ATOM     76  F   UNL A   1      54.797  27.714  24.968  1.00  0.00    -0.200 F 
ENDBRANCH  52  66
BRANCH  53  77
ATOM     77  C   UNL A   1      41.145  28.360  28.430  1.00  0.00     0.064 A 
ATOM     78  C   UNL A   1      40.199  28.909  27.550  1.00  0.00     0.173 A 
ATOM     79  C   UNL A   1      40.696  27.948  29.692  1.00  0.00     0.173 A 
ATOM     80  F   UNL A   1      40.585  29.346  26.342  1.00  0.00    -0.203 F 
ATOM     81  C   UNL A   1      38.867  29.066  27.929  1.00  0.00     0.198 A 
ATOM     82  C   UNL A   1      39.357  28.080  30.059  1.00  0.00     0.198 A 
ATOM     83  F   UNL A   1      41.559  27.419  30.572  1.00  0.00    -0.203 F 
ATOM     84  F   UNL A   1      37.999  29.648  27.089  1.00  0.00    -0.200 F 
ATOM     85  C   UNL A   1      38.446  28.649  29.182  1.00  0.00     0.200 A 
ATOM     86  F   UNL A   1      38.953  27.668  31.268  1.00  0.00    -0.200 F 
ATOM     87  F   UNL A   1      37.167  28.806  29.548  1.00  0.00    -0.200 F 
ENDBRANCH  53  77
BRANCH  65  88
ATOM     88  C   UNL A   1      46.322  33.022  28.577  1.00  0.00     0.064 A 
ATOM     89  C   UNL A   1      46.661  33.430  29.875  1.00  0.00     0.173 A 
ATOM     90  C   UNL A   1      46.096  34.020  27.615  1.00  0.00     0.173 A 
ATOM     91  F   UNL A   1      46.875  32.517  30.834  1.00  0.00    -0.203 F 
ATOM     92  C   UNL A   1      46.749  34.781  30.202  1.00  0.00     0.198 A 
ATOM     93  C   UNL A   1      46.214  35.369  27.937  1.00  0.00     0.198 A 
ATOM     94  F   UNL A   1      45.777  33.686  26.356  1.00  0.00    -0.203 F 
ATOM     95  F   UNL A   1      47.032  35.148  31.459  1.00  0.00    -0.200 F 
ATOM     96  C   UNL A   1      46.535  35.750  29.231  1.00  0.00     0.200 A 
ATOM     97  F   UNL A   1      46.023  36.302  26.993  1.00  0.00    -0.200 F 
ATOM     98  F   UNL A   1      46.633  37.049  29.544  1.00  0.00    -0.200 F 
ENDBRANCH  65  88
ENDBRANCH  39  40
ENDBRANCH  32  34
ENDBRANCH  31  32
ENDBRANCH  30  31
ENDBRANCH  29  30
ENDBRANCH  28  29
ENDBRANCH   1  28
TORSDOF 18
ENDMDL
MODEL 3
REMARK VINA RESULT:     -12.1      5.289     11.445
REMARK SMILES CC(=O)Nc1cccc(NS(=O)(=O)c2cccc(C(=O)OCCOCCOC(=O)c3ccc(-c4c5nc(c(-c6c(F)c(F)c(F)c(F)c6F)c6ccc([nH]6)c(-c6c(F)c(F)c(F)c(F)c6F)c6nc(c(-c7c(F)c(F)c(F)c(F)c7F)c7ccc4[nH]7)C=C6)C=C5)cc3)c2)c1
REMARK SMILES IDX 23 1 22 2 21 3 19 4 20 5 18 6 14 7 15 8 93 9 16 10 17 11
REMARK SMILES IDX 11 12 12 13 13 14 10 15 9 17 5 18 6 19 94 20 7 21 8 22 4 23
REMARK SMILES IDX 1 24 2 25 3 26 24 28 25 29 26 30 27 31 28 32 29 33 30 34
REMARK SMILES IDX 31 35 92 36 32 37 91 38 33 39 34 40 35 41 85 42 36 43 90 44
REMARK SMILES IDX 84 45 86 46 37 47 89 48 83 49 82 50 38 52 70 53 50 54 69 55
REMARK SMILES IDX 51 56 54 57 68 58 87 59 52 60 53 61 67 63 88 64 55 65 39 66
REMARK SMILES IDX 40 67 48 68 41 69 42 70 46 71 49 72 43 73 44 74 47 75 45 76
REMARK SMILES IDX 71 77 72 78 80 79 73 80 74 81 78 82 81 83 75 84 76 85 79 86
REMARK SMILES IDX 77 87 56 88 57 89 65 90 58 91 59 92 63 93 66 94 60 95 61 96
REMARK SMILES IDX 64 97 62 98
REMARK H PARENT 10 16 4 27 86 51 54 62
REMARK Flexibility Score: inf
ROOT
ATOM      1  C   UNL A   1      34.932  32.963  28.232  1.00  0.00     0.202 C 
ENDROOT
BRANCH   1   2
ATOM      2  C   UNL A   1      34.420  31.560  28.567  1.00  0.00     0.261 C 
BRANCH   2   3
ATOM      3  O   UNL A   1      34.194  30.811  27.357  1.00  0.00    -0.460 OA
BRANCH   3   4
ATOM      4  C   UNL A   1      34.737  29.569  27.319  1.00  0.00     0.338 C 
ATOM      5  O   UNL A   1      35.855  29.242  27.677  1.00  0.00    -0.246 OA
BRANCH   4   6
ATOM      6  C   UNL A   1      33.685  28.596  26.947  1.00  0.00     0.061 A 
ATOM      7  C   UNL A   1      32.773  26.856  25.535  1.00  0.00     0.088 A 
ATOM      8  C   UNL A   1      31.546  26.947  26.204  1.00  0.00     0.022 A 
ATOM      9  C   UNL A   1      33.862  27.653  25.928  1.00  0.00     0.038 A 
ATOM     10  C   UNL A   1      31.393  27.864  27.247  1.00  0.00     0.002 A 
ATOM     11  C   UNL A   1      32.458  28.690  27.614  1.00  0.00     0.016 A 
BRANCH   7  12
ATOM     12  S   UNL A   1      32.955  25.730  24.160  1.00  0.00     0.261 S 
ATOM     13  O   UNL A   1      34.373  25.503  23.973  1.00  0.00    -0.201 OA
ATOM     14  O   UNL A   1      32.136  26.218  23.071  1.00  0.00    -0.201 OA
BRANCH  12  15
ATOM     15  N   UNL A   1      32.303  24.229  24.680  1.00  0.00    -0.280 N 
ATOM     16  H   UNL A   1      31.374  23.977  24.472  1.00  0.00     0.180 HD
BRANCH  15  17
ATOM     17  C   UNL A   1      33.159  23.360  25.426  1.00  0.00     0.051 A 
ATOM     18  C   UNL A   1      34.530  21.387  25.645  1.00  0.00     0.043 A 
ATOM     19  C   UNL A   1      34.386  21.456  27.025  1.00  0.00     0.026 A 
ATOM     20  C   UNL A   1      33.847  22.299  24.832  1.00  0.00     0.052 A 
ATOM     21  C   UNL A   1      33.833  22.589  27.592  1.00  0.00     0.004 A 
ATOM     22  C   UNL A   1      33.286  23.574  26.791  1.00  0.00     0.027 A 
BRANCH  18  23
ATOM     23  N   UNL A   1      35.416  20.414  25.168  1.00  0.00    -0.326 N 
ATOM     24  C   UNL A   1      37.439  21.865  25.262  1.00  0.00     0.114 C 
ATOM     25  C   UNL A   1      36.775  20.534  25.032  1.00  0.00     0.221 C 
ATOM     26  O   UNL A   1      37.443  19.520  24.821  1.00  0.00    -0.275 OA
ATOM     27  H   UNL A   1      35.023  19.551  24.902  1.00  0.00     0.169 HD
ENDBRANCH  18  23
ENDBRANCH  15  17
ENDBRANCH  12  15
ENDBRANCH   7  12
ENDBRANCH   4   6
ENDBRANCH   3   4
ENDBRANCH   2   3
ENDBRANCH   1   2
BRANCH   1  28
ATOM     28  O   UNL A   1      34.440  33.976  29.111  1.00  0.00    -0.374 OA
BRANCH  28  29
ATOM     29  C   UNL A   1      33.538  34.920  28.534  1.00  0.00     0.202 C 
BRANCH  29  30
ATOM     30  C   UNL A   1      32.971  35.942  29.536  1.00  0.00     0.261 C 
BRANCH  30  31
ATOM     31  O   UNL A   1      32.279  35.307  30.629  1.00  0.00    -0.460 OA
BRANCH  31  32
ATOM     32  C   UNL A   1      32.600  35.752  31.869  1.00  0.00     0.338 C 
ATOM     33  O   UNL A   1      31.955  36.514  32.569  1.00  0.00    -0.246 OA
BRANCH  32  34
ATOM     34  C   UNL A   1      33.793  35.024  32.357  1.00  0.00     0.060 A 
ATOM     35  C   UNL A   1      35.023  35.694  32.338  1.00  0.00     0.016 A 
ATOM     36  C   UNL A   1      33.724  33.711  32.827  1.00  0.00     0.016 A 
ATOM     37  C   UNL A   1      36.188  35.046  32.760  1.00  0.00     0.010 A 
ATOM     38  C   UNL A   1      34.890  33.074  33.278  1.00  0.00     0.010 A 
ATOM     39  C   UNL A   1      36.140  33.720  33.215  1.00  0.00    -0.014 A 
BRANCH  39  40
ATOM     40  C   UNL A   1      37.403  32.957  33.442  1.00  0.00     0.031 A 
ATOM     41  C   UNL A   1      38.165  33.187  34.726  1.00  0.00     0.074 A 
ATOM     42  C   UNL A   1      37.866  32.048  32.561  1.00  0.00     0.049 A 
ATOM     43  N   UNL A   1      39.288  32.652  35.142  1.00  0.00    -0.248 NA
ATOM     44  C   UNL A   1      37.590  34.166  35.662  1.00  0.00     0.031 C 
ATOM     45  C   UNL A   1      37.248  31.710  31.280  1.00  0.00     0.029 A 
ATOM     46  N   UNL A   1      38.976  31.236  32.619  1.00  0.00    -0.354 N 
ATOM     47  C   UNL A   1      39.564  33.260  36.361  1.00  0.00     0.074 A 
ATOM     48  C   UNL A   1      38.527  34.239  36.592  1.00  0.00     0.031 C 
ATOM     49  C   UNL A   1      37.977  30.749  30.683  1.00  0.00     0.029 A 
ATOM     50  C   UNL A   1      39.125  30.417  31.526  1.00  0.00     0.049 A 
ATOM     51  H   UNL A   1      39.605  31.241  33.376  1.00  0.00     0.167 HD
ATOM     52  C   UNL A   1      40.568  33.010  37.235  1.00  0.00     0.037 A 
ATOM     53  C   UNL A   1      40.076  29.504  31.239  1.00  0.00     0.037 A 
ATOM     54  C   UNL A   1      41.581  32.008  37.046  1.00  0.00     0.049 A 
ATOM     55  C   UNL A   1      41.195  29.248  32.222  1.00  0.00     0.074 A 
ATOM     56  C   UNL A   1      42.608  31.649  37.901  1.00  0.00     0.029 A 
ATOM     57  N   UNL A   1      41.691  31.202  35.924  1.00  0.00    -0.354 N 
ATOM     58  N   UNL A   1      41.409  29.786  33.397  1.00  0.00    -0.248 NA
ATOM     59  C   UNL A   1      42.200  28.242  31.837  1.00  0.00     0.031 C 
ATOM     60  C   UNL A   1      43.363  30.650  37.280  1.00  0.00     0.029 A 
ATOM     61  C   UNL A   1      42.776  30.352  36.061  1.00  0.00     0.049 A 
ATOM     62  H   UNL A   1      41.089  31.231  35.147  1.00  0.00     0.167 HD
ATOM     63  C   UNL A   1      42.543  29.160  33.906  1.00  0.00     0.074 A 
ATOM     64  C   UNL A   1      42.966  28.192  32.917  1.00  0.00     0.031 C 
ATOM     65  C   UNL A   1      43.174  29.370  35.087  1.00  0.00     0.037 A 
BRANCH  52  66
ATOM     66  C   UNL A   1      40.610  33.840  38.485  1.00  0.00     0.064 A 
ATOM     67  C   UNL A   1      41.389  35.005  38.569  1.00  0.00     0.173 A 
ATOM     68  C   UNL A   1      39.865  33.466  39.613  1.00  0.00     0.173 A 
ATOM     69  F   UNL A   1      42.133  35.397  37.522  1.00  0.00    -0.203 F 
ATOM     70  C   UNL A   1      41.458  35.736  39.750  1.00  0.00     0.198 A 
ATOM     71  C   UNL A   1      39.908  34.222  40.782  1.00  0.00     0.198 A 
ATOM     72  F   UNL A   1      39.097  32.367  39.584  1.00  0.00    -0.203 F 
ATOM     73  F   UNL A   1      42.266  36.803  39.829  1.00  0.00    -0.200 F 
ATOM     74  C   UNL A   1      40.714  35.348  40.853  1.00  0.00     0.200 A 
ATOM     75  F   UNL A   1      39.178  33.854  41.843  1.00  0.00    -0.200 F 
ATOM     76  F   UNL A   1      40.782  36.053  41.991  1.00  0.00    -0.200 F 
ENDBRANCH  52  66
BRANCH  53  77
ATOM     77  C   UNL A   1      40.016  28.726  29.970  1.00  0.00     0.064 A 
ATOM     78  C   UNL A   1      39.388  27.472  29.923  1.00  0.00     0.173 A 
ATOM     79  C   UNL A   1      40.628  29.191  28.797  1.00  0.00     0.173 A 
ATOM     80  F   UNL A   1      38.813  26.971  31.027  1.00  0.00    -0.203 F 
ATOM     81  C   UNL A   1      39.399  26.702  28.762  1.00  0.00     0.198 A 
ATOM     82  C   UNL A   1      40.614  28.432  27.628  1.00  0.00     0.198 A 
ATOM     83  F   UNL A   1      41.244  30.382  28.788  1.00  0.00    -0.203 F 
ATOM     84  F   UNL A   1      38.842  25.482  28.764  1.00  0.00    -0.200 F 
ATOM     85  C   UNL A   1      40.009  27.184  27.614  1.00  0.00     0.200 A 
ATOM     86  F   UNL A   1      41.198  28.904  26.519  1.00  0.00    -0.200 F 
ATOM     87  F   UNL A   1      40.025  26.441  26.499  1.00  0.00    -0.200 F 
ENDBRANCH  53  77
BRANCH  65  88
ATOM     88  C   UNL A   1      44.354  28.501  35.418  1.00  0.00     0.064 A 
ATOM     89  C   UNL A   1      44.210  27.280  36.093  1.00  0.00     0.173 A 
ATOM     90  C   UNL A   1      45.642  28.869  34.996  1.00  0.00     0.173 A 
ATOM     91  F   UNL A   1      43.004  26.887  36.528  1.00  0.00    -0.203 F 
ATOM     92  C   UNL A   1      45.314  26.471  36.353  1.00  0.00     0.198 A 
ATOM     93  C   UNL A   1      46.739  28.044  35.231  1.00  0.00     0.198 A 
ATOM     94  F   UNL A   1      45.835  30.022  34.339  1.00  0.00    -0.203 F 
ATOM     95  F   UNL A   1      45.160  25.329  37.037  1.00  0.00    -0.200 F 
ATOM     96  C   UNL A   1      46.576  26.848  35.915  1.00  0.00     0.200 A 
ATOM     97  F   UNL A   1      47.953  28.403  34.792  1.00  0.00    -0.200 F 
ATOM     98  F   UNL A   1      47.634  26.062  36.154  1.00  0.00    -0.200 F 
ENDBRANCH  65  88
ENDBRANCH  39  40
ENDBRANCH  32  34
ENDBRANCH  31  32
ENDBRANCH  30  31
ENDBRANCH  29  30
ENDBRANCH  28  29
ENDBRANCH   1  28
TORSDOF 18
ENDMDL
