MODEL 1
REMARK VINA RESULT:     -12.2      0.000      0.000
REMARK SMILES Cc1cc(Cl)c2c(c1)C=C(C(=O)OCCOCCOC(=O)c1ccc(-c3c4nc(c(-c5c(F)c(F)c(F)c(F)c5F)c5ccc([nH]5)c(-c5c(F)c(F)c(F)c(F)c5F)c5nc(c(-c6c(F)c(F)c(F)c(F)c6F)c6ccc3[nH]6)C=C5)C=C4)cc1)[C@@H](C(F)(F)F)O2
REMARK SMILES IDX 17 1 16 2 15 3 14 4 13 5 11 6 12 7 10 8 1 9 2 10 3 11 8 12
REMARK SMILES IDX 4 13 7 14 5 15 6 16 9 17 90 18 85 19 86 20 87 21 88 22 89 23
REMARK SMILES IDX 18 24 19 25 20 26 21 27 22 28 23 29 84 30 24 31 83 32 25 33
REMARK SMILES IDX 26 34 27 35 77 36 28 37 82 38 76 39 78 40 29 41 81 42 75 43
REMARK SMILES IDX 74 44 30 46 62 47 42 48 61 49 43 50 46 51 60 52 79 53 44 54
REMARK SMILES IDX 45 55 59 57 80 58 47 59 31 60 32 61 40 62 33 63 34 64 38 65
REMARK SMILES IDX 41 66 35 67 36 68 39 69 37 70 63 71 64 72 72 73 65 74 66 75
REMARK SMILES IDX 70 76 73 77 67 78 68 79 71 80 69 81 48 82 49 83 57 84 50 85
REMARK SMILES IDX 51 86 55 87 58 88 52 89 53 90 56 91 54 92
REMARK H PARENT 78 45 46 56
REMARK Flexibility Score: inf
ROOT
ATOM      1  C   UNL A   1      31.589  29.098  24.990  1.00  0.00     0.202 C 
ENDROOT
BRANCH   1   2
ATOM      2  O   UNL A   1      30.557  29.026  24.006  1.00  0.00    -0.374 OA
BRANCH   2   3
ATOM      3  C   UNL A   1      30.301  27.762  23.400  1.00  0.00     0.202 C 
BRANCH   3   4
ATOM      4  C   UNL A   1      31.277  27.312  22.310  1.00  0.00     0.261 C 
BRANCH   4   5
ATOM      5  O   UNL A   1      31.492  25.893  22.347  1.00  0.00    -0.460 OA
BRANCH   5   6
ATOM      6  C   UNL A   1      32.669  25.488  21.815  1.00  0.00     0.338 C 
ATOM      7  O   UNL A   1      33.256  25.992  20.868  1.00  0.00    -0.246 OA
BRANCH   6   8
ATOM      8  C   UNL A   1      33.238  24.396  22.626  1.00  0.00     0.087 C 
ATOM      9  C   UNL A   1      32.190  18.462  23.868  1.00  0.00     0.044 C 
ATOM     10  C   UNL A   1      32.860  19.797  24.012  1.00  0.00    -0.049 A 
ATOM     11  C   UNL A   1      33.835  20.016  24.991  1.00  0.00     0.028 A 
ATOM     12  C   UNL A   1      32.531  20.841  23.140  1.00  0.00     0.015 A 
ATOM     13  C   UNL A   1      34.464  21.261  25.098  1.00  0.00     0.084 A 
ATOM     14  C   UNL A   1      33.140  22.097  23.265  1.00  0.00     0.019 A 
ATOM     15  Cl  UNL A   1      35.649  21.473  26.338  1.00  0.00    -0.080 Cl
ATOM     16  C   UNL A   1      34.121  22.311  24.234  1.00  0.00     0.146 A 
ATOM     17  C   UNL A   1      32.701  23.189  22.419  1.00  0.00     0.027 C 
ATOM     18  O   UNL A   1      34.777  23.505  24.372  1.00  0.00    -0.474 OA
ATOM     19  C   UNL A   1      34.326  24.669  23.625  1.00  0.00     0.316 C 
BRANCH  19  20
ATOM     20  C   UNL A   1      33.948  25.772  24.625  1.00  0.00     0.430 C 
ATOM     21  F   UNL A   1      32.677  25.621  25.070  1.00  0.00    -0.167 F 
ATOM     22  F   UNL A   1      34.744  25.749  25.721  1.00  0.00    -0.167 F 
ATOM     23  F   UNL A   1      34.046  27.005  24.080  1.00  0.00    -0.167 F 
ENDBRANCH  19  20
ENDBRANCH   6   8
ENDBRANCH   5   6
ENDBRANCH   4   5
ENDBRANCH   3   4
ENDBRANCH   2   3
ENDBRANCH   1   2
BRANCH   1  24
ATOM     24  C   UNL A   1      31.738  30.422  25.750  1.00  0.00     0.261 C 
BRANCH  24  25
ATOM     25  O   UNL A   1      32.614  30.298  26.886  1.00  0.00    -0.460 OA
BRANCH  25  26
ATOM     26  C   UNL A   1      33.262  31.433  27.237  1.00  0.00     0.338 C 
ATOM     27  O   UNL A   1      32.797  32.564  27.316  1.00  0.00    -0.246 OA
BRANCH  26  28
ATOM     28  C   UNL A   1      34.614  31.104  27.718  1.00  0.00     0.060 A 
ATOM     29  C   UNL A   1      34.905  29.758  27.976  1.00  0.00     0.016 A 
ATOM     30  C   UNL A   1      35.557  32.100  27.977  1.00  0.00     0.016 A 
ATOM     31  C   UNL A   1      36.136  29.406  28.524  1.00  0.00     0.010 A 
ATOM     32  C   UNL A   1      36.789  31.744  28.538  1.00  0.00     0.010 A 
ATOM     33  C   UNL A   1      37.073  30.400  28.839  1.00  0.00    -0.014 A 
BRANCH  33  34
ATOM     34  C   UNL A   1      38.298  30.029  29.586  1.00  0.00     0.031 A 
ATOM     35  C   UNL A   1      38.502  30.568  30.974  1.00  0.00     0.074 A 
ATOM     36  C   UNL A   1      39.188  29.175  29.053  1.00  0.00     0.049 A 
ATOM     37  N   UNL A   1      39.475  30.335  31.817  1.00  0.00    -0.248 NA
ATOM     38  C   UNL A   1      37.472  31.487  31.482  1.00  0.00     0.031 C 
ATOM     39  C   UNL A   1      39.077  28.562  27.730  1.00  0.00     0.029 A 
ATOM     40  N   UNL A   1      40.358  28.667  29.562  1.00  0.00    -0.354 N 
ATOM     41  C   UNL A   1      39.168  31.067  32.957  1.00  0.00     0.074 A 
ATOM     42  C   UNL A   1      37.944  31.787  32.683  1.00  0.00     0.031 C 
ATOM     43  C   UNL A   1      40.131  27.752  27.536  1.00  0.00     0.029 A 
ATOM     44  C   UNL A   1      41.003  27.808  28.709  1.00  0.00     0.049 A 
ATOM     45  H   UNL A   1      40.701  28.898  30.456  1.00  0.00     0.167 HD
ATOM     46  C   UNL A   1      39.839  31.116  34.131  1.00  0.00     0.037 A 
ATOM     47  C   UNL A   1      42.168  27.145  28.857  1.00  0.00     0.037 A 
ATOM     48  C   UNL A   1      41.057  30.399  34.399  1.00  0.00     0.049 A 
ATOM     49  C   UNL A   1      42.940  27.285  30.143  1.00  0.00     0.074 A 
ATOM     50  C   UNL A   1      41.802  30.375  35.564  1.00  0.00     0.029 A 
ATOM     51  N   UNL A   1      41.711  29.585  33.487  1.00  0.00    -0.354 N 
ATOM     52  N   UNL A   1      42.624  27.951  31.228  1.00  0.00    -0.248 NA
ATOM     53  C   UNL A   1      44.230  26.583  30.228  1.00  0.00     0.031 C 
ATOM     54  C   UNL A   1      42.934  29.586  35.342  1.00  0.00     0.029 A 
ATOM     55  C   UNL A   1      42.867  29.076  34.055  1.00  0.00     0.049 A 
ATOM     56  H   UNL A   1      41.400  29.396  32.572  1.00  0.00     0.167 HD
ATOM     57  C   UNL A   1      43.656  27.727  32.129  1.00  0.00     0.074 A 
ATOM     58  C   UNL A   1      44.608  26.859  31.470  1.00  0.00     0.031 C 
ATOM     59  C   UNL A   1      43.797  28.199  33.392  1.00  0.00     0.037 A 
BRANCH  46  60
ATOM     60  C   UNL A   1      39.275  31.973  35.225  1.00  0.00     0.064 A 
ATOM     61  C   UNL A   1      38.499  31.423  36.256  1.00  0.00     0.173 A 
ATOM     62  C   UNL A   1      39.574  33.342  35.285  1.00  0.00     0.173 A 
ATOM     63  F   UNL A   1      38.178  30.121  36.239  1.00  0.00    -0.203 F 
ATOM     64  C   UNL A   1      38.033  32.215  37.301  1.00  0.00     0.198 A 
ATOM     65  C   UNL A   1      39.128  34.126  36.345  1.00  0.00     0.198 A 
ATOM     66  F   UNL A   1      40.318  33.914  34.326  1.00  0.00    -0.203 F 
ATOM     67  F   UNL A   1      37.269  31.675  38.261  1.00  0.00    -0.200 F 
ATOM     68  C   UNL A   1      38.356  33.563  37.350  1.00  0.00     0.200 A 
ATOM     69  F   UNL A   1      39.452  35.425  36.398  1.00  0.00    -0.200 F 
ATOM     70  F   UNL A   1      37.921  34.321  38.366  1.00  0.00    -0.200 F 
ENDBRANCH  46  60
BRANCH  47  71
ATOM     71  C   UNL A   1      42.661  26.271  27.762  1.00  0.00     0.064 A 
ATOM     72  C   UNL A   1      43.562  26.755  26.804  1.00  0.00     0.173 A 
ATOM     73  C   UNL A   1      42.255  24.932  27.659  1.00  0.00     0.173 A 
ATOM     74  F   UNL A   1      43.961  28.034  26.847  1.00  0.00    -0.203 F 
ATOM     75  C   UNL A   1      44.036  25.934  25.782  1.00  0.00     0.198 A 
ATOM     76  C   UNL A   1      42.748  24.106  26.651  1.00  0.00     0.198 A 
ATOM     77  F   UNL A   1      41.391  24.422  28.549  1.00  0.00    -0.203 F 
ATOM     78  F   UNL A   1      44.872  26.430  24.861  1.00  0.00    -0.200 F 
ATOM     79  C   UNL A   1      43.634  24.608  25.711  1.00  0.00     0.200 A 
ATOM     80  F   UNL A   1      42.367  22.822  26.593  1.00  0.00    -0.200 F 
ATOM     81  F   UNL A   1      44.098  23.817  24.734  1.00  0.00    -0.200 F 
ENDBRANCH  47  71
BRANCH  59  82
ATOM     82  C   UNL A   1      45.009  27.779  34.172  1.00  0.00     0.064 A 
ATOM     83  C   UNL A   1      45.017  26.600  34.929  1.00  0.00     0.173 A 
ATOM     84  C   UNL A   1      46.209  28.498  34.055  1.00  0.00     0.173 A 
ATOM     85  F   UNL A   1      43.892  25.885  35.078  1.00  0.00    -0.203 F 
ATOM     86  C   UNL A   1      46.186  26.152  35.539  1.00  0.00     0.198 A 
ATOM     87  C   UNL A   1      47.381  28.033  34.645  1.00  0.00     0.198 A 
ATOM     88  F   UNL A   1      46.254  29.627  33.332  1.00  0.00    -0.203 F 
ATOM     89  F   UNL A   1      46.170  25.028  36.269  1.00  0.00    -0.200 F 
ATOM     90  C   UNL A   1      47.369  26.861  35.385  1.00  0.00     0.200 A 
ATOM     91  F   UNL A   1      48.526  28.709  34.480  1.00  0.00    -0.200 F 
ATOM     92  F   UNL A   1      48.500  26.410  35.946  1.00  0.00    -0.200 F 
ENDBRANCH  59  82
ENDBRANCH  33  34
ENDBRANCH  26  28
ENDBRANCH  25  26
ENDBRANCH  24  25
ENDBRANCH   1  24
TORSDOF 15
ENDMDL
MODEL 2
REMARK VINA RESULT:     -12.1      1.354      1.910
REMARK SMILES Cc1cc(Cl)c2c(c1)C=C(C(=O)OCCOCCOC(=O)c1ccc(-c3c4nc(c(-c5c(F)c(F)c(F)c(F)c5F)c5ccc([nH]5)c(-c5c(F)c(F)c(F)c(F)c5F)c5nc(c(-c6c(F)c(F)c(F)c(F)c6F)c6ccc3[nH]6)C=C5)C=C4)cc1)[C@@H](C(F)(F)F)O2
REMARK SMILES IDX 17 1 16 2 15 3 14 4 13 5 11 6 12 7 10 8 1 9 2 10 3 11 8 12
REMARK SMILES IDX 4 13 7 14 5 15 6 16 9 17 90 18 85 19 86 20 87 21 88 22 89 23
REMARK SMILES IDX 18 24 19 25 20 26 21 27 22 28 23 29 84 30 24 31 83 32 25 33
REMARK SMILES IDX 26 34 27 35 77 36 28 37 82 38 76 39 78 40 29 41 81 42 75 43
REMARK SMILES IDX 74 44 30 46 62 47 42 48 61 49 43 50 46 51 60 52 79 53 44 54
REMARK SMILES IDX 45 55 59 57 80 58 47 59 31 60 32 61 40 62 33 63 34 64 38 65
REMARK SMILES IDX 41 66 35 67 36 68 39 69 37 70 63 71 64 72 72 73 65 74 66 75
REMARK SMILES IDX 70 76 73 77 67 78 68 79 71 80 69 81 48 82 49 83 57 84 50 85
REMARK SMILES IDX 51 86 55 87 58 88 52 89 53 90 56 91 54 92
REMARK H PARENT 78 45 46 56
REMARK Flexibility Score: inf
ROOT
ATOM      1  C   UNL A   1      31.990  29.332  24.907  1.00  0.00     0.202 C 
ENDROOT
BRANCH   1   2
ATOM      2  O   UNL A   1      33.296  29.386  24.331  1.00  0.00    -0.374 OA
BRANCH   2   3
ATOM      3  C   UNL A   1      33.881  28.163  23.892  1.00  0.00     0.202 C 
BRANCH   3   4
ATOM      4  C   UNL A   1      33.612  27.754  22.442  1.00  0.00     0.261 C 
BRANCH   4   5
ATOM      5  O   UNL A   1      32.534  26.809  22.351  1.00  0.00    -0.460 OA
BRANCH   5   6
ATOM      6  C   UNL A   1      32.908  25.565  21.969  1.00  0.00     0.338 C 
ATOM      7  O   UNL A   1      33.022  25.154  20.823  1.00  0.00    -0.246 OA
BRANCH   6   8
ATOM      8  C   UNL A   1      33.291  24.771  23.151  1.00  0.00     0.087 C 
ATOM      9  C   UNL A   1      37.668  20.819  24.905  1.00  0.00     0.044 C 
ATOM     10  C   UNL A   1      36.393  21.600  25.032  1.00  0.00    -0.049 A 
ATOM     11  C   UNL A   1      35.544  21.427  26.130  1.00  0.00     0.028 A 
ATOM     12  C   UNL A   1      36.050  22.539  24.053  1.00  0.00     0.015 A 
ATOM     13  C   UNL A   1      34.369  22.179  26.242  1.00  0.00     0.084 A 
ATOM     14  C   UNL A   1      34.859  23.271  24.150  1.00  0.00     0.019 A 
ATOM     15  Cl  UNL A   1      33.356  21.909  27.616  1.00  0.00    -0.080 Cl
ATOM     16  C   UNL A   1      34.019  23.108  25.253  1.00  0.00     0.146 A 
ATOM     17  C   UNL A   1      34.477  24.157  23.068  1.00  0.00     0.027 C 
ATOM     18  O   UNL A   1      32.866  23.827  25.418  1.00  0.00    -0.474 OA
ATOM     19  C   UNL A   1      32.372  24.661  24.333  1.00  0.00     0.316 C 
BRANCH  19  20
ATOM     20  C   UNL A   1      30.967  24.176  23.947  1.00  0.00     0.430 C 
ATOM     21  F   UNL A   1      30.189  25.201  23.525  1.00  0.00    -0.167 F 
ATOM     22  F   UNL A   1      31.008  23.282  22.929  1.00  0.00    -0.167 F 
ATOM     23  F   UNL A   1      30.334  23.581  24.982  1.00  0.00    -0.167 F 
ENDBRANCH  19  20
ENDBRANCH   6   8
ENDBRANCH   5   6
ENDBRANCH   4   5
ENDBRANCH   3   4
ENDBRANCH   2   3
ENDBRANCH   1   2
BRANCH   1  24
ATOM     24  C   UNL A   1      31.607  30.459  25.874  1.00  0.00     0.261 C 
BRANCH  24  25
ATOM     25  O   UNL A   1      32.415  30.449  27.065  1.00  0.00    -0.460 OA
BRANCH  25  26
ATOM     26  C   UNL A   1      33.147  31.568  27.273  1.00  0.00     0.338 C 
ATOM     27  O   UNL A   1      32.757  32.729  27.249  1.00  0.00    -0.246 OA
BRANCH  26  28
ATOM     28  C   UNL A   1      34.494  31.200  27.736  1.00  0.00     0.060 A 
ATOM     29  C   UNL A   1      34.757  29.844  27.971  1.00  0.00     0.016 A 
ATOM     30  C   UNL A   1      35.463  32.170  28.003  1.00  0.00     0.016 A 
ATOM     31  C   UNL A   1      35.984  29.456  28.502  1.00  0.00     0.010 A 
ATOM     32  C   UNL A   1      36.690  31.778  28.548  1.00  0.00     0.010 A 
ATOM     33  C   UNL A   1      36.946  30.423  28.824  1.00  0.00    -0.014 A 
BRANCH  33  34
ATOM     34  C   UNL A   1      38.168  30.012  29.555  1.00  0.00     0.031 A 
ATOM     35  C   UNL A   1      38.406  30.539  30.942  1.00  0.00     0.074 A 
ATOM     36  C   UNL A   1      39.025  29.133  29.008  1.00  0.00     0.049 A 
ATOM     37  N   UNL A   1      39.382  30.274  31.772  1.00  0.00    -0.248 NA
ATOM     38  C   UNL A   1      37.411  31.488  31.466  1.00  0.00     0.031 C 
ATOM     39  C   UNL A   1      38.880  28.529  27.685  1.00  0.00     0.029 A 
ATOM     40  N   UNL A   1      40.185  28.588  29.501  1.00  0.00    -0.354 N 
ATOM     41  C   UNL A   1      39.112  31.010  32.918  1.00  0.00     0.074 A 
ATOM     42  C   UNL A   1      37.907  31.768  32.662  1.00  0.00     0.031 C 
ATOM     43  C   UNL A   1      39.906  27.688  27.475  1.00  0.00     0.029 A 
ATOM     44  C   UNL A   1      40.794  27.713  28.637  1.00  0.00     0.049 A 
ATOM     45  H   UNL A   1      40.546  28.806  30.391  1.00  0.00     0.167 HD
ATOM     46  C   UNL A   1      39.798  31.035  34.084  1.00  0.00     0.037 A 
ATOM     47  C   UNL A   1      41.939  27.014  28.768  1.00  0.00     0.037 A 
ATOM     48  C   UNL A   1      40.997  30.280  34.335  1.00  0.00     0.049 A 
ATOM     49  C   UNL A   1      42.731  27.126  30.045  1.00  0.00     0.074 A 
ATOM     50  C   UNL A   1      41.756  30.229  35.490  1.00  0.00     0.029 A 
ATOM     51  N   UNL A   1      41.615  29.450  33.411  1.00  0.00    -0.354 N 
ATOM     52  N   UNL A   1      42.449  27.797  31.136  1.00  0.00    -0.248 NA
ATOM     53  C   UNL A   1      44.001  26.385  30.112  1.00  0.00     0.031 C 
ATOM     54  C   UNL A   1      42.860  29.407  35.251  1.00  0.00     0.029 A 
ATOM     55  C   UNL A   1      42.761  28.905  33.963  1.00  0.00     0.049 A 
ATOM     56  H   UNL A   1      41.287  29.274  32.500  1.00  0.00     0.167 HD
ATOM     57  C   UNL A   1      43.485  27.539  32.023  1.00  0.00     0.074 A 
ATOM     58  C   UNL A   1      44.402  26.645  31.349  1.00  0.00     0.031 C 
ATOM     59  C   UNL A   1      43.657  28.001  33.286  1.00  0.00     0.037 A 
BRANCH  46  60
ATOM     60  C   UNL A   1      39.275  31.905  35.187  1.00  0.00     0.064 A 
ATOM     61  C   UNL A   1      38.505  31.373  36.233  1.00  0.00     0.173 A 
ATOM     62  C   UNL A   1      39.606  33.267  35.241  1.00  0.00     0.173 A 
ATOM     63  F   UNL A   1      38.154  30.078  36.222  1.00  0.00    -0.203 F 
ATOM     64  C   UNL A   1      38.077  32.176  37.286  1.00  0.00     0.198 A 
ATOM     65  C   UNL A   1      39.197  34.061  36.309  1.00  0.00     0.198 A 
ATOM     66  F   UNL A   1      40.345  33.821  34.269  1.00  0.00    -0.203 F 
ATOM     67  F   UNL A   1      37.318  31.654  38.260  1.00  0.00    -0.200 F 
ATOM     68  C   UNL A   1      38.432  33.516  37.329  1.00  0.00     0.200 A 
ATOM     69  F   UNL A   1      39.553  35.352  36.356  1.00  0.00    -0.200 F 
ATOM     70  F   UNL A   1      38.033  34.284  38.352  1.00  0.00    -0.200 F 
ENDBRANCH  46  60
BRANCH  47  71
ATOM     71  C   UNL A   1      42.392  26.129  27.665  1.00  0.00     0.064 A 
ATOM     72  C   UNL A   1      43.352  26.564  26.740  1.00  0.00     0.173 A 
ATOM     73  C   UNL A   1      41.888  24.828  27.520  1.00  0.00     0.173 A 
ATOM     74  F   UNL A   1      43.846  27.807  26.823  1.00  0.00    -0.203 F 
ATOM     75  C   UNL A   1      43.786  25.732  25.709  1.00  0.00     0.198 A 
ATOM     76  C   UNL A   1      42.342  23.989  26.504  1.00  0.00     0.198 A 
ATOM     77  F   UNL A   1      40.966  24.366  28.377  1.00  0.00    -0.203 F 
ATOM     78  F   UNL A   1      44.681  26.183  24.821  1.00  0.00    -0.200 F 
ATOM     79  C   UNL A   1      43.287  24.443  25.598  1.00  0.00     0.200 A 
ATOM     80  F   UNL A   1      41.866  22.740  26.406  1.00  0.00    -0.200 F 
ATOM     81  F   UNL A   1      43.714  23.640  24.612  1.00  0.00    -0.200 F 
ENDBRANCH  47  71
BRANCH  59  82
ATOM     82  C   UNL A   1      44.864  27.543  34.049  1.00  0.00     0.064 A 
ATOM     83  C   UNL A   1      46.044  28.299  34.072  1.00  0.00     0.173 A 
ATOM     84  C   UNL A   1      44.794  26.403  34.866  1.00  0.00     0.173 A 
ATOM     85  F   UNL A   1      46.161  29.390  33.301  1.00  0.00    -0.203 F 
ATOM     86  C   UNL A   1      47.111  27.933  34.889  1.00  0.00     0.198 A 
ATOM     87  C   UNL A   1      45.853  26.055  35.700  1.00  0.00     0.198 A 
ATOM     88  F   UNL A   1      43.682  25.653  34.887  1.00  0.00    -0.203 F 
ATOM     89  F   UNL A   1      48.235  28.663  34.887  1.00  0.00    -0.200 F 
ATOM     90  C   UNL A   1      47.009  26.820  35.712  1.00  0.00     0.200 A 
ATOM     91  F   UNL A   1      45.746  24.991  36.508  1.00  0.00    -0.200 F 
ATOM     92  F   UNL A   1      48.024  26.489  36.521  1.00  0.00    -0.200 F 
ENDBRANCH  59  82
ENDBRANCH  33  34
ENDBRANCH  26  28
ENDBRANCH  25  26
ENDBRANCH  24  25
ENDBRANCH   1  24
TORSDOF 15
ENDMDL
MODEL 3
REMARK VINA RESULT:     -12.1      5.552     11.339
REMARK SMILES Cc1cc(Cl)c2c(c1)C=C(C(=O)OCCOCCOC(=O)c1ccc(-c3c4nc(c(-c5c(F)c(F)c(F)c(F)c5F)c5ccc([nH]5)c(-c5c(F)c(F)c(F)c(F)c5F)c5nc(c(-c6c(F)c(F)c(F)c(F)c6F)c6ccc3[nH]6)C=C5)C=C4)cc1)[C@@H](C(F)(F)F)O2
REMARK SMILES IDX 17 1 16 2 15 3 14 4 13 5 11 6 12 7 10 8 1 9 2 10 3 11 8 12
REMARK SMILES IDX 4 13 7 14 5 15 6 16 9 17 90 18 85 19 86 20 87 21 88 22 89 23
REMARK SMILES IDX 18 24 19 25 20 26 21 27 22 28 23 29 84 30 24 31 83 32 25 33
REMARK SMILES IDX 26 34 27 35 77 36 28 37 82 38 76 39 78 40 29 41 81 42 75 43
REMARK SMILES IDX 74 44 30 46 62 47 42 48 61 49 43 50 46 51 60 52 79 53 44 54
REMARK SMILES IDX 45 55 59 57 80 58 47 59 31 60 32 61 40 62 33 63 34 64 38 65
REMARK SMILES IDX 41 66 35 67 36 68 39 69 37 70 63 71 64 72 72 73 65 74 66 75
REMARK SMILES IDX 70 76 73 77 67 78 68 79 71 80 69 81 48 82 49 83 57 84 50 85
REMARK SMILES IDX 51 86 55 87 58 88 52 89 53 90 56 91 54 92
REMARK H PARENT 78 45 46 56
REMARK Flexibility Score: inf
ROOT
ATOM      1  C   UNL A   1      42.183  19.477  26.279  1.00  0.00     0.202 C 
ENDROOT
BRANCH   1   2
ATOM      2  O   UNL A   1      42.669  18.997  25.025  1.00  0.00    -0.374 OA
BRANCH   2   3
ATOM      3  C   UNL A   1      44.077  18.838  24.873  1.00  0.00     0.202 C 
BRANCH   3   4
ATOM      4  C   UNL A   1      44.959  19.964  25.418  1.00  0.00     0.261 C 
BRANCH   4   5
ATOM      5  O   UNL A   1      44.865  21.147  24.610  1.00  0.00    -0.460 OA
BRANCH   5   6
ATOM      6  C   UNL A   1      44.141  22.149  25.161  1.00  0.00     0.338 C 
ATOM      7  O   UNL A   1      42.977  22.432  24.916  1.00  0.00    -0.246 OA
BRANCH   6   8
ATOM      8  C   UNL A   1      44.923  22.809  26.223  1.00  0.00     0.087 C 
ATOM      9  C   UNL A   1      44.150  25.012  31.915  1.00  0.00     0.044 C 
ATOM     10  C   UNL A   1      44.886  24.746  30.634  1.00  0.00    -0.049 A 
ATOM     11  C   UNL A   1      46.167  25.262  30.414  1.00  0.00     0.028 A 
ATOM     12  C   UNL A   1      44.300  23.946  29.647  1.00  0.00     0.015 A 
ATOM     13  C   UNL A   1      46.846  24.987  29.222  1.00  0.00     0.084 A 
ATOM     14  C   UNL A   1      44.968  23.694  28.441  1.00  0.00     0.019 A 
ATOM     15  Cl  UNL A   1      48.420  25.666  29.005  1.00  0.00    -0.080 Cl
ATOM     16  C   UNL A   1      46.252  24.199  28.227  1.00  0.00     0.146 A 
ATOM     17  C   UNL A   1      44.293  22.953  27.394  1.00  0.00     0.027 C 
ATOM     18  O   UNL A   1      46.965  23.948  27.086  1.00  0.00    -0.474 OA
ATOM     19  C   UNL A   1      46.319  23.296  25.957  1.00  0.00     0.316 C 
BRANCH  19  20
ATOM     20  C   UNL A   1      46.398  24.233  24.743  1.00  0.00     0.430 C 
ATOM     21  F   UNL A   1      47.438  25.094  24.850  1.00  0.00    -0.167 F 
ATOM     22  F   UNL A   1      46.586  23.545  23.591  1.00  0.00    -0.167 F 
ATOM     23  F   UNL A   1      45.273  24.968  24.596  1.00  0.00    -0.167 F 
ENDBRANCH  19  20
ENDBRANCH   6   8
ENDBRANCH   5   6
ENDBRANCH   4   5
ENDBRANCH   3   4
ENDBRANCH   2   3
ENDBRANCH   1   2
BRANCH   1  24
ATOM     24  C   UNL A   1      40.684  19.784  26.375  1.00  0.00     0.261 C 
BRANCH  24  25
ATOM     25  O   UNL A   1      40.422  20.967  27.153  1.00  0.00    -0.460 OA
BRANCH  25  26
ATOM     26  C   UNL A   1      39.652  21.898  26.543  1.00  0.00     0.338 C 
ATOM     27  O   UNL A   1      38.723  21.705  25.769  1.00  0.00    -0.246 OA
BRANCH  26  28
ATOM     28  C   UNL A   1      39.956  23.230  27.091  1.00  0.00     0.060 A 
ATOM     29  C   UNL A   1      39.475  24.347  26.395  1.00  0.00     0.016 A 
ATOM     30  C   UNL A   1      40.756  23.386  28.224  1.00  0.00     0.016 A 
ATOM     31  C   UNL A   1      39.818  25.628  26.818  1.00  0.00     0.010 A 
ATOM     32  C   UNL A   1      41.109  24.675  28.639  1.00  0.00     0.010 A 
ATOM     33  C   UNL A   1      40.663  25.800  27.923  1.00  0.00    -0.014 A 
BRANCH  33  34
ATOM     34  C   UNL A   1      41.164  27.157  28.246  1.00  0.00     0.031 A 
ATOM     35  C   UNL A   1      42.581  27.517  27.902  1.00  0.00     0.074 A 
ATOM     36  C   UNL A   1      40.344  28.074  28.789  1.00  0.00     0.049 A 
ATOM     37  N   UNL A   1      43.206  28.656  28.055  1.00  0.00    -0.248 NA
ATOM     38  C   UNL A   1      43.404  26.456  27.300  1.00  0.00     0.031 C 
ATOM     39  C   UNL A   1      38.942  27.848  29.134  1.00  0.00     0.029 A 
ATOM     40  N   UNL A   1      40.571  29.382  29.138  1.00  0.00    -0.354 N 
ATOM     41  C   UNL A   1      44.487  28.453  27.559  1.00  0.00     0.074 A 
ATOM     42  C   UNL A   1      44.567  27.071  27.141  1.00  0.00     0.031 C 
ATOM     43  C   UNL A   1      38.429  28.984  29.636  1.00  0.00     0.029 A 
ATOM     44  C   UNL A   1      39.472  30.008  29.671  1.00  0.00     0.049 A 
ATOM     45  H   UNL A   1      41.440  29.829  29.017  1.00  0.00     0.167 HD
ATOM     46  C   UNL A   1      45.497  29.346  27.445  1.00  0.00     0.037 A 
ATOM     47  C   UNL A   1      39.327  31.264  30.138  1.00  0.00     0.037 A 
ATOM     48  C   UNL A   1      45.415  30.721  27.863  1.00  0.00     0.049 A 
ATOM     49  C   UNL A   1      40.495  32.215  30.079  1.00  0.00     0.074 A 
ATOM     50  C   UNL A   1      46.382  31.705  27.775  1.00  0.00     0.029 A 
ATOM     51  N   UNL A   1      44.303  31.300  28.453  1.00  0.00    -0.354 N 
ATOM     52  N   UNL A   1      41.690  32.024  29.575  1.00  0.00    -0.248 NA
ATOM     53  C   UNL A   1      40.295  33.555  30.652  1.00  0.00     0.031 C 
ATOM     54  C   UNL A   1      45.873  32.870  28.357  1.00  0.00     0.029 A 
ATOM     55  C   UNL A   1      44.570  32.624  28.761  1.00  0.00     0.049 A 
ATOM     56  H   UNL A   1      43.449  30.841  28.627  1.00  0.00     0.167 HD
ATOM     57  C   UNL A   1      42.373  33.221  29.744  1.00  0.00     0.074 A 
ATOM     58  C   UNL A   1      41.459  34.137  30.393  1.00  0.00     0.031 C 
ATOM     59  C   UNL A   1      43.645  33.530  29.390  1.00  0.00     0.037 A 
BRANCH  46  60
ATOM     60  C   UNL A   1      46.787  28.873  26.843  1.00  0.00     0.064 A 
ATOM     61  C   UNL A   1      46.876  28.532  25.486  1.00  0.00     0.173 A 
ATOM     62  C   UNL A   1      47.960  28.831  27.611  1.00  0.00     0.173 A 
ATOM     63  F   UNL A   1      45.781  28.547  24.711  1.00  0.00    -0.203 F 
ATOM     64  C   UNL A   1      48.091  28.155  24.921  1.00  0.00     0.198 A 
ATOM     65  C   UNL A   1      49.178  28.478  27.037  1.00  0.00     0.198 A 
ATOM     66  F   UNL A   1      47.927  29.154  28.913  1.00  0.00    -0.203 F 
ATOM     67  F   UNL A   1      48.149  27.804  23.629  1.00  0.00    -0.200 F 
ATOM     68  C   UNL A   1      49.243  28.137  25.695  1.00  0.00     0.200 A 
ATOM     69  F   UNL A   1      50.292  28.475  27.783  1.00  0.00    -0.200 F 
ATOM     70  F   UNL A   1      50.415  27.790  25.146  1.00  0.00    -0.200 F 
ENDBRANCH  46  60
BRANCH  47  71
ATOM     71  C   UNL A   1      38.015  31.700  30.681  1.00  0.00     0.064 A 
ATOM     72  C   UNL A   1      36.996  32.150  29.830  1.00  0.00     0.173 A 
ATOM     73  C   UNL A   1      37.746  31.662  32.057  1.00  0.00     0.173 A 
ATOM     74  F   UNL A   1      37.213  32.227  28.509  1.00  0.00    -0.203 F 
ATOM     75  C   UNL A   1      35.760  32.550  30.334  1.00  0.00     0.198 A 
ATOM     76  C   UNL A   1      36.501  32.038  32.559  1.00  0.00     0.198 A 
ATOM     77  F   UNL A   1      38.688  31.242  32.914  1.00  0.00    -0.203 F 
ATOM     78  F   UNL A   1      34.815  33.005  29.502  1.00  0.00    -0.200 F 
ATOM     79  C   UNL A   1      35.511  32.485  31.698  1.00  0.00     0.200 A 
ATOM     80  F   UNL A   1      36.261  31.964  33.875  1.00  0.00    -0.200 F 
ATOM     81  F   UNL A   1      34.318  32.860  32.182  1.00  0.00    -0.200 F 
ENDBRANCH  47  71
BRANCH  59  82
ATOM     82  C   UNL A   1      44.136  34.921  29.666  1.00  0.00     0.064 A 
ATOM     83  C   UNL A   1      43.942  35.960  28.746  1.00  0.00     0.173 A 
ATOM     84  C   UNL A   1      44.691  35.240  30.915  1.00  0.00     0.173 A 
ATOM     85  F   UNL A   1      43.425  35.701  27.535  1.00  0.00    -0.203 F 
ATOM     86  C   UNL A   1      44.282  37.271  29.068  1.00  0.00     0.198 A 
ATOM     87  C   UNL A   1      45.006  36.556  31.243  1.00  0.00     0.198 A 
ATOM     88  F   UNL A   1      44.886  34.282  31.834  1.00  0.00    -0.203 F 
ATOM     89  F   UNL A   1      44.099  38.248  28.169  1.00  0.00    -0.200 F 
ATOM     90  C   UNL A   1      44.800  37.570  30.320  1.00  0.00     0.200 A 
ATOM     91  F   UNL A   1      45.488  36.845  32.459  1.00  0.00    -0.200 F 
ATOM     92  F   UNL A   1      45.096  38.837  30.639  1.00  0.00    -0.200 F 
ENDBRANCH  59  82
ENDBRANCH  33  34
ENDBRANCH  26  28
ENDBRANCH  25  26
ENDBRANCH  24  25
ENDBRANCH   1  24
TORSDOF 15
ENDMDL
