MODEL 1
REMARK VINA RESULT:     -11.4      0.000      0.000
REMARK SMILES CN1CCN(C(=O)N2CCC[C@H]2CC(=O)OCCOCCOC(=O)c2ccc(-c3c4nc(c(-c5c(F)c(F)c(F)c(F)c5F)c5ccc([nH]5)c(-c5c(F)c(F)c(F)c(F)c5F)c5nc(c(-c6c(F)c(F)c(F)c(F)c6F)c6ccc3[nH]6)C=C5)C=C4)cc2)C(C)(C)C1=O
REMARK SMILES IDX 18 1 17 2 16 3 14 4 15 5 13 6 12 7 8 8 9 9 10 10 11 11 6 12
REMARK SMILES IDX 7 13 5 14 1 15 2 16 3 17 91 18 4 19 88 20 92 21 89 22 90 23
REMARK SMILES IDX 19 24 20 25 21 26 22 27 23 28 24 29 25 30 26 31 87 32 27 33
REMARK SMILES IDX 86 34 28 35 29 36 30 37 80 38 31 39 85 40 79 41 81 42 32 43
REMARK SMILES IDX 84 44 78 45 77 46 33 48 65 49 45 50 64 51 46 52 49 53 63 54
REMARK SMILES IDX 82 55 47 56 48 57 62 59 83 60 50 61 34 62 35 63 43 64 36 65
REMARK SMILES IDX 37 66 41 67 44 68 38 69 39 70 42 71 40 72 66 73 67 74 75 75
REMARK SMILES IDX 68 76 69 77 73 78 76 79 70 80 71 81 74 82 72 83 51 84 52 85
REMARK SMILES IDX 60 86 53 87 54 88 58 89 61 90 55 91 56 92 59 93 57 94
REMARK H PARENT 81 47 49 58
REMARK Flexibility Score: inf
ROOT
ATOM      1  C   UNL A   1      31.475  29.334  24.321  1.00  0.00     0.202 C 
ENDROOT
BRANCH   1   2
ATOM      2  C   UNL A   1      32.792  28.951  23.630  1.00  0.00     0.261 C 
BRANCH   2   3
ATOM      3  O   UNL A   1      33.270  27.684  24.114  1.00  0.00    -0.463 OA
BRANCH   3   4
ATOM      4  C   UNL A   1      33.544  26.768  23.150  1.00  0.00     0.307 C 
ATOM      5  O   UNL A   1      33.860  27.051  22.001  1.00  0.00    -0.252 OA
BRANCH   4   6
ATOM      6  C   UNL A   1      33.513  25.360  23.698  1.00  0.00     0.147 C 
BRANCH   6   7
ATOM      7  C   UNL A   1      32.143  24.684  23.795  1.00  0.00     0.098 C 
ATOM      8  N   UNL A   1      31.541  24.712  25.127  1.00  0.00    -0.321 N 
ATOM      9  C   UNL A   1      30.584  25.795  25.193  1.00  0.00     0.122 C 
ATOM     10  C   UNL A   1      29.983  25.828  23.798  1.00  0.00     0.024 C 
ATOM     11  C   UNL A   1      31.079  25.295  22.874  1.00  0.00     0.027 C 
BRANCH   8  12
ATOM     12  C   UNL A   1      31.925  23.815  26.094  1.00  0.00     0.321 C 
ATOM     13  O   UNL A   1      31.650  24.005  27.282  1.00  0.00    -0.248 OA
BRANCH  12  14
ATOM     14  N   UNL A   1      32.583  22.657  25.692  1.00  0.00    -0.309 N 
ATOM     15  C   UNL A   1      34.243  18.876  24.464  1.00  0.00     0.146 C 
ATOM     16  N   UNL A   1      33.696  20.099  25.027  1.00  0.00    -0.342 N 
ATOM     17  C   UNL A   1      32.293  20.366  24.758  1.00  0.00     0.140 C 
ATOM     18  C   UNL A   1      34.557  21.083  25.507  1.00  0.00     0.247 C 
ATOM     19  C   UNL A   1      31.691  21.502  25.570  1.00  0.00     0.144 C 
ATOM     20  C   UNL A   1      33.917  22.291  26.280  1.00  0.00     0.118 C 
ATOM     21  O   UNL A   1      35.780  20.919  25.484  1.00  0.00    -0.272 OA
ATOM     22  C   UNL A   1      33.753  21.821  27.747  1.00  0.00     0.045 C 
ATOM     23  C   UNL A   1      34.955  23.427  26.301  1.00  0.00     0.045 C 
ENDBRANCH  12  14
ENDBRANCH   8  12
ENDBRANCH   6   7
ENDBRANCH   4   6
ENDBRANCH   3   4
ENDBRANCH   2   3
ENDBRANCH   1   2
BRANCH   1  24
ATOM     24  O   UNL A   1      31.440  29.186  25.744  1.00  0.00    -0.374 OA
BRANCH  24  25
ATOM     25  C   UNL A   1      32.414  29.901  26.503  1.00  0.00     0.202 C 
BRANCH  25  26
ATOM     26  C   UNL A   1      32.073  31.358  26.842  1.00  0.00     0.261 C 
BRANCH  26  27
ATOM     27  O   UNL A   1      33.174  32.265  26.647  1.00  0.00    -0.460 OA
BRANCH  27  28
ATOM     28  C   UNL A   1      33.704  32.774  27.781  1.00  0.00     0.338 C 
ATOM     29  O   UNL A   1      33.193  33.615  28.523  1.00  0.00    -0.246 OA
BRANCH  28  30
ATOM     30  C   UNL A   1      35.010  32.174  28.090  1.00  0.00     0.060 A 
ATOM     31  C   UNL A   1      35.044  30.842  28.504  1.00  0.00     0.016 A 
ATOM     32  C   UNL A   1      36.159  32.961  28.162  1.00  0.00     0.016 A 
ATOM     33  C   UNL A   1      36.224  30.310  29.035  1.00  0.00     0.010 A 
ATOM     34  C   UNL A   1      37.343  32.430  28.685  1.00  0.00     0.010 A 
ATOM     35  C   UNL A   1      37.370  31.112  29.163  1.00  0.00    -0.014 A 
BRANCH  35  36
ATOM     36  C   UNL A   1      38.553  30.581  29.884  1.00  0.00     0.031 A 
ATOM     37  C   UNL A   1      38.807  30.976  31.313  1.00  0.00     0.074 A 
ATOM     38  C   UNL A   1      39.382  29.714  29.278  1.00  0.00     0.049 A 
ATOM     39  N   UNL A   1      39.690  30.505  32.158  1.00  0.00    -0.248 NA
ATOM     40  C   UNL A   1      37.959  32.044  31.864  1.00  0.00     0.031 C 
ATOM     41  C   UNL A   1      39.272  29.275  27.888  1.00  0.00     0.029 A 
ATOM     42  N   UNL A   1      40.478  29.042  29.760  1.00  0.00    -0.354 N 
ATOM     43  C   UNL A   1      39.490  31.200  33.343  1.00  0.00     0.074 A 
ATOM     44  C   UNL A   1      38.436  32.161  33.096  1.00  0.00     0.031 C 
ATOM     45  C   UNL A   1      40.258  28.401  27.629  1.00  0.00     0.029 A 
ATOM     46  C   UNL A   1      41.064  28.215  28.835  1.00  0.00     0.049 A 
ATOM     47  H   UNL A   1      40.810  29.144  30.681  1.00  0.00     0.167 HD
ATOM     48  C   UNL A   1      40.112  31.036  34.536  1.00  0.00     0.037 A 
ATOM     49  C   UNL A   1      42.121  27.390  28.953  1.00  0.00     0.037 A 
ATOM     50  C   UNL A   1      41.166  30.088  34.786  1.00  0.00     0.049 A 
ATOM     51  C   UNL A   1      42.809  27.237  30.282  1.00  0.00     0.074 A 
ATOM     52  C   UNL A   1      41.811  29.805  35.979  1.00  0.00     0.029 A 
ATOM     53  N   UNL A   1      41.744  29.279  33.820  1.00  0.00    -0.354 N 
ATOM     54  N   UNL A   1      42.537  27.816  31.424  1.00  0.00    -0.248 NA
ATOM     55  C   UNL A   1      43.937  26.296  30.338  1.00  0.00     0.031 C 
ATOM     56  C   UNL A   1      42.807  28.855  35.725  1.00  0.00     0.029 A 
ATOM     57  C   UNL A   1      42.757  28.518  34.383  1.00  0.00     0.049 A 
ATOM     58  H   UNL A   1      41.475  29.249  32.874  1.00  0.00     0.167 HD
ATOM     59  C   UNL A   1      43.441  27.295  32.340  1.00  0.00     0.074 A 
ATOM     60  C   UNL A   1      44.266  26.345  31.622  1.00  0.00     0.031 C 
ATOM     61  C   UNL A   1      43.572  27.577  33.660  1.00  0.00     0.037 A 
BRANCH  48  62
ATOM     62  C   UNL A   1      39.659  31.898  35.675  1.00  0.00     0.064 A 
ATOM     63  C   UNL A   1      40.247  33.148  35.921  1.00  0.00     0.173 A 
ATOM     64  C   UNL A   1      38.595  31.498  36.496  1.00  0.00     0.173 A 
ATOM     65  F   UNL A   1      41.272  33.570  35.166  1.00  0.00    -0.203 F 
ATOM     66  C   UNL A   1      39.798  33.957  36.960  1.00  0.00     0.198 A 
ATOM     67  C   UNL A   1      38.135  32.320  37.522  1.00  0.00     0.198 A 
ATOM     68  F   UNL A   1      37.995  30.315  36.297  1.00  0.00    -0.203 F 
ATOM     69  F   UNL A   1      40.396  35.134  37.197  1.00  0.00    -0.200 F 
ATOM     70  C   UNL A   1      38.739  33.546  37.756  1.00  0.00     0.200 A 
ATOM     71  F   UNL A   1      37.106  31.926  38.285  1.00  0.00    -0.200 F 
ATOM     72  F   UNL A   1      38.305  34.330  38.753  1.00  0.00    -0.200 F 
ENDBRANCH  48  62
BRANCH  49  73
ATOM     73  C   UNL A   1      42.567  26.607  27.775  1.00  0.00     0.064 A 
ATOM     74  C   UNL A   1      42.002  25.358  27.484  1.00  0.00     0.173 A 
ATOM     75  C   UNL A   1      43.555  27.100  26.912  1.00  0.00     0.173 A 
ATOM     76  F   UNL A   1      41.068  24.841  28.294  1.00  0.00    -0.203 F 
ATOM     77  C   UNL A   1      42.418  24.625  26.374  1.00  0.00     0.198 A 
ATOM     78  C   UNL A   1      43.956  26.375  25.792  1.00  0.00     0.198 A 
ATOM     79  F   UNL A   1      44.123  28.291  27.152  1.00  0.00    -0.203 F 
ATOM     80  F   UNL A   1      41.883  23.420  26.132  1.00  0.00    -0.200 F 
ATOM     81  C   UNL A   1      43.389  25.136  25.527  1.00  0.00     0.200 A 
ATOM     82  F   UNL A   1      44.889  26.875  24.971  1.00  0.00    -0.200 F 
ATOM     83  F   UNL A   1      43.784  24.433  24.456  1.00  0.00    -0.200 F 
ENDBRANCH  49  73
BRANCH  61  84
ATOM     84  C   UNL A   1      44.631  26.836  34.420  1.00  0.00     0.064 A 
ATOM     85  C   UNL A   1      45.914  27.373  34.601  1.00  0.00     0.173 A 
ATOM     86  C   UNL A   1      44.351  25.590  35.000  1.00  0.00     0.173 A 
ATOM     87  F   UNL A   1      46.234  28.554  34.052  1.00  0.00    -0.203 F 
ATOM     88  C   UNL A   1      46.885  26.679  35.318  1.00  0.00     0.198 A 
ATOM     89  C   UNL A   1      45.318  24.908  35.735  1.00  0.00     0.198 A 
ATOM     90  F   UNL A   1      43.138  25.036  34.859  1.00  0.00    -0.203 F 
ATOM     91  F   UNL A   1      48.117  27.193  35.446  1.00  0.00    -0.200 F 
ATOM     92  C   UNL A   1      46.585  25.451  35.889  1.00  0.00     0.200 A 
ATOM     93  F   UNL A   1      45.024  23.725  36.292  1.00  0.00    -0.200 F 
ATOM     94  F   UNL A   1      47.521  24.785  36.580  1.00  0.00    -0.200 F 
ENDBRANCH  61  84
ENDBRANCH  35  36
ENDBRANCH  28  30
ENDBRANCH  27  28
ENDBRANCH  26  27
ENDBRANCH  25  26
ENDBRANCH  24  25
ENDBRANCH   1  24
TORSDOF 17
ENDMDL
MODEL 2
REMARK VINA RESULT:     -11.2      4.857      8.695
REMARK SMILES CN1CCN(C(=O)N2CCC[C@H]2CC(=O)OCCOCCOC(=O)c2ccc(-c3c4nc(c(-c5c(F)c(F)c(F)c(F)c5F)c5ccc([nH]5)c(-c5c(F)c(F)c(F)c(F)c5F)c5nc(c(-c6c(F)c(F)c(F)c(F)c6F)c6ccc3[nH]6)C=C5)C=C4)cc2)C(C)(C)C1=O
REMARK SMILES IDX 18 1 17 2 16 3 14 4 15 5 13 6 12 7 8 8 9 9 10 10 11 11 6 12
REMARK SMILES IDX 7 13 5 14 1 15 2 16 3 17 91 18 4 19 88 20 92 21 89 22 90 23
REMARK SMILES IDX 19 24 20 25 21 26 22 27 23 28 24 29 25 30 26 31 87 32 27 33
REMARK SMILES IDX 86 34 28 35 29 36 30 37 80 38 31 39 85 40 79 41 81 42 32 43
REMARK SMILES IDX 84 44 78 45 77 46 33 48 65 49 45 50 64 51 46 52 49 53 63 54
REMARK SMILES IDX 82 55 47 56 48 57 62 59 83 60 50 61 34 62 35 63 43 64 36 65
REMARK SMILES IDX 37 66 41 67 44 68 38 69 39 70 42 71 40 72 66 73 67 74 75 75
REMARK SMILES IDX 68 76 69 77 73 78 76 79 70 80 71 81 74 82 72 83 51 84 52 85
REMARK SMILES IDX 60 86 53 87 54 88 58 89 61 90 55 91 56 92 59 93 57 94
REMARK H PARENT 81 47 49 58
REMARK Flexibility Score: inf
ROOT
ATOM      1  C   UNL A   1      38.315  23.174  26.380  1.00  0.00     0.202 C 
ENDROOT
BRANCH   1   2
ATOM      2  C   UNL A   1      37.762  23.703  25.049  1.00  0.00     0.261 C 
BRANCH   2   3
ATOM      3  O   UNL A   1      36.338  23.513  24.980  1.00  0.00    -0.463 OA
BRANCH   3   4
ATOM      4  C   UNL A   1      35.869  23.131  23.765  1.00  0.00     0.307 C 
ATOM      5  O   UNL A   1      36.551  23.072  22.750  1.00  0.00    -0.252 OA
BRANCH   4   6
ATOM      6  C   UNL A   1      34.426  22.686  23.844  1.00  0.00     0.147 C 
BRANCH   6   7
ATOM      7  C   UNL A   1      33.967  22.051  25.158  1.00  0.00     0.098 C 
ATOM      8  N   UNL A   1      32.564  22.285  25.492  1.00  0.00    -0.321 N 
ATOM      9  C   UNL A   1      31.784  21.129  25.106  1.00  0.00     0.122 C 
ATOM     10  C   UNL A   1      32.717  19.961  25.374  1.00  0.00     0.024 C 
ATOM     11  C   UNL A   1      34.128  20.525  25.203  1.00  0.00     0.027 C 
BRANCH   8  12
ATOM     12  C   UNL A   1      32.161  23.471  26.057  1.00  0.00     0.321 C 
ATOM     13  O   UNL A   1      31.671  23.501  27.189  1.00  0.00    -0.248 OA
BRANCH  12  14
ATOM     14  N   UNL A   1      32.377  24.645  25.343  1.00  0.00    -0.309 N 
ATOM     15  C   UNL A   1      33.229  28.435  23.478  1.00  0.00     0.146 C 
ATOM     16  N   UNL A   1      32.812  27.225  24.167  1.00  0.00    -0.342 N 
ATOM     17  C   UNL A   1      33.653  26.783  25.268  1.00  0.00     0.140 C 
ATOM     18  C   UNL A   1      31.858  26.392  23.586  1.00  0.00     0.247 C 
ATOM     19  C   UNL A   1      33.055  25.680  26.126  1.00  0.00     0.144 C 
ATOM     20  C   UNL A   1      31.303  25.210  24.456  1.00  0.00     0.118 C 
ATOM     21  O   UNL A   1      31.342  26.682  22.503  1.00  0.00    -0.272 OA
ATOM     22  C   UNL A   1      30.156  25.808  25.308  1.00  0.00     0.045 C 
ATOM     23  C   UNL A   1      30.649  24.199  23.497  1.00  0.00     0.045 C 
ENDBRANCH  12  14
ENDBRANCH   8  12
ENDBRANCH   6   7
ENDBRANCH   4   6
ENDBRANCH   3   4
ENDBRANCH   2   3
ENDBRANCH   1   2
BRANCH   1  24
ATOM     24  O   UNL A   1      39.044  21.944  26.320  1.00  0.00    -0.374 OA
BRANCH  24  25
ATOM     25  C   UNL A   1      38.606  20.965  25.378  1.00  0.00     0.202 C 
BRANCH  25  26
ATOM     26  C   UNL A   1      39.313  19.605  25.436  1.00  0.00     0.261 C 
BRANCH  26  27
ATOM     27  O   UNL A   1      40.227  19.480  26.542  1.00  0.00    -0.460 OA
BRANCH  27  28
ATOM     28  C   UNL A   1      41.521  19.305  26.196  1.00  0.00     0.338 C 
ATOM     29  O   UNL A   1      42.036  18.277  25.751  1.00  0.00    -0.246 OA
BRANCH  28  30
ATOM     30  C   UNL A   1      42.305  20.536  26.377  1.00  0.00     0.060 A 
ATOM     31  C   UNL A   1      42.278  21.161  27.624  1.00  0.00     0.016 A 
ATOM     32  C   UNL A   1      42.898  21.172  25.285  1.00  0.00     0.016 A 
ATOM     33  C   UNL A   1      42.807  22.448  27.767  1.00  0.00     0.010 A 
ATOM     34  C   UNL A   1      43.435  22.456  25.427  1.00  0.00     0.010 A 
ATOM     35  C   UNL A   1      43.355  23.119  26.661  1.00  0.00    -0.014 A 
BRANCH  35  36
ATOM     36  C   UNL A   1      43.751  24.542  26.796  1.00  0.00     0.031 A 
ATOM     37  C   UNL A   1      42.746  25.566  27.248  1.00  0.00     0.074 A 
ATOM     38  C   UNL A   1      45.018  24.917  26.553  1.00  0.00     0.049 A 
ATOM     39  N   UNL A   1      42.932  26.821  27.574  1.00  0.00    -0.248 NA
ATOM     40  C   UNL A   1      41.347  25.122  27.343  1.00  0.00     0.031 C 
ATOM     41  C   UNL A   1      46.081  24.035  26.076  1.00  0.00     0.029 A 
ATOM     42  N   UNL A   1      45.626  26.141  26.682  1.00  0.00    -0.354 N 
ATOM     43  C   UNL A   1      41.683  27.309  27.934  1.00  0.00     0.074 A 
ATOM     44  C   UNL A   1      40.737  26.231  27.738  1.00  0.00     0.031 C 
ATOM     45  C   UNL A   1      47.214  24.745  25.958  1.00  0.00     0.029 A 
ATOM     46  C   UNL A   1      46.958  26.129  26.356  1.00  0.00     0.049 A 
ATOM     47  H   UNL A   1      45.151  26.950  26.981  1.00  0.00     0.167 HD
ATOM     48  C   UNL A   1      41.358  28.537  28.406  1.00  0.00     0.037 A 
ATOM     49  C   UNL A   1      47.871  27.118  26.389  1.00  0.00     0.037 A 
ATOM     50  C   UNL A   1      42.293  29.615  28.594  1.00  0.00     0.049 A 
ATOM     51  C   UNL A   1      47.484  28.479  26.899  1.00  0.00     0.074 A 
ATOM     52  C   UNL A   1      42.067  30.873  29.129  1.00  0.00     0.029 A 
ATOM     53  N   UNL A   1      43.631  29.569  28.237  1.00  0.00    -0.354 N 
ATOM     54  N   UNL A   1      46.325  28.896  27.343  1.00  0.00    -0.248 NA
ATOM     55  C   UNL A   1      48.543  29.499  26.932  1.00  0.00     0.031 C 
ATOM     56  C   UNL A   1      43.259  31.602  29.056  1.00  0.00     0.029 A 
ATOM     57  C   UNL A   1      44.237  30.785  28.512  1.00  0.00     0.049 A 
ATOM     58  H   UNL A   1      44.084  28.788  27.845  1.00  0.00     0.167 HD
ATOM     59  C   UNL A   1      46.518  30.216  27.731  1.00  0.00     0.074 A 
ATOM     60  C   UNL A   1      47.909  30.528  27.477  1.00  0.00     0.031 C 
ATOM     61  C   UNL A   1      45.621  31.087  28.255  1.00  0.00     0.037 A 
BRANCH  48  62
ATOM     62  C   UNL A   1      39.924  28.780  28.766  1.00  0.00     0.064 A 
ATOM     63  C   UNL A   1      39.451  28.552  30.067  1.00  0.00     0.173 A 
ATOM     64  C   UNL A   1      39.025  29.294  27.820  1.00  0.00     0.173 A 
ATOM     65  F   UNL A   1      40.271  28.054  31.004  1.00  0.00    -0.203 F 
ATOM     66  C   UNL A   1      38.126  28.811  30.402  1.00  0.00     0.198 A 
ATOM     67  C   UNL A   1      37.705  29.572  28.164  1.00  0.00     0.198 A 
ATOM     68  F   UNL A   1      39.431  29.536  26.564  1.00  0.00    -0.203 F 
ATOM     69  F   UNL A   1      37.687  28.555  31.643  1.00  0.00    -0.200 F 
ATOM     70  C   UNL A   1      37.255  29.327  29.453  1.00  0.00     0.200 A 
ATOM     71  F   UNL A   1      36.867  30.079  27.249  1.00  0.00    -0.200 F 
ATOM     72  F   UNL A   1      35.980  29.582  29.779  1.00  0.00    -0.200 F 
ENDBRANCH  48  62
BRANCH  49  73
ATOM     73  C   UNL A   1      49.263  26.837  25.960  1.00  0.00     0.064 A 
ATOM     74  C   UNL A   1      49.662  27.033  24.632  1.00  0.00     0.173 A 
ATOM     75  C   UNL A   1      50.222  26.382  26.876  1.00  0.00     0.173 A 
ATOM     76  F   UNL A   1      48.772  27.449  23.720  1.00  0.00    -0.203 F 
ATOM     77  C   UNL A   1      50.971  26.774  24.231  1.00  0.00     0.198 A 
ATOM     78  C   UNL A   1      51.535  26.141  26.478  1.00  0.00     0.198 A 
ATOM     79  F   UNL A   1      49.884  26.181  28.158  1.00  0.00    -0.203 F 
ATOM     80  F   UNL A   1      51.322  26.941  22.949  1.00  0.00    -0.200 F 
ATOM     81  C   UNL A   1      51.907  26.334  25.155  1.00  0.00     0.200 A 
ATOM     82  F   UNL A   1      52.439  25.724  27.375  1.00  0.00    -0.200 F 
ATOM     83  F   UNL A   1      53.168  26.091  24.771  1.00  0.00    -0.200 F 
ENDBRANCH  49  73
BRANCH  61  84
ATOM     84  C   UNL A   1      46.119  32.457  28.608  1.00  0.00     0.064 A 
ATOM     85  C   UNL A   1      46.061  33.516  27.690  1.00  0.00     0.173 A 
ATOM     86  C   UNL A   1      46.630  32.721  29.887  1.00  0.00     0.173 A 
ATOM     87  F   UNL A   1      45.595  33.309  26.450  1.00  0.00    -0.203 F 
ATOM     88  C   UNL A   1      46.518  34.786  28.035  1.00  0.00     0.198 A 
ATOM     89  C   UNL A   1      47.065  33.997  30.236  1.00  0.00     0.198 A 
ATOM     90  F   UNL A   1      46.702  31.742  30.801  1.00  0.00    -0.203 F 
ATOM     91  F   UNL A   1      46.490  35.775  27.130  1.00  0.00    -0.200 F 
ATOM     92  C   UNL A   1      47.013  35.027  29.308  1.00  0.00     0.200 A 
ATOM     93  F   UNL A   1      47.537  34.229  31.469  1.00  0.00    -0.200 F 
ATOM     94  F   UNL A   1      47.451  36.250  29.638  1.00  0.00    -0.200 F 
ENDBRANCH  61  84
ENDBRANCH  35  36
ENDBRANCH  28  30
ENDBRANCH  27  28
ENDBRANCH  26  27
ENDBRANCH  25  26
ENDBRANCH  24  25
ENDBRANCH   1  24
TORSDOF 17
ENDMDL
MODEL 3
REMARK VINA RESULT:     -11.2      1.846      3.242
REMARK SMILES CN1CCN(C(=O)N2CCC[C@H]2CC(=O)OCCOCCOC(=O)c2ccc(-c3c4nc(c(-c5c(F)c(F)c(F)c(F)c5F)c5ccc([nH]5)c(-c5c(F)c(F)c(F)c(F)c5F)c5nc(c(-c6c(F)c(F)c(F)c(F)c6F)c6ccc3[nH]6)C=C5)C=C4)cc2)C(C)(C)C1=O
REMARK SMILES IDX 18 1 17 2 16 3 14 4 15 5 13 6 12 7 8 8 9 9 10 10 11 11 6 12
REMARK SMILES IDX 7 13 5 14 1 15 2 16 3 17 91 18 4 19 88 20 92 21 89 22 90 23
REMARK SMILES IDX 19 24 20 25 21 26 22 27 23 28 24 29 25 30 26 31 87 32 27 33
REMARK SMILES IDX 86 34 28 35 29 36 30 37 80 38 31 39 85 40 79 41 81 42 32 43
REMARK SMILES IDX 84 44 78 45 77 46 33 48 65 49 45 50 64 51 46 52 49 53 63 54
REMARK SMILES IDX 82 55 47 56 48 57 62 59 83 60 50 61 34 62 35 63 43 64 36 65
REMARK SMILES IDX 37 66 41 67 44 68 38 69 39 70 42 71 40 72 66 73 67 74 75 75
REMARK SMILES IDX 68 76 69 77 73 78 76 79 70 80 71 81 74 82 72 83 51 84 52 85
REMARK SMILES IDX 60 86 53 87 54 88 58 89 61 90 55 91 56 92 59 93 57 94
REMARK H PARENT 81 47 49 58
REMARK Flexibility Score: inf
ROOT
ATOM      1  C   UNL A   1      34.782  29.915  27.583  1.00  0.00     0.202 C 
ENDROOT
BRANCH   1   2
ATOM      2  C   UNL A   1      33.617  29.044  27.090  1.00  0.00     0.261 C 
BRANCH   2   3
ATOM      3  O   UNL A   1      33.966  28.374  25.867  1.00  0.00    -0.463 OA
BRANCH   3   4
ATOM      4  C   UNL A   1      33.292  28.799  24.768  1.00  0.00     0.307 C 
ATOM      5  O   UNL A   1      33.825  29.276  23.774  1.00  0.00    -0.252 OA
BRANCH   4   6
ATOM      6  C   UNL A   1      31.812  28.513  24.881  1.00  0.00     0.147 C 
BRANCH   6   7
ATOM      7  C   UNL A   1      31.168  27.732  23.733  1.00  0.00     0.098 C 
ATOM      8  N   UNL A   1      31.254  26.278  23.860  1.00  0.00    -0.321 N 
ATOM      9  C   UNL A   1      30.009  25.772  24.394  1.00  0.00     0.122 C 
ATOM     10  C   UNL A   1      28.959  26.684  23.782  1.00  0.00     0.024 C 
ATOM     11  C   UNL A   1      29.671  28.017  23.547  1.00  0.00     0.027 C 
BRANCH   8  12
ATOM     12  C   UNL A   1      32.404  25.607  23.519  1.00  0.00     0.321 C 
ATOM     13  O   UNL A   1      33.076  25.953  22.544  1.00  0.00    -0.248 OA
BRANCH  12  14
ATOM     14  N   UNL A   1      32.823  24.564  24.339  1.00  0.00    -0.309 N 
ATOM     15  C   UNL A   1      34.420  21.595  27.022  1.00  0.00     0.146 C 
ATOM     16  N   UNL A   1      33.994  22.553  26.016  1.00  0.00    -0.342 N 
ATOM     17  C   UNL A   1      34.184  23.959  26.336  1.00  0.00     0.140 C 
ATOM     18  C   UNL A   1      33.171  22.138  24.972  1.00  0.00     0.247 C 
ATOM     19  C   UNL A   1      33.977  24.913  25.171  1.00  0.00     0.144 C 
ATOM     20  C   UNL A   1      32.903  23.160  23.811  1.00  0.00     0.118 C 
ATOM     21  O   UNL A   1      32.817  20.959  24.876  1.00  0.00    -0.272 OA
ATOM     22  C   UNL A   1      34.094  23.015  22.831  1.00  0.00     0.045 C 
ATOM     23  C   UNL A   1      31.654  22.676  23.050  1.00  0.00     0.045 C 
ENDBRANCH  12  14
ENDBRANCH   8  12
ENDBRANCH   6   7
ENDBRANCH   4   6
ENDBRANCH   3   4
ENDBRANCH   2   3
ENDBRANCH   1   2
BRANCH   1  24
ATOM     24  O   UNL A   1      34.510  31.311  27.736  1.00  0.00    -0.374 OA
BRANCH  24  25
ATOM     25  C   UNL A   1      33.149  31.731  27.636  1.00  0.00     0.202 C 
BRANCH  25  26
ATOM     26  C   UNL A   1      32.918  33.227  27.388  1.00  0.00     0.261 C 
BRANCH  26  27
ATOM     27  O   UNL A   1      32.298  33.904  28.497  1.00  0.00    -0.460 OA
BRANCH  27  28
ATOM     28  C   UNL A   1      32.944  35.011  28.923  1.00  0.00     0.338 C 
ATOM     29  O   UNL A   1      32.577  36.180  28.786  1.00  0.00    -0.246 OA
BRANCH  28  30
ATOM     30  C   UNL A   1      34.183  34.678  29.641  1.00  0.00     0.060 A 
ATOM     31  C   UNL A   1      35.387  34.726  28.938  1.00  0.00     0.016 A 
ATOM     32  C   UNL A   1      34.141  34.137  30.926  1.00  0.00     0.016 A 
ATOM     33  C   UNL A   1      36.546  34.188  29.508  1.00  0.00     0.010 A 
ATOM     34  C   UNL A   1      35.301  33.606  31.503  1.00  0.00     0.010 A 
ATOM     35  C   UNL A   1      36.502  33.591  30.779  1.00  0.00    -0.014 A 
BRANCH  35  36
ATOM     36  C   UNL A   1      37.698  32.877  31.290  1.00  0.00     0.031 A 
ATOM     37  C   UNL A   1      38.302  33.265  32.611  1.00  0.00     0.074 A 
ATOM     38  C   UNL A   1      38.224  31.856  30.593  1.00  0.00     0.049 A 
ATOM     39  N   UNL A   1      39.245  32.669  33.298  1.00  0.00    -0.248 NA
ATOM     40  C   UNL A   1      37.780  34.487  33.244  1.00  0.00     0.031 C 
ATOM     41  C   UNL A   1      37.760  31.400  29.285  1.00  0.00     0.029 A 
ATOM     42  N   UNL A   1      39.264  31.012  30.897  1.00  0.00    -0.354 N 
ATOM     43  C   UNL A   1      39.412  33.426  34.450  1.00  0.00     0.074 A 
ATOM     44  C   UNL A   1      38.511  34.554  34.348  1.00  0.00     0.031 C 
ATOM     45  C   UNL A   1      38.508  30.354  28.898  1.00  0.00     0.029 A 
ATOM     46  C   UNL A   1      39.499  30.064  29.934  1.00  0.00     0.049 A 
ATOM     47  H   UNL A   1      39.790  31.081  31.726  1.00  0.00     0.167 HD
ATOM     48  C   UNL A   1      40.228  33.190  35.506  1.00  0.00     0.037 A 
ATOM     49  C   UNL A   1      40.401  29.064  29.898  1.00  0.00     0.037 A 
ATOM     50  C   UNL A   1      41.132  32.075  35.609  1.00  0.00     0.049 A 
ATOM     51  C   UNL A   1      41.308  28.832  31.074  1.00  0.00     0.074 A 
ATOM     52  C   UNL A   1      41.948  31.718  36.670  1.00  0.00     0.029 A 
ATOM     53  N   UNL A   1      41.353  31.145  34.606  1.00  0.00    -0.354 N 
ATOM     54  N   UNL A   1      41.379  29.487  32.206  1.00  0.00    -0.248 NA
ATOM     55  C   UNL A   1      42.247  27.704  30.973  1.00  0.00     0.031 C 
ATOM     56  C   UNL A   1      42.694  30.596  36.292  1.00  0.00     0.029 A 
ATOM     57  C   UNL A   1      42.314  30.231  35.011  1.00  0.00     0.049 A 
ATOM     58  H   UNL A   1      40.896  31.134  33.735  1.00  0.00     0.167 HD
ATOM     59  C   UNL A   1      42.348  28.840  32.962  1.00  0.00     0.074 A 
ATOM     60  C   UNL A   1      42.833  27.734  32.162  1.00  0.00     0.031 C 
ATOM     61  C   UNL A   1      42.791  29.135  34.208  1.00  0.00     0.037 A 
BRANCH  48  62
ATOM     62  C   UNL A   1      40.170  34.156  36.651  1.00  0.00     0.064 A 
ATOM     63  C   UNL A   1      39.290  33.960  37.726  1.00  0.00     0.173 A 
ATOM     64  C   UNL A   1      41.037  35.257  36.702  1.00  0.00     0.173 A 
ATOM     65  F   UNL A   1      38.437  32.925  37.718  1.00  0.00    -0.203 F 
ATOM     66  C   UNL A   1      39.265  34.843  38.800  1.00  0.00     0.198 A 
ATOM     67  C   UNL A   1      41.025  36.127  37.789  1.00  0.00     0.198 A 
ATOM     68  F   UNL A   1      41.902  35.483  35.702  1.00  0.00    -0.203 F 
ATOM     69  F   UNL A   1      38.393  34.656  39.801  1.00  0.00    -0.200 F 
ATOM     70  C   UNL A   1      40.136  35.923  38.835  1.00  0.00     0.200 A 
ATOM     71  F   UNL A   1      41.872  37.165  37.826  1.00  0.00    -0.200 F 
ATOM     72  F   UNL A   1      40.116  36.769  39.874  1.00  0.00    -0.200 F 
ENDBRANCH  48  62
BRANCH  49  73
ATOM     73  C   UNL A   1      40.456  28.176  28.711  1.00  0.00     0.064 A 
ATOM     74  C   UNL A   1      41.211  28.526  27.585  1.00  0.00     0.173 A 
ATOM     75  C   UNL A   1      39.766  26.957  28.690  1.00  0.00     0.173 A 
ATOM     76  F   UNL A   1      41.870  29.692  27.555  1.00  0.00    -0.203 F 
ATOM     77  C   UNL A   1      41.266  27.688  26.472  1.00  0.00     0.198 A 
ATOM     78  C   UNL A   1      39.837  26.112  27.585  1.00  0.00     0.198 A 
ATOM     79  F   UNL A   1      39.031  26.582  29.748  1.00  0.00    -0.203 F 
ATOM     80  F   UNL A   1      41.972  28.057  25.394  1.00  0.00    -0.200 F 
ATOM     81  C   UNL A   1      40.585  26.481  26.475  1.00  0.00     0.200 A 
ATOM     82  F   UNL A   1      39.184  24.942  27.594  1.00  0.00    -0.200 F 
ATOM     83  F   UNL A   1      40.643  25.673  25.407  1.00  0.00    -0.200 F 
ENDBRANCH  49  73
BRANCH  61  84
ATOM     84  C   UNL A   1      43.840  28.239  34.795  1.00  0.00     0.064 A 
ATOM     85  C   UNL A   1      45.205  28.540  34.685  1.00  0.00     0.173 A 
ATOM     86  C   UNL A   1      43.476  27.083  35.502  1.00  0.00     0.173 A 
ATOM     87  F   UNL A   1      45.604  29.626  34.006  1.00  0.00    -0.203 F 
ATOM     88  C   UNL A   1      46.169  27.704  35.244  1.00  0.00     0.198 A 
ATOM     89  C   UNL A   1      44.441  26.262  36.079  1.00  0.00     0.198 A 
ATOM     90  F   UNL A   1      42.183  26.754  35.638  1.00  0.00    -0.203 F 
ATOM     91  F   UNL A   1      47.470  27.990  35.094  1.00  0.00    -0.200 F 
ATOM     92  C   UNL A   1      45.787  26.570  35.945  1.00  0.00     0.200 A 
ATOM     93  F   UNL A   1      44.069  25.170  36.761  1.00  0.00    -0.200 F 
ATOM     94  F   UNL A   1      46.715  25.768  36.484  1.00  0.00    -0.200 F 
ENDBRANCH  61  84
ENDBRANCH  35  36
ENDBRANCH  28  30
ENDBRANCH  27  28
ENDBRANCH  26  27
ENDBRANCH  25  26
ENDBRANCH  24  25
ENDBRANCH   1  24
TORSDOF 17
ENDMDL
