MODEL 1
REMARK VINA RESULT:     -12.5      0.000      0.000
REMARK SMILES Cc1nnc(SCC2=C(C(=O)OCCOCCOC(=O)c3ccc(-c4c5nc(c(-c6c(F)c(F)c(F)c(F)c6F)c6ccc([nH]6)c(-c6c(F)c(F)c(F)c(F)c6F)c6nc(c(-c7c(F)c(F)c(F)c(F)c7F)c7ccc4[nH]7)C=C6)C=C5)cc3)N3C(=O)[C@H](NC(=O)c4cn(C)nc4C)[C@@H]3SC2)s1
REMARK SMILES IDX 14 1 13 2 12 3 10 4 11 5 9 6 8 7 100 8 84 9 99 10 85 11
REMARK SMILES IDX 98 12 86 13 87 14 7 15 6 16 5 17 1 18 2 19 3 20 101 21 4 22
REMARK SMILES IDX 88 23 89 24 90 26 91 27 92 28 96 29 93 30 95 31 97 32 94 33
REMARK SMILES IDX 15 34 16 35 17 36 18 37 19 38 20 39 21 40 22 41 83 42 23 43
REMARK SMILES IDX 82 44 24 45 25 46 26 47 76 48 27 49 81 50 75 51 77 52 28 53
REMARK SMILES IDX 80 54 74 55 73 56 29 58 61 59 41 60 60 61 42 62 45 63 59 64
REMARK SMILES IDX 78 65 43 66 44 67 58 69 79 70 46 71 30 72 31 73 39 74 32 75
REMARK SMILES IDX 33 76 37 77 40 78 34 79 35 80 38 81 36 82 62 83 63 84 71 85
REMARK SMILES IDX 64 86 65 87 69 88 72 89 66 90 67 91 70 92 68 93 47 94 48 95
REMARK SMILES IDX 56 96 49 97 50 98 54 99 57 100 51 101 52 102 55 103 53 104
REMARK H PARENT 88 25 77 57 45 68
REMARK Flexibility Score: inf
ROOT
ATOM      1  C   UNL A   1      36.386  22.363  25.034  1.00  0.00     0.202 C 
ENDROOT
BRANCH   1   2
ATOM      2  C   UNL A   1      36.345  23.601  24.135  1.00  0.00     0.261 C 
BRANCH   2   3
ATOM      3  O   UNL A   1      35.032  24.180  24.186  1.00  0.00    -0.459 OA
BRANCH   3   4
ATOM      4  C   UNL A   1      34.216  23.818  23.163  1.00  0.00     0.355 C 
ATOM      5  O   UNL A   1      34.557  23.298  22.115  1.00  0.00    -0.244 OA
BRANCH   4   6
ATOM      6  C   UNL A   1      32.791  24.032  23.582  1.00  0.00     0.132 C 
ATOM      7  C   UNL A   1      32.091  23.129  24.317  1.00  0.00    -0.019 C 
ATOM      8  C   UNL A   1      30.692  23.420  24.846  1.00  0.00     0.106 C 
ATOM      9  N   UNL A   1      32.229  25.207  23.185  1.00  0.00    -0.289 N 
ATOM     10  S   UNL A   1      30.286  25.199  24.960  1.00  0.00    -0.129 SA
ATOM     11  C   UNL A   1      32.574  26.285  22.457  1.00  0.00     0.253 C 
ATOM     12  C   UNL A   1      30.823  25.526  23.278  1.00  0.00     0.181 C 
ATOM     13  O   UNL A   1      33.541  26.557  21.781  1.00  0.00    -0.272 OA
ATOM     14  C   UNL A   1      31.219  26.976  22.867  1.00  0.00     0.206 C 
BRANCH   7  15
ATOM     15  C   UNL A   1      32.661  21.744  24.606  1.00  0.00     0.111 C 
BRANCH  15  16
ATOM     16  S   UNL A   1      32.504  20.505  23.298  1.00  0.00    -0.089 SA
BRANCH  16  17
ATOM     17  C   UNL A   1      32.597  19.024  24.218  1.00  0.00     0.174 A 
ATOM     18  C   UNL A   1      32.865  15.353  25.258  1.00  0.00     0.081 C 
ATOM     19  C   UNL A   1      32.730  16.815  25.055  1.00  0.00     0.115 A 
ATOM     20  N   UNL A   1      32.438  17.686  25.998  1.00  0.00    -0.143 NA
ATOM     21  S   UNL A   1      32.955  17.511  23.500  1.00  0.00    -0.091 S 
ATOM     22  N   UNL A   1      32.368  18.973  25.510  1.00  0.00    -0.132 NA
ENDBRANCH  16  17
ENDBRANCH  15  16
ENDBRANCH   7  15
BRANCH  14  23
ATOM     23  N   UNL A   1      31.360  27.992  23.942  1.00  0.00    -0.337 N 
ATOM     24  C   UNL A   1      30.770  29.227  24.040  1.00  0.00     0.255 C 
ATOM     25  H   UNL A   1      31.957  27.744  24.685  1.00  0.00     0.164 HD
ATOM     26  O   UNL A   1      31.176  30.019  24.886  1.00  0.00    -0.269 OA
BRANCH  24  27
ATOM     27  C   UNL A   1      29.699  29.561  23.124  1.00  0.00     0.080 A 
ATOM     28  C   UNL A   1      29.688  30.552  22.158  1.00  0.00     0.122 A 
ATOM     29  C   UNL A   1      28.448  28.904  22.959  1.00  0.00     0.072 A 
ATOM     30  N   UNL A   1      28.472  30.479  21.548  1.00  0.00    -0.275 N 
ATOM     31  N   UNL A   1      27.698  29.490  22.016  1.00  0.00    -0.178 NA
ATOM     32  C   UNL A   1      27.908  27.735  23.701  1.00  0.00     0.069 C 
ATOM     33  C   UNL A   1      27.965  31.343  20.510  1.00  0.00     0.173 C 
ENDBRANCH  24  27
ENDBRANCH  14  23
ENDBRANCH   4   6
ENDBRANCH   3   4
ENDBRANCH   2   3
ENDBRANCH   1   2
BRANCH   1  34
ATOM     34  O   UNL A   1      37.675  21.781  25.239  1.00  0.00    -0.374 OA
BRANCH  34  35
ATOM     35  C   UNL A   1      37.824  20.383  25.004  1.00  0.00     0.202 C 
BRANCH  35  36
ATOM     36  C   UNL A   1      38.967  19.688  25.753  1.00  0.00     0.261 C 
BRANCH  36  37
ATOM     37  O   UNL A   1      40.164  20.482  25.831  1.00  0.00    -0.460 OA
BRANCH  37  38
ATOM     38  C   UNL A   1      40.711  20.545  27.072  1.00  0.00     0.338 C 
ATOM     39  O   UNL A   1      41.086  19.617  27.768  1.00  0.00    -0.246 OA
BRANCH  38  40
ATOM     40  C   UNL A   1      40.935  21.950  27.459  1.00  0.00     0.060 A 
ATOM     41  C   UNL A   1      40.339  22.946  26.675  1.00  0.00     0.016 A 
ATOM     42  C   UNL A   1      41.797  22.289  28.504  1.00  0.00     0.016 A 
ATOM     43  C   UNL A   1      40.631  24.287  26.910  1.00  0.00     0.010 A 
ATOM     44  C   UNL A   1      42.096  23.637  28.732  1.00  0.00     0.010 A 
ATOM     45  C   UNL A   1      41.538  24.640  27.918  1.00  0.00    -0.014 A 
BRANCH  45  46
ATOM     46  C   UNL A   1      41.994  26.046  28.043  1.00  0.00     0.031 A 
ATOM     47  C   UNL A   1      43.333  26.438  27.483  1.00  0.00     0.074 A 
ATOM     48  C   UNL A   1      41.215  26.968  28.636  1.00  0.00     0.049 A 
ATOM     49  N   UNL A   1      43.948  27.592  27.529  1.00  0.00    -0.248 NA
ATOM     50  C   UNL A   1      44.080  25.385  26.778  1.00  0.00     0.031 C 
ATOM     51  C   UNL A   1      39.883  26.722  29.182  1.00  0.00     0.029 A 
ATOM     52  N   UNL A   1      41.442  28.299  28.885  1.00  0.00    -0.354 N 
ATOM     53  C   UNL A   1      45.154  27.404  26.866  1.00  0.00     0.074 A 
ATOM     54  C   UNL A   1      45.197  26.018  26.451  1.00  0.00     0.031 C 
ATOM     55  C   UNL A   1      39.414  27.862  29.715  1.00  0.00     0.029 A 
ATOM     56  C   UNL A   1      40.426  28.908  29.577  1.00  0.00     0.049 A 
ATOM     57  H   UNL A   1      42.256  28.771  28.595  1.00  0.00     0.167 HD
ATOM     58  C   UNL A   1      46.131  28.309  26.617  1.00  0.00     0.037 A 
ATOM     59  C   UNL A   1      40.335  30.160  30.065  1.00  0.00     0.037 A 
ATOM     60  C   UNL A   1      46.085  29.688  27.027  1.00  0.00     0.049 A 
ATOM     61  C   UNL A   1      41.469  31.127  29.840  1.00  0.00     0.074 A 
ATOM     62  C   UNL A   1      47.014  30.689  26.798  1.00  0.00     0.029 A 
ATOM     63  N   UNL A   1      45.054  30.261  27.757  1.00  0.00    -0.354 N 
ATOM     64  N   UNL A   1      42.593  30.949  29.191  1.00  0.00    -0.248 NA
ATOM     65  C   UNL A   1      41.317  32.470  30.418  1.00  0.00     0.031 C 
ATOM     66  C   UNL A   1      46.569  31.853  27.435  1.00  0.00     0.029 A 
ATOM     67  C   UNL A   1      45.339  31.592  28.015  1.00  0.00     0.049 A 
ATOM     68  H   UNL A   1      44.240  29.790  28.049  1.00  0.00     0.167 HD
ATOM     69  C   UNL A   1      43.271  32.159  29.261  1.00  0.00     0.074 A 
ATOM     70  C   UNL A   1      42.425  33.069  30.004  1.00  0.00     0.031 C 
ATOM     71  C   UNL A   1      44.487  32.486  28.756  1.00  0.00     0.037 A 
BRANCH  58  72
ATOM     72  C   UNL A   1      47.351  27.829  25.889  1.00  0.00     0.064 A 
ATOM     73  C   UNL A   1      48.499  27.403  26.574  1.00  0.00     0.173 A 
ATOM     74  C   UNL A   1      47.359  27.757  24.488  1.00  0.00     0.173 A 
ATOM     75  F   UNL A   1      48.547  27.464  27.914  1.00  0.00    -0.203 F 
ATOM     76  C   UNL A   1      49.619  26.946  25.883  1.00  0.00     0.198 A 
ATOM     77  C   UNL A   1      48.469  27.274  23.801  1.00  0.00     0.198 A 
ATOM     78  F   UNL A   1      46.285  28.148  23.785  1.00  0.00    -0.203 F 
ATOM     79  F   UNL A   1      50.720  26.586  26.556  1.00  0.00    -0.200 F 
ATOM     80  C   UNL A   1      49.600  26.876  24.497  1.00  0.00     0.200 A 
ATOM     81  F   UNL A   1      48.446  27.197  22.463  1.00  0.00    -0.200 F 
ATOM     82  F   UNL A   1      50.675  26.430  23.833  1.00  0.00    -0.200 F 
ENDBRANCH  58  72
BRANCH  59  83
ATOM     83  C   UNL A   1      39.130  30.571  30.833  1.00  0.00     0.064 A 
ATOM     84  C   UNL A   1      39.045  30.358  32.214  1.00  0.00     0.173 A 
ATOM     85  C   UNL A   1      38.033  31.168  30.194  1.00  0.00     0.173 A 
ATOM     86  F   UNL A   1      40.057  29.765  32.864  1.00  0.00    -0.203 F 
ATOM     87  C   UNL A   1      37.901  30.712  32.928  1.00  0.00     0.198 A 
ATOM     88  C   UNL A   1      36.901  31.547  30.913  1.00  0.00     0.198 A 
ATOM     89  F   UNL A   1      38.063  31.390  28.872  1.00  0.00    -0.203 F 
ATOM     90  F   UNL A   1      37.826  30.454  34.240  1.00  0.00    -0.200 F 
ATOM     91  C   UNL A   1      36.833  31.311  32.278  1.00  0.00     0.200 A 
ATOM     92  F   UNL A   1      35.876  32.134  30.281  1.00  0.00    -0.200 F 
ATOM     93  F   UNL A   1      35.734  31.652  32.963  1.00  0.00    -0.200 F 
ENDBRANCH  59  83
BRANCH  71  94
ATOM     94  C   UNL A   1      44.964  33.894  28.967  1.00  0.00     0.064 A 
ATOM     95  C   UNL A   1      44.629  34.924  28.076  1.00  0.00     0.173 A 
ATOM     96  C   UNL A   1      45.729  34.226  30.096  1.00  0.00     0.173 A 
ATOM     97  F   UNL A   1      43.913  34.658  26.973  1.00  0.00    -0.203 F 
ATOM     98  C   UNL A   1      45.064  36.230  28.295  1.00  0.00     0.198 A 
ATOM     99  C   UNL A   1      46.137  35.537  30.327  1.00  0.00     0.198 A 
ATOM    100  F   UNL A   1      46.069  33.279  30.983  1.00  0.00    -0.203 F 
ATOM    101  F   UNL A   1      44.771  37.189  27.406  1.00  0.00    -0.200 F 
ATOM    102  C   UNL A   1      45.810  36.536  29.423  1.00  0.00     0.200 A 
ATOM    103  F   UNL A   1      46.846  35.833  31.425  1.00  0.00    -0.200 F 
ATOM    104  F   UNL A   1      46.221  37.794  29.636  1.00  0.00    -0.200 F 
ENDBRANCH  71  94
ENDBRANCH  45  46
ENDBRANCH  38  40
ENDBRANCH  37  38
ENDBRANCH  36  37
ENDBRANCH  35  36
ENDBRANCH  34  35
ENDBRANCH   1  34
TORSDOF 19
ENDMDL
MODEL 2
REMARK VINA RESULT:     -12.4      1.614      6.978
REMARK SMILES Cc1nnc(SCC2=C(C(=O)OCCOCCOC(=O)c3ccc(-c4c5nc(c(-c6c(F)c(F)c(F)c(F)c6F)c6ccc([nH]6)c(-c6c(F)c(F)c(F)c(F)c6F)c6nc(c(-c7c(F)c(F)c(F)c(F)c7F)c7ccc4[nH]7)C=C6)C=C5)cc3)N3C(=O)[C@H](NC(=O)c4cn(C)nc4C)[C@@H]3SC2)s1
REMARK SMILES IDX 14 1 13 2 12 3 10 4 11 5 9 6 8 7 100 8 84 9 99 10 85 11
REMARK SMILES IDX 98 12 86 13 87 14 7 15 6 16 5 17 1 18 2 19 3 20 101 21 4 22
REMARK SMILES IDX 88 23 89 24 90 26 91 27 92 28 96 29 93 30 95 31 97 32 94 33
REMARK SMILES IDX 15 34 16 35 17 36 18 37 19 38 20 39 21 40 22 41 83 42 23 43
REMARK SMILES IDX 82 44 24 45 25 46 26 47 76 48 27 49 81 50 75 51 77 52 28 53
REMARK SMILES IDX 80 54 74 55 73 56 29 58 61 59 41 60 60 61 42 62 45 63 59 64
REMARK SMILES IDX 78 65 43 66 44 67 58 69 79 70 46 71 30 72 31 73 39 74 32 75
REMARK SMILES IDX 33 76 37 77 40 78 34 79 35 80 38 81 36 82 62 83 63 84 71 85
REMARK SMILES IDX 64 86 65 87 69 88 72 89 66 90 67 91 70 92 68 93 47 94 48 95
REMARK SMILES IDX 56 96 49 97 50 98 54 99 57 100 51 101 52 102 55 103 53 104
REMARK H PARENT 88 25 77 57 45 68
REMARK Flexibility Score: inf
ROOT
ATOM      1  C   UNL A   1      36.538  22.419  25.296  1.00  0.00     0.202 C 
ENDROOT
BRANCH   1   2
ATOM      2  C   UNL A   1      36.516  23.685  24.438  1.00  0.00     0.261 C 
BRANCH   2   3
ATOM      3  O   UNL A   1      35.176  24.197  24.383  1.00  0.00    -0.459 OA
BRANCH   3   4
ATOM      4  C   UNL A   1      34.466  23.803  23.295  1.00  0.00     0.355 C 
ATOM      5  O   UNL A   1      34.912  23.267  22.295  1.00  0.00    -0.244 OA
BRANCH   4   6
ATOM      6  C   UNL A   1      33.005  24.006  23.571  1.00  0.00     0.132 C 
ATOM      7  C   UNL A   1      32.232  23.077  24.193  1.00  0.00    -0.019 C 
ATOM      8  C   UNL A   1      30.785  23.352  24.584  1.00  0.00     0.106 C 
ATOM      9  N   UNL A   1      32.486  25.197  23.166  1.00  0.00    -0.289 N 
ATOM     10  S   UNL A   1      30.369  25.126  24.726  1.00  0.00    -0.129 SA
ATOM     11  C   UNL A   1      32.905  26.302  22.521  1.00  0.00     0.253 C 
ATOM     12  C   UNL A   1      31.078  25.518  23.124  1.00  0.00     0.181 C 
ATOM     13  O   UNL A   1      33.937  26.598  21.961  1.00  0.00    -0.272 OA
ATOM     14  C   UNL A   1      31.515  26.981  22.815  1.00  0.00     0.206 C 
BRANCH   7  15
ATOM     15  C   UNL A   1      32.770  21.679  24.484  1.00  0.00     0.111 C 
BRANCH  15  16
ATOM     16  S   UNL A   1      32.488  20.414  23.222  1.00  0.00    -0.089 SA
BRANCH  16  17
ATOM     17  C   UNL A   1      32.600  18.954  24.172  1.00  0.00     0.174 A 
ATOM     18  C   UNL A   1      33.051  15.326  25.299  1.00  0.00     0.081 C 
ATOM     19  C   UNL A   1      32.820  16.771  25.056  1.00  0.00     0.115 A 
ATOM     20  N   UNL A   1      32.353  17.621  25.946  1.00  0.00    -0.143 NA
ATOM     21  S   UNL A   1      33.159  17.471  23.524  1.00  0.00    -0.091 S 
ATOM     22  N   UNL A   1      32.232  18.894  25.431  1.00  0.00    -0.132 NA
ENDBRANCH  16  17
ENDBRANCH  15  16
ENDBRANCH   7  15
BRANCH  14  23
ATOM     23  N   UNL A   1      31.542  27.953  23.938  1.00  0.00    -0.337 N 
ATOM     24  C   UNL A   1      30.863  29.139  24.066  1.00  0.00     0.255 C 
ATOM     25  H   UNL A   1      32.126  27.713  24.694  1.00  0.00     0.164 HD
ATOM     26  O   UNL A   1      31.179  29.916  24.962  1.00  0.00    -0.269 OA
BRANCH  24  27
ATOM     27  C   UNL A   1      29.806  29.440  23.123  1.00  0.00     0.080 A 
ATOM     28  C   UNL A   1      29.790  30.430  22.156  1.00  0.00     0.122 A 
ATOM     29  C   UNL A   1      28.579  28.745  22.927  1.00  0.00     0.072 A 
ATOM     30  N   UNL A   1      28.593  30.320  21.515  1.00  0.00    -0.275 N 
ATOM     31  N   UNL A   1      27.837  29.309  21.964  1.00  0.00    -0.178 NA
ATOM     32  C   UNL A   1      28.056  27.561  23.656  1.00  0.00     0.069 C 
ATOM     33  C   UNL A   1      28.087  31.168  20.464  1.00  0.00     0.173 C 
ENDBRANCH  24  27
ENDBRANCH  14  23
ENDBRANCH   4   6
ENDBRANCH   3   4
ENDBRANCH   2   3
ENDBRANCH   1   2
BRANCH   1  34
ATOM     34  O   UNL A   1      37.771  21.696  25.314  1.00  0.00    -0.374 OA
BRANCH  34  35
ATOM     35  C   UNL A   1      37.735  20.304  25.008  1.00  0.00     0.202 C 
BRANCH  35  36
ATOM     36  C   UNL A   1      39.075  19.561  25.074  1.00  0.00     0.261 C 
BRANCH  36  37
ATOM     37  O   UNL A   1      39.822  19.837  26.272  1.00  0.00    -0.460 OA
BRANCH  37  38
ATOM     38  C   UNL A   1      41.153  19.594  26.168  1.00  0.00     0.338 C 
ATOM     39  O   UNL A   1      41.695  18.585  25.749  1.00  0.00    -0.246 OA
BRANCH  38  40
ATOM     40  C   UNL A   1      41.921  20.803  26.518  1.00  0.00     0.060 A 
ATOM     41  C   UNL A   1      42.031  21.136  27.873  1.00  0.00     0.016 A 
ATOM     42  C   UNL A   1      42.431  21.652  25.533  1.00  0.00     0.016 A 
ATOM     43  C   UNL A   1      42.623  22.340  28.250  1.00  0.00     0.010 A 
ATOM     44  C   UNL A   1      43.016  22.865  25.914  1.00  0.00     0.010 A 
ATOM     45  C   UNL A   1      43.088  23.227  27.271  1.00  0.00    -0.014 A 
BRANCH  45  46
ATOM     46  C   UNL A   1      43.541  24.586  27.661  1.00  0.00     0.031 A 
ATOM     47  C   UNL A   1      42.518  25.631  28.006  1.00  0.00     0.074 A 
ATOM     48  C   UNL A   1      44.852  24.879  27.721  1.00  0.00     0.049 A 
ATOM     49  N   UNL A   1      42.688  26.891  28.319  1.00  0.00    -0.248 NA
ATOM     50  C   UNL A   1      41.112  25.199  27.995  1.00  0.00     0.031 C 
ATOM     51  C   UNL A   1      45.939  23.942  27.449  1.00  0.00     0.029 A 
ATOM     52  N   UNL A   1      45.488  26.058  28.024  1.00  0.00    -0.354 N 
ATOM     53  C   UNL A   1      41.416  27.402  28.537  1.00  0.00     0.074 A 
ATOM     54  C   UNL A   1      40.480  26.325  28.293  1.00  0.00     0.031 C 
ATOM     55  C   UNL A   1      47.111  24.586  27.584  1.00  0.00     0.029 A 
ATOM     56  C   UNL A   1      46.854  25.985  27.918  1.00  0.00     0.049 A 
ATOM     57  H   UNL A   1      45.009  26.876  28.290  1.00  0.00     0.167 HD
ATOM     58  C   UNL A   1      41.061  28.654  28.915  1.00  0.00     0.037 A 
ATOM     59  C   UNL A   1      47.788  26.947  28.052  1.00  0.00     0.037 A 
ATOM     60  C   UNL A   1      41.993  29.723  29.162  1.00  0.00     0.049 A 
ATOM     61  C   UNL A   1      47.363  28.350  28.400  1.00  0.00     0.074 A 
ATOM     62  C   UNL A   1      41.733  31.018  29.575  1.00  0.00     0.029 A 
ATOM     63  N   UNL A   1      43.368  29.622  29.011  1.00  0.00    -0.354 N 
ATOM     64  N   UNL A   1      46.160  28.819  28.628  1.00  0.00    -0.248 NA
ATOM     65  C   UNL A   1      48.429  29.357  28.509  1.00  0.00     0.031 C 
ATOM     66  C   UNL A   1      42.946  31.714  29.624  1.00  0.00     0.029 A 
ATOM     67  C   UNL A   1      43.967  30.840  29.291  1.00  0.00     0.049 A 
ATOM     68  H   UNL A   1      43.848  28.804  28.743  1.00  0.00     0.167 HD
ATOM     69  C   UNL A   1      46.325  30.164  28.930  1.00  0.00     0.074 A 
ATOM     70  C   UNL A   1      47.746  30.434  28.870  1.00  0.00     0.031 C 
ATOM     71  C   UNL A   1      45.383  31.094  29.228  1.00  0.00     0.037 A 
BRANCH  58  72
ATOM     72  C   UNL A   1      39.597  28.946  29.060  1.00  0.00     0.064 A 
ATOM     73  C   UNL A   1      38.944  28.842  30.297  1.00  0.00     0.173 A 
ATOM     74  C   UNL A   1      38.846  29.372  27.956  1.00  0.00     0.173 A 
ATOM     75  F   UNL A   1      39.615  28.425  31.383  1.00  0.00    -0.203 F 
ATOM     76  C   UNL A   1      37.587  29.131  30.418  1.00  0.00     0.198 A 
ATOM     77  C   UNL A   1      37.496  29.687  28.085  1.00  0.00     0.198 A 
ATOM     78  F   UNL A   1      39.423  29.492  26.750  1.00  0.00    -0.203 F 
ATOM     79  F   UNL A   1      36.974  28.983  31.600  1.00  0.00    -0.200 F 
ATOM     80  C   UNL A   1      36.866  29.560  29.313  1.00  0.00     0.200 A 
ATOM     81  F   UNL A   1      36.803  30.111  27.018  1.00  0.00    -0.200 F 
ATOM     82  F   UNL A   1      35.561  29.844  29.431  1.00  0.00    -0.200 F 
ENDBRANCH  58  72
BRANCH  59  83
ATOM     83  C   UNL A   1      49.223  26.621  27.839  1.00  0.00     0.064 A 
ATOM     84  C   UNL A   1      49.753  26.494  26.549  1.00  0.00     0.173 A 
ATOM     85  C   UNL A   1      50.087  26.412  28.924  1.00  0.00     0.173 A 
ATOM     86  F   UNL A   1      48.959  26.657  25.481  1.00  0.00    -0.203 F 
ATOM     87  C   UNL A   1      51.090  26.155  26.351  1.00  0.00     0.198 A 
ATOM     88  C   UNL A   1      51.430  26.100  28.725  1.00  0.00     0.198 A 
ATOM     89  F   UNL A   1      49.628  26.517  30.180  1.00  0.00    -0.203 F 
ATOM     90  F   UNL A   1      51.560  25.994  25.106  1.00  0.00    -0.200 F 
ATOM     91  C   UNL A   1      51.929  25.964  27.438  1.00  0.00     0.200 A 
ATOM     92  F   UNL A   1      52.239  25.926  29.779  1.00  0.00    -0.200 F 
ATOM     93  F   UNL A   1      53.214  25.639  27.247  1.00  0.00    -0.200 F 
ENDBRANCH  59  83
BRANCH  71  94
ATOM     94  C   UNL A   1      45.860  32.483  29.538  1.00  0.00     0.064 A 
ATOM     95  C   UNL A   1      46.246  32.855  30.834  1.00  0.00     0.173 A 
ATOM     96  C   UNL A   1      45.973  33.441  28.519  1.00  0.00     0.173 A 
ATOM     97  F   UNL A   1      46.143  31.980  31.847  1.00  0.00    -0.203 F 
ATOM     98  C   UNL A   1      46.704  34.143  31.103  1.00  0.00     0.198 A 
ATOM     99  C   UNL A   1      46.459  34.719  28.786  1.00  0.00     0.198 A 
ATOM    100  F   UNL A   1      45.625  33.134  27.261  1.00  0.00    -0.203 F 
ATOM    101  F   UNL A   1      47.024  34.490  32.357  1.00  0.00    -0.200 F 
ATOM    102  C   UNL A   1      46.817  35.071  30.078  1.00  0.00     0.200 A 
ATOM    103  F   UNL A   1      46.581  35.609  27.792  1.00  0.00    -0.200 F 
ATOM    104  F   UNL A   1      47.265  36.307  30.338  1.00  0.00    -0.200 F 
ENDBRANCH  71  94
ENDBRANCH  45  46
ENDBRANCH  38  40
ENDBRANCH  37  38
ENDBRANCH  36  37
ENDBRANCH  35  36
ENDBRANCH  34  35
ENDBRANCH   1  34
TORSDOF 19
ENDMDL
MODEL 3
REMARK VINA RESULT:     -12.1      1.689      2.637
REMARK SMILES Cc1nnc(SCC2=C(C(=O)OCCOCCOC(=O)c3ccc(-c4c5nc(c(-c6c(F)c(F)c(F)c(F)c6F)c6ccc([nH]6)c(-c6c(F)c(F)c(F)c(F)c6F)c6nc(c(-c7c(F)c(F)c(F)c(F)c7F)c7ccc4[nH]7)C=C6)C=C5)cc3)N3C(=O)[C@H](NC(=O)c4cn(C)nc4C)[C@@H]3SC2)s1
REMARK SMILES IDX 14 1 13 2 12 3 10 4 11 5 9 6 8 7 100 8 84 9 99 10 85 11
REMARK SMILES IDX 98 12 86 13 87 14 7 15 6 16 5 17 1 18 2 19 3 20 101 21 4 22
REMARK SMILES IDX 88 23 89 24 90 26 91 27 92 28 96 29 93 30 95 31 97 32 94 33
REMARK SMILES IDX 15 34 16 35 17 36 18 37 19 38 20 39 21 40 22 41 83 42 23 43
REMARK SMILES IDX 82 44 24 45 25 46 26 47 76 48 27 49 81 50 75 51 77 52 28 53
REMARK SMILES IDX 80 54 74 55 73 56 29 58 61 59 41 60 60 61 42 62 45 63 59 64
REMARK SMILES IDX 78 65 43 66 44 67 58 69 79 70 46 71 30 72 31 73 39 74 32 75
REMARK SMILES IDX 33 76 37 77 40 78 34 79 35 80 38 81 36 82 62 83 63 84 71 85
REMARK SMILES IDX 64 86 65 87 69 88 72 89 66 90 67 91 70 92 68 93 47 94 48 95
REMARK SMILES IDX 56 96 49 97 50 98 54 99 57 100 51 101 52 102 55 103 53 104
REMARK H PARENT 88 25 77 57 45 68
REMARK Flexibility Score: inf
ROOT
ATOM      1  C   UNL A   1      37.085  22.542  25.269  1.00  0.00     0.202 C 
ENDROOT
BRANCH   1   2
ATOM      2  C   UNL A   1      36.655  23.220  23.966  1.00  0.00     0.261 C 
BRANCH   2   3
ATOM      3  O   UNL A   1      35.319  23.725  24.113  1.00  0.00    -0.459 OA
BRANCH   3   4
ATOM      4  C   UNL A   1      34.512  23.506  23.044  1.00  0.00     0.355 C 
ATOM      5  O   UNL A   1      34.858  23.102  21.948  1.00  0.00    -0.244 OA
BRANCH   4   6
ATOM      6  C   UNL A   1      33.086  23.708  23.465  1.00  0.00     0.132 C 
ATOM      7  C   UNL A   1      32.382  22.782  24.167  1.00  0.00    -0.019 C 
ATOM      8  C   UNL A   1      30.981  23.057  24.701  1.00  0.00     0.106 C 
ATOM      9  N   UNL A   1      32.527  24.896  23.107  1.00  0.00    -0.289 N 
ATOM     10  S   UNL A   1      30.577  24.831  24.874  1.00  0.00    -0.129 SA
ATOM     11  C   UNL A   1      32.876  25.998  22.418  1.00  0.00     0.253 C 
ATOM     12  C   UNL A   1      31.121  25.215  23.206  1.00  0.00     0.181 C 
ATOM     13  O   UNL A   1      33.846  26.292  21.754  1.00  0.00    -0.272 OA
ATOM     14  C   UNL A   1      31.521  26.677  22.846  1.00  0.00     0.206 C 
BRANCH   7  15
ATOM     15  C   UNL A   1      32.949  21.386  24.411  1.00  0.00     0.111 C 
BRANCH  15  16
ATOM     16  S   UNL A   1      32.533  20.111  23.198  1.00  0.00    -0.089 SA
BRANCH  16  17
ATOM     17  C   UNL A   1      32.628  18.667  24.175  1.00  0.00     0.174 A 
ATOM     18  C   UNL A   1      33.118  15.071  25.384  1.00  0.00     0.081 C 
ATOM     19  C   UNL A   1      32.858  16.504  25.105  1.00  0.00     0.115 A 
ATOM     20  N   UNL A   1      32.307  17.350  25.949  1.00  0.00    -0.143 NA
ATOM     21  S   UNL A   1      33.275  17.195  23.588  1.00  0.00    -0.091 S 
ATOM     22  N   UNL A   1      32.180  18.612  25.408  1.00  0.00    -0.132 NA
ENDBRANCH  16  17
ENDBRANCH  15  16
ENDBRANCH   7  15
BRANCH  14  23
ATOM     23  N   UNL A   1      31.659  27.655  23.955  1.00  0.00    -0.337 N 
ATOM     24  C   UNL A   1      31.033  28.866  24.117  1.00  0.00     0.255 C 
ATOM     25  H   UNL A   1      32.285  27.399  24.672  1.00  0.00     0.164 HD
ATOM     26  O   UNL A   1      31.437  29.638  24.982  1.00  0.00    -0.269 OA
BRANCH  24  27
ATOM     27  C   UNL A   1      29.926  29.199  23.245  1.00  0.00     0.080 A 
ATOM     28  C   UNL A   1      29.865  30.209  22.301  1.00  0.00     0.122 A 
ATOM     29  C   UNL A   1      28.682  28.522  23.108  1.00  0.00     0.072 A 
ATOM     30  N   UNL A   1      28.631  30.125  21.730  1.00  0.00    -0.275 N 
ATOM     31  N   UNL A   1      27.890  29.113  22.203  1.00  0.00    -0.178 NA
ATOM     32  C   UNL A   1      28.187  27.328  23.844  1.00  0.00     0.069 C 
ATOM     33  C   UNL A   1      28.074  31.000  20.728  1.00  0.00     0.173 C 
ENDBRANCH  24  27
ENDBRANCH  14  23
ENDBRANCH   4   6
ENDBRANCH   3   4
ENDBRANCH   2   3
ENDBRANCH   1   2
BRANCH   1  34
ATOM     34  O   UNL A   1      37.892  21.371  25.128  1.00  0.00    -0.374 OA
BRANCH  34  35
ATOM     35  C   UNL A   1      39.154  21.345  25.791  1.00  0.00     0.202 C 
BRANCH  35  36
ATOM     36  C   UNL A   1      39.704  19.958  26.146  1.00  0.00     0.261 C 
BRANCH  36  37
ATOM     37  O   UNL A   1      40.828  19.566  25.339  1.00  0.00    -0.460 OA
BRANCH  37  38
ATOM     38  C   UNL A   1      41.976  19.373  26.038  1.00  0.00     0.338 C 
ATOM     39  O   UNL A   1      42.542  18.317  26.261  1.00  0.00    -0.246 OA
BRANCH  38  40
ATOM     40  C   UNL A   1      42.569  20.670  26.413  1.00  0.00     0.060 A 
ATOM     41  C   UNL A   1      42.445  21.083  27.745  1.00  0.00     0.016 A 
ATOM     42  C   UNL A   1      43.141  21.512  25.457  1.00  0.00     0.016 A 
ATOM     43  C   UNL A   1      42.862  22.358  28.121  1.00  0.00     0.010 A 
ATOM     44  C   UNL A   1      43.550  22.796  25.836  1.00  0.00     0.010 A 
ATOM     45  C   UNL A   1      43.385  23.235  27.162  1.00  0.00    -0.014 A 
BRANCH  45  46
ATOM     46  C   UNL A   1      43.649  24.650  27.521  1.00  0.00     0.031 A 
ATOM     47  C   UNL A   1      45.069  25.134  27.612  1.00  0.00     0.074 A 
ATOM     48  C   UNL A   1      42.632  25.499  27.749  1.00  0.00     0.049 A 
ATOM     49  N   UNL A   1      45.527  26.310  27.960  1.00  0.00    -0.248 NA
ATOM     50  C   UNL A   1      46.116  24.159  27.266  1.00  0.00     0.031 C 
ATOM     51  C   UNL A   1      41.214  25.162  27.653  1.00  0.00     0.029 A 
ATOM     52  N   UNL A   1      42.641  26.822  28.117  1.00  0.00    -0.354 N 
ATOM     53  C   UNL A   1      46.910  26.216  27.880  1.00  0.00     0.074 A 
ATOM     54  C   UNL A   1      47.220  24.860  27.478  1.00  0.00     0.031 C 
ATOM     55  C   UNL A   1      40.487  26.246  27.969  1.00  0.00     0.029 A 
ATOM     56  C   UNL A   1      41.387  27.342  28.320  1.00  0.00     0.049 A 
ATOM     57  H   UNL A   1      43.467  27.346  28.226  1.00  0.00     0.167 HD
ATOM     58  C   UNL A   1      47.837  27.176  28.112  1.00  0.00     0.037 A 
ATOM     59  C   UNL A   1      41.012  28.558  28.763  1.00  0.00     0.037 A 
ATOM     60  C   UNL A   1      47.528  28.526  28.509  1.00  0.00     0.049 A 
ATOM     61  C   UNL A   1      42.066  29.586  29.086  1.00  0.00     0.074 A 
ATOM     62  C   UNL A   1      48.396  29.578  28.741  1.00  0.00     0.029 A 
ATOM     63  N   UNL A   1      46.248  29.007  28.738  1.00  0.00    -0.354 N 
ATOM     64  N   UNL A   1      43.369  29.498  28.984  1.00  0.00    -0.248 NA
ATOM     65  C   UNL A   1      41.591  30.885  29.587  1.00  0.00     0.031 C 
ATOM     66  C   UNL A   1      47.644  30.681  29.161  1.00  0.00     0.029 A 
ATOM     67  C   UNL A   1      46.304  30.332  29.140  1.00  0.00     0.049 A 
ATOM     68  H   UNL A   1      45.420  28.483  28.631  1.00  0.00     0.167 HD
ATOM     69  C   UNL A   1      43.869  30.731  29.383  1.00  0.00     0.074 A 
ATOM     70  C   UNL A   1      42.728  31.556  29.716  1.00  0.00     0.031 C 
ATOM     71  C   UNL A   1      45.159  31.141  29.468  1.00  0.00     0.037 A 
BRANCH  58  72
ATOM     72  C   UNL A   1      49.281  26.795  27.970  1.00  0.00     0.064 A 
ATOM     73  C   UNL A   1      50.072  26.474  29.083  1.00  0.00     0.173 A 
ATOM     74  C   UNL A   1      49.871  26.713  26.700  1.00  0.00     0.173 A 
ATOM     75  F   UNL A   1      49.559  26.550  30.321  1.00  0.00    -0.203 F 
ATOM     76  C   UNL A   1      51.408  26.108  28.932  1.00  0.00     0.198 A 
ATOM     77  C   UNL A   1      51.198  26.320  26.550  1.00  0.00     0.198 A 
ATOM     78  F   UNL A   1      49.157  27.005  25.602  1.00  0.00    -0.203 F 
ATOM     79  F   UNL A   1      52.156  25.849  30.012  1.00  0.00    -0.200 F 
ATOM     80  C   UNL A   1      51.967  26.025  27.665  1.00  0.00     0.200 A 
ATOM     81  F   UNL A   1      51.735  26.230  25.324  1.00  0.00    -0.200 F 
ATOM     82  F   UNL A   1      53.250  25.667  27.520  1.00  0.00    -0.200 F 
ENDBRANCH  58  72
BRANCH  59  83
ATOM     83  C   UNL A   1      39.570  28.868  28.945  1.00  0.00     0.064 A 
ATOM     84  C   UNL A   1      38.792  29.344  27.883  1.00  0.00     0.173 A 
ATOM     85  C   UNL A   1      38.948  28.712  30.193  1.00  0.00     0.173 A 
ATOM     86  F   UNL A   1      39.349  29.537  26.679  1.00  0.00    -0.203 F 
ATOM     87  C   UNL A   1      37.448  29.668  28.064  1.00  0.00     0.198 A 
ATOM     88  C   UNL A   1      37.598  29.009  30.366  1.00  0.00     0.198 A 
ATOM     89  F   UNL A   1      39.651  28.263  31.243  1.00  0.00    -0.203 F 
ATOM     90  F   UNL A   1      36.738  30.166  27.042  1.00  0.00    -0.200 F 
ATOM     91  C   UNL A   1      36.851  29.494  29.303  1.00  0.00     0.200 A 
ATOM     92  F   UNL A   1      37.023  28.830  31.563  1.00  0.00    -0.200 F 
ATOM     93  F   UNL A   1      35.559  29.804  29.476  1.00  0.00    -0.200 F 
ENDBRANCH  59  83
BRANCH  71  94
ATOM     94  C   UNL A   1      45.404  32.554  29.913  1.00  0.00     0.064 A 
ATOM     95  C   UNL A   1      45.613  32.873  31.262  1.00  0.00     0.173 A 
ATOM     96  C   UNL A   1      45.474  33.595  28.974  1.00  0.00     0.173 A 
ATOM     97  F   UNL A   1      45.542  31.917  32.202  1.00  0.00    -0.203 F 
ATOM     98  C   UNL A   1      45.858  34.186  31.658  1.00  0.00     0.198 A 
ATOM     99  C   UNL A   1      45.748  34.901  29.369  1.00  0.00     0.198 A 
ATOM    100  F   UNL A   1      45.290  33.341  27.670  1.00  0.00    -0.203 F 
ATOM    101  F   UNL A   1      46.009  34.475  32.958  1.00  0.00    -0.200 F 
ATOM    102  C   UNL A   1      45.933  35.197  30.712  1.00  0.00     0.200 A 
ATOM    103  F   UNL A   1      45.833  35.874  28.452  1.00  0.00    -0.200 F 
ATOM    104  F   UNL A   1      46.176  36.458  31.094  1.00  0.00    -0.200 F 
ENDBRANCH  71  94
ENDBRANCH  45  46
ENDBRANCH  38  40
ENDBRANCH  37  38
ENDBRANCH  36  37
ENDBRANCH  35  36
ENDBRANCH  34  35
ENDBRANCH   1  34
TORSDOF 19
ENDMDL
