MODEL 1
REMARK VINA RESULT:     -10.1      0.000      0.000
REMARK SMILES CC1(C)[C@H](C#N)C(SCC(=O)OCCOCCOC(=O)c2ccc(-c3c4nc(c(-c5c(F)c(F)c(F)c(F)c5F)c5ccc([nH]5)c(-c5c(F)c(F)c(F)c(F)c5F)c5nc(c(-c6c(F)c(F)c(F)c(F)c6F)c6ccc3[nH]6)C=C5)C=C4)cc2)=NC(=O)[C@@H]1C#N
REMARK SMILES IDX 14 1 13 2 12 3 10 4 11 5 9 6 8 7 7 8 1 9 2 10 3 11 4 12
REMARK SMILES IDX 87 13 85 14 84 15 86 16 5 17 6 18 88 19 89 20 15 21 16 22
REMARK SMILES IDX 17 23 18 24 19 25 20 26 21 27 22 28 83 29 23 30 82 31 24 32
REMARK SMILES IDX 25 33 26 34 76 35 27 36 81 37 75 38 77 39 28 40 80 41 74 42
REMARK SMILES IDX 73 43 29 45 61 46 41 47 60 48 42 49 45 50 59 51 78 52 43 53
REMARK SMILES IDX 44 54 58 56 79 57 46 58 30 59 31 60 39 61 32 62 33 63 37 64
REMARK SMILES IDX 40 65 34 66 35 67 38 68 36 69 62 70 63 71 71 72 64 73 65 74
REMARK SMILES IDX 69 75 72 76 66 77 67 78 70 79 68 80 47 81 48 82 56 83 49 84
REMARK SMILES IDX 50 85 54 86 57 87 51 88 52 89 55 90 53 91
REMARK H PARENT 77 44 45 55
REMARK Flexibility Score: inf
ROOT
ATOM      1  C   UNL A   1      41.628  21.340  26.387  1.00  0.00     0.202 C 
ENDROOT
BRANCH   1   2
ATOM      2  C   UNL A   1      40.113  21.410  26.600  1.00  0.00     0.261 C 
BRANCH   2   3
ATOM      3  O   UNL A   1      39.644  22.759  26.764  1.00  0.00    -0.463 OA
BRANCH   3   4
ATOM      4  C   UNL A   1      38.461  23.072  26.164  1.00  0.00     0.316 C 
ATOM      5  O   UNL A   1      37.885  24.149  26.291  1.00  0.00    -0.251 OA
BRANCH   4   6
ATOM      6  C   UNL A   1      37.901  21.966  25.291  1.00  0.00     0.198 C 
BRANCH   6   7
ATOM      7  S   UNL A   1      36.811  22.547  23.954  1.00  0.00    -0.097 SA
BRANCH   7   8
ATOM      8  C   UNL A   1      35.286  22.846  24.778  1.00  0.00     0.095 C 
ATOM      9  C   UNL A   1      33.988  25.985  25.716  1.00  0.00     0.015 C 
ATOM     10  C   UNL A   1      33.432  24.632  25.213  1.00  0.00     0.012 C 
ATOM     11  C   UNL A   1      32.104  25.020  24.470  1.00  0.00     0.015 C 
ATOM     12  C   UNL A   1      34.514  24.007  24.229  1.00  0.00     0.156 C 
ATOM     13  C   UNL A   1      33.134  23.704  26.440  1.00  0.00     0.191 C 
ATOM     14  C   UNL A   1      33.639  22.268  26.292  1.00  0.00     0.264 C 
ATOM     15  N   UNL A   1      34.877  22.069  25.717  1.00  0.00    -0.209 NA
ATOM     16  O   UNL A   1      33.055  21.326  26.812  1.00  0.00    -0.271 OA
BRANCH  12  17
ATOM     17  C   UNL A   1      33.722  23.429  23.069  1.00  0.00     0.073 C 
ATOM     18  N   UNL A   1      33.066  22.948  22.105  1.00  0.00    -0.198 NA
ENDBRANCH  12  17
BRANCH  13  19
ATOM     19  C   UNL A   1      31.721  23.686  26.863  1.00  0.00     0.076 C 
ATOM     20  N   UNL A   1      30.622  23.635  27.250  1.00  0.00    -0.197 NA
ENDBRANCH  13  19
ENDBRANCH   7   8
ENDBRANCH   6   7
ENDBRANCH   4   6
ENDBRANCH   3   4
ENDBRANCH   2   3
ENDBRANCH   1   2
BRANCH   1  21
ATOM     21  O   UNL A   1      42.266  20.111  26.730  1.00  0.00    -0.374 OA
BRANCH  21  22
ATOM     22  C   UNL A   1      42.293  19.089  25.739  1.00  0.00     0.202 C 
BRANCH  22  23
ATOM     23  C   UNL A   1      43.685  18.582  25.370  1.00  0.00     0.261 C 
BRANCH  23  24
ATOM     24  O   UNL A   1      44.155  19.098  24.124  1.00  0.00    -0.460 OA
BRANCH  24  25
ATOM     25  C   UNL A   1      45.294  19.813  24.249  1.00  0.00     0.338 C 
ATOM     26  O   UNL A   1      46.407  19.518  23.854  1.00  0.00    -0.246 OA
BRANCH  25  27
ATOM     27  C   UNL A   1      44.985  21.089  24.891  1.00  0.00     0.060 A 
ATOM     28  C   UNL A   1      44.487  22.122  24.093  1.00  0.00     0.016 A 
ATOM     29  C   UNL A   1      45.330  21.295  26.227  1.00  0.00     0.016 A 
ATOM     30  C   UNL A   1      44.399  23.403  24.620  1.00  0.00     0.010 A 
ATOM     31  C   UNL A   1      45.227  22.577  26.757  1.00  0.00     0.010 A 
ATOM     32  C   UNL A   1      44.816  23.642  25.938  1.00  0.00    -0.014 A 
BRANCH  32  33
ATOM     33  C   UNL A   1      44.980  25.038  26.393  1.00  0.00     0.031 A 
ATOM     34  C   UNL A   1      46.321  25.695  26.241  1.00  0.00     0.074 A 
ATOM     35  C   UNL A   1      43.926  25.712  26.879  1.00  0.00     0.049 A 
ATOM     36  N   UNL A   1      46.691  26.912  26.544  1.00  0.00    -0.248 NA
ATOM     37  C   UNL A   1      47.395  24.866  25.669  1.00  0.00     0.031 C 
ATOM     38  C   UNL A   1      42.578  25.167  27.027  1.00  0.00     0.029 A 
ATOM     39  N   UNL A   1      43.823  27.002  27.325  1.00  0.00    -0.354 N 
ATOM     40  C   UNL A   1      48.035  26.993  26.201  1.00  0.00     0.074 A 
ATOM     41  C   UNL A   1      48.429  25.690  25.714  1.00  0.00     0.031 C 
ATOM     42  C   UNL A   1      41.773  26.125  27.516  1.00  0.00     0.029 A 
ATOM     43  C   UNL A   1      42.560  27.333  27.746  1.00  0.00     0.049 A 
ATOM     44  H   UNL A   1      44.581  27.630  27.341  1.00  0.00     0.167 HD
ATOM     45  C   UNL A   1      48.858  28.067  26.273  1.00  0.00     0.037 A 
ATOM     46  C   UNL A   1      42.103  28.488  28.265  1.00  0.00     0.037 A 
ATOM     47  C   UNL A   1      48.446  29.353  26.769  1.00  0.00     0.049 A 
ATOM     48  C   UNL A   1      43.056  29.644  28.407  1.00  0.00     0.074 A 
ATOM     49  C   UNL A   1      49.187  30.514  26.890  1.00  0.00     0.029 A 
ATOM     50  N   UNL A   1      47.170  29.641  27.240  1.00  0.00    -0.354 N 
ATOM     51  N   UNL A   1      44.320  29.723  28.065  1.00  0.00    -0.248 NA
ATOM     52  C   UNL A   1      42.518  30.871  29.005  1.00  0.00     0.031 C 
ATOM     53  C   UNL A   1      48.377  31.487  27.485  1.00  0.00     0.029 A 
ATOM     54  C   UNL A   1      47.111  30.954  27.677  1.00  0.00     0.049 A 
ATOM     55  H   UNL A   1      46.419  29.005  27.259  1.00  0.00     0.167 HD
ATOM     56  C   UNL A   1      44.722  31.016  28.374  1.00  0.00     0.074 A 
ATOM     57  C   UNL A   1      43.560  31.687  28.922  1.00  0.00     0.031 C 
ATOM     58  C   UNL A   1      45.937  31.598  28.215  1.00  0.00     0.037 A 
BRANCH  45  59
ATOM     59  C   UNL A   1      50.284  27.872  25.837  1.00  0.00     0.064 A 
ATOM     60  C   UNL A   1      50.647  27.832  24.482  1.00  0.00     0.173 A 
ATOM     61  C   UNL A   1      51.302  27.712  26.790  1.00  0.00     0.173 A 
ATOM     62  F   UNL A   1      49.712  27.962  23.527  1.00  0.00    -0.203 F 
ATOM     63  C   UNL A   1      51.965  27.594  24.097  1.00  0.00     0.198 A 
ATOM     64  C   UNL A   1      52.625  27.510  26.401  1.00  0.00     0.198 A 
ATOM     65  F   UNL A   1      51.015  27.743  28.100  1.00  0.00    -0.203 F 
ATOM     66  F   UNL A   1      52.273  27.488  22.797  1.00  0.00    -0.200 F 
ATOM     67  C   UNL A   1      52.953  27.438  25.056  1.00  0.00     0.200 A 
ATOM     68  F   UNL A   1      53.580  27.370  27.331  1.00  0.00    -0.200 F 
ATOM     69  F   UNL A   1      54.219  27.204  24.686  1.00  0.00    -0.200 F 
ENDBRANCH  45  59
BRANCH  46  70
ATOM     70  C   UNL A   1      40.676  28.604  28.662  1.00  0.00     0.064 A 
ATOM     71  C   UNL A   1      40.263  28.291  29.963  1.00  0.00     0.173 A 
ATOM     72  C   UNL A   1      39.702  29.049  27.757  1.00  0.00     0.173 A 
ATOM     73  F   UNL A   1      41.155  27.846  30.861  1.00  0.00    -0.203 F 
ATOM     74  C   UNL A   1      38.927  28.409  30.342  1.00  0.00     0.198 A 
ATOM     75  C   UNL A   1      38.371  29.195  28.144  1.00  0.00     0.198 A 
ATOM     76  F   UNL A   1      40.047  29.367  26.500  1.00  0.00    -0.203 F 
ATOM     77  F   UNL A   1      38.552  28.073  31.584  1.00  0.00    -0.200 F 
ATOM     78  C   UNL A   1      37.983  28.869  29.435  1.00  0.00     0.200 A 
ATOM     79  F   UNL A   1      37.468  29.655  27.269  1.00  0.00    -0.200 F 
ATOM     80  F   UNL A   1      36.701  28.994  29.803  1.00  0.00    -0.200 F 
ENDBRANCH  46  70
BRANCH  58  81
ATOM     81  C   UNL A   1      46.057  33.044  28.602  1.00  0.00     0.064 A 
ATOM     82  C   UNL A   1      46.453  33.435  29.890  1.00  0.00     0.173 A 
ATOM     83  C   UNL A   1      45.806  34.051  27.657  1.00  0.00     0.173 A 
ATOM     84  F   UNL A   1      46.690  32.510  30.833  1.00  0.00    -0.203 F 
ATOM     85  C   UNL A   1      46.563  34.782  30.225  1.00  0.00     0.198 A 
ATOM     86  C   UNL A   1      45.950  35.394  27.986  1.00  0.00     0.198 A 
ATOM     87  F   UNL A   1      45.432  33.729  26.409  1.00  0.00    -0.203 F 
ATOM     88  F   UNL A   1      46.888  35.132  31.476  1.00  0.00    -0.200 F 
ATOM     89  C   UNL A   1      46.319  35.759  29.272  1.00  0.00     0.200 A 
ATOM     90  F   UNL A   1      45.732  36.337  27.058  1.00  0.00    -0.200 F 
ATOM     91  F   UNL A   1      46.433  37.055  29.595  1.00  0.00    -0.200 F 
ENDBRANCH  58  81
ENDBRANCH  32  33
ENDBRANCH  25  27
ENDBRANCH  24  25
ENDBRANCH  23  24
ENDBRANCH  22  23
ENDBRANCH  21  22
ENDBRANCH   1  21
TORSDOF 18
ENDMDL
MODEL 2
REMARK VINA RESULT:     -10.1      5.176      9.511
REMARK SMILES CC1(C)[C@H](C#N)C(SCC(=O)OCCOCCOC(=O)c2ccc(-c3c4nc(c(-c5c(F)c(F)c(F)c(F)c5F)c5ccc([nH]5)c(-c5c(F)c(F)c(F)c(F)c5F)c5nc(c(-c6c(F)c(F)c(F)c(F)c6F)c6ccc3[nH]6)C=C5)C=C4)cc2)=NC(=O)[C@@H]1C#N
REMARK SMILES IDX 14 1 13 2 12 3 10 4 11 5 9 6 8 7 7 8 1 9 2 10 3 11 4 12
REMARK SMILES IDX 87 13 85 14 84 15 86 16 5 17 6 18 88 19 89 20 15 21 16 22
REMARK SMILES IDX 17 23 18 24 19 25 20 26 21 27 22 28 83 29 23 30 82 31 24 32
REMARK SMILES IDX 25 33 26 34 76 35 27 36 81 37 75 38 77 39 28 40 80 41 74 42
REMARK SMILES IDX 73 43 29 45 61 46 41 47 60 48 42 49 45 50 59 51 78 52 43 53
REMARK SMILES IDX 44 54 58 56 79 57 46 58 30 59 31 60 39 61 32 62 33 63 37 64
REMARK SMILES IDX 40 65 34 66 35 67 38 68 36 69 62 70 63 71 71 72 64 73 65 74
REMARK SMILES IDX 69 75 72 76 66 77 67 78 70 79 68 80 47 81 48 82 56 83 49 84
REMARK SMILES IDX 50 85 54 86 57 87 51 88 52 89 55 90 53 91
REMARK H PARENT 77 44 45 55
REMARK Flexibility Score: inf
ROOT
ATOM      1  C   UNL A   1      40.736  21.247  27.249  1.00  0.00     0.202 C 
ENDROOT
BRANCH   1   2
ATOM      2  C   UNL A   1      40.150  22.047  26.082  1.00  0.00     0.261 C 
BRANCH   2   3
ATOM      3  O   UNL A   1      38.715  22.112  26.128  1.00  0.00    -0.463 OA
BRANCH   3   4
ATOM      4  C   UNL A   1      38.166  23.343  26.334  1.00  0.00     0.316 C 
ATOM      5  O   UNL A   1      38.675  24.221  27.022  1.00  0.00    -0.251 OA
BRANCH   4   6
ATOM      6  C   UNL A   1      36.847  23.556  25.615  1.00  0.00     0.198 C 
BRANCH   6   7
ATOM      7  S   UNL A   1      35.545  22.370  26.072  1.00  0.00    -0.097 SA
BRANCH   7   8
ATOM      8  C   UNL A   1      34.063  23.290  25.848  1.00  0.00     0.095 C 
ATOM      9  C   UNL A   1      33.711  26.789  26.080  1.00  0.00     0.015 C 
ATOM     10  C   UNL A   1      33.106  25.641  25.237  1.00  0.00     0.012 C 
ATOM     11  C   UNL A   1      32.708  26.333  23.884  1.00  0.00     0.015 C 
ATOM     12  C   UNL A   1      34.239  24.543  25.043  1.00  0.00     0.156 C 
ATOM     13  C   UNL A   1      31.840  25.072  25.965  1.00  0.00     0.191 C 
ATOM     14  C   UNL A   1      31.774  23.546  26.032  1.00  0.00     0.264 C 
ATOM     15  N   UNL A   1      32.938  22.854  26.292  1.00  0.00    -0.209 NA
ATOM     16  O   UNL A   1      30.705  22.950  26.024  1.00  0.00    -0.271 OA
BRANCH  12  17
ATOM     17  C   UNL A   1      34.124  24.090  23.597  1.00  0.00     0.073 C 
ATOM     18  N   UNL A   1      34.029  23.714  22.398  1.00  0.00    -0.198 NA
ENDBRANCH  12  17
BRANCH  13  19
ATOM     19  C   UNL A   1      30.558  25.598  25.462  1.00  0.00     0.076 C 
ATOM     20  N   UNL A   1      29.513  25.965  25.096  1.00  0.00    -0.197 NA
ENDBRANCH  13  19
ENDBRANCH   7   8
ENDBRANCH   6   7
ENDBRANCH   4   6
ENDBRANCH   3   4
ENDBRANCH   2   3
ENDBRANCH   1   2
BRANCH   1  21
ATOM     21  O   UNL A   1      42.153  21.080  27.263  1.00  0.00    -0.374 OA
BRANCH  21  22
ATOM     22  C   UNL A   1      42.785  20.745  26.032  1.00  0.00     0.202 C 
BRANCH  22  23
ATOM     23  C   UNL A   1      43.755  21.795  25.496  1.00  0.00     0.261 C 
BRANCH  23  24
ATOM     24  O   UNL A   1      43.975  22.871  26.409  1.00  0.00    -0.460 OA
BRANCH  24  25
ATOM     25  C   UNL A   1      44.018  24.075  25.798  1.00  0.00     0.338 C 
ATOM     26  O   UNL A   1      44.535  24.351  24.731  1.00  0.00    -0.246 OA
BRANCH  25  27
ATOM     27  C   UNL A   1      43.259  25.039  26.592  1.00  0.00     0.060 A 
ATOM     28  C   UNL A   1      43.742  26.347  26.675  1.00  0.00     0.016 A 
ATOM     29  C   UNL A   1      42.176  24.606  27.358  1.00  0.00     0.016 A 
ATOM     30  C   UNL A   1      43.178  27.221  27.594  1.00  0.00     0.010 A 
ATOM     31  C   UNL A   1      41.603  25.488  28.269  1.00  0.00     0.010 A 
ATOM     32  C   UNL A   1      42.140  26.777  28.427  1.00  0.00    -0.014 A 
BRANCH  32  33
ATOM     33  C   UNL A   1      41.740  27.613  29.577  1.00  0.00     0.031 A 
ATOM     34  C   UNL A   1      40.514  28.471  29.456  1.00  0.00     0.074 A 
ATOM     35  C   UNL A   1      42.436  27.553  30.723  1.00  0.00     0.049 A 
ATOM     36  N   UNL A   1      39.960  29.262  30.337  1.00  0.00    -0.248 NA
ATOM     37  C   UNL A   1      39.815  28.435  28.160  1.00  0.00     0.031 C 
ATOM     38  C   UNL A   1      43.615  26.719  30.945  1.00  0.00     0.029 A 
ATOM     39  N   UNL A   1      42.243  28.195  31.916  1.00  0.00    -0.354 N 
ATOM     40  C   UNL A   1      38.854  29.815  29.706  1.00  0.00     0.074 A 
ATOM     41  C   UNL A   1      38.841  29.310  28.351  1.00  0.00     0.031 C 
ATOM     42  C   UNL A   1      44.035  26.887  32.210  1.00  0.00     0.029 A 
ATOM     43  C   UNL A   1      43.174  27.866  32.868  1.00  0.00     0.049 A 
ATOM     44  H   UNL A   1      41.508  28.830  32.076  1.00  0.00     0.167 HD
ATOM     45  C   UNL A   1      37.925  30.657  30.220  1.00  0.00     0.037 A 
ATOM     46  C   UNL A   1      43.311  28.316  34.129  1.00  0.00     0.037 A 
ATOM     47  C   UNL A   1      37.962  31.154  31.569  1.00  0.00     0.049 A 
ATOM     48  C   UNL A   1      42.310  29.311  34.653  1.00  0.00     0.074 A 
ATOM     49  C   UNL A   1      37.080  32.009  32.203  1.00  0.00     0.029 A 
ATOM     50  N   UNL A   1      38.952  30.843  32.493  1.00  0.00    -0.354 N 
ATOM     51  N   UNL A   1      41.255  29.816  34.059  1.00  0.00    -0.248 NA
ATOM     52  C   UNL A   1      42.518  29.794  36.023  1.00  0.00     0.031 C 
ATOM     53  C   UNL A   1      37.566  32.259  33.492  1.00  0.00     0.029 A 
ATOM     54  C   UNL A   1      38.717  31.510  33.685  1.00  0.00     0.049 A 
ATOM     55  H   UNL A   1      39.709  30.235  32.326  1.00  0.00     0.167 HD
ATOM     56  C   UNL A   1      40.654  30.652  34.991  1.00  0.00     0.074 A 
ATOM     57  C   UNL A   1      41.459  30.574  36.194  1.00  0.00     0.031 C 
ATOM     58  C   UNL A   1      39.536  31.409  34.868  1.00  0.00     0.037 A 
BRANCH  45  59
ATOM     59  C   UNL A   1      36.822  31.109  29.303  1.00  0.00     0.064 A 
ATOM     60  C   UNL A   1      36.756  32.422  28.811  1.00  0.00     0.173 A 
ATOM     61  C   UNL A   1      35.807  30.218  28.919  1.00  0.00     0.173 A 
ATOM     62  F   UNL A   1      37.690  33.322  29.158  1.00  0.00    -0.203 F 
ATOM     63  C   UNL A   1      35.696  32.837  28.008  1.00  0.00     0.198 A 
ATOM     64  C   UNL A   1      34.767  30.628  28.088  1.00  0.00     0.198 A 
ATOM     65  F   UNL A   1      35.818  28.951  29.357  1.00  0.00    -0.203 F 
ATOM     66  F   UNL A   1      35.619  34.115  27.611  1.00  0.00    -0.200 F 
ATOM     67  C   UNL A   1      34.705  31.940  27.644  1.00  0.00     0.200 A 
ATOM     68  F   UNL A   1      33.816  29.755  27.729  1.00  0.00    -0.200 F 
ATOM     69  F   UNL A   1      33.682  32.341  26.877  1.00  0.00    -0.200 F 
ENDBRANCH  45  59
BRANCH  46  70
ATOM     70  C   UNL A   1      44.422  27.811  34.976  1.00  0.00     0.064 A 
ATOM     71  C   UNL A   1      45.670  28.448  34.983  1.00  0.00     0.173 A 
ATOM     72  C   UNL A   1      44.254  26.697  35.811  1.00  0.00     0.173 A 
ATOM     73  F   UNL A   1      45.885  29.508  34.189  1.00  0.00    -0.203 F 
ATOM     74  C   UNL A   1      46.711  27.984  35.785  1.00  0.00     0.198 A 
ATOM     75  C   UNL A   1      45.285  26.251  36.634  1.00  0.00     0.198 A 
ATOM     76  F   UNL A   1      43.076  26.055  35.846  1.00  0.00    -0.203 F 
ATOM     77  F   UNL A   1      47.904  28.592  35.748  1.00  0.00    -0.200 F 
ATOM     78  C   UNL A   1      46.515  26.890  36.616  1.00  0.00     0.200 A 
ATOM     79  F   UNL A   1      45.085  25.206  37.448  1.00  0.00    -0.200 F 
ATOM     80  F   UNL A   1      47.512  26.452  37.396  1.00  0.00    -0.200 F 
ENDBRANCH  46  70
BRANCH  58  81
ATOM     81  C   UNL A   1      39.098  32.182  36.079  1.00  0.00     0.064 A 
ATOM     82  C   UNL A   1      39.519  33.500  36.309  1.00  0.00     0.173 A 
ATOM     83  C   UNL A   1      38.215  31.604  37.005  1.00  0.00     0.173 A 
ATOM     84  F   UNL A   1      40.375  34.093  35.461  1.00  0.00    -0.203 F 
ATOM     85  C   UNL A   1      39.096  34.200  37.436  1.00  0.00     0.198 A 
ATOM     86  C   UNL A   1      37.768  32.318  38.111  1.00  0.00     0.198 A 
ATOM     87  F   UNL A   1      37.776  30.349  36.826  1.00  0.00    -0.203 F 
ATOM     88  F   UNL A   1      39.556  35.437  37.664  1.00  0.00    -0.200 F 
ATOM     89  C   UNL A   1      38.215  33.611  38.331  1.00  0.00     0.200 A 
ATOM     90  F   UNL A   1      36.902  31.754  38.966  1.00  0.00    -0.200 F 
ATOM     91  F   UNL A   1      37.804  34.289  39.412  1.00  0.00    -0.200 F 
ENDBRANCH  58  81
ENDBRANCH  32  33
ENDBRANCH  25  27
ENDBRANCH  24  25
ENDBRANCH  23  24
ENDBRANCH  22  23
ENDBRANCH  21  22
ENDBRANCH   1  21
TORSDOF 18
ENDMDL
MODEL 3
REMARK VINA RESULT:     -10.1      5.222      9.560
REMARK SMILES CC1(C)[C@H](C#N)C(SCC(=O)OCCOCCOC(=O)c2ccc(-c3c4nc(c(-c5c(F)c(F)c(F)c(F)c5F)c5ccc([nH]5)c(-c5c(F)c(F)c(F)c(F)c5F)c5nc(c(-c6c(F)c(F)c(F)c(F)c6F)c6ccc3[nH]6)C=C5)C=C4)cc2)=NC(=O)[C@@H]1C#N
REMARK SMILES IDX 14 1 13 2 12 3 10 4 11 5 9 6 8 7 7 8 1 9 2 10 3 11 4 12
REMARK SMILES IDX 87 13 85 14 84 15 86 16 5 17 6 18 88 19 89 20 15 21 16 22
REMARK SMILES IDX 17 23 18 24 19 25 20 26 21 27 22 28 83 29 23 30 82 31 24 32
REMARK SMILES IDX 25 33 26 34 76 35 27 36 81 37 75 38 77 39 28 40 80 41 74 42
REMARK SMILES IDX 73 43 29 45 61 46 41 47 60 48 42 49 45 50 59 51 78 52 43 53
REMARK SMILES IDX 44 54 58 56 79 57 46 58 30 59 31 60 39 61 32 62 33 63 37 64
REMARK SMILES IDX 40 65 34 66 35 67 38 68 36 69 62 70 63 71 71 72 64 73 65 74
REMARK SMILES IDX 69 75 72 76 66 77 67 78 70 79 68 80 47 81 48 82 56 83 49 84
REMARK SMILES IDX 50 85 54 86 57 87 51 88 52 89 55 90 53 91
REMARK H PARENT 77 44 45 55
REMARK Flexibility Score: inf
ROOT
ATOM      1  C   UNL A   1      40.774  21.386  27.426  1.00  0.00     0.202 C 
ENDROOT
BRANCH   1   2
ATOM      2  C   UNL A   1      40.082  21.826  26.132  1.00  0.00     0.261 C 
BRANCH   2   3
ATOM      3  O   UNL A   1      38.660  21.964  26.291  1.00  0.00    -0.463 OA
BRANCH   3   4
ATOM      4  C   UNL A   1      38.125  23.179  25.982  1.00  0.00     0.316 C 
ATOM      5  O   UNL A   1      38.614  24.254  26.315  1.00  0.00    -0.251 OA
BRANCH   4   6
ATOM      6  C   UNL A   1      36.853  23.101  25.160  1.00  0.00     0.198 C 
BRANCH   6   7
ATOM      7  S   UNL A   1      35.322  23.228  26.136  1.00  0.00    -0.097 SA
BRANCH   7   8
ATOM      8  C   UNL A   1      34.249  24.143  25.085  1.00  0.00     0.095 C 
ATOM      9  C   UNL A   1      32.382  22.876  22.378  1.00  0.00     0.015 C 
ATOM     10  C   UNL A   1      32.205  23.957  23.471  1.00  0.00     0.012 C 
ATOM     11  C   UNL A   1      30.650  24.038  23.675  1.00  0.00     0.015 C 
ATOM     12  C   UNL A   1      32.960  23.445  24.774  1.00  0.00     0.156 C 
ATOM     13  C   UNL A   1      32.771  25.322  22.950  1.00  0.00     0.191 C 
ATOM     14  C   UNL A   1      33.661  26.066  23.947  1.00  0.00     0.264 C 
ATOM     15  N   UNL A   1      34.553  25.331  24.699  1.00  0.00    -0.209 NA
ATOM     16  O   UNL A   1      33.712  27.289  23.971  1.00  0.00    -0.271 OA
BRANCH  12  17
ATOM     17  C   UNL A   1      32.044  23.792  25.936  1.00  0.00     0.073 C 
ATOM     18  N   UNL A   1      31.284  24.080  26.900  1.00  0.00    -0.198 NA
ENDBRANCH  12  17
BRANCH  13  19
ATOM     19  C   UNL A   1      31.750  26.244  22.419  1.00  0.00     0.076 C 
ATOM     20  N   UNL A   1      30.987  27.022  22.002  1.00  0.00    -0.197 NA
ENDBRANCH  13  19
ENDBRANCH   7   8
ENDBRANCH   6   7
ENDBRANCH   4   6
ENDBRANCH   3   4
ENDBRANCH   2   3
ENDBRANCH   1   2
BRANCH   1  21
ATOM     21  O   UNL A   1      42.187  21.198  27.363  1.00  0.00    -0.374 OA
BRANCH  21  22
ATOM     22  C   UNL A   1      42.742  20.820  26.108  1.00  0.00     0.202 C 
BRANCH  22  23
ATOM     23  C   UNL A   1      43.699  21.836  25.491  1.00  0.00     0.261 C 
BRANCH  23  24
ATOM     24  O   UNL A   1      43.973  22.941  26.353  1.00  0.00    -0.460 OA
BRANCH  24  25
ATOM     25  C   UNL A   1      43.953  24.127  25.705  1.00  0.00     0.338 C 
ATOM     26  O   UNL A   1      44.414  24.386  24.608  1.00  0.00    -0.246 OA
BRANCH  25  27
ATOM     27  C   UNL A   1      43.199  25.091  26.504  1.00  0.00     0.060 A 
ATOM     28  C   UNL A   1      43.688  26.398  26.589  1.00  0.00     0.016 A 
ATOM     29  C   UNL A   1      42.118  24.661  27.272  1.00  0.00     0.016 A 
ATOM     30  C   UNL A   1      43.130  27.271  27.512  1.00  0.00     0.010 A 
ATOM     31  C   UNL A   1      41.550  25.543  28.187  1.00  0.00     0.010 A 
ATOM     32  C   UNL A   1      42.092  26.829  28.346  1.00  0.00    -0.014 A 
BRANCH  32  33
ATOM     33  C   UNL A   1      41.699  27.664  29.500  1.00  0.00     0.031 A 
ATOM     34  C   UNL A   1      40.467  28.515  29.390  1.00  0.00     0.074 A 
ATOM     35  C   UNL A   1      42.407  27.609  30.639  1.00  0.00     0.049 A 
ATOM     36  N   UNL A   1      39.918  29.304  30.277  1.00  0.00    -0.248 NA
ATOM     37  C   UNL A   1      39.756  28.473  28.102  1.00  0.00     0.031 C 
ATOM     38  C   UNL A   1      43.594  26.782  30.850  1.00  0.00     0.029 A 
ATOM     39  N   UNL A   1      42.222  28.250  31.833  1.00  0.00    -0.354 N 
ATOM     40  C   UNL A   1      38.802  29.849  29.656  1.00  0.00     0.074 A 
ATOM     41  C   UNL A   1      38.778  29.343  28.302  1.00  0.00     0.031 C 
ATOM     42  C   UNL A   1      44.025  26.954  32.110  1.00  0.00     0.029 A 
ATOM     43  C   UNL A   1      43.165  27.928  32.777  1.00  0.00     0.049 A 
ATOM     44  H   UNL A   1      41.486  28.882  32.000  1.00  0.00     0.167 HD
ATOM     45  C   UNL A   1      37.873  30.686  30.178  1.00  0.00     0.037 A 
ATOM     46  C   UNL A   1      43.312  28.380  34.036  1.00  0.00     0.037 A 
ATOM     47  C   UNL A   1      37.921  31.185  31.527  1.00  0.00     0.049 A 
ATOM     48  C   UNL A   1      42.310  29.370  34.569  1.00  0.00     0.074 A 
ATOM     49  C   UNL A   1      37.040  32.035  32.169  1.00  0.00     0.029 A 
ATOM     50  N   UNL A   1      38.922  30.880  32.442  1.00  0.00    -0.354 N 
ATOM     51  N   UNL A   1      41.247  29.868  33.985  1.00  0.00    -0.248 NA
ATOM     52  C   UNL A   1      42.529  29.855  35.936  1.00  0.00     0.031 C 
ATOM     53  C   UNL A   1      37.537  32.289  33.452  1.00  0.00     0.029 A 
ATOM     54  C   UNL A   1      38.695  31.546  33.634  1.00  0.00     0.049 A 
ATOM     55  H   UNL A   1      39.681  30.277  32.267  1.00  0.00     0.167 HD
ATOM     56  C   UNL A   1      40.650  30.701  34.923  1.00  0.00     0.074 A 
ATOM     57  C   UNL A   1      41.467  30.629  36.117  1.00  0.00     0.031 C 
ATOM     58  C   UNL A   1      39.526  31.452  34.810  1.00  0.00     0.037 A 
BRANCH  45  59
ATOM     59  C   UNL A   1      36.759  31.131  29.272  1.00  0.00     0.064 A 
ATOM     60  C   UNL A   1      36.672  32.447  28.792  1.00  0.00     0.173 A 
ATOM     61  C   UNL A   1      35.754  30.229  28.887  1.00  0.00     0.173 A 
ATOM     62  F   UNL A   1      37.595  33.357  29.143  1.00  0.00    -0.203 F 
ATOM     63  C   UNL A   1      35.601  32.855  28.000  1.00  0.00     0.198 A 
ATOM     64  C   UNL A   1      34.704  30.632  28.065  1.00  0.00     0.198 A 
ATOM     65  F   UNL A   1      35.785  28.958  29.313  1.00  0.00    -0.203 F 
ATOM     66  F   UNL A   1      35.503  34.135  27.615  1.00  0.00    -0.200 F 
ATOM     67  C   UNL A   1      34.620  31.947  27.634  1.00  0.00     0.200 A 
ATOM     68  F   UNL A   1      33.763  29.749  27.704  1.00  0.00    -0.200 F 
ATOM     69  F   UNL A   1      33.587  32.341  26.877  1.00  0.00    -0.200 F 
ENDBRANCH  45  59
BRANCH  46  70
ATOM     70  C   UNL A   1      44.434  27.882  34.872  1.00  0.00     0.064 A 
ATOM     71  C   UNL A   1      44.303  26.712  35.630  1.00  0.00     0.173 A 
ATOM     72  C   UNL A   1      45.665  28.551  34.914  1.00  0.00     0.173 A 
ATOM     73  F   UNL A   1      43.139  26.044  35.636  1.00  0.00    -0.203 F 
ATOM     74  C   UNL A   1      45.357  26.235  36.407  1.00  0.00     0.198 A 
ATOM     75  C   UNL A   1      46.728  28.059  35.667  1.00  0.00     0.198 A 
ATOM     76  F   UNL A   1      45.845  29.674  34.201  1.00  0.00    -0.203 F 
ATOM     77  F   UNL A   1      45.194  25.131  37.148  1.00  0.00    -0.200 F 
ATOM     78  C   UNL A   1      46.572  26.905  36.419  1.00  0.00     0.200 A 
ATOM     79  F   UNL A   1      47.904  28.700  35.661  1.00  0.00    -0.200 F 
ATOM     80  F   UNL A   1      47.589  26.440  37.156  1.00  0.00    -0.200 F 
ENDBRANCH  46  70
BRANCH  58  81
ATOM     81  C   UNL A   1      39.096  32.223  36.025  1.00  0.00     0.064 A 
ATOM     82  C   UNL A   1      38.258  31.661  37.000  1.00  0.00     0.173 A 
ATOM     83  C   UNL A   1      39.558  33.532  36.231  1.00  0.00     0.173 A 
ATOM     84  F   UNL A   1      37.777  30.419  36.842  1.00  0.00    -0.203 F 
ATOM     85  C   UNL A   1      37.876  32.393  38.122  1.00  0.00     0.198 A 
ATOM     86  C   UNL A   1      39.202  34.247  37.369  1.00  0.00     0.198 A 
ATOM     87  F   UNL A   1      40.368  34.112  35.332  1.00  0.00    -0.203 F 
ATOM     88  F   UNL A   1      37.031  31.856  39.011  1.00  0.00    -0.200 F 
ATOM     89  C   UNL A   1      38.355  33.681  38.309  1.00  0.00     0.200 A 
ATOM     90  F   UNL A   1      39.680  35.486  37.557  1.00  0.00    -0.200 F 
ATOM     91  F   UNL A   1      37.991  34.381  39.393  1.00  0.00    -0.200 F 
ENDBRANCH  58  81
ENDBRANCH  32  33
ENDBRANCH  25  27
ENDBRANCH  24  25
ENDBRANCH  23  24
ENDBRANCH  22  23
ENDBRANCH  21  22
ENDBRANCH   1  21
TORSDOF 18
ENDMDL
