MODEL 1
REMARK VINA RESULT:     -11.9      0.000      0.000
REMARK SMILES O=C(OCCOCCOC(=O)c1ccc(-c2c3nc(c(-c4c(F)c(F)c(F)c(F)c4F)c4ccc([nH]4)c(-c4c(F)c(F)c(F)c(F)c4F)c4nc(c(-c5c(F)c(F)c(F)c(F)c5F)c5ccc2[nH]5)C=C4)C=C3)cc1)/C(=C/c1ccccc1Cl)NC(=O)c1ccccc1
REMARK SMILES IDX 6 1 5 2 4 3 3 4 2 5 1 6 75 7 76 8 84 9 85 10 86 12 87 13
REMARK SMILES IDX 88 14 92 15 89 16 91 17 90 18 77 19 78 20 82 21 79 22 81 23
REMARK SMILES IDX 83 24 80 25 7 26 8 27 9 28 10 29 11 30 12 31 13 32 74 33
REMARK SMILES IDX 14 34 73 35 15 36 16 37 17 38 67 39 18 40 72 41 66 42 68 43
REMARK SMILES IDX 19 44 71 45 65 46 64 47 20 49 52 50 32 51 51 52 33 53 36 54
REMARK SMILES IDX 50 55 69 56 34 57 35 58 49 60 70 61 37 62 21 63 22 64 30 65
REMARK SMILES IDX 23 66 24 67 28 68 31 69 25 70 26 71 29 72 27 73 53 74 54 75
REMARK SMILES IDX 62 76 55 77 56 78 60 79 63 80 57 81 58 82 61 83 59 84 38 85
REMARK SMILES IDX 39 86 47 87 40 88 41 89 45 90 48 91 42 92 43 93 46 94 44 95
REMARK H PARENT 84 11 68 48 36 59
REMARK Flexibility Score: inf
ROOT
ATOM      1  O   UNL A   1      31.038  28.102  24.367  1.00  0.00    -0.374 OA
ENDROOT
BRANCH   1   2
ATOM      2  C   UNL A   1      30.183  27.758  23.284  1.00  0.00     0.202 C 
BRANCH   2   3
ATOM      3  C   UNL A   1      30.828  26.789  22.285  1.00  0.00     0.261 C 
BRANCH   3   4
ATOM      4  O   UNL A   1      32.234  27.014  22.123  1.00  0.00    -0.459 OA
BRANCH   4   5
ATOM      5  C   UNL A   1      32.915  25.936  21.641  1.00  0.00     0.354 C 
ATOM      6  O   UNL A   1      32.902  25.579  20.475  1.00  0.00    -0.244 OA
BRANCH   5   7
ATOM      7  C   UNL A   1      33.503  25.137  22.764  1.00  0.00     0.128 C 
ATOM      8  C   UNL A   1      33.480  23.810  22.517  1.00  0.00     0.043 C 
BRANCH   7   9
ATOM      9  N   UNL A   1      34.028  25.720  23.898  1.00  0.00    -0.316 N 
ATOM     10  C   UNL A   1      33.690  25.681  25.239  1.00  0.00     0.255 C 
ATOM     11  H   UNL A   1      34.812  26.286  23.713  1.00  0.00     0.170 HD
ATOM     12  O   UNL A   1      34.305  26.382  26.043  1.00  0.00    -0.269 OA
BRANCH  10  13
ATOM     13  C   UNL A   1      32.684  24.757  25.795  1.00  0.00     0.040 A 
ATOM     14  C   UNL A   1      33.067  23.742  26.675  1.00  0.00     0.014 A 
ATOM     15  C   UNL A   1      31.374  24.796  25.313  1.00  0.00     0.014 A 
ATOM     16  C   UNL A   1      32.112  22.841  27.158  1.00  0.00     0.001 A 
ATOM     17  C   UNL A   1      30.414  23.920  25.827  1.00  0.00     0.001 A 
ATOM     18  C   UNL A   1      30.781  22.953  26.763  1.00  0.00     0.000 A 
ENDBRANCH  10  13
ENDBRANCH   7   9
BRANCH   8  19
ATOM     19  C   UNL A   1      33.841  22.588  23.269  1.00  0.00    -0.005 A 
ATOM     20  C   UNL A   1      32.759  21.721  23.539  1.00  0.00     0.010 A 
ATOM     21  C   UNL A   1      35.063  22.322  23.908  1.00  0.00     0.048 A 
ATOM     22  C   UNL A   1      32.882  20.642  24.419  1.00  0.00     0.001 A 
ATOM     23  C   UNL A   1      35.185  21.230  24.784  1.00  0.00     0.021 A 
ATOM     24  Cl  UNL A   1      36.457  23.326  23.738  1.00  0.00    -0.084 Cl
ATOM     25  C   UNL A   1      34.096  20.400  25.046  1.00  0.00     0.002 A 
ENDBRANCH   8  19
ENDBRANCH   5   7
ENDBRANCH   4   5
ENDBRANCH   3   4
ENDBRANCH   2   3
ENDBRANCH   1   2
BRANCH   1  26
ATOM     26  C   UNL A   1      31.304  29.502  24.488  1.00  0.00     0.202 C 
BRANCH  26  27
ATOM     27  C   UNL A   1      31.665  29.943  25.914  1.00  0.00     0.261 C 
BRANCH  27  28
ATOM     28  O   UNL A   1      33.025  30.437  26.001  1.00  0.00    -0.460 OA
BRANCH  28  29
ATOM     29  C   UNL A   1      33.277  31.352  26.974  1.00  0.00     0.338 C 
ATOM     30  O   UNL A   1      32.526  32.239  27.346  1.00  0.00    -0.246 OA
BRANCH  29  31
ATOM     31  C   UNL A   1      34.590  31.090  27.627  1.00  0.00     0.060 A 
ATOM     32  C   UNL A   1      34.905  29.774  28.002  1.00  0.00     0.016 A 
ATOM     33  C   UNL A   1      35.501  32.114  27.903  1.00  0.00     0.016 A 
ATOM     34  C   UNL A   1      36.116  29.481  28.647  1.00  0.00     0.010 A 
ATOM     35  C   UNL A   1      36.706  31.823  28.557  1.00  0.00     0.010 A 
ATOM     36  C   UNL A   1      37.021  30.506  28.945  1.00  0.00    -0.014 A 
BRANCH  36  37
ATOM     37  C   UNL A   1      38.257  30.264  29.738  1.00  0.00     0.031 A 
ATOM     38  C   UNL A   1      39.270  29.278  29.237  1.00  0.00     0.074 A 
ATOM     39  C   UNL A   1      38.447  30.846  30.937  1.00  0.00     0.049 A 
ATOM     40  N   UNL A   1      40.317  28.782  29.846  1.00  0.00    -0.248 NA
ATOM     41  C   UNL A   1      39.082  28.788  27.862  1.00  0.00     0.031 C 
ATOM     42  C   UNL A   1      37.594  31.876  31.513  1.00  0.00     0.029 A 
ATOM     43  N   UNL A   1      39.397  30.623  31.907  1.00  0.00    -0.354 N 
ATOM     44  C   UNL A   1      40.914  27.927  28.933  1.00  0.00     0.074 A 
ATOM     45  C   UNL A   1      40.101  27.950  27.735  1.00  0.00     0.031 C 
ATOM     46  C   UNL A   1      37.998  32.140  32.766  1.00  0.00     0.029 A 
ATOM     47  C   UNL A   1      39.139  31.286  33.085  1.00  0.00     0.049 A 
ATOM     48  H   UNL A   1      40.182  30.046  31.773  1.00  0.00     0.167 HD
ATOM     49  C   UNL A   1      42.043  27.196  29.081  1.00  0.00     0.037 A 
ATOM     50  C   UNL A   1      39.731  31.188  34.293  1.00  0.00     0.037 A 
ATOM     51  C   UNL A   1      42.857  27.174  30.267  1.00  0.00     0.049 A 
ATOM     52  C   UNL A   1      40.912  30.269  34.468  1.00  0.00     0.074 A 
ATOM     53  C   UNL A   1      44.055  26.511  30.476  1.00  0.00     0.029 A 
ATOM     54  N   UNL A   1      42.550  27.829  31.448  1.00  0.00    -0.354 N 
ATOM     55  N   UNL A   1      41.506  29.510  33.582  1.00  0.00    -0.248 NA
ATOM     56  C   UNL A   1      41.510  30.199  35.811  1.00  0.00     0.031 C 
ATOM     57  C   UNL A   1      44.441  26.716  31.805  1.00  0.00     0.029 A 
ATOM     58  C   UNL A   1      43.509  27.544  32.408  1.00  0.00     0.049 A 
ATOM     59  H   UNL A   1      41.767  28.409  31.586  1.00  0.00     0.167 HD
ATOM     60  C   UNL A   1      42.564  28.904  34.246  1.00  0.00     0.074 A 
ATOM     61  C   UNL A   1      42.536  29.384  35.610  1.00  0.00     0.031 C 
ATOM     62  C   UNL A   1      43.479  28.029  33.762  1.00  0.00     0.037 A 
BRANCH  49  63
ATOM     63  C   UNL A   1      42.466  26.334  27.932  1.00  0.00     0.064 A 
ATOM     64  C   UNL A   1      43.367  26.792  26.962  1.00  0.00     0.173 A 
ATOM     65  C   UNL A   1      42.014  25.009  27.843  1.00  0.00     0.173 A 
ATOM     66  F   UNL A   1      43.817  28.056  27.001  1.00  0.00    -0.203 F 
ATOM     67  C   UNL A   1      43.794  25.955  25.934  1.00  0.00     0.198 A 
ATOM     68  C   UNL A   1      42.459  24.170  26.826  1.00  0.00     0.198 A 
ATOM     69  F   UNL A   1      41.152  24.525  28.750  1.00  0.00    -0.203 F 
ATOM     70  F   UNL A   1      44.637  26.420  25.001  1.00  0.00    -0.200 F 
ATOM     71  C   UNL A   1      43.347  24.644  25.873  1.00  0.00     0.200 A 
ATOM     72  F   UNL A   1      42.033  22.900  26.773  1.00  0.00    -0.200 F 
ATOM     73  F   UNL A   1      43.769  23.837  24.890  1.00  0.00    -0.200 F 
ENDBRANCH  49  63
BRANCH  50  74
ATOM     74  C   UNL A   1      39.194  31.942  35.458  1.00  0.00     0.064 A 
ATOM     75  C   UNL A   1      39.604  33.254  35.725  1.00  0.00     0.173 A 
ATOM     76  C   UNL A   1      38.313  31.336  36.367  1.00  0.00     0.173 A 
ATOM     77  F   UNL A   1      40.469  33.865  34.902  1.00  0.00    -0.203 F 
ATOM     78  C   UNL A   1      39.179  33.922  36.873  1.00  0.00     0.198 A 
ATOM     79  C   UNL A   1      37.870  32.013  37.501  1.00  0.00     0.198 A 
ATOM     80  F   UNL A   1      37.895  30.078  36.163  1.00  0.00    -0.203 F 
ATOM     81  F   UNL A   1      39.639  35.153  37.138  1.00  0.00    -0.200 F 
ATOM     82  C   UNL A   1      38.313  33.301  37.760  1.00  0.00     0.200 A 
ATOM     83  F   UNL A   1      37.029  31.411  38.353  1.00  0.00    -0.200 F 
ATOM     84  F   UNL A   1      37.918  33.937  38.871  1.00  0.00    -0.200 F 
ENDBRANCH  50  74
BRANCH  62  85
ATOM     85  C   UNL A   1      44.545  27.548  34.703  1.00  0.00     0.064 A 
ATOM     86  C   UNL A   1      45.752  28.245  34.859  1.00  0.00     0.173 A 
ATOM     87  C   UNL A   1      44.337  26.408  35.493  1.00  0.00     0.173 A 
ATOM     88  F   UNL A   1      46.008  29.329  34.113  1.00  0.00    -0.203 F 
ATOM     89  C   UNL A   1      46.716  27.810  35.766  1.00  0.00     0.198 A 
ATOM     90  C   UNL A   1      45.291  25.993  36.418  1.00  0.00     0.198 A 
ATOM     91  F   UNL A   1      43.196  25.709  35.384  1.00  0.00    -0.203 F 
ATOM     92  F   UNL A   1      47.877  28.470  35.873  1.00  0.00    -0.200 F 
ATOM     93  C   UNL A   1      46.481  26.691  36.551  1.00  0.00     0.200 A 
ATOM     94  F   UNL A   1      45.056  24.918  37.184  1.00  0.00    -0.200 F 
ATOM     95  F   UNL A   1      47.404  26.282  37.432  1.00  0.00    -0.200 F 
ENDBRANCH  62  85
ENDBRANCH  36  37
ENDBRANCH  29  31
ENDBRANCH  28  29
ENDBRANCH  27  28
ENDBRANCH  26  27
ENDBRANCH   1  26
TORSDOF 17
ENDMDL
MODEL 2
REMARK VINA RESULT:     -11.9      4.222      9.595
REMARK SMILES O=C(OCCOCCOC(=O)c1ccc(-c2c3nc(c(-c4c(F)c(F)c(F)c(F)c4F)c4ccc([nH]4)c(-c4c(F)c(F)c(F)c(F)c4F)c4nc(c(-c5c(F)c(F)c(F)c(F)c5F)c5ccc2[nH]5)C=C4)C=C3)cc1)/C(=C/c1ccccc1Cl)NC(=O)c1ccccc1
REMARK SMILES IDX 6 1 5 2 4 3 3 4 2 5 1 6 75 7 76 8 84 9 85 10 86 12 87 13
REMARK SMILES IDX 88 14 92 15 89 16 91 17 90 18 77 19 78 20 82 21 79 22 81 23
REMARK SMILES IDX 83 24 80 25 7 26 8 27 9 28 10 29 11 30 12 31 13 32 74 33
REMARK SMILES IDX 14 34 73 35 15 36 16 37 17 38 67 39 18 40 72 41 66 42 68 43
REMARK SMILES IDX 19 44 71 45 65 46 64 47 20 49 52 50 32 51 51 52 33 53 36 54
REMARK SMILES IDX 50 55 69 56 34 57 35 58 49 60 70 61 37 62 21 63 22 64 30 65
REMARK SMILES IDX 23 66 24 67 28 68 31 69 25 70 26 71 29 72 27 73 53 74 54 75
REMARK SMILES IDX 62 76 55 77 56 78 60 79 63 80 57 81 58 82 61 83 59 84 38 85
REMARK SMILES IDX 39 86 47 87 40 88 41 89 45 90 48 91 42 92 43 93 46 94 44 95
REMARK H PARENT 84 11 68 48 36 59
REMARK Flexibility Score: inf
ROOT
ATOM      1  O   UNL A   1      34.350  21.488  25.215  1.00  0.00    -0.374 OA
ENDROOT
BRANCH   1   2
ATOM      2  C   UNL A   1      33.126  21.316  24.513  1.00  0.00     0.202 C 
BRANCH   2   3
ATOM      3  C   UNL A   1      31.887  21.592  25.375  1.00  0.00     0.261 C 
BRANCH   3   4
ATOM      4  O   UNL A   1      32.203  22.261  26.602  1.00  0.00    -0.459 OA
BRANCH   4   5
ATOM      5  C   UNL A   1      31.344  23.272  26.918  1.00  0.00     0.354 C 
ATOM      6  O   UNL A   1      30.238  23.108  27.403  1.00  0.00    -0.244 OA
BRANCH   5   7
ATOM      7  C   UNL A   1      31.854  24.581  26.398  1.00  0.00     0.128 C 
ATOM      8  C   UNL A   1      30.855  25.428  26.068  1.00  0.00     0.043 C 
BRANCH   7   9
ATOM      9  N   UNL A   1      33.199  24.873  26.304  1.00  0.00    -0.316 N 
ATOM     10  C   UNL A   1      34.045  25.167  25.250  1.00  0.00     0.255 C 
ATOM     11  H   UNL A   1      33.655  24.872  27.177  1.00  0.00     0.170 HD
ATOM     12  O   UNL A   1      35.249  25.313  25.457  1.00  0.00    -0.269 OA
BRANCH  10  13
ATOM     13  C   UNL A   1      33.570  25.422  23.877  1.00  0.00     0.040 A 
ATOM     14  C   UNL A   1      33.064  24.379  23.098  1.00  0.00     0.014 A 
ATOM     15  C   UNL A   1      33.781  26.676  23.299  1.00  0.00     0.014 A 
ATOM     16  C   UNL A   1      32.663  24.623  21.780  1.00  0.00     0.001 A 
ATOM     17  C   UNL A   1      33.343  26.928  21.996  1.00  0.00     0.001 A 
ATOM     18  C   UNL A   1      32.769  25.904  21.243  1.00  0.00     0.000 A 
ENDBRANCH  10  13
ENDBRANCH   7   9
BRANCH   8  19
ATOM     19  C   UNL A   1      30.767  26.772  25.457  1.00  0.00    -0.005 A 
ATOM     20  C   UNL A   1      30.162  26.802  24.182  1.00  0.00     0.010 A 
ATOM     21  C   UNL A   1      31.398  27.945  25.906  1.00  0.00     0.048 A 
ATOM     22  C   UNL A   1      30.194  27.945  23.378  1.00  0.00     0.001 A 
ATOM     23  C   UNL A   1      31.420  29.094  25.098  1.00  0.00     0.021 A 
ATOM     24  Cl  UNL A   1      32.242  28.048  27.408  1.00  0.00    -0.084 Cl
ATOM     25  C   UNL A   1      30.829  29.091  23.835  1.00  0.00     0.002 A 
ENDBRANCH   8  19
ENDBRANCH   5   7
ENDBRANCH   4   5
ENDBRANCH   3   4
ENDBRANCH   2   3
ENDBRANCH   1   2
BRANCH   1  26
ATOM     26  C   UNL A   1      35.271  20.404  25.069  1.00  0.00     0.202 C 
BRANCH  26  27
ATOM     27  C   UNL A   1      36.693  20.846  24.688  1.00  0.00     0.261 C 
BRANCH  27  28
ATOM     28  O   UNL A   1      37.321  21.619  25.739  1.00  0.00    -0.460 OA
BRANCH  28  29
ATOM     29  C   UNL A   1      38.622  21.332  26.009  1.00  0.00     0.338 C 
ATOM     30  O   UNL A   1      39.194  20.279  25.777  1.00  0.00    -0.246 OA
BRANCH  29  31
ATOM     31  C   UNL A   1      39.329  22.521  26.560  1.00  0.00     0.060 A 
ATOM     32  C   UNL A   1      38.873  23.801  26.205  1.00  0.00     0.016 A 
ATOM     33  C   UNL A   1      40.445  22.402  27.394  1.00  0.00     0.016 A 
ATOM     34  C   UNL A   1      39.523  24.952  26.675  1.00  0.00     0.010 A 
ATOM     35  C   UNL A   1      41.101  23.552  27.854  1.00  0.00     0.010 A 
ATOM     36  C   UNL A   1      40.655  24.837  27.491  1.00  0.00    -0.014 A 
BRANCH  36  37
ATOM     37  C   UNL A   1      41.452  26.023  27.909  1.00  0.00     0.031 A 
ATOM     38  C   UNL A   1      40.769  27.149  28.628  1.00  0.00     0.074 A 
ATOM     39  C   UNL A   1      42.751  26.146  27.582  1.00  0.00     0.049 A 
ATOM     40  N   UNL A   1      41.223  28.342  28.920  1.00  0.00    -0.248 NA
ATOM     41  C   UNL A   1      39.394  26.897  29.085  1.00  0.00     0.031 C 
ATOM     42  C   UNL A   1      43.559  25.108  26.958  1.00  0.00     0.029 A 
ATOM     43  N   UNL A   1      43.611  27.215  27.691  1.00  0.00    -0.354 N 
ATOM     44  C   UNL A   1      40.194  28.981  29.595  1.00  0.00     0.074 A 
ATOM     45  C   UNL A   1      39.082  28.055  29.650  1.00  0.00     0.031 C 
ATOM     46  C   UNL A   1      44.770  25.607  26.658  1.00  0.00     0.029 A 
ATOM     47  C   UNL A   1      44.817  27.010  27.061  1.00  0.00     0.049 A 
ATOM     48  H   UNL A   1      43.385  28.044  28.170  1.00  0.00     0.167 HD
ATOM     49  C   UNL A   1      40.184  30.225  30.126  1.00  0.00     0.037 A 
ATOM     50  C   UNL A   1      45.829  27.865  26.808  1.00  0.00     0.037 A 
ATOM     51  C   UNL A   1      41.288  31.147  30.079  1.00  0.00     0.049 A 
ATOM     52  C   UNL A   1      45.741  29.285  27.301  1.00  0.00     0.074 A 
ATOM     53  C   UNL A   1      41.385  32.404  30.651  1.00  0.00     0.029 A 
ATOM     54  N   UNL A   1      42.479  30.921  29.408  1.00  0.00    -0.354 N 
ATOM     55  N   UNL A   1      44.790  29.863  27.991  1.00  0.00    -0.248 NA
ATOM     56  C   UNL A   1      46.873  30.173  26.985  1.00  0.00     0.031 C 
ATOM     57  C   UNL A   1      42.610  32.963  30.275  1.00  0.00     0.029 A 
ATOM     58  C   UNL A   1      43.296  32.035  29.508  1.00  0.00     0.049 A 
ATOM     59  H   UNL A   1      42.709  30.091  28.930  1.00  0.00     0.167 HD
ATOM     60  C   UNL A   1      45.221  31.162  28.223  1.00  0.00     0.074 A 
ATOM     61  C   UNL A   1      46.522  31.291  27.605  1.00  0.00     0.031 C 
ATOM     62  C   UNL A   1      44.592  32.157  28.895  1.00  0.00     0.037 A 
BRANCH  49  63
ATOM     63  C   UNL A   1      38.927  30.682  30.797  1.00  0.00     0.064 A 
ATOM     64  C   UNL A   1      38.753  30.576  32.184  1.00  0.00     0.173 A 
ATOM     65  C   UNL A   1      37.912  31.297  30.048  1.00  0.00     0.173 A 
ATOM     66  F   UNL A   1      39.692  29.984  32.938  1.00  0.00    -0.203 F 
ATOM     67  C   UNL A   1      37.600  31.060  32.797  1.00  0.00     0.198 A 
ATOM     68  C   UNL A   1      36.771  31.798  30.668  1.00  0.00     0.198 A 
ATOM     69  F   UNL A   1      38.035  31.423  28.718  1.00  0.00    -0.203 F 
ATOM     70  F   UNL A   1      37.441  30.926  34.121  1.00  0.00    -0.200 F 
ATOM     71  C   UNL A   1      36.617  31.678  32.040  1.00  0.00     0.200 A 
ATOM     72  F   UNL A   1      35.825  32.404  29.936  1.00  0.00    -0.200 F 
ATOM     73  F   UNL A   1      35.514  32.155  32.634  1.00  0.00    -0.200 F 
ENDBRANCH  49  63
BRANCH  50  74
ATOM     74  C   UNL A   1      47.002  27.425  26.004  1.00  0.00     0.064 A 
ATOM     75  C   UNL A   1      48.133  26.867  26.615  1.00  0.00     0.173 A 
ATOM     76  C   UNL A   1      47.041  27.623  24.615  1.00  0.00     0.173 A 
ATOM     77  F   UNL A   1      48.155  26.688  27.944  1.00  0.00    -0.203 F 
ATOM     78  C   UNL A   1      49.270  26.552  25.872  1.00  0.00     0.198 A 
ATOM     79  C   UNL A   1      48.169  27.284  23.871  1.00  0.00     0.198 A 
ATOM     80  F   UNL A   1      45.989  28.161  23.982  1.00  0.00    -0.203 F 
ATOM     81  F   UNL A   1      50.361  26.081  26.491  1.00  0.00    -0.200 F 
ATOM     82  C   UNL A   1      49.287  26.761  24.502  1.00  0.00     0.200 A 
ATOM     83  F   UNL A   1      48.180  27.483  22.546  1.00  0.00    -0.200 F 
ATOM     84  F   UNL A   1      50.387  26.473  23.792  1.00  0.00    -0.200 F 
ENDBRANCH  50  74
BRANCH  62  85
ATOM     85  C   UNL A   1      45.307  33.470  29.022  1.00  0.00     0.064 A 
ATOM     86  C   UNL A   1      45.100  34.508  28.102  1.00  0.00     0.173 A 
ATOM     87  C   UNL A   1      46.167  33.711  30.103  1.00  0.00     0.173 A 
ATOM     88  F   UNL A   1      44.302  34.321  27.040  1.00  0.00    -0.203 F 
ATOM     89  C   UNL A   1      45.739  35.736  28.255  1.00  0.00     0.198 A 
ATOM     90  C   UNL A   1      46.782  34.950  30.267  1.00  0.00     0.198 A 
ATOM     91  F   UNL A   1      46.396  32.752  31.013  1.00  0.00    -0.203 F 
ATOM     92  F   UNL A   1      45.555  36.702  27.344  1.00  0.00    -0.200 F 
ATOM     93  C   UNL A   1      46.571  35.959  29.341  1.00  0.00     0.200 A 
ATOM     94  F   UNL A   1      47.576  35.167  31.325  1.00  0.00    -0.200 F 
ATOM     95  F   UNL A   1      47.174  37.146  29.493  1.00  0.00    -0.200 F 
ENDBRANCH  62  85
ENDBRANCH  36  37
ENDBRANCH  29  31
ENDBRANCH  28  29
ENDBRANCH  27  28
ENDBRANCH  26  27
ENDBRANCH   1  26
TORSDOF 17
ENDMDL
MODEL 3
REMARK VINA RESULT:     -11.7      1.324      2.679
REMARK SMILES O=C(OCCOCCOC(=O)c1ccc(-c2c3nc(c(-c4c(F)c(F)c(F)c(F)c4F)c4ccc([nH]4)c(-c4c(F)c(F)c(F)c(F)c4F)c4nc(c(-c5c(F)c(F)c(F)c(F)c5F)c5ccc2[nH]5)C=C4)C=C3)cc1)/C(=C/c1ccccc1Cl)NC(=O)c1ccccc1
REMARK SMILES IDX 6 1 5 2 4 3 3 4 2 5 1 6 75 7 76 8 84 9 85 10 86 12 87 13
REMARK SMILES IDX 88 14 92 15 89 16 91 17 90 18 77 19 78 20 82 21 79 22 81 23
REMARK SMILES IDX 83 24 80 25 7 26 8 27 9 28 10 29 11 30 12 31 13 32 74 33
REMARK SMILES IDX 14 34 73 35 15 36 16 37 17 38 67 39 18 40 72 41 66 42 68 43
REMARK SMILES IDX 19 44 71 45 65 46 64 47 20 49 52 50 32 51 51 52 33 53 36 54
REMARK SMILES IDX 50 55 69 56 34 57 35 58 49 60 70 61 37 62 21 63 22 64 30 65
REMARK SMILES IDX 23 66 24 67 28 68 31 69 25 70 26 71 29 72 27 73 53 74 54 75
REMARK SMILES IDX 62 76 55 77 56 78 60 79 63 80 57 81 58 82 61 83 59 84 38 85
REMARK SMILES IDX 39 86 47 87 40 88 41 89 45 90 48 91 42 92 43 93 46 94 44 95
REMARK H PARENT 84 11 68 48 36 59
REMARK Flexibility Score: inf
ROOT
ATOM      1  O   UNL A   1      31.693  27.442  25.509  1.00  0.00    -0.374 OA
ENDROOT
BRANCH   1   2
ATOM      2  C   UNL A   1      30.752  26.545  24.932  1.00  0.00     0.202 C 
BRANCH   2   3
ATOM      3  C   UNL A   1      30.729  25.170  25.610  1.00  0.00     0.261 C 
BRANCH   3   4
ATOM      4  O   UNL A   1      30.657  24.089  24.672  1.00  0.00    -0.459 OA
BRANCH   4   5
ATOM      5  C   UNL A   1      30.998  22.877  25.196  1.00  0.00     0.354 C 
ATOM      6  O   UNL A   1      30.757  22.531  26.340  1.00  0.00    -0.244 OA
BRANCH   5   7
ATOM      7  C   UNL A   1      31.884  22.124  24.252  1.00  0.00     0.128 C 
ATOM      8  C   UNL A   1      32.146  20.871  24.683  1.00  0.00     0.043 C 
BRANCH   7   9
ATOM      9  N   UNL A   1      32.343  22.664  23.069  1.00  0.00    -0.316 N 
ATOM     10  C   UNL A   1      33.504  23.321  22.703  1.00  0.00     0.255 C 
ATOM     11  H   UNL A   1      31.707  22.559  22.325  1.00  0.00     0.170 HD
ATOM     12  O   UNL A   1      33.614  23.774  21.563  1.00  0.00    -0.269 OA
BRANCH  10  13
ATOM     13  C   UNL A   1      34.687  23.427  23.577  1.00  0.00     0.040 A 
ATOM     14  C   UNL A   1      34.617  24.139  24.777  1.00  0.00     0.014 A 
ATOM     15  C   UNL A   1      35.921  22.955  23.125  1.00  0.00     0.014 A 
ATOM     16  C   UNL A   1      35.758  24.275  25.575  1.00  0.00     0.001 A 
ATOM     17  C   UNL A   1      37.050  23.057  23.943  1.00  0.00     0.001 A 
ATOM     18  C   UNL A   1      36.964  23.703  25.175  1.00  0.00     0.000 A 
ENDBRANCH  10  13
ENDBRANCH   7   9
BRANCH   8  19
ATOM     19  C   UNL A   1      32.988  19.747  24.217  1.00  0.00    -0.005 A 
ATOM     20  C   UNL A   1      32.305  18.774  23.457  1.00  0.00     0.010 A 
ATOM     21  C   UNL A   1      34.299  19.451  24.626  1.00  0.00     0.048 A 
ATOM     22  C   UNL A   1      32.893  17.550  23.126  1.00  0.00     0.001 A 
ATOM     23  C   UNL A   1      34.890  18.223  24.284  1.00  0.00     0.021 A 
ATOM     24  Cl  UNL A   1      35.241  20.504  25.619  1.00  0.00    -0.084 Cl
ATOM     25  C   UNL A   1      34.187  17.272  23.546  1.00  0.00     0.002 A 
ENDBRANCH   8  19
ENDBRANCH   5   7
ENDBRANCH   4   5
ENDBRANCH   3   4
ENDBRANCH   2   3
ENDBRANCH   1   2
BRANCH   1  26
ATOM     26  C   UNL A   1      31.495  28.813  25.155  1.00  0.00     0.202 C 
BRANCH  26  27
ATOM     27  C   UNL A   1      31.779  29.796  26.301  1.00  0.00     0.261 C 
BRANCH  27  28
ATOM     28  O   UNL A   1      33.067  30.442  26.154  1.00  0.00    -0.460 OA
BRANCH  28  29
ATOM     29  C   UNL A   1      33.393  31.367  27.096  1.00  0.00     0.338 C 
ATOM     30  O   UNL A   1      32.691  32.289  27.479  1.00  0.00    -0.246 OA
BRANCH  29  31
ATOM     31  C   UNL A   1      34.722  31.069  27.701  1.00  0.00     0.060 A 
ATOM     32  C   UNL A   1      35.040  29.735  28.003  1.00  0.00     0.016 A 
ATOM     33  C   UNL A   1      35.644  32.075  28.000  1.00  0.00     0.016 A 
ATOM     34  C   UNL A   1      36.267  29.407  28.600  1.00  0.00     0.010 A 
ATOM     35  C   UNL A   1      36.865  31.748  28.607  1.00  0.00     0.010 A 
ATOM     36  C   UNL A   1      37.184  30.414  28.924  1.00  0.00    -0.014 A 
BRANCH  36  37
ATOM     37  C   UNL A   1      38.439  30.130  29.671  1.00  0.00     0.031 A 
ATOM     38  C   UNL A   1      39.395  29.103  29.137  1.00  0.00     0.074 A 
ATOM     39  C   UNL A   1      38.696  30.709  30.858  1.00  0.00     0.049 A 
ATOM     40  N   UNL A   1      40.446  28.572  29.709  1.00  0.00    -0.248 NA
ATOM     41  C   UNL A   1      39.137  28.615  27.773  1.00  0.00     0.031 C 
ATOM     42  C   UNL A   1      37.904  31.772  31.459  1.00  0.00     0.029 A 
ATOM     43  N   UNL A   1      39.673  30.455  31.793  1.00  0.00    -0.354 N 
ATOM     44  C   UNL A   1      40.976  27.691  28.779  1.00  0.00     0.074 A 
ATOM     45  C   UNL A   1      40.119  27.739  27.613  1.00  0.00     0.031 C 
ATOM     46  C   UNL A   1      38.365  32.027  32.695  1.00  0.00     0.029 A 
ATOM     47  C   UNL A   1      39.485  31.132  32.976  1.00  0.00     0.049 A 
ATOM     48  H   UNL A   1      40.431  29.849  31.632  1.00  0.00     0.167 HD
ATOM     49  C   UNL A   1      42.082  26.919  28.889  1.00  0.00     0.037 A 
ATOM     50  C   UNL A   1      40.118  31.018  34.161  1.00  0.00     0.037 A 
ATOM     51  C   UNL A   1      42.939  26.873  30.043  1.00  0.00     0.049 A 
ATOM     52  C   UNL A   1      41.271  30.057  34.296  1.00  0.00     0.074 A 
ATOM     53  C   UNL A   1      44.118  26.166  30.211  1.00  0.00     0.029 A 
ATOM     54  N   UNL A   1      42.701  27.543  31.232  1.00  0.00    -0.354 N 
ATOM     55  N   UNL A   1      41.802  29.272  33.393  1.00  0.00    -0.248 NA
ATOM     56  C   UNL A   1      41.916  29.971  35.617  1.00  0.00     0.031 C 
ATOM     57  C   UNL A   1      44.562  26.362  31.523  1.00  0.00     0.029 A 
ATOM     58  C   UNL A   1      43.684  27.227  32.156  1.00  0.00     0.049 A 
ATOM     59  H   UNL A   1      41.945  28.153  31.395  1.00  0.00     0.167 HD
ATOM     60  C   UNL A   1      42.861  28.630  34.020  1.00  0.00     0.074 A 
ATOM     61  C   UNL A   1      42.903  29.117  35.381  1.00  0.00     0.031 C 
ATOM     62  C   UNL A   1      43.724  27.719  33.508  1.00  0.00     0.037 A 
BRANCH  49  63
ATOM     63  C   UNL A   1      42.428  26.037  27.730  1.00  0.00     0.064 A 
ATOM     64  C   UNL A   1      43.370  26.423  26.768  1.00  0.00     0.173 A 
ATOM     65  C   UNL A   1      41.857  24.760  27.623  1.00  0.00     0.173 A 
ATOM     66  F   UNL A   1      43.933  27.640  26.824  1.00  0.00    -0.203 F 
ATOM     67  C   UNL A   1      43.723  25.564  25.730  1.00  0.00     0.198 A 
ATOM     68  C   UNL A   1      42.228  23.896  26.596  1.00  0.00     0.198 A 
ATOM     69  F   UNL A   1      40.952  24.345  28.522  1.00  0.00    -0.203 F 
ATOM     70  F   UNL A   1      44.608  25.962  24.805  1.00  0.00    -0.200 F 
ATOM     71  C   UNL A   1      43.159  24.300  25.651  1.00  0.00     0.200 A 
ATOM     72  F   UNL A   1      41.689  22.671  26.526  1.00  0.00    -0.200 F 
ATOM     73  F   UNL A   1      43.509  23.470  24.659  1.00  0.00    -0.200 F 
ENDBRANCH  49  63
BRANCH  50  74
ATOM     74  C   UNL A   1      39.655  31.797  35.341  1.00  0.00     0.064 A 
ATOM     75  C   UNL A   1      38.669  31.296  36.200  1.00  0.00     0.173 A 
ATOM     76  C   UNL A   1      40.139  33.091  35.588  1.00  0.00     0.173 A 
ATOM     77  F   UNL A   1      38.151  30.077  35.986  1.00  0.00    -0.203 F 
ATOM     78  C   UNL A   1      38.162  32.070  37.244  1.00  0.00     0.198 A 
ATOM     79  C   UNL A   1      39.650  33.853  36.646  1.00  0.00     0.198 A 
ATOM     80  F   UNL A   1      41.079  33.622  34.791  1.00  0.00    -0.203 F 
ATOM     81  F   UNL A   1      37.173  31.590  38.010  1.00  0.00    -0.200 F 
ATOM     82  C   UNL A   1      38.653  33.347  37.466  1.00  0.00     0.200 A 
ATOM     83  F   UNL A   1      40.131  35.086  36.861  1.00  0.00    -0.200 F 
ATOM     84  F   UNL A   1      38.154  34.096  38.459  1.00  0.00    -0.200 F 
ENDBRANCH  50  74
BRANCH  62  85
ATOM     85  C   UNL A   1      44.807  27.203  34.410  1.00  0.00     0.064 A 
ATOM     86  C   UNL A   1      44.647  26.015  35.139  1.00  0.00     0.173 A 
ATOM     87  C   UNL A   1      46.034  27.874  34.506  1.00  0.00     0.173 A 
ATOM     88  F   UNL A   1      43.485  25.347  35.096  1.00  0.00    -0.203 F 
ATOM     89  C   UNL A   1      45.676  25.526  35.940  1.00  0.00     0.198 A 
ATOM     90  C   UNL A   1      47.070  27.366  35.286  1.00  0.00     0.198 A 
ATOM     91  F   UNL A   1      46.238  29.013  33.824  1.00  0.00    -0.203 F 
ATOM     92  F   UNL A   1      45.489  24.409  36.657  1.00  0.00    -0.200 F 
ATOM     93  C   UNL A   1      46.888  26.196  36.006  1.00  0.00     0.200 A 
ATOM     94  F   UNL A   1      48.245  28.009  35.338  1.00  0.00    -0.200 F 
ATOM     95  F   UNL A   1      47.881  25.716  36.768  1.00  0.00    -0.200 F 
ENDBRANCH  62  85
ENDBRANCH  36  37
ENDBRANCH  29  31
ENDBRANCH  28  29
ENDBRANCH  27  28
ENDBRANCH  26  27
ENDBRANCH   1  26
TORSDOF 17
ENDMDL
