MODEL 1
REMARK VINA RESULT:     -11.9      0.000      0.000
REMARK SMILES C[C@H](CNC(=O)N1C[C@H]2CCCC[N@@H+]2C[C@@H]1C)C(=O)OCCOCCOC(=O)c1ccc(-c2c3nc(c(-c4c(F)c(F)c(F)c(F)c4F)c4ccc([nH]4)c(-c4c(F)c(F)c(F)c(F)c4F)c4nc(c(-c5c(F)c(F)c(F)c(F)c5F)c5ccc2[nH]5)C=C4)C=C3)cc1
REMARK SMILES IDX 22 1 21 2 20 3 18 4 19 5 2 6 1 7 3 8 4 9 5 10 6 12 7 13 8 14
REMARK SMILES IDX 16 15 9 16 15 17 17 18 10 19 14 20 11 21 13 22 12 24 23 25
REMARK SMILES IDX 24 26 25 27 26 28 27 29 28 30 29 31 30 32 91 33 31 34 90 35
REMARK SMILES IDX 32 36 33 37 34 38 84 39 35 40 89 41 83 42 85 43 36 44 88 45
REMARK SMILES IDX 82 46 81 47 37 49 69 50 49 51 68 52 50 53 53 54 67 55 86 56
REMARK SMILES IDX 51 57 52 58 66 60 87 61 54 62 38 63 39 64 47 65 40 66 41 67
REMARK SMILES IDX 45 68 48 69 42 70 43 71 46 72 44 73 70 74 71 75 79 76 72 77
REMARK SMILES IDX 73 78 77 79 80 80 74 81 75 82 78 83 76 84 55 85 56 86 64 87
REMARK SMILES IDX 57 88 58 89 62 90 65 91 59 92 60 93 63 94 61 95
REMARK H PARENT 4 11 14 23 85 48 53 59
REMARK Flexibility Score: inf
ROOT
ATOM      1  C   UNL A   1      41.101  20.772  27.466  1.00  0.00     0.202 C 
ENDROOT
BRANCH   1   2
ATOM      2  C   UNL A   1      40.056  20.881  26.353  1.00  0.00     0.261 C 
BRANCH   2   3
ATOM      3  O   UNL A   1      39.323  22.119  26.400  1.00  0.00    -0.463 OA
BRANCH   3   4
ATOM      4  C   UNL A   1      38.124  22.117  25.756  1.00  0.00     0.310 C 
ATOM      5  O   UNL A   1      37.555  21.115  25.341  1.00  0.00    -0.252 OA
BRANCH   4   6
ATOM      6  C   UNL A   1      37.581  23.514  25.529  1.00  0.00     0.115 C 
ATOM      7  C   UNL A   1      38.228  24.452  26.543  1.00  0.00     0.022 C 
BRANCH   6   8
ATOM      8  C   UNL A   1      36.048  23.581  25.544  1.00  0.00     0.132 C 
BRANCH   8   9
ATOM      9  N   UNL A   1      35.494  23.027  26.772  1.00  0.00    -0.337 N 
ATOM     10  C   UNL A   1      34.290  22.405  26.923  1.00  0.00     0.318 C 
ATOM     11  H   UNL A   1      36.049  23.110  27.582  1.00  0.00     0.165 HD
ATOM     12  O   UNL A   1      33.688  22.538  27.985  1.00  0.00    -0.249 OA
BRANCH  10  13
ATOM     13  N   UNL A   1      33.815  21.684  25.849  1.00  0.00    -0.311 N 
ATOM     14  C   UNL A   1      34.024  20.236  25.903  1.00  0.00     0.186 C 
ATOM     15  C   UNL A   1      32.530  22.087  25.243  1.00  0.00     0.139 C 
ATOM     16  C   UNL A   1      33.819  19.570  24.535  1.00  0.00     0.203 C 
ATOM     17  C   UNL A   1      32.141  21.231  23.995  1.00  0.00     0.287 C 
ATOM     18  C   UNL A   1      32.556  23.555  24.787  1.00  0.00     0.037 C 
ATOM     19  C   UNL A   1      34.119  18.067  24.636  1.00  0.00     0.067 C 
ATOM     20  N   UNL A   1      32.435  19.783  24.062  1.00  0.00    -0.329 N 
ATOM     21  C   UNL A   1      33.923  17.383  23.288  1.00  0.00     0.012 C 
ATOM     22  C   UNL A   1      32.227  19.172  22.738  1.00  0.00     0.262 C 
ATOM     23  H   UNL A   1      31.801  19.337  24.725  1.00  0.00     0.348 HD
ATOM     24  C   UNL A   1      32.529  17.674  22.742  1.00  0.00     0.062 C 
ENDBRANCH  10  13
ENDBRANCH   8   9
ENDBRANCH   6   8
ENDBRANCH   4   6
ENDBRANCH   3   4
ENDBRANCH   2   3
ENDBRANCH   1   2
BRANCH   1  25
ATOM     25  O   UNL A   1      42.311  20.094  27.137  1.00  0.00    -0.374 OA
BRANCH  25  26
ATOM     26  C   UNL A   1      42.780  20.207  25.796  1.00  0.00     0.202 C 
BRANCH  26  27
ATOM     27  C   UNL A   1      43.666  21.418  25.485  1.00  0.00     0.261 C 
BRANCH  27  28
ATOM     28  O   UNL A   1      42.891  22.561  25.072  1.00  0.00    -0.460 OA
BRANCH  28  29
ATOM     29  C   UNL A   1      43.570  23.731  25.040  1.00  0.00     0.338 C 
ATOM     30  O   UNL A   1      44.506  24.028  24.309  1.00  0.00    -0.246 OA
BRANCH  29  31
ATOM     31  C   UNL A   1      42.914  24.718  25.915  1.00  0.00     0.060 A 
ATOM     32  C   UNL A   1      43.364  26.044  25.859  1.00  0.00     0.016 A 
ATOM     33  C   UNL A   1      41.931  24.338  26.831  1.00  0.00     0.016 A 
ATOM     34  C   UNL A   1      42.863  26.991  26.751  1.00  0.00     0.010 A 
ATOM     35  C   UNL A   1      41.438  25.287  27.732  1.00  0.00     0.010 A 
ATOM     36  C   UNL A   1      41.925  26.607  27.717  1.00  0.00    -0.014 A 
BRANCH  36  37
ATOM     37  C   UNL A   1      41.557  27.532  28.815  1.00  0.00     0.031 A 
ATOM     38  C   UNL A   1      42.325  27.469  30.102  1.00  0.00     0.074 A 
ATOM     39  C   UNL A   1      40.532  28.390  28.679  1.00  0.00     0.049 A 
ATOM     40  N   UNL A   1      42.095  28.069  31.241  1.00  0.00    -0.248 NA
ATOM     41  C   UNL A   1      43.512  26.598  30.108  1.00  0.00     0.031 C 
ATOM     42  C   UNL A   1      39.737  28.568  27.467  1.00  0.00     0.029 A 
ATOM     43  N   UNL A   1      39.965  29.248  29.588  1.00  0.00    -0.354 N 
ATOM     44  C   UNL A   1      43.089  27.632  32.105  1.00  0.00     0.074 A 
ATOM     45  C   UNL A   1      43.916  26.703  31.365  1.00  0.00     0.031 C 
ATOM     46  C   UNL A   1      38.757  29.453  27.718  1.00  0.00     0.029 A 
ATOM     47  C   UNL A   1      38.835  29.869  29.117  1.00  0.00     0.049 A 
ATOM     48  H   UNL A   1      40.332  29.403  30.488  1.00  0.00     0.167 HD
ATOM     49  C   UNL A   1      43.291  27.973  33.400  1.00  0.00     0.037 A 
ATOM     50  C   UNL A   1      37.942  30.649  29.758  1.00  0.00     0.037 A 
ATOM     51  C   UNL A   1      42.467  28.902  34.126  1.00  0.00     0.049 A 
ATOM     52  C   UNL A   1      38.152  30.977  31.212  1.00  0.00     0.074 A 
ATOM     53  C   UNL A   1      42.611  29.350  35.428  1.00  0.00     0.029 A 
ATOM     54  N   UNL A   1      41.332  29.516  33.616  1.00  0.00    -0.354 N 
ATOM     55  N   UNL A   1      39.109  30.585  32.018  1.00  0.00    -0.248 NA
ATOM     56  C   UNL A   1      37.158  31.854  31.848  1.00  0.00     0.031 C 
ATOM     57  C   UNL A   1      41.534  30.192  35.721  1.00  0.00     0.029 A 
ATOM     58  C   UNL A   1      40.749  30.315  34.585  1.00  0.00     0.049 A 
ATOM     59  H   UNL A   1      40.993  29.402  32.698  1.00  0.00     0.167 HD
ATOM     60  C   UNL A   1      38.850  31.185  33.243  1.00  0.00     0.074 A 
ATOM     61  C   UNL A   1      37.646  31.971  33.075  1.00  0.00     0.031 C 
ATOM     62  C   UNL A   1      39.551  31.096  34.400  1.00  0.00     0.037 A 
BRANCH  49  63
ATOM     63  C   UNL A   1      44.421  27.301  34.122  1.00  0.00     0.064 A 
ATOM     64  C   UNL A   1      44.279  26.037  34.712  1.00  0.00     0.173 A 
ATOM     65  C   UNL A   1      45.670  27.933  34.219  1.00  0.00     0.173 A 
ATOM     66  F   UNL A   1      43.101  25.396  34.661  1.00  0.00    -0.203 F 
ATOM     67  C   UNL A   1      45.334  25.446  35.405  1.00  0.00     0.198 A 
ATOM     68  C   UNL A   1      46.732  27.327  34.885  1.00  0.00     0.198 A 
ATOM     69  F   UNL A   1      45.862  29.141  33.668  1.00  0.00    -0.203 F 
ATOM     70  F   UNL A   1      45.157  24.264  36.011  1.00  0.00    -0.200 F 
ATOM     71  C   UNL A   1      46.560  26.089  35.486  1.00  0.00     0.200 A 
ATOM     72  F   UNL A   1      47.919  27.944  34.953  1.00  0.00    -0.200 F 
ATOM     73  F   UNL A   1      47.573  25.520  36.155  1.00  0.00    -0.200 F 
ENDBRANCH  49  63
BRANCH  50  74
ATOM     74  C   UNL A   1      36.750  31.144  29.022  1.00  0.00     0.064 A 
ATOM     75  C   UNL A   1      35.687  30.289  28.704  1.00  0.00     0.173 A 
ATOM     76  C   UNL A   1      36.641  32.492  28.646  1.00  0.00     0.173 A 
ATOM     77  F   UNL A   1      35.756  28.988  29.023  1.00  0.00    -0.203 F 
ATOM     78  C   UNL A   1      34.559  30.762  28.036  1.00  0.00     0.198 A 
ATOM     79  C   UNL A   1      35.503  32.968  28.000  1.00  0.00     0.198 A 
ATOM     80  F   UNL A   1      37.633  33.349  28.928  1.00  0.00    -0.203 F 
ATOM     81  F   UNL A   1      33.568  29.920  27.719  1.00  0.00    -0.200 F 
ATOM     82  C   UNL A   1      34.465  32.103  27.694  1.00  0.00     0.200 A 
ATOM     83  F   UNL A   1      35.410  34.268  27.685  1.00  0.00    -0.200 F 
ATOM     84  F   UNL A   1      33.373  32.561  27.064  1.00  0.00    -0.200 F 
ENDBRANCH  50  74
BRANCH  62  85
ATOM     85  C   UNL A   1      39.063  31.894  35.575  1.00  0.00     0.064 A 
ATOM     86  C   UNL A   1      38.232  31.332  36.553  1.00  0.00     0.173 A 
ATOM     87  C   UNL A   1      39.496  33.216  35.760  1.00  0.00     0.173 A 
ATOM     88  F   UNL A   1      37.780  30.076  36.415  1.00  0.00    -0.203 F 
ATOM     89  C   UNL A   1      37.844  32.068  37.671  1.00  0.00     0.198 A 
ATOM     90  C   UNL A   1      39.129  33.940  36.891  1.00  0.00     0.198 A 
ATOM     91  F   UNL A   1      40.298  33.798  34.854  1.00  0.00    -0.203 F 
ATOM     92  F   UNL A   1      37.025  31.521  38.580  1.00  0.00    -0.200 F 
ATOM     93  C   UNL A   1      38.301  33.366  37.843  1.00  0.00     0.200 A 
ATOM     94  F   UNL A   1      39.583  35.189  37.062  1.00  0.00    -0.200 F 
ATOM     95  F   UNL A   1      37.941  34.066  38.928  1.00  0.00    -0.200 F 
ENDBRANCH  62  85
ENDBRANCH  36  37
ENDBRANCH  29  31
ENDBRANCH  28  29
ENDBRANCH  27  28
ENDBRANCH  26  27
ENDBRANCH  25  26
ENDBRANCH   1  25
TORSDOF 17
ENDMDL
MODEL 2
REMARK VINA RESULT:     -11.5      1.232      2.543
REMARK SMILES C[C@H](CNC(=O)N1C[C@H]2CCCC[N@@H+]2C[C@@H]1C)C(=O)OCCOCCOC(=O)c1ccc(-c2c3nc(c(-c4c(F)c(F)c(F)c(F)c4F)c4ccc([nH]4)c(-c4c(F)c(F)c(F)c(F)c4F)c4nc(c(-c5c(F)c(F)c(F)c(F)c5F)c5ccc2[nH]5)C=C4)C=C3)cc1
REMARK SMILES IDX 22 1 21 2 20 3 18 4 19 5 2 6 1 7 3 8 4 9 5 10 6 12 7 13 8 14
REMARK SMILES IDX 16 15 9 16 15 17 17 18 10 19 14 20 11 21 13 22 12 24 23 25
REMARK SMILES IDX 24 26 25 27 26 28 27 29 28 30 29 31 30 32 91 33 31 34 90 35
REMARK SMILES IDX 32 36 33 37 34 38 84 39 35 40 89 41 83 42 85 43 36 44 88 45
REMARK SMILES IDX 82 46 81 47 37 49 69 50 49 51 68 52 50 53 53 54 67 55 86 56
REMARK SMILES IDX 51 57 52 58 66 60 87 61 54 62 38 63 39 64 47 65 40 66 41 67
REMARK SMILES IDX 45 68 48 69 42 70 43 71 46 72 44 73 70 74 71 75 79 76 72 77
REMARK SMILES IDX 73 78 77 79 80 80 74 81 75 82 78 83 76 84 55 85 56 86 64 87
REMARK SMILES IDX 57 88 58 89 62 90 65 91 59 92 60 93 63 94 61 95
REMARK H PARENT 4 11 14 23 85 48 53 59
REMARK Flexibility Score: inf
ROOT
ATOM      1  C   UNL A   1      40.532  20.360  26.602  1.00  0.00     0.202 C 
ENDROOT
BRANCH   1   2
ATOM      2  C   UNL A   1      39.602  21.548  26.348  1.00  0.00     0.261 C 
BRANCH   2   3
ATOM      3  O   UNL A   1      38.521  21.225  25.454  1.00  0.00    -0.463 OA
BRANCH   3   4
ATOM      4  C   UNL A   1      37.577  22.193  25.299  1.00  0.00     0.310 C 
ATOM      5  O   UNL A   1      37.689  23.348  25.689  1.00  0.00    -0.252 OA
BRANCH   4   6
ATOM      6  C   UNL A   1      36.310  21.674  24.648  1.00  0.00     0.115 C 
ATOM      7  C   UNL A   1      35.937  22.613  23.504  1.00  0.00     0.022 C 
BRANCH   6   8
ATOM      8  C   UNL A   1      35.161  21.453  25.640  1.00  0.00     0.132 C 
BRANCH   8   9
ATOM      9  N   UNL A   1      34.047  20.741  25.028  1.00  0.00    -0.337 N 
ATOM     10  C   UNL A   1      32.754  21.162  24.936  1.00  0.00     0.318 C 
ATOM     11  H   UNL A   1      34.249  19.859  24.638  1.00  0.00     0.165 HD
ATOM     12  O   UNL A   1      31.857  20.325  24.987  1.00  0.00    -0.249 OA
BRANCH  10  13
ATOM     13  N   UNL A   1      32.540  22.518  24.818  1.00  0.00    -0.311 N 
ATOM     14  C   UNL A   1      32.403  23.033  23.455  1.00  0.00     0.186 C 
ATOM     15  C   UNL A   1      31.665  23.183  25.805  1.00  0.00     0.139 C 
ATOM     16  C   UNL A   1      32.551  24.560  23.394  1.00  0.00     0.203 C 
ATOM     17  C   UNL A   1      31.562  24.728  25.598  1.00  0.00     0.287 C 
ATOM     18  C   UNL A   1      32.161  22.956  27.244  1.00  0.00     0.037 C 
ATOM     19  C   UNL A   1      32.469  25.034  21.935  1.00  0.00     0.067 C 
ATOM     20  N   UNL A   1      31.497  25.210  24.201  1.00  0.00    -0.329 N 
ATOM     21  C   UNL A   1      32.613  26.549  21.849  1.00  0.00     0.012 C 
ATOM     22  C   UNL A   1      31.639  26.676  24.176  1.00  0.00     0.262 C 
ATOM     23  H   UNL A   1      30.593  24.966  23.798  1.00  0.00     0.348 HD
ATOM     24  C   UNL A   1      31.593  27.233  22.753  1.00  0.00     0.062 C 
ENDBRANCH  10  13
ENDBRANCH   8   9
ENDBRANCH   6   8
ENDBRANCH   4   6
ENDBRANCH   3   4
ENDBRANCH   2   3
ENDBRANCH   1   2
BRANCH   1  25
ATOM     25  O   UNL A   1      41.880  20.670  26.944  1.00  0.00    -0.374 OA
BRANCH  25  26
ATOM     26  C   UNL A   1      42.883  20.393  25.969  1.00  0.00     0.202 C 
BRANCH  26  27
ATOM     27  C   UNL A   1      43.719  21.588  25.496  1.00  0.00     0.261 C 
BRANCH  27  28
ATOM     28  O   UNL A   1      42.893  22.695  25.087  1.00  0.00    -0.460 OA
BRANCH  28  29
ATOM     29  C   UNL A   1      43.528  23.888  25.017  1.00  0.00     0.338 C 
ATOM     30  O   UNL A   1      44.431  24.206  24.255  1.00  0.00    -0.246 OA
BRANCH  29  31
ATOM     31  C   UNL A   1      42.863  24.865  25.897  1.00  0.00     0.060 A 
ATOM     32  C   UNL A   1      43.302  26.195  25.848  1.00  0.00     0.016 A 
ATOM     33  C   UNL A   1      41.882  24.472  26.809  1.00  0.00     0.016 A 
ATOM     34  C   UNL A   1      42.792  27.133  26.745  1.00  0.00     0.010 A 
ATOM     35  C   UNL A   1      41.381  25.411  27.714  1.00  0.00     0.010 A 
ATOM     36  C   UNL A   1      41.856  26.736  27.707  1.00  0.00    -0.014 A 
BRANCH  36  37
ATOM     37  C   UNL A   1      41.479  27.652  28.810  1.00  0.00     0.031 A 
ATOM     38  C   UNL A   1      42.244  27.584  30.099  1.00  0.00     0.074 A 
ATOM     39  C   UNL A   1      40.450  28.505  28.676  1.00  0.00     0.049 A 
ATOM     40  N   UNL A   1      42.006  28.176  31.241  1.00  0.00    -0.248 NA
ATOM     41  C   UNL A   1      43.435  26.721  30.103  1.00  0.00     0.031 C 
ATOM     42  C   UNL A   1      39.658  28.686  27.462  1.00  0.00     0.029 A 
ATOM     43  N   UNL A   1      39.875  29.354  29.588  1.00  0.00    -0.354 N 
ATOM     44  C   UNL A   1      43.000  27.739  32.106  1.00  0.00     0.074 A 
ATOM     45  C   UNL A   1      43.834  26.820  31.363  1.00  0.00     0.031 C 
ATOM     46  C   UNL A   1      38.673  29.564  27.715  1.00  0.00     0.029 A 
ATOM     47  C   UNL A   1      38.744  29.972  29.117  1.00  0.00     0.049 A 
ATOM     48  H   UNL A   1      40.239  29.505  30.491  1.00  0.00     0.167 HD
ATOM     49  C   UNL A   1      43.195  28.073  33.404  1.00  0.00     0.037 A 
ATOM     50  C   UNL A   1      37.844  30.743  29.760  1.00  0.00     0.037 A 
ATOM     51  C   UNL A   1      42.363  28.993  34.133  1.00  0.00     0.049 A 
ATOM     52  C   UNL A   1      38.047  31.062  31.216  1.00  0.00     0.074 A 
ATOM     53  C   UNL A   1      42.501  29.433  35.438  1.00  0.00     0.029 A 
ATOM     54  N   UNL A   1      41.227  29.604  33.622  1.00  0.00    -0.354 N 
ATOM     55  N   UNL A   1      39.004  30.670  32.023  1.00  0.00    -0.248 NA
ATOM     56  C   UNL A   1      37.046  31.930  31.855  1.00  0.00     0.031 C 
ATOM     57  C   UNL A   1      41.417  30.268  35.733  1.00  0.00     0.029 A 
ATOM     58  C   UNL A   1      40.636  30.393  34.595  1.00  0.00     0.049 A 
ATOM     59  H   UNL A   1      40.892  29.494  32.703  1.00  0.00     0.167 HD
ATOM     60  C   UNL A   1      38.737  31.262  33.252  1.00  0.00     0.074 A 
ATOM     61  C   UNL A   1      37.529  32.042  33.084  1.00  0.00     0.031 C 
ATOM     62  C   UNL A   1      39.435  31.169  34.410  1.00  0.00     0.037 A 
BRANCH  49  63
ATOM     63  C   UNL A   1      44.326  27.403  34.126  1.00  0.00     0.064 A 
ATOM     64  C   UNL A   1      45.608  27.968  34.186  1.00  0.00     0.173 A 
ATOM     65  C   UNL A   1      44.120  26.176  34.775  1.00  0.00     0.173 A 
ATOM     66  F   UNL A   1      45.862  29.133  33.570  1.00  0.00    -0.203 F 
ATOM     67  C   UNL A   1      46.651  27.311  34.836  1.00  0.00     0.198 A 
ATOM     68  C   UNL A   1      45.156  25.537  35.450  1.00  0.00     0.198 A 
ATOM     69  F   UNL A   1      42.911  25.594  34.752  1.00  0.00    -0.203 F 
ATOM     70  F   UNL A   1      47.882  27.842  34.829  1.00  0.00    -0.200 F 
ATOM     71  C   UNL A   1      46.423  26.100  35.471  1.00  0.00     0.200 A 
ATOM     72  F   UNL A   1      44.931  24.373  36.072  1.00  0.00    -0.200 F 
ATOM     73  F   UNL A   1      47.428  25.469  36.094  1.00  0.00    -0.200 F 
ENDBRANCH  49  63
BRANCH  50  74
ATOM     74  C   UNL A   1      36.652  31.235  29.023  1.00  0.00     0.064 A 
ATOM     75  C   UNL A   1      35.593  30.378  28.700  1.00  0.00     0.173 A 
ATOM     76  C   UNL A   1      36.538  32.584  28.651  1.00  0.00     0.173 A 
ATOM     77  F   UNL A   1      35.666  29.076  29.014  1.00  0.00    -0.203 F 
ATOM     78  C   UNL A   1      34.465  30.849  28.030  1.00  0.00     0.198 A 
ATOM     79  C   UNL A   1      35.401  33.059  28.005  1.00  0.00     0.198 A 
ATOM     80  F   UNL A   1      37.526  33.445  28.939  1.00  0.00    -0.203 F 
ATOM     81  F   UNL A   1      33.477  30.004  27.709  1.00  0.00    -0.200 F 
ATOM     82  C   UNL A   1      34.366  32.191  27.692  1.00  0.00     0.200 A 
ATOM     83  F   UNL A   1      35.303  34.359  27.693  1.00  0.00    -0.200 F 
ATOM     84  F   UNL A   1      33.274  32.647  27.062  1.00  0.00    -0.200 F 
ENDBRANCH  50  74
BRANCH  62  85
ATOM     85  C   UNL A   1      38.938  31.957  35.588  1.00  0.00     0.064 A 
ATOM     86  C   UNL A   1      38.174  31.363  36.602  1.00  0.00     0.173 A 
ATOM     87  C   UNL A   1      39.297  33.305  35.739  1.00  0.00     0.173 A 
ATOM     88  F   UNL A   1      37.793  30.081  36.498  1.00  0.00    -0.203 F 
ATOM     89  C   UNL A   1      37.779  32.095  37.721  1.00  0.00     0.198 A 
ATOM     90  C   UNL A   1      38.924  34.025  36.870  1.00  0.00     0.198 A 
ATOM     91  F   UNL A   1      40.033  33.918  34.798  1.00  0.00    -0.203 F 
ATOM     92  F   UNL A   1      37.024  31.516  38.665  1.00  0.00    -0.200 F 
ATOM     93  C   UNL A   1      38.163  33.420  37.858  1.00  0.00     0.200 A 
ATOM     94  F   UNL A   1      39.308  35.301  37.007  1.00  0.00    -0.200 F 
ATOM     95  F   UNL A   1      37.797  34.116  38.944  1.00  0.00    -0.200 F 
ENDBRANCH  62  85
ENDBRANCH  36  37
ENDBRANCH  29  31
ENDBRANCH  28  29
ENDBRANCH  27  28
ENDBRANCH  26  27
ENDBRANCH  25  26
ENDBRANCH   1  25
TORSDOF 17
ENDMDL
MODEL 3
REMARK VINA RESULT:     -11.3      1.401      3.108
REMARK SMILES C[C@H](CNC(=O)N1C[C@H]2CCCC[N@@H+]2C[C@@H]1C)C(=O)OCCOCCOC(=O)c1ccc(-c2c3nc(c(-c4c(F)c(F)c(F)c(F)c4F)c4ccc([nH]4)c(-c4c(F)c(F)c(F)c(F)c4F)c4nc(c(-c5c(F)c(F)c(F)c(F)c5F)c5ccc2[nH]5)C=C4)C=C3)cc1
REMARK SMILES IDX 22 1 21 2 20 3 18 4 19 5 2 6 1 7 3 8 4 9 5 10 6 12 7 13 8 14
REMARK SMILES IDX 16 15 9 16 15 17 17 18 10 19 14 20 11 21 13 22 12 24 23 25
REMARK SMILES IDX 24 26 25 27 26 28 27 29 28 30 29 31 30 32 91 33 31 34 90 35
REMARK SMILES IDX 32 36 33 37 34 38 84 39 35 40 89 41 83 42 85 43 36 44 88 45
REMARK SMILES IDX 82 46 81 47 37 49 69 50 49 51 68 52 50 53 53 54 67 55 86 56
REMARK SMILES IDX 51 57 52 58 66 60 87 61 54 62 38 63 39 64 47 65 40 66 41 67
REMARK SMILES IDX 45 68 48 69 42 70 43 71 46 72 44 73 70 74 71 75 79 76 72 77
REMARK SMILES IDX 73 78 77 79 80 80 74 81 75 82 78 83 76 84 55 85 56 86 64 87
REMARK SMILES IDX 57 88 58 89 62 90 65 91 59 92 60 93 63 94 61 95
REMARK H PARENT 4 11 14 23 85 48 53 59
REMARK Flexibility Score: inf
ROOT
ATOM      1  C   UNL A   1      39.788  20.531  25.964  1.00  0.00     0.202 C 
ENDROOT
BRANCH   1   2
ATOM      2  C   UNL A   1      38.912  21.786  25.988  1.00  0.00     0.261 C 
BRANCH   2   3
ATOM      3  O   UNL A   1      37.590  21.549  25.471  1.00  0.00    -0.463 OA
BRANCH   3   4
ATOM      4  C   UNL A   1      36.680  22.532  25.711  1.00  0.00     0.310 C 
ATOM      5  O   UNL A   1      36.841  23.716  25.440  1.00  0.00    -0.252 OA
BRANCH   4   6
ATOM      6  C   UNL A   1      35.447  22.024  26.431  1.00  0.00     0.115 C 
ATOM      7  C   UNL A   1      34.696  21.082  25.493  1.00  0.00     0.022 C 
BRANCH   6   8
ATOM      8  C   UNL A   1      34.562  23.145  26.989  1.00  0.00     0.132 C 
BRANCH   8   9
ATOM      9  N   UNL A   1      33.160  22.751  27.043  1.00  0.00    -0.337 N 
ATOM     10  C   UNL A   1      32.083  23.486  26.642  1.00  0.00     0.318 C 
ATOM     11  H   UNL A   1      32.968  21.857  27.409  1.00  0.00     0.165 HD
ATOM     12  O   UNL A   1      31.026  23.363  27.254  1.00  0.00    -0.249 OA
BRANCH  10  13
ATOM     13  N   UNL A   1      32.269  24.348  25.583  1.00  0.00    -0.311 N 
ATOM     14  C   UNL A   1      32.946  25.608  25.889  1.00  0.00     0.186 C 
ATOM     15  C   UNL A   1      32.616  23.779  24.264  1.00  0.00     0.139 C 
ATOM     16  C   UNL A   1      32.774  26.646  24.771  1.00  0.00     0.203 C 
ATOM     17  C   UNL A   1      32.731  24.857  23.139  1.00  0.00     0.287 C 
ATOM     18  C   UNL A   1      31.570  22.754  23.797  1.00  0.00     0.037 C 
ATOM     19  C   UNL A   1      33.443  27.967  25.176  1.00  0.00     0.067 C 
ATOM     20  N   UNL A   1      33.359  26.144  23.510  1.00  0.00    -0.329 N 
ATOM     21  C   UNL A   1      33.284  29.014  24.081  1.00  0.00     0.012 C 
ATOM     22  C   UNL A   1      33.179  27.116  22.418  1.00  0.00     0.262 C 
ATOM     23  H   UNL A   1      34.358  26.005  23.657  1.00  0.00     0.348 HD
ATOM     24  C   UNL A   1      33.797  28.474  22.750  1.00  0.00     0.062 C 
ENDBRANCH  10  13
ENDBRANCH   8   9
ENDBRANCH   6   8
ENDBRANCH   4   6
ENDBRANCH   3   4
ENDBRANCH   2   3
ENDBRANCH   1   2
BRANCH   1  25
ATOM     25  O   UNL A   1      40.988  20.578  26.732  1.00  0.00    -0.374 OA
BRANCH  25  26
ATOM     26  C   UNL A   1      42.177  20.089  26.116  1.00  0.00     0.202 C 
BRANCH  26  27
ATOM     27  C   UNL A   1      43.188  21.146  25.656  1.00  0.00     0.261 C 
BRANCH  27  28
ATOM     28  O   UNL A   1      42.540  22.295  25.077  1.00  0.00    -0.460 OA
BRANCH  28  29
ATOM     29  C   UNL A   1      43.292  23.420  25.045  1.00  0.00     0.338 C 
ATOM     30  O   UNL A   1      44.251  23.653  24.320  1.00  0.00    -0.246 OA
BRANCH  29  31
ATOM     31  C   UNL A   1      42.693  24.452  25.909  1.00  0.00     0.060 A 
ATOM     32  C   UNL A   1      43.228  25.746  25.852  1.00  0.00     0.016 A 
ATOM     33  C   UNL A   1      41.678  24.141  26.816  1.00  0.00     0.016 A 
ATOM     34  C   UNL A   1      42.781  26.727  26.735  1.00  0.00     0.010 A 
ATOM     35  C   UNL A   1      41.239  25.123  27.708  1.00  0.00     0.010 A 
ATOM     36  C   UNL A   1      41.811  26.409  27.693  1.00  0.00    -0.014 A 
BRANCH  36  37
ATOM     37  C   UNL A   1      41.492  27.361  28.783  1.00  0.00     0.031 A 
ATOM     38  C   UNL A   1      42.286  27.295  30.056  1.00  0.00     0.074 A 
ATOM     39  C   UNL A   1      40.490  28.247  28.655  1.00  0.00     0.049 A 
ATOM     40  N   UNL A   1      42.096  27.919  31.189  1.00  0.00    -0.248 NA
ATOM     41  C   UNL A   1      43.446  26.391  30.051  1.00  0.00     0.031 C 
ATOM     42  C   UNL A   1      39.676  28.429  27.456  1.00  0.00     0.029 A 
ATOM     43  N   UNL A   1      39.968  29.135  29.562  1.00  0.00    -0.354 N 
ATOM     44  C   UNL A   1      43.096  27.467  32.039  1.00  0.00     0.074 A 
ATOM     45  C   UNL A   1      43.879  26.503  31.297  1.00  0.00     0.031 C 
ATOM     46  C   UNL A   1      38.728  29.346  27.714  1.00  0.00     0.029 A 
ATOM     47  C   UNL A   1      38.846  29.781  29.104  1.00  0.00     0.049 A 
ATOM     48  H   UNL A   1      40.358  29.293  30.452  1.00  0.00     0.167 HD
ATOM     49  C   UNL A   1      43.334  27.821  33.325  1.00  0.00     0.037 A 
ATOM     50  C   UNL A   1      37.990  30.597  29.750  1.00  0.00     0.037 A 
ATOM     51  C   UNL A   1      42.552  28.785  34.053  1.00  0.00     0.049 A 
ATOM     52  C   UNL A   1      38.239  30.940  31.194  1.00  0.00     0.074 A 
ATOM     53  C   UNL A   1      42.737  29.248  35.344  1.00  0.00     0.029 A 
ATOM     54  N   UNL A   1      41.426  29.424  33.555  1.00  0.00    -0.354 N 
ATOM     55  N   UNL A   1      39.202  30.533  31.987  1.00  0.00    -0.248 NA
ATOM     56  C   UNL A   1      37.285  31.856  31.837  1.00  0.00     0.031 C 
ATOM     57  C   UNL A   1      41.691  30.126  35.646  1.00  0.00     0.029 A 
ATOM     58  C   UNL A   1      40.886  30.255  34.524  1.00  0.00     0.049 A 
ATOM     59  H   UNL A   1      41.064  29.306  32.647  1.00  0.00     0.167 HD
ATOM     60  C   UNL A   1      38.986  31.159  33.207  1.00  0.00     0.074 A 
ATOM     61  C   UNL A   1      37.802  31.978  33.052  1.00  0.00     0.031 C 
ATOM     62  C   UNL A   1      39.708  31.067  34.351  1.00  0.00     0.037 A 
BRANCH  49  63
ATOM     63  C   UNL A   1      44.459  27.127  34.034  1.00  0.00     0.064 A 
ATOM     64  C   UNL A   1      45.762  27.645  34.045  1.00  0.00     0.173 A 
ATOM     65  C   UNL A   1      44.225  25.926  34.721  1.00  0.00     0.173 A 
ATOM     66  F   UNL A   1      46.042  28.783  33.392  1.00  0.00    -0.203 F 
ATOM     67  C   UNL A   1      46.798  26.967  34.685  1.00  0.00     0.198 A 
ATOM     68  C   UNL A   1      45.255  25.267  35.386  1.00  0.00     0.198 A 
ATOM     69  F   UNL A   1      42.996  25.390  34.746  1.00  0.00    -0.203 F 
ATOM     70  F   UNL A   1      48.046  27.450  34.632  1.00  0.00    -0.200 F 
ATOM     71  C   UNL A   1      46.542  25.782  35.358  1.00  0.00     0.200 A 
ATOM     72  F   UNL A   1      45.004  24.128  36.045  1.00  0.00    -0.200 F 
ATOM     73  F   UNL A   1      47.540  25.130  35.971  1.00  0.00    -0.200 F 
ENDBRANCH  49  63
BRANCH  50  74
ATOM     74  C   UNL A   1      36.798  31.115  29.031  1.00  0.00     0.064 A 
ATOM     75  C   UNL A   1      35.708  30.285  28.742  1.00  0.00     0.173 A 
ATOM     76  C   UNL A   1      36.716  32.461  28.643  1.00  0.00     0.173 A 
ATOM     77  F   UNL A   1      35.749  28.986  29.073  1.00  0.00    -0.203 F 
ATOM     78  C   UNL A   1      34.580  30.781  28.089  1.00  0.00     0.198 A 
ATOM     79  C   UNL A   1      35.580  32.961  28.013  1.00  0.00     0.198 A 
ATOM     80  F   UNL A   1      37.735  33.296  28.898  1.00  0.00    -0.203 F 
ATOM     81  F   UNL A   1      33.561  29.961  27.800  1.00  0.00    -0.200 F 
ATOM     82  C   UNL A   1      34.514  32.120  27.735  1.00  0.00     0.200 A 
ATOM     83  F   UNL A   1      35.514  34.259  27.686  1.00  0.00    -0.200 F 
ATOM     84  F   UNL A   1      33.423  32.600  27.121  1.00  0.00    -0.200 F 
ENDBRANCH  50  74
BRANCH  62  85
ATOM     85  C   UNL A   1      39.268  31.898  35.522  1.00  0.00     0.064 A 
ATOM     86  C   UNL A   1      39.655  33.237  35.661  1.00  0.00     0.173 A 
ATOM     87  C   UNL A   1      38.386  31.364  36.475  1.00  0.00     0.173 A 
ATOM     88  F   UNL A   1      40.507  33.789  34.785  1.00  0.00    -0.203 F 
ATOM     89  C   UNL A   1      39.181  34.012  36.719  1.00  0.00     0.198 A 
ATOM     90  C   UNL A   1      37.895  32.148  37.515  1.00  0.00     0.198 A 
ATOM     91  F   UNL A   1      37.982  30.088  36.383  1.00  0.00    -0.203 F 
ATOM     92  F   UNL A   1      39.586  35.283  36.851  1.00  0.00    -0.200 F 
ATOM     93  C   UNL A   1      38.295  33.470  37.638  1.00  0.00     0.200 A 
ATOM     94  F   UNL A   1      37.027  31.626  38.393  1.00  0.00    -0.200 F 
ATOM     95  F   UNL A   1      37.827  34.222  38.644  1.00  0.00    -0.200 F 
ENDBRANCH  62  85
ENDBRANCH  36  37
ENDBRANCH  29  31
ENDBRANCH  28  29
ENDBRANCH  27  28
ENDBRANCH  26  27
ENDBRANCH  25  26
ENDBRANCH   1  25
TORSDOF 17
ENDMDL
