MODEL 1
REMARK VINA RESULT:     -11.4      0.000      0.000
REMARK SMILES [NH3+]C[C@H]1CC[C@@H](C(=O)N[C@@H]2C=C[C@@H](C(=O)OCCOCCOC(=O)c3ccc(-c4c5nc(c(-c6c(F)c(F)c(F)c(F)c6F)c6ccc([nH]6)c(-c6c(F)c(F)c(F)c(F)c6F)c6nc(c(-c7c(F)c(F)c(F)c(F)c7F)c7ccc4[nH]7)C=C6)C=C5)cc3)C2)CC1
REMARK SMILES IDX 18 1 17 2 16 3 14 4 15 5 13 6 10 7 11 8 88 9 12 10 9 11 7 12
REMARK SMILES IDX 8 13 6 15 3 16 4 17 90 18 5 19 89 20 2 21 1 22 19 26 20 27
REMARK SMILES IDX 21 28 22 29 23 30 24 31 25 32 26 33 87 34 27 35 86 36 28 37
REMARK SMILES IDX 29 38 30 39 80 40 31 41 85 42 79 43 81 44 32 45 84 46 78 47
REMARK SMILES IDX 77 48 33 50 65 51 45 52 64 53 46 54 49 55 63 56 82 57 47 58
REMARK SMILES IDX 48 59 62 61 83 62 50 63 34 64 35 65 43 66 36 67 37 68 41 69
REMARK SMILES IDX 44 70 38 71 39 72 42 73 40 74 66 75 67 76 75 77 68 78 69 79
REMARK SMILES IDX 73 80 76 81 70 82 71 83 74 84 72 85 51 86 52 87 60 88 53 89
REMARK SMILES IDX 54 90 58 91 61 92 55 93 56 94 59 95 57 96
REMARK H PARENT 9 14 1 23 1 24 1 25 81 49 49 60
REMARK Flexibility Score: inf
ROOT
ATOM      1  C   UNL A   1      32.417  30.059  25.749  1.00  0.00     0.202 C 
ENDROOT
BRANCH   1   2
ATOM      2  C   UNL A   1      31.303  29.480  24.872  1.00  0.00     0.261 C 
BRANCH   2   3
ATOM      3  O   UNL A   1      31.842  28.956  23.642  1.00  0.00    -0.463 OA
BRANCH   3   4
ATOM      4  C   UNL A   1      32.913  28.132  23.777  1.00  0.00     0.312 C 
ATOM      5  O   UNL A   1      34.073  28.461  23.553  1.00  0.00    -0.252 OA
BRANCH   4   6
ATOM      6  C   UNL A   1      32.544  26.719  24.227  1.00  0.00     0.124 C 
ATOM      7  C   UNL A   1      30.888  26.104  25.949  1.00  0.00     0.106 C 
ATOM      8  C   UNL A   1      30.340  25.968  24.573  1.00  0.00    -0.006 C 
ATOM      9  C   UNL A   1      32.366  26.441  25.729  1.00  0.00     0.048 C 
ATOM     10  C   UNL A   1      31.228  26.316  23.639  1.00  0.00    -0.014 C 
BRANCH   7  11
ATOM     11  N   UNL A   1      30.686  24.877  26.669  1.00  0.00    -0.350 N 
ATOM     12  C   UNL A   1      31.342  23.694  26.688  1.00  0.00     0.223 C 
ATOM     13  O   UNL A   1      30.863  22.834  27.440  1.00  0.00    -0.275 OA
ATOM     14  H   UNL A   1      29.910  24.902  27.274  1.00  0.00     0.164 HD
BRANCH  12  15
ATOM     15  C   UNL A   1      32.600  23.347  25.876  1.00  0.00     0.078 C 
ATOM     16  C   UNL A   1      33.258  20.520  25.031  1.00  0.00     0.044 C 
ATOM     17  C   UNL A   1      32.260  21.385  24.235  1.00  0.00     0.010 C 
ATOM     18  C   UNL A   1      33.627  21.049  26.434  1.00  0.00     0.010 C 
ATOM     19  C   UNL A   1      32.381  22.887  24.439  1.00  0.00     0.014 C 
ATOM     20  C   UNL A   1      33.689  22.558  26.592  1.00  0.00     0.014 C 
BRANCH  16  21
ATOM     21  C   UNL A   1      32.774  19.053  25.187  1.00  0.00     0.262 C 
BRANCH  21  22
ATOM     22  N   UNL A   1      32.858  18.514  26.536  1.00  0.00    -0.357 N 
ATOM     23  H   UNL A   1      32.205  19.011  27.141  1.00  0.00     0.344 HD
ATOM     24  H   UNL A   1      33.808  18.630  26.890  1.00  0.00     0.344 HD
ATOM     25  H   UNL A   1      32.620  17.522  26.521  1.00  0.00     0.344 HD
ENDBRANCH  21  22
ENDBRANCH  16  21
ENDBRANCH  12  15
ENDBRANCH   7  11
ENDBRANCH   4   6
ENDBRANCH   3   4
ENDBRANCH   2   3
ENDBRANCH   1   2
BRANCH   1  26
ATOM     26  O   UNL A   1      31.983  30.835  26.871  1.00  0.00    -0.374 OA
BRANCH  26  27
ATOM     27  C   UNL A   1      31.374  32.091  26.585  1.00  0.00     0.202 C 
BRANCH  27  28
ATOM     28  C   UNL A   1      32.105  33.345  27.089  1.00  0.00     0.261 C 
BRANCH  28  29
ATOM     29  O   UNL A   1      33.072  33.068  28.116  1.00  0.00    -0.460 OA
BRANCH  29  30
ATOM     30  C   UNL A   1      34.162  33.870  28.069  1.00  0.00     0.338 C 
ATOM     31  O   UNL A   1      34.176  35.086  27.906  1.00  0.00    -0.246 OA
BRANCH  30  32
ATOM     32  C   UNL A   1      35.392  33.120  28.376  1.00  0.00     0.060 A 
ATOM     33  C   UNL A   1      35.237  31.805  28.833  1.00  0.00     0.016 A 
ATOM     34  C   UNL A   1      36.661  33.703  28.323  1.00  0.00     0.016 A 
ATOM     35  C   UNL A   1      36.338  31.095  29.303  1.00  0.00     0.010 A 
ATOM     36  C   UNL A   1      37.769  32.984  28.789  1.00  0.00     0.010 A 
ATOM     37  C   UNL A   1      37.605  31.694  29.326  1.00  0.00    -0.014 A 
BRANCH  37  38
ATOM     38  C   UNL A   1      38.705  31.010  30.054  1.00  0.00     0.031 A 
ATOM     39  C   UNL A   1      38.905  31.290  31.519  1.00  0.00     0.074 A 
ATOM     40  C   UNL A   1      39.463  30.084  29.439  1.00  0.00     0.049 A 
ATOM     41  N   UNL A   1      39.748  30.748  32.363  1.00  0.00    -0.248 NA
ATOM     42  C   UNL A   1      38.039  32.320  32.115  1.00  0.00     0.031 C 
ATOM     43  C   UNL A   1      39.354  29.705  28.033  1.00  0.00     0.029 A 
ATOM     44  N   UNL A   1      40.469  29.288  29.927  1.00  0.00    -0.354 N 
ATOM     45  C   UNL A   1      39.510  31.366  33.584  1.00  0.00     0.074 A 
ATOM     46  C   UNL A   1      38.475  32.353  33.366  1.00  0.00     0.031 C 
ATOM     47  C   UNL A   1      40.250  28.739  27.772  1.00  0.00     0.029 A 
ATOM     48  C   UNL A   1      41.009  28.447  28.987  1.00  0.00     0.049 A 
ATOM     49  H   UNL A   1      40.773  29.316  30.864  1.00  0.00     0.167 HD
ATOM     50  C   UNL A   1      40.090  31.121  34.785  1.00  0.00     0.037 A 
ATOM     51  C   UNL A   1      42.005  27.546  29.095  1.00  0.00     0.037 A 
ATOM     52  C   UNL A   1      41.117  30.137  35.008  1.00  0.00     0.049 A 
ATOM     53  C   UNL A   1      42.665  27.324  30.432  1.00  0.00     0.074 A 
ATOM     54  C   UNL A   1      41.751  29.804  36.192  1.00  0.00     0.029 A 
ATOM     55  N   UNL A   1      41.662  29.328  34.022  1.00  0.00    -0.354 N 
ATOM     56  N   UNL A   1      42.407  27.887  31.588  1.00  0.00    -0.248 NA
ATOM     57  C   UNL A   1      43.747  26.331  30.478  1.00  0.00     0.031 C 
ATOM     58  C   UNL A   1      42.713  28.826  35.916  1.00  0.00     0.029 A 
ATOM     59  C   UNL A   1      42.643  28.514  34.567  1.00  0.00     0.049 A 
ATOM     60  H   UNL A   1      41.393  29.333  33.075  1.00  0.00     0.167 HD
ATOM     61  C   UNL A   1      43.272  27.298  32.501  1.00  0.00     0.074 A 
ATOM     62  C   UNL A   1      44.051  26.323  31.768  1.00  0.00     0.031 C 
ATOM     63  C   UNL A   1      43.409  27.544  33.828  1.00  0.00     0.037 A 
BRANCH  50  64
ATOM     64  C   UNL A   1      39.636  31.948  35.952  1.00  0.00     0.064 A 
ATOM     65  C   UNL A   1      38.539  31.570  36.741  1.00  0.00     0.173 A 
ATOM     66  C   UNL A   1      40.330  33.115  36.309  1.00  0.00     0.173 A 
ATOM     67  F   UNL A   1      37.834  30.471  36.433  1.00  0.00    -0.203 F 
ATOM     68  C   UNL A   1      38.137  32.342  37.827  1.00  0.00     0.198 A 
ATOM     69  C   UNL A   1      39.943  33.870  37.413  1.00  0.00     0.198 A 
ATOM     70  F   UNL A   1      41.389  33.518  35.592  1.00  0.00    -0.203 F 
ATOM     71  F   UNL A   1      37.059  31.986  38.539  1.00  0.00    -0.200 F 
ATOM     72  C   UNL A   1      38.844  33.487  38.167  1.00  0.00     0.200 A 
ATOM     73  F   UNL A   1      40.633  34.969  37.747  1.00  0.00    -0.200 F 
ATOM     74  F   UNL A   1      38.460  34.226  39.217  1.00  0.00    -0.200 F 
ENDBRANCH  50  64
BRANCH  51  75
ATOM     75  C   UNL A   1      42.437  26.772  27.902  1.00  0.00     0.064 A 
ATOM     76  C   UNL A   1      43.405  27.275  27.022  1.00  0.00     0.173 A 
ATOM     77  C   UNL A   1      41.875  25.522  27.608  1.00  0.00     0.173 A 
ATOM     78  F   UNL A   1      43.952  28.479  27.247  1.00  0.00    -0.203 F 
ATOM     79  C   UNL A   1      43.781  26.566  25.884  1.00  0.00     0.198 A 
ATOM     80  C   UNL A   1      42.271  24.800  26.484  1.00  0.00     0.198 A 
ATOM     81  F   UNL A   1      40.941  24.998  28.417  1.00  0.00    -0.203 F 
ATOM     82  F   UNL A   1      44.674  27.091  25.034  1.00  0.00    -0.200 F 
ATOM     83  C   UNL A   1      43.218  25.326  25.619  1.00  0.00     0.200 A 
ATOM     84  F   UNL A   1      41.732  23.599  26.237  1.00  0.00    -0.200 F 
ATOM     85  F   UNL A   1      43.580  24.644  24.525  1.00  0.00    -0.200 F 
ENDBRANCH  51  75
BRANCH  63  86
ATOM     86  C   UNL A   1      44.416  26.722  34.580  1.00  0.00     0.064 A 
ATOM     87  C   UNL A   1      45.759  27.116  34.684  1.00  0.00     0.173 A 
ATOM     88  C   UNL A   1      44.029  25.536  35.223  1.00  0.00     0.173 A 
ATOM     89  F   UNL A   1      46.183  28.234  34.076  1.00  0.00    -0.203 F 
ATOM     90  C   UNL A   1      46.683  26.336  35.376  1.00  0.00     0.198 A 
ATOM     91  C   UNL A   1      44.949  24.775  35.940  1.00  0.00     0.198 A 
ATOM     92  F   UNL A   1      42.756  25.119  35.162  1.00  0.00    -0.203 F 
ATOM     93  F   UNL A   1      47.970  26.705  35.416  1.00  0.00    -0.200 F 
ATOM     94  C   UNL A   1      46.276  25.171  36.007  1.00  0.00     0.200 A 
ATOM     95  F   UNL A   1      44.551  23.655  36.560  1.00  0.00    -0.200 F 
ATOM     96  F   UNL A   1      47.166  24.422  36.674  1.00  0.00    -0.200 F 
ENDBRANCH  63  86
ENDBRANCH  37  38
ENDBRANCH  30  32
ENDBRANCH  29  30
ENDBRANCH  28  29
ENDBRANCH  27  28
ENDBRANCH  26  27
ENDBRANCH   1  26
TORSDOF 18
ENDMDL
MODEL 2
REMARK VINA RESULT:     -11.4      1.265      2.595
REMARK SMILES [NH3+]C[C@H]1CC[C@@H](C(=O)N[C@@H]2C=C[C@@H](C(=O)OCCOCCOC(=O)c3ccc(-c4c5nc(c(-c6c(F)c(F)c(F)c(F)c6F)c6ccc([nH]6)c(-c6c(F)c(F)c(F)c(F)c6F)c6nc(c(-c7c(F)c(F)c(F)c(F)c7F)c7ccc4[nH]7)C=C6)C=C5)cc3)C2)CC1
REMARK SMILES IDX 18 1 17 2 16 3 14 4 15 5 13 6 10 7 11 8 88 9 12 10 9 11 7 12
REMARK SMILES IDX 8 13 6 15 3 16 4 17 90 18 5 19 89 20 2 21 1 22 19 26 20 27
REMARK SMILES IDX 21 28 22 29 23 30 24 31 25 32 26 33 87 34 27 35 86 36 28 37
REMARK SMILES IDX 29 38 30 39 80 40 31 41 85 42 79 43 81 44 32 45 84 46 78 47
REMARK SMILES IDX 77 48 33 50 65 51 45 52 64 53 46 54 49 55 63 56 82 57 47 58
REMARK SMILES IDX 48 59 62 61 83 62 50 63 34 64 35 65 43 66 36 67 37 68 41 69
REMARK SMILES IDX 44 70 38 71 39 72 42 73 40 74 66 75 67 76 75 77 68 78 69 79
REMARK SMILES IDX 73 80 76 81 70 82 71 83 74 84 72 85 51 86 52 87 60 88 53 89
REMARK SMILES IDX 54 90 58 91 61 92 55 93 56 94 59 95 57 96
REMARK H PARENT 9 14 1 23 1 24 1 25 81 49 49 60
REMARK Flexibility Score: inf
ROOT
ATOM      1  C   UNL A   1      32.817  29.686  25.862  1.00  0.00     0.202 C 
ENDROOT
BRANCH   1   2
ATOM      2  C   UNL A   1      31.680  29.194  24.960  1.00  0.00     0.261 C 
BRANCH   2   3
ATOM      3  O   UNL A   1      32.132  29.054  23.599  1.00  0.00    -0.463 OA
BRANCH   3   4
ATOM      4  C   UNL A   1      31.719  27.929  22.958  1.00  0.00     0.312 C 
ATOM      5  O   UNL A   1      30.544  27.619  22.791  1.00  0.00    -0.252 OA
BRANCH   4   6
ATOM      6  C   UNL A   1      32.867  27.051  22.462  1.00  0.00     0.124 C 
ATOM      7  C   UNL A   1      33.512  24.834  23.332  1.00  0.00     0.106 C 
ATOM      8  C   UNL A   1      32.701  24.732  22.090  1.00  0.00    -0.006 C 
ATOM      9  C   UNL A   1      33.756  26.338  23.495  1.00  0.00     0.048 C 
ATOM     10  C   UNL A   1      32.335  25.930  21.625  1.00  0.00    -0.014 C 
BRANCH   7  11
ATOM     11  N   UNL A   1      34.723  24.076  23.178  1.00  0.00    -0.350 N 
ATOM     12  C   UNL A   1      35.216  22.980  23.799  1.00  0.00     0.223 C 
ATOM     13  O   UNL A   1      36.327  22.602  23.404  1.00  0.00    -0.275 OA
ATOM     14  H   UNL A   1      35.316  24.426  22.475  1.00  0.00     0.164 HD
BRANCH  12  15
ATOM     15  C   UNL A   1      34.521  22.189  24.920  1.00  0.00     0.078 C 
ATOM     16  C   UNL A   1      31.776  22.916  25.957  1.00  0.00     0.044 C 
ATOM     17  C   UNL A   1      31.955  22.086  24.670  1.00  0.00     0.010 C 
ATOM     18  C   UNL A   1      33.048  23.622  26.476  1.00  0.00     0.010 C 
ATOM     19  C   UNL A   1      33.293  21.378  24.524  1.00  0.00     0.014 C 
ATOM     20  C   UNL A   1      34.361  22.890  26.262  1.00  0.00     0.014 C 
BRANCH  16  21
ATOM     21  C   UNL A   1      30.660  23.987  25.818  1.00  0.00     0.262 C 
BRANCH  21  22
ATOM     22  N   UNL A   1      29.656  23.975  26.871  1.00  0.00    -0.357 N 
ATOM     23  H   UNL A   1      30.106  24.136  27.772  1.00  0.00     0.344 HD
ATOM     24  H   UNL A   1      29.186  23.069  26.882  1.00  0.00     0.344 HD
ATOM     25  H   UNL A   1      28.972  24.711  26.697  1.00  0.00     0.344 HD
ENDBRANCH  21  22
ENDBRANCH  16  21
ENDBRANCH  12  15
ENDBRANCH   7  11
ENDBRANCH   4   6
ENDBRANCH   3   4
ENDBRANCH   2   3
ENDBRANCH   1   2
BRANCH   1  26
ATOM     26  O   UNL A   1      32.444  30.622  26.877  1.00  0.00    -0.374 OA
BRANCH  26  27
ATOM     27  C   UNL A   1      31.489  31.616  26.514  1.00  0.00     0.202 C 
BRANCH  27  28
ATOM     28  C   UNL A   1      31.767  33.049  26.991  1.00  0.00     0.261 C 
BRANCH  28  29
ATOM     29  O   UNL A   1      33.160  33.405  26.948  1.00  0.00    -0.460 OA
BRANCH  29  30
ATOM     30  C   UNL A   1      33.672  33.749  28.153  1.00  0.00     0.338 C 
ATOM     31  O   UNL A   1      33.151  34.472  28.997  1.00  0.00    -0.246 OA
BRANCH  30  32
ATOM     32  C   UNL A   1      34.929  33.031  28.426  1.00  0.00     0.060 A 
ATOM     33  C   UNL A   1      34.821  31.727  28.924  1.00  0.00     0.016 A 
ATOM     34  C   UNL A   1      36.183  33.636  28.301  1.00  0.00     0.016 A 
ATOM     35  C   UNL A   1      35.955  31.051  29.365  1.00  0.00     0.010 A 
ATOM     36  C   UNL A   1      37.325  32.951  28.737  1.00  0.00     0.010 A 
ATOM     37  C   UNL A   1      37.210  31.674  29.316  1.00  0.00    -0.014 A 
BRANCH  37  38
ATOM     38  C   UNL A   1      38.353  31.031  30.012  1.00  0.00     0.031 A 
ATOM     39  C   UNL A   1      38.600  31.340  31.464  1.00  0.00     0.074 A 
ATOM     40  C   UNL A   1      39.113  30.116  29.383  1.00  0.00     0.049 A 
ATOM     41  N   UNL A   1      39.488  30.834  32.284  1.00  0.00    -0.248 NA
ATOM     42  C   UNL A   1      37.729  32.356  32.076  1.00  0.00     0.031 C 
ATOM     43  C   UNL A   1      38.963  29.711  27.988  1.00  0.00     0.029 A 
ATOM     44  N   UNL A   1      40.157  29.354  29.846  1.00  0.00    -0.354 N 
ATOM     45  C   UNL A   1      39.279  31.465  33.504  1.00  0.00     0.074 A 
ATOM     46  C   UNL A   1      38.210  32.421  33.309  1.00  0.00     0.031 C 
ATOM     47  C   UNL A   1      39.875  28.765  27.709  1.00  0.00     0.029 A 
ATOM     48  C   UNL A   1      40.685  28.513  28.899  1.00  0.00     0.049 A 
ATOM     49  H   UNL A   1      40.494  29.406  30.770  1.00  0.00     0.167 HD
ATOM     50  C   UNL A   1      39.909  31.255  34.686  1.00  0.00     0.037 A 
ATOM     51  C   UNL A   1      41.708  27.640  28.984  1.00  0.00     0.037 A 
ATOM     52  C   UNL A   1      40.969  30.302  34.886  1.00  0.00     0.049 A 
ATOM     53  C   UNL A   1      42.422  27.458  30.299  1.00  0.00     0.074 A 
ATOM     54  C   UNL A   1      41.655  30.005  36.050  1.00  0.00     0.029 A 
ATOM     55  N   UNL A   1      41.499  29.492  33.893  1.00  0.00    -0.354 N 
ATOM     56  N   UNL A   1      42.193  28.031  31.454  1.00  0.00    -0.248 NA
ATOM     57  C   UNL A   1      43.532  26.494  30.319  1.00  0.00     0.031 C 
ATOM     58  C   UNL A   1      42.632  29.049  35.753  1.00  0.00     0.029 A 
ATOM     59  C   UNL A   1      42.521  28.713  34.413  1.00  0.00     0.049 A 
ATOM     60  H   UNL A   1      41.195  29.474  32.957  1.00  0.00     0.167 HD
ATOM     61  C   UNL A   1      43.106  27.481  32.344  1.00  0.00     0.074 A 
ATOM     62  C   UNL A   1      43.884  26.514  31.597  1.00  0.00     0.031 C 
ATOM     63  C   UNL A   1      43.285  27.752  33.660  1.00  0.00     0.037 A 
BRANCH  50  64
ATOM     64  C   UNL A   1      39.476  32.089  35.857  1.00  0.00     0.064 A 
ATOM     65  C   UNL A   1      40.067  33.329  36.137  1.00  0.00     0.173 A 
ATOM     66  C   UNL A   1      38.430  31.657  36.687  1.00  0.00     0.173 A 
ATOM     67  F   UNL A   1      41.080  33.781  35.381  1.00  0.00    -0.203 F 
ATOM     68  C   UNL A   1      39.646  34.095  37.221  1.00  0.00     0.198 A 
ATOM     69  C   UNL A   1      37.993  32.438  37.754  1.00  0.00     0.198 A 
ATOM     70  F   UNL A   1      37.827  30.481  36.461  1.00  0.00    -0.203 F 
ATOM     71  F   UNL A   1      40.256  35.257  37.497  1.00  0.00    -0.200 F 
ATOM     72  C   UNL A   1      38.605  33.653  38.023  1.00  0.00     0.200 A 
ATOM     73  F   UNL A   1      36.979  32.015  38.522  1.00  0.00    -0.200 F 
ATOM     74  F   UNL A   1      38.196  34.394  39.063  1.00  0.00    -0.200 F 
ENDBRANCH  50  64
BRANCH  51  75
ATOM     75  C   UNL A   1      42.117  26.859  27.787  1.00  0.00     0.064 A 
ATOM     76  C   UNL A   1      41.559  25.602  27.516  1.00  0.00     0.173 A 
ATOM     77  C   UNL A   1      43.089  27.347  26.903  1.00  0.00     0.173 A 
ATOM     78  F   UNL A   1      40.646  25.082  28.349  1.00  0.00    -0.203 F 
ATOM     79  C   UNL A   1      41.972  24.855  26.415  1.00  0.00     0.198 A 
ATOM     80  C   UNL A   1      43.481  26.611  25.786  1.00  0.00     0.198 A 
ATOM     81  F   UNL A   1      43.656  28.543  27.120  1.00  0.00    -0.203 F 
ATOM     82  F   UNL A   1      41.457  23.635  26.205  1.00  0.00    -0.200 F 
ATOM     83  C   UNL A   1      42.928  25.363  25.548  1.00  0.00     0.200 A 
ATOM     84  F   UNL A   1      44.398  27.110  24.946  1.00  0.00    -0.200 F 
ATOM     85  F   UNL A   1      43.324  24.644  24.489  1.00  0.00    -0.200 F 
ENDBRANCH  51  75
BRANCH  63  86
ATOM     86  C   UNL A   1      44.341  26.969  34.387  1.00  0.00     0.064 A 
ATOM     87  C   UNL A   1      44.062  25.727  34.978  1.00  0.00     0.173 A 
ATOM     88  C   UNL A   1      45.654  27.457  34.473  1.00  0.00     0.173 A 
ATOM     89  F   UNL A   1      42.820  25.223  34.936  1.00  0.00    -0.203 F 
ATOM     90  C   UNL A   1      45.051  25.020  35.658  1.00  0.00     0.198 A 
ATOM     91  C   UNL A   1      46.648  26.732  35.127  1.00  0.00     0.198 A 
ATOM     92  F   UNL A   1      45.976  28.634  33.918  1.00  0.00    -0.203 F 
ATOM     93  F   UNL A   1      44.749  23.862  36.261  1.00  0.00    -0.200 F 
ATOM     94  C   UNL A   1      46.343  25.520  35.726  1.00  0.00     0.200 A 
ATOM     95  F   UNL A   1      47.898  27.211  35.182  1.00  0.00    -0.200 F 
ATOM     96  F   UNL A   1      47.294  24.837  36.380  1.00  0.00    -0.200 F 
ENDBRANCH  63  86
ENDBRANCH  37  38
ENDBRANCH  30  32
ENDBRANCH  29  30
ENDBRANCH  28  29
ENDBRANCH  27  28
ENDBRANCH  26  27
ENDBRANCH   1  26
TORSDOF 18
ENDMDL
MODEL 3
REMARK VINA RESULT:     -11.4      4.462      6.921
REMARK SMILES [NH3+]C[C@H]1CC[C@@H](C(=O)N[C@@H]2C=C[C@@H](C(=O)OCCOCCOC(=O)c3ccc(-c4c5nc(c(-c6c(F)c(F)c(F)c(F)c6F)c6ccc([nH]6)c(-c6c(F)c(F)c(F)c(F)c6F)c6nc(c(-c7c(F)c(F)c(F)c(F)c7F)c7ccc4[nH]7)C=C6)C=C5)cc3)C2)CC1
REMARK SMILES IDX 18 1 17 2 16 3 14 4 15 5 13 6 10 7 11 8 88 9 12 10 9 11 7 12
REMARK SMILES IDX 8 13 6 15 3 16 4 17 90 18 5 19 89 20 2 21 1 22 19 26 20 27
REMARK SMILES IDX 21 28 22 29 23 30 24 31 25 32 26 33 87 34 27 35 86 36 28 37
REMARK SMILES IDX 29 38 30 39 80 40 31 41 85 42 79 43 81 44 32 45 84 46 78 47
REMARK SMILES IDX 77 48 33 50 65 51 45 52 64 53 46 54 49 55 63 56 82 57 47 58
REMARK SMILES IDX 48 59 62 61 83 62 50 63 34 64 35 65 43 66 36 67 37 68 41 69
REMARK SMILES IDX 44 70 38 71 39 72 42 73 40 74 66 75 67 76 75 77 68 78 69 79
REMARK SMILES IDX 73 80 76 81 70 82 71 83 74 84 72 85 51 86 52 87 60 88 53 89
REMARK SMILES IDX 54 90 58 91 61 92 55 93 56 94 59 95 57 96
REMARK H PARENT 9 14 1 23 1 24 1 25 81 49 49 60
REMARK Flexibility Score: inf
ROOT
ATOM      1  C   UNL A   1      34.657  32.993  29.055  1.00  0.00     0.202 C 
ENDROOT
BRANCH   1   2
ATOM      2  C   UNL A   1      33.812  32.260  28.008  1.00  0.00     0.261 C 
BRANCH   2   3
ATOM      3  O   UNL A   1      34.639  31.410  27.188  1.00  0.00    -0.463 OA
BRANCH   3   4
ATOM      4  C   UNL A   1      34.520  30.077  27.421  1.00  0.00     0.312 C 
ATOM      5  O   UNL A   1      35.159  29.462  28.269  1.00  0.00    -0.252 OA
BRANCH   4   6
ATOM      6  C   UNL A   1      33.511  29.385  26.507  1.00  0.00     0.124 C 
ATOM      7  C   UNL A   1      33.654  27.086  25.621  1.00  0.00     0.106 C 
ATOM      8  C   UNL A   1      32.750  27.175  26.798  1.00  0.00    -0.006 C 
ATOM      9  C   UNL A   1      34.030  28.542  25.330  1.00  0.00     0.048 C 
ATOM     10  C   UNL A   1      32.683  28.415  27.291  1.00  0.00    -0.014 C 
BRANCH   7  11
ATOM     11  N   UNL A   1      32.964  26.449  24.534  1.00  0.00    -0.350 N 
ATOM     12  C   UNL A   1      33.228  25.356  23.781  1.00  0.00     0.223 C 
ATOM     13  O   UNL A   1      32.396  25.106  22.899  1.00  0.00    -0.275 OA
ATOM     14  H   UNL A   1      32.125  26.901  24.285  1.00  0.00     0.164 HD
BRANCH  12  15
ATOM     15  C   UNL A   1      34.444  24.427  23.935  1.00  0.00     0.078 C 
ATOM     16  C   UNL A   1      34.415  22.003  25.740  1.00  0.00     0.044 C 
ATOM     17  C   UNL A   1      33.811  21.957  24.323  1.00  0.00     0.010 C 
ATOM     18  C   UNL A   1      34.716  23.415  26.290  1.00  0.00     0.010 C 
ATOM     19  C   UNL A   1      34.308  23.023  23.360  1.00  0.00     0.014 C 
ATOM     20  C   UNL A   1      35.166  24.452  25.276  1.00  0.00     0.014 C 
BRANCH  16  21
ATOM     21  C   UNL A   1      33.532  21.265  26.783  1.00  0.00     0.262 C 
BRANCH  21  22
ATOM     22  N   UNL A   1      33.368  19.837  26.554  1.00  0.00    -0.357 N 
ATOM     23  H   UNL A   1      33.037  19.681  25.603  1.00  0.00     0.344 HD
ATOM     24  H   UNL A   1      32.689  19.462  27.218  1.00  0.00     0.344 HD
ATOM     25  H   UNL A   1      34.264  19.367  26.683  1.00  0.00     0.344 HD
ENDBRANCH  21  22
ENDBRANCH  16  21
ENDBRANCH  12  15
ENDBRANCH   7  11
ENDBRANCH   4   6
ENDBRANCH   3   4
ENDBRANCH   2   3
ENDBRANCH   1   2
BRANCH   1  26
ATOM     26  O   UNL A   1      34.118  33.018  30.380  1.00  0.00    -0.374 OA
BRANCH  26  27
ATOM     27  C   UNL A   1      34.538  34.086  31.224  1.00  0.00     0.202 C 
BRANCH  27  28
ATOM     28  C   UNL A   1      34.860  33.729  32.683  1.00  0.00     0.261 C 
BRANCH  28  29
ATOM     29  O   UNL A   1      35.161  32.336  32.877  1.00  0.00    -0.460 OA
BRANCH  29  30
ATOM     30  C   UNL A   1      36.375  32.112  33.433  1.00  0.00     0.338 C 
ATOM     31  O   UNL A   1      36.721  32.381  34.579  1.00  0.00    -0.246 OA
BRANCH  30  32
ATOM     32  C   UNL A   1      37.250  31.355  32.521  1.00  0.00     0.060 A 
ATOM     33  C   UNL A   1      38.398  30.778  33.076  1.00  0.00     0.016 A 
ATOM     34  C   UNL A   1      37.023  31.290  31.143  1.00  0.00     0.016 A 
ATOM     35  C   UNL A   1      39.356  30.197  32.250  1.00  0.00     0.010 A 
ATOM     36  C   UNL A   1      37.984  30.698  30.315  1.00  0.00     0.010 A 
ATOM     37  C   UNL A   1      39.178  30.192  30.860  1.00  0.00    -0.014 A 
BRANCH  37  38
ATOM     38  C   UNL A   1      40.318  29.790  29.996  1.00  0.00     0.031 A 
ATOM     39  C   UNL A   1      41.434  30.768  29.747  1.00  0.00     0.074 A 
ATOM     40  C   UNL A   1      40.402  28.539  29.508  1.00  0.00     0.049 A 
ATOM     41  N   UNL A   1      42.557  30.602  29.093  1.00  0.00    -0.248 NA
ATOM     42  C   UNL A   1      41.263  32.117  30.311  1.00  0.00     0.031 C 
ATOM     43  C   UNL A   1      39.401  27.492  29.696  1.00  0.00     0.029 A 
ATOM     44  N   UNL A   1      41.385  27.938  28.762  1.00  0.00    -0.354 N 
ATOM     45  C   UNL A   1      43.225  31.818  29.172  1.00  0.00     0.074 A 
ATOM     46  C   UNL A   1      42.365  32.727  29.899  1.00  0.00     0.031 C 
ATOM     47  C   UNL A   1      39.825  26.371  29.091  1.00  0.00     0.029 A 
ATOM     48  C   UNL A   1      41.117  26.627  28.456  1.00  0.00     0.049 A 
ATOM     49  H   UNL A   1      42.204  28.402  28.474  1.00  0.00     0.167 HD
ATOM     50  C   UNL A   1      44.451  32.144  28.696  1.00  0.00     0.037 A 
ATOM     51  C   UNL A   1      41.833  25.736  27.742  1.00  0.00     0.037 A 
ATOM     52  C   UNL A   1      45.312  31.241  27.976  1.00  0.00     0.049 A 
ATOM     53  C   UNL A   1      43.175  26.137  27.185  1.00  0.00     0.074 A 
ATOM     54  C   UNL A   1      46.580  31.474  27.472  1.00  0.00     0.029 A 
ATOM     55  N   UNL A   1      44.990  29.931  27.657  1.00  0.00    -0.354 N 
ATOM     56  N   UNL A   1      43.813  27.277  27.296  1.00  0.00    -0.248 NA
ATOM     57  C   UNL A   1      43.900  25.119  26.412  1.00  0.00     0.031 C 
ATOM     58  C   UNL A   1      47.007  30.320  26.806  1.00  0.00     0.029 A 
ATOM     59  C   UNL A   1      46.026  29.351  26.940  1.00  0.00     0.049 A 
ATOM     60  H   UNL A   1      44.151  29.480  27.902  1.00  0.00     0.167 HD
ATOM     61  C   UNL A   1      45.022  27.105  26.635  1.00  0.00     0.074 A 
ATOM     62  C   UNL A   1      45.036  25.746  26.139  1.00  0.00     0.031 C 
ATOM     63  C   UNL A   1      46.029  27.995  26.455  1.00  0.00     0.037 A 
BRANCH  50  64
ATOM     64  C   UNL A   1      44.930  33.547  28.925  1.00  0.00     0.064 A 
ATOM     65  C   UNL A   1      45.693  33.891  30.051  1.00  0.00     0.173 A 
ATOM     66  C   UNL A   1      44.654  34.554  27.988  1.00  0.00     0.173 A 
ATOM     67  F   UNL A   1      45.973  32.968  30.984  1.00  0.00    -0.203 F 
ATOM     68  C   UNL A   1      46.139  35.196  30.244  1.00  0.00     0.198 A 
ATOM     69  C   UNL A   1      45.125  35.852  28.169  1.00  0.00     0.198 A 
ATOM     70  F   UNL A   1      43.933  34.278  26.891  1.00  0.00    -0.203 F 
ATOM     71  F   UNL A   1      46.828  35.511  31.349  1.00  0.00    -0.200 F 
ATOM     72  C   UNL A   1      45.862  36.173  29.299  1.00  0.00     0.200 A 
ATOM     73  F   UNL A   1      44.866  36.793  27.251  1.00  0.00    -0.200 F 
ATOM     74  F   UNL A   1      46.298  37.427  29.483  1.00  0.00    -0.200 F 
ENDBRANCH  50  64
BRANCH  51  75
ATOM     75  C   UNL A   1      41.301  24.366  27.519  1.00  0.00     0.064 A 
ATOM     76  C   UNL A   1      41.904  23.248  28.111  1.00  0.00     0.173 A 
ATOM     77  C   UNL A   1      40.190  24.148  26.692  1.00  0.00     0.173 A 
ATOM     78  F   UNL A   1      42.986  23.405  28.888  1.00  0.00    -0.203 F 
ATOM     79  C   UNL A   1      41.427  21.961  27.870  1.00  0.00     0.198 A 
ATOM     80  C   UNL A   1      39.697  22.863  26.473  1.00  0.00     0.198 A 
ATOM     81  F   UNL A   1      39.579  25.184  26.099  1.00  0.00    -0.203 F 
ATOM     82  F   UNL A   1      42.052  20.906  28.409  1.00  0.00    -0.200 F 
ATOM     83  C   UNL A   1      40.320  21.771  27.056  1.00  0.00     0.200 A 
ATOM     84  F   UNL A   1      38.622  22.685  25.694  1.00  0.00    -0.200 F 
ATOM     85  F   UNL A   1      39.862  20.534  26.824  1.00  0.00    -0.200 F 
ENDBRANCH  51  75
BRANCH  63  86
ATOM     86  C   UNL A   1      47.247  27.515  25.717  1.00  0.00     0.064 A 
ATOM     87  C   UNL A   1      47.378  27.675  24.330  1.00  0.00     0.173 A 
ATOM     88  C   UNL A   1      48.306  26.908  26.411  1.00  0.00     0.173 A 
ATOM     89  F   UNL A   1      46.389  28.236  23.618  1.00  0.00    -0.203 F 
ATOM     90  C   UNL A   1      48.509  27.214  23.659  1.00  0.00     0.198 A 
ATOM     91  C   UNL A   1      49.448  26.477  25.742  1.00  0.00     0.198 A 
ATOM     92  F   UNL A   1      48.234  26.739  27.740  1.00  0.00    -0.203 F 
ATOM     93  F   UNL A   1      48.588  27.329  22.327  1.00  0.00    -0.200 F 
ATOM     94  C   UNL A   1      49.544  26.621  24.367  1.00  0.00     0.200 A 
ATOM     95  F   UNL A   1      50.453  25.915  26.429  1.00  0.00    -0.200 F 
ATOM     96  F   UNL A   1      50.633  26.180  23.720  1.00  0.00    -0.200 F 
ENDBRANCH  63  86
ENDBRANCH  37  38
ENDBRANCH  30  32
ENDBRANCH  29  30
ENDBRANCH  28  29
ENDBRANCH  27  28
ENDBRANCH  26  27
ENDBRANCH   1  26
TORSDOF 18
ENDMDL
