MODEL 1
REMARK VINA RESULT:      -9.8      0.000      0.000
REMARK SMILES COc1ccc(N2CCN(c3ccc(NS(=O)(=O)c4cccs4)cc3C(=O)OCCOCCOC(=O)c3ccc(-c4c5nc(c(-c6c(F)c(F)c(F)c(F)c6F)c6ccc([nH]6)c(-c6c(F)c(F)c(F)c(F)c6F)c6nc(c(-c7c(F)c(F)c(F)c(F)c7F)c7ccc4[nH]7)C=C6)C=C5)cc3)CC2)cc1
REMARK SMILES IDX 30 1 29 2 28 3 26 4 27 5 25 6 11 7 12 8 13 9 24 10 14 11
REMARK SMILES IDX 10 12 7 13 8 14 101 15 9 16 100 17 6 18 3 19 4 20 103 21
REMARK SMILES IDX 5 22 102 23 2 24 1 25 15 26 16 28 17 29 18 30 19 31 20 32
REMARK SMILES IDX 23 33 21 34 22 35 31 36 32 37 33 38 34 39 35 40 36 41 37 42
REMARK SMILES IDX 38 43 99 44 39 45 98 46 40 47 41 48 42 49 92 50 43 51 97 52
REMARK SMILES IDX 91 53 93 54 44 55 96 56 90 57 89 58 45 60 77 61 57 62 76 63
REMARK SMILES IDX 58 64 61 65 75 66 94 67 59 68 60 69 74 71 95 72 62 73 46 74
REMARK SMILES IDX 47 75 55 76 48 77 49 78 53 79 56 80 50 81 51 82 54 83 52 84
REMARK SMILES IDX 78 85 79 86 87 87 80 88 81 89 85 90 88 91 82 92 83 93 86 94
REMARK SMILES IDX 84 95 63 96 64 97 72 98 65 99 66 100 70 101 73 102 67 103
REMARK SMILES IDX 68 104 71 105 69 106
REMARK H PARENT 15 27 93 59 61 70
REMARK Flexibility Score: inf
ROOT
ATOM      1  C   UNL A   1      49.392  23.625  39.973  1.00  0.00     0.202 C 
ENDROOT
BRANCH   1   2
ATOM      2  C   UNL A   1      50.080  22.275  40.157  1.00  0.00     0.261 C 
BRANCH   2   3
ATOM      3  O   UNL A   1      49.067  21.269  40.361  1.00  0.00    -0.460 OA
BRANCH   3   4
ATOM      4  C   UNL A   1      49.378  20.015  39.970  1.00  0.00     0.340 C 
ATOM      5  O   UNL A   1      50.492  19.514  40.045  1.00  0.00    -0.246 OA
BRANCH   4   6
ATOM      6  C   UNL A   1      48.165  19.215  39.621  1.00  0.00     0.085 A 
ATOM      7  C   UNL A   1      47.189  19.501  38.635  1.00  0.00     0.052 A 
ATOM      8  C   UNL A   1      46.142  18.550  38.547  1.00  0.00     0.029 A 
ATOM      9  C   UNL A   1      45.938  17.522  39.456  1.00  0.00     0.029 A 
ATOM     10  C   UNL A   1      48.011  18.079  40.480  1.00  0.00     0.044 A 
ATOM     11  C   UNL A   1      46.899  17.246  40.398  1.00  0.00     0.050 A 
BRANCH   7  12
ATOM     12  N   UNL A   1      47.079  20.593  37.791  1.00  0.00    -0.367 N 
ATOM     13  N   UNL A   1      46.619  21.973  35.304  1.00  0.00    -0.368 N 
ATOM     14  C   UNL A   1      47.590  20.883  35.386  1.00  0.00     0.138 C 
ATOM     15  C   UNL A   1      45.509  21.849  36.277  1.00  0.00     0.138 C 
ATOM     16  C   UNL A   1      48.163  20.851  36.801  1.00  0.00     0.138 C 
ATOM     17  C   UNL A   1      46.025  21.634  37.738  1.00  0.00     0.138 C 
BRANCH  13  18
ATOM     18  C   UNL A   1      46.914  23.081  34.541  1.00  0.00     0.037 A 
ATOM     19  C   UNL A   1      47.413  25.516  33.143  1.00  0.00     0.119 A 
ATOM     20  C   UNL A   1      46.135  24.984  33.199  1.00  0.00     0.048 A 
ATOM     21  C   UNL A   1      48.454  24.790  33.708  1.00  0.00     0.048 A 
ATOM     22  C   UNL A   1      45.900  23.779  33.865  1.00  0.00     0.030 A 
ATOM     23  C   UNL A   1      48.203  23.597  34.413  1.00  0.00     0.030 A 
BRANCH  19  24
ATOM     24  O   UNL A   1      47.464  26.750  32.574  1.00  0.00    -0.497 OA
ATOM     25  C   UNL A   1      48.521  27.627  32.917  1.00  0.00     0.278 C 
ENDBRANCH  19  24
ENDBRANCH  13  18
ENDBRANCH   7  12
BRANCH  11  26
ATOM     26  N   UNL A   1      46.684  16.158  41.294  1.00  0.00    -0.279 N 
ATOM     27  H   UNL A   1      47.194  15.322  41.192  1.00  0.00     0.180 HD
BRANCH  26  28
ATOM     28  S   UNL A   1      45.534  16.320  42.546  1.00  0.00     0.271 S 
ATOM     29  O   UNL A   1      45.727  17.628  43.135  1.00  0.00    -0.200 OA
ATOM     30  O   UNL A   1      44.261  15.960  41.954  1.00  0.00    -0.200 OA
BRANCH  28  31
ATOM     31  C   UNL A   1      45.754  15.129  43.861  1.00  0.00     0.140 A 
ATOM     32  C   UNL A   1      46.882  14.514  44.380  1.00  0.00     0.034 A 
ATOM     33  S   UNL A   1      44.337  14.582  44.666  1.00  0.00    -0.131 S 
ATOM     34  C   UNL A   1      46.593  13.718  45.529  1.00  0.00     0.013 A 
ATOM     35  C   UNL A   1      45.251  13.727  45.832  1.00  0.00     0.066 A 
ENDBRANCH  28  31
ENDBRANCH  26  28
ENDBRANCH  11  26
ENDBRANCH   4   6
ENDBRANCH   3   4
ENDBRANCH   2   3
ENDBRANCH   1   2
BRANCH   1  36
ATOM     36  O   UNL A   1      50.248  24.667  39.503  1.00  0.00    -0.374 OA
BRANCH  36  37
ATOM     37  C   UNL A   1      49.755  25.453  38.417  1.00  0.00     0.202 C 
BRANCH  37  38
ATOM     38  C   UNL A   1      48.571  24.856  37.648  1.00  0.00     0.261 C 
BRANCH  38  39
ATOM     39  O   UNL A   1      47.637  25.847  37.184  1.00  0.00    -0.460 OA
BRANCH  39  40
ATOM     40  C   UNL A   1      46.332  25.601  37.464  1.00  0.00     0.338 C 
ATOM     41  O   UNL A   1      45.878  24.970  38.397  1.00  0.00    -0.246 OA
BRANCH  40  42
ATOM     42  C   UNL A   1      45.489  26.327  36.492  1.00  0.00     0.060 A 
ATOM     43  C   UNL A   1      45.970  27.480  35.858  1.00  0.00     0.016 A 
ATOM     44  C   UNL A   1      44.194  25.894  36.253  1.00  0.00     0.016 A 
ATOM     45  C   UNL A   1      45.153  28.196  34.963  1.00  0.00     0.010 A 
ATOM     46  C   UNL A   1      43.394  26.614  35.362  1.00  0.00     0.010 A 
ATOM     47  C   UNL A   1      43.847  27.770  34.691  1.00  0.00    -0.014 A 
BRANCH  47  48
ATOM     48  C   UNL A   1      42.889  28.511  33.794  1.00  0.00     0.031 A 
ATOM     49  C   UNL A   1      41.872  29.440  34.426  1.00  0.00     0.074 A 
ATOM     50  C   UNL A   1      42.806  28.292  32.462  1.00  0.00     0.049 A 
ATOM     51  N   UNL A   1      40.765  29.945  33.935  1.00  0.00    -0.248 NA
ATOM     52  C   UNL A   1      42.117  29.807  35.830  1.00  0.00     0.031 C 
ATOM     53  C   UNL A   1      43.663  27.402  31.679  1.00  0.00     0.029 A 
ATOM     54  N   UNL A   1      41.889  28.756  31.536  1.00  0.00    -0.354 N 
ATOM     55  C   UNL A   1      40.158  30.618  34.990  1.00  0.00     0.074 A 
ATOM     56  C   UNL A   1      40.980  30.397  36.159  1.00  0.00     0.031 C 
ATOM     57  C   UNL A   1      43.201  27.336  30.417  1.00  0.00     0.029 A 
ATOM     58  C   UNL A   1      41.994  28.152  30.303  1.00  0.00     0.049 A 
ATOM     59  H   UNL A   1      41.224  29.452  31.740  1.00  0.00     0.167 HD
ATOM     60  C   UNL A   1      39.044  31.391  34.991  1.00  0.00     0.037 A 
ATOM     61  C   UNL A   1      41.181  28.189  29.223  1.00  0.00     0.037 A 
ATOM     62  C   UNL A   1      38.257  31.682  33.824  1.00  0.00     0.049 A 
ATOM     63  C   UNL A   1      39.934  29.041  29.233  1.00  0.00     0.074 A 
ATOM     64  C   UNL A   1      37.180  32.544  33.700  1.00  0.00     0.029 A 
ATOM     65  N   UNL A   1      38.467  31.122  32.574  1.00  0.00    -0.354 N 
ATOM     66  N   UNL A   1      39.422  29.748  30.209  1.00  0.00    -0.248 NA
ATOM     67  C   UNL A   1      39.149  29.096  27.989  1.00  0.00     0.031 C 
ATOM     68  C   UNL A   1      36.707  32.470  32.388  1.00  0.00     0.029 A 
ATOM     69  C   UNL A   1      37.527  31.609  31.679  1.00  0.00     0.049 A 
ATOM     70  H   UNL A   1      39.177  30.476  32.355  1.00  0.00     0.167 HD
ATOM     71  C   UNL A   1      38.302  30.380  29.681  1.00  0.00     0.074 A 
ATOM     72  C   UNL A   1      38.190  29.955  28.305  1.00  0.00     0.031 C 
ATOM     73  C   UNL A   1      37.454  31.243  30.288  1.00  0.00     0.037 A 
BRANCH  60  74
ATOM     74  C   UNL A   1      38.626  32.016  36.295  1.00  0.00     0.064 A 
ATOM     75  C   UNL A   1      38.912  33.358  36.592  1.00  0.00     0.173 A 
ATOM     76  C   UNL A   1      37.892  31.282  37.241  1.00  0.00     0.173 A 
ATOM     77  F   UNL A   1      39.607  34.110  35.724  1.00  0.00    -0.203 F 
ATOM     78  C   UNL A   1      38.529  33.924  37.805  1.00  0.00     0.198 A 
ATOM     79  C   UNL A   1      37.470  31.866  38.433  1.00  0.00     0.198 A 
ATOM     80  F   UNL A   1      37.569  30.001  37.004  1.00  0.00    -0.203 F 
ATOM     81  F   UNL A   1      38.881  35.186  38.092  1.00  0.00    -0.200 F 
ATOM     82  C   UNL A   1      37.802  33.181  38.719  1.00  0.00     0.200 A 
ATOM     83  F   UNL A   1      36.744  31.155  39.306  1.00  0.00    -0.200 F 
ATOM     84  F   UNL A   1      37.423  33.732  39.881  1.00  0.00    -0.200 F 
ENDBRANCH  60  74
BRANCH  61  85
ATOM     85  C   UNL A   1      41.475  27.349  28.029  1.00  0.00     0.064 A 
ATOM     86  C   UNL A   1      40.974  26.045  27.922  1.00  0.00     0.173 A 
ATOM     87  C   UNL A   1      42.330  27.802  27.015  1.00  0.00     0.173 A 
ATOM     88  F   UNL A   1      40.191  25.549  28.891  1.00  0.00    -0.203 F 
ATOM     89  C   UNL A   1      41.335  25.219  26.857  1.00  0.00     0.198 A 
ATOM     90  C   UNL A   1      42.666  26.987  25.934  1.00  0.00     0.198 A 
ATOM     91  F   UNL A   1      42.860  29.030  27.080  1.00  0.00    -0.203 F 
ATOM     92  F   UNL A   1      40.894  23.955  26.815  1.00  0.00    -0.200 F 
ATOM     93  C   UNL A   1      42.177  25.693  25.863  1.00  0.00     0.200 A 
ATOM     94  F   UNL A   1      43.482  27.451  24.977  1.00  0.00    -0.200 F 
ATOM     95  F   UNL A   1      42.533  24.896  24.846  1.00  0.00    -0.200 F 
ENDBRANCH  61  85
BRANCH  73  96
ATOM     96  C   UNL A   1      36.396  31.909  29.453  1.00  0.00     0.064 A 
ATOM     97  C   UNL A   1      35.293  31.214  28.943  1.00  0.00     0.173 A 
ATOM     98  C   UNL A   1      36.457  33.296  29.234  1.00  0.00     0.173 A 
ATOM     99  F   UNL A   1      35.193  29.887  29.112  1.00  0.00    -0.203 F 
ATOM    100  C   UNL A   1      34.293  31.880  28.235  1.00  0.00     0.198 A 
ATOM    101  C   UNL A   1      35.443  33.962  28.553  1.00  0.00     0.198 A 
ATOM    102  F   UNL A   1      37.490  34.009  29.707  1.00  0.00    -0.203 F 
ATOM    103  F   UNL A   1      33.262  31.190  27.728  1.00  0.00    -0.200 F 
ATOM    104  C   UNL A   1      34.363  33.253  28.051  1.00  0.00     0.200 A 
ATOM    105  F   UNL A   1      35.506  35.291  28.392  1.00  0.00    -0.200 F 
ATOM    106  F   UNL A   1      33.390  33.894  27.387  1.00  0.00    -0.200 F 
ENDBRANCH  73  96
ENDBRANCH  47  48
ENDBRANCH  40  42
ENDBRANCH  39  40
ENDBRANCH  38  39
ENDBRANCH  37  38
ENDBRANCH  36  37
ENDBRANCH   1  36
TORSDOF 20
ENDMDL
MODEL 2
REMARK VINA RESULT:      -9.8      5.976     11.451
REMARK SMILES COc1ccc(N2CCN(c3ccc(NS(=O)(=O)c4cccs4)cc3C(=O)OCCOCCOC(=O)c3ccc(-c4c5nc(c(-c6c(F)c(F)c(F)c(F)c6F)c6ccc([nH]6)c(-c6c(F)c(F)c(F)c(F)c6F)c6nc(c(-c7c(F)c(F)c(F)c(F)c7F)c7ccc4[nH]7)C=C6)C=C5)cc3)CC2)cc1
REMARK SMILES IDX 30 1 29 2 28 3 26 4 27 5 25 6 11 7 12 8 13 9 24 10 14 11
REMARK SMILES IDX 10 12 7 13 8 14 101 15 9 16 100 17 6 18 3 19 4 20 103 21
REMARK SMILES IDX 5 22 102 23 2 24 1 25 15 26 16 28 17 29 18 30 19 31 20 32
REMARK SMILES IDX 23 33 21 34 22 35 31 36 32 37 33 38 34 39 35 40 36 41 37 42
REMARK SMILES IDX 38 43 99 44 39 45 98 46 40 47 41 48 42 49 92 50 43 51 97 52
REMARK SMILES IDX 91 53 93 54 44 55 96 56 90 57 89 58 45 60 77 61 57 62 76 63
REMARK SMILES IDX 58 64 61 65 75 66 94 67 59 68 60 69 74 71 95 72 62 73 46 74
REMARK SMILES IDX 47 75 55 76 48 77 49 78 53 79 56 80 50 81 51 82 54 83 52 84
REMARK SMILES IDX 78 85 79 86 87 87 80 88 81 89 85 90 88 91 82 92 83 93 86 94
REMARK SMILES IDX 84 95 63 96 64 97 72 98 65 99 66 100 70 101 73 102 67 103
REMARK SMILES IDX 68 104 71 105 69 106
REMARK H PARENT 15 27 93 59 61 70
REMARK Flexibility Score: inf
ROOT
ATOM      1  C   UNL A   1      48.162  26.003  24.828  1.00  0.00     0.202 C 
ENDROOT
BRANCH   1   2
ATOM      2  C   UNL A   1      48.826  25.509  26.111  1.00  0.00     0.261 C 
BRANCH   2   3
ATOM      3  O   UNL A   1      48.628  26.499  27.140  1.00  0.00    -0.460 OA
BRANCH   3   4
ATOM      4  C   UNL A   1      47.489  26.400  27.859  1.00  0.00     0.340 C 
ATOM      5  O   UNL A   1      46.808  25.388  27.954  1.00  0.00    -0.246 OA
BRANCH   4   6
ATOM      6  C   UNL A   1      47.248  27.607  28.705  1.00  0.00     0.085 A 
ATOM      7  C   UNL A   1      47.958  28.014  29.862  1.00  0.00     0.052 A 
ATOM      8  C   UNL A   1      47.481  29.209  30.457  1.00  0.00     0.029 A 
ATOM      9  C   UNL A   1      46.306  29.850  30.095  1.00  0.00     0.029 A 
ATOM     10  C   UNL A   1      46.102  28.346  28.265  1.00  0.00     0.044 A 
ATOM     11  C   UNL A   1      45.635  29.455  28.964  1.00  0.00     0.050 A 
BRANCH   7  12
ATOM     12  N   UNL A   1      49.003  27.391  30.522  1.00  0.00    -0.367 N 
ATOM     13  N   UNL A   1      50.594  25.174  31.448  1.00  0.00    -0.368 N 
ATOM     14  C   UNL A   1      49.154  25.217  31.698  1.00  0.00     0.138 C 
ATOM     15  C   UNL A   1      51.001  25.890  30.216  1.00  0.00     0.138 C 
ATOM     16  C   UNL A   1      48.725  26.679  31.802  1.00  0.00     0.138 C 
ATOM     17  C   UNL A   1      50.442  27.350  30.171  1.00  0.00     0.138 C 
BRANCH  13  18
ATOM     18  C   UNL A   1      51.434  24.703  32.432  1.00  0.00     0.037 A 
ATOM     19  C   UNL A   1      53.104  23.492  34.400  1.00  0.00     0.119 A 
ATOM     20  C   UNL A   1      51.729  23.513  34.560  1.00  0.00     0.048 A 
ATOM     21  C   UNL A   1      53.651  24.149  33.305  1.00  0.00     0.048 A 
ATOM     22  C   UNL A   1      50.916  24.127  33.605  1.00  0.00     0.030 A 
ATOM     23  C   UNL A   1      52.823  24.732  32.326  1.00  0.00     0.030 A 
BRANCH  19  24
ATOM     24  O   UNL A   1      53.750  22.750  35.341  1.00  0.00    -0.497 OA
ATOM     25  C   UNL A   1      53.320  22.816  36.688  1.00  0.00     0.278 C 
ENDBRANCH  19  24
ENDBRANCH  13  18
ENDBRANCH   7  12
BRANCH  11  26
ATOM     26  N   UNL A   1      44.452  30.158  28.591  1.00  0.00    -0.279 N 
ATOM     27  H   UNL A   1      43.746  30.330  29.255  1.00  0.00     0.180 HD
BRANCH  26  28
ATOM     28  S   UNL A   1      44.272  30.697  26.980  1.00  0.00     0.271 S 
ATOM     29  O   UNL A   1      45.467  30.305  26.264  1.00  0.00    -0.200 OA
ATOM     30  O   UNL A   1      42.970  30.225  26.554  1.00  0.00    -0.200 OA
BRANCH  28  31
ATOM     31  C   UNL A   1      44.154  32.476  26.845  1.00  0.00     0.140 A 
ATOM     32  C   UNL A   1      44.316  33.340  25.774  1.00  0.00     0.034 A 
ATOM     33  S   UNL A   1      43.795  33.348  28.282  1.00  0.00    -0.131 S 
ATOM     34  C   UNL A   1      43.995  34.690  26.106  1.00  0.00     0.013 A 
ATOM     35  C   UNL A   1      43.628  34.819  27.426  1.00  0.00     0.066 A 
ENDBRANCH  28  31
ENDBRANCH  26  28
ENDBRANCH  11  26
ENDBRANCH   4   6
ENDBRANCH   3   4
ENDBRANCH   2   3
ENDBRANCH   1   2
BRANCH   1  36
ATOM     36  O   UNL A   1      47.390  25.017  24.143  1.00  0.00    -0.374 OA
BRANCH  36  37
ATOM     37  C   UNL A   1      46.729  24.048  24.957  1.00  0.00     0.202 C 
BRANCH  37  38
ATOM     38  C   UNL A   1      45.592  23.274  24.279  1.00  0.00     0.261 C 
BRANCH  38  39
ATOM     39  O   UNL A   1      44.349  23.998  24.253  1.00  0.00    -0.460 OA
BRANCH  39  40
ATOM     40  C   UNL A   1      43.354  23.486  25.023  1.00  0.00     0.338 C 
ATOM     41  O   UNL A   1      42.845  22.386  24.944  1.00  0.00    -0.246 OA
BRANCH  40  42
ATOM     42  C   UNL A   1      43.029  24.454  26.090  1.00  0.00     0.060 A 
ATOM     43  C   UNL A   1      42.143  24.105  27.118  1.00  0.00     0.016 A 
ATOM     44  C   UNL A   1      43.561  25.733  26.038  1.00  0.00     0.016 A 
ATOM     45  C   UNL A   1      41.801  25.040  28.113  1.00  0.00     0.010 A 
ATOM     46  C   UNL A   1      43.214  26.651  27.032  1.00  0.00     0.010 A 
ATOM     47  C   UNL A   1      42.339  26.333  28.093  1.00  0.00    -0.014 A 
BRANCH  47  48
ATOM     48  C   UNL A   1      41.978  27.411  29.084  1.00  0.00     0.031 A 
ATOM     49  C   UNL A   1      42.647  27.402  30.444  1.00  0.00     0.074 A 
ATOM     50  C   UNL A   1      40.993  28.312  28.867  1.00  0.00     0.049 A 
ATOM     51  N   UNL A   1      42.307  28.003  31.559  1.00  0.00    -0.248 NA
ATOM     52  C   UNL A   1      43.840  26.549  30.571  1.00  0.00     0.031 C 
ATOM     53  C   UNL A   1      40.203  28.449  27.644  1.00  0.00     0.029 A 
ATOM     54  N   UNL A   1      40.433  29.244  29.722  1.00  0.00    -0.354 N 
ATOM     55  C   UNL A   1      43.197  27.539  32.523  1.00  0.00     0.074 A 
ATOM     56  C   UNL A   1      44.041  26.558  31.879  1.00  0.00     0.031 C 
ATOM     57  C   UNL A   1      39.230  29.357  27.842  1.00  0.00     0.029 A 
ATOM     58  C   UNL A   1      39.301  29.847  29.217  1.00  0.00     0.049 A 
ATOM     59  H   UNL A   1      40.807  29.457  30.607  1.00  0.00     0.167 HD
ATOM     60  C   UNL A   1      43.340  27.920  33.816  1.00  0.00     0.037 A 
ATOM     61  C   UNL A   1      38.382  30.645  29.806  1.00  0.00     0.037 A 
ATOM     62  C   UNL A   1      42.560  28.947  34.451  1.00  0.00     0.049 A 
ATOM     63  C   UNL A   1      38.539  31.056  31.251  1.00  0.00     0.074 A 
ATOM     64  C   UNL A   1      42.706  29.483  35.720  1.00  0.00     0.029 A 
ATOM     65  N   UNL A   1      41.488  29.598  33.863  1.00  0.00    -0.354 N 
ATOM     66  N   UNL A   1      39.441  30.684  32.124  1.00  0.00    -0.248 NA
ATOM     67  C   UNL A   1      37.545  31.998  31.792  1.00  0.00     0.031 C 
ATOM     68  C   UNL A   1      41.693  30.424  35.918  1.00  0.00     0.029 A 
ATOM     69  C   UNL A   1      40.954  30.519  34.750  1.00  0.00     0.049 A 
ATOM     70  H   UNL A   1      41.157  29.432  32.951  1.00  0.00     0.167 HD
ATOM     71  C   UNL A   1      39.164  31.392  33.289  1.00  0.00     0.074 A 
ATOM     72  C   UNL A   1      37.996  32.198  33.023  1.00  0.00     0.031 C 
ATOM     73  C   UNL A   1      39.833  31.376  34.466  1.00  0.00     0.037 A 
BRANCH  60  74
ATOM     74  C   UNL A   1      44.415  27.249  34.629  1.00  0.00     0.064 A 
ATOM     75  C   UNL A   1      45.742  27.704  34.612  1.00  0.00     0.173 A 
ATOM     76  C   UNL A   1      44.108  26.167  35.470  1.00  0.00     0.173 A 
ATOM     77  F   UNL A   1      46.094  28.737  33.830  1.00  0.00    -0.203 F 
ATOM     78  C   UNL A   1      46.730  27.071  35.360  1.00  0.00     0.198 A 
ATOM     79  C   UNL A   1      45.091  25.565  36.253  1.00  0.00     0.198 A 
ATOM     80  F   UNL A   1      42.852  25.700  35.545  1.00  0.00    -0.203 F 
ATOM     81  F   UNL A   1      48.003  27.481  35.268  1.00  0.00    -0.200 F 
ATOM     82  C   UNL A   1      46.402  26.008  36.186  1.00  0.00     0.200 A 
ATOM     83  F   UNL A   1      44.767  24.555  37.072  1.00  0.00    -0.200 F 
ATOM     84  F   UNL A   1      47.353  25.408  36.916  1.00  0.00    -0.200 F 
ENDBRANCH  60  74
BRANCH  61  85
ATOM     85  C   UNL A   1      37.176  31.088  29.053  1.00  0.00     0.064 A 
ATOM     86  C   UNL A   1      37.044  32.411  28.613  1.00  0.00     0.173 A 
ATOM     87  C   UNL A   1      36.097  30.219  28.835  1.00  0.00     0.173 A 
ATOM     88  F   UNL A   1      38.029  33.292  28.841  1.00  0.00    -0.203 F 
ATOM     89  C   UNL A   1      35.870  32.854  28.003  1.00  0.00     0.198 A 
ATOM     90  C   UNL A   1      34.936  30.654  28.197  1.00  0.00     0.198 A 
ATOM     91  F   UNL A   1      36.158  28.950  29.259  1.00  0.00    -0.203 F 
ATOM     92  F   UNL A   1      35.747  34.141  27.652  1.00  0.00    -0.200 F 
ATOM     93  C   UNL A   1      34.820  31.974  27.792  1.00  0.00     0.200 A 
ATOM     94  F   UNL A   1      33.924  29.799  27.996  1.00  0.00    -0.200 F 
ATOM     95  F   UNL A   1      33.688  32.403  27.216  1.00  0.00    -0.200 F 
ENDBRANCH  61  85
BRANCH  73  96
ATOM     96  C   UNL A   1      39.420  32.350  35.533  1.00  0.00     0.064 A 
ATOM     97  C   UNL A   1      38.521  32.012  36.552  1.00  0.00     0.173 A 
ATOM     98  C   UNL A   1      40.008  33.626  35.574  1.00  0.00     0.173 A 
ATOM     99  F   UNL A   1      37.919  30.812  36.553  1.00  0.00    -0.203 F 
ATOM    100  C   UNL A   1      38.217  32.917  37.568  1.00  0.00     0.198 A 
ATOM    101  C   UNL A   1      39.726  34.516  36.606  1.00  0.00     0.198 A 
ATOM    102  F   UNL A   1      40.881  33.997  34.625  1.00  0.00    -0.203 F 
ATOM    103  F   UNL A   1      37.329  32.585  38.516  1.00  0.00    -0.200 F 
ATOM    104  C   UNL A   1      38.829  34.162  37.600  1.00  0.00     0.200 A 
ATOM    105  F   UNL A   1      40.332  35.711  36.643  1.00  0.00    -0.200 F 
ATOM    106  F   UNL A   1      38.549  35.024  38.589  1.00  0.00    -0.200 F 
ENDBRANCH  73  96
ENDBRANCH  47  48
ENDBRANCH  40  42
ENDBRANCH  39  40
ENDBRANCH  38  39
ENDBRANCH  37  38
ENDBRANCH  36  37
ENDBRANCH   1  36
TORSDOF 20
ENDMDL
MODEL 3
REMARK VINA RESULT:      -9.7     11.059     19.287
REMARK SMILES COc1ccc(N2CCN(c3ccc(NS(=O)(=O)c4cccs4)cc3C(=O)OCCOCCOC(=O)c3ccc(-c4c5nc(c(-c6c(F)c(F)c(F)c(F)c6F)c6ccc([nH]6)c(-c6c(F)c(F)c(F)c(F)c6F)c6nc(c(-c7c(F)c(F)c(F)c(F)c7F)c7ccc4[nH]7)C=C6)C=C5)cc3)CC2)cc1
REMARK SMILES IDX 30 1 29 2 28 3 26 4 27 5 25 6 11 7 12 8 13 9 24 10 14 11
REMARK SMILES IDX 10 12 7 13 8 14 101 15 9 16 100 17 6 18 3 19 4 20 103 21
REMARK SMILES IDX 5 22 102 23 2 24 1 25 15 26 16 28 17 29 18 30 19 31 20 32
REMARK SMILES IDX 23 33 21 34 22 35 31 36 32 37 33 38 34 39 35 40 36 41 37 42
REMARK SMILES IDX 38 43 99 44 39 45 98 46 40 47 41 48 42 49 92 50 43 51 97 52
REMARK SMILES IDX 91 53 93 54 44 55 96 56 90 57 89 58 45 60 77 61 57 62 76 63
REMARK SMILES IDX 58 64 61 65 75 66 94 67 59 68 60 69 74 71 95 72 62 73 46 74
REMARK SMILES IDX 47 75 55 76 48 77 49 78 53 79 56 80 50 81 51 82 54 83 52 84
REMARK SMILES IDX 78 85 79 86 87 87 80 88 81 89 85 90 88 91 82 92 83 93 86 94
REMARK SMILES IDX 84 95 63 96 64 97 72 98 65 99 66 100 70 101 73 102 67 103
REMARK SMILES IDX 68 104 71 105 69 106
REMARK H PARENT 15 27 93 59 61 70
REMARK Flexibility Score: inf
ROOT
ATOM      1  C   UNL A   1      43.076  40.133  28.239  1.00  0.00     0.202 C 
ENDROOT
BRANCH   1   2
ATOM      2  C   UNL A   1      42.400  40.254  26.876  1.00  0.00     0.261 C 
BRANCH   2   3
ATOM      3  O   UNL A   1      42.832  41.482  26.258  1.00  0.00    -0.460 OA
BRANCH   3   4
ATOM      4  C   UNL A   1      44.114  41.524  25.836  1.00  0.00     0.340 C 
ATOM      5  O   UNL A   1      44.692  40.611  25.261  1.00  0.00    -0.246 OA
BRANCH   4   6
ATOM      6  C   UNL A   1      44.705  42.891  25.958  1.00  0.00     0.085 A 
ATOM      7  C   UNL A   1      44.685  43.936  25.002  1.00  0.00     0.052 A 
ATOM      8  C   UNL A   1      45.345  45.122  25.409  1.00  0.00     0.029 A 
ATOM      9  C   UNL A   1      46.128  45.231  26.549  1.00  0.00     0.029 A 
ATOM     10  C   UNL A   1      45.417  43.055  27.190  1.00  0.00     0.044 A 
ATOM     11  C   UNL A   1      46.127  44.217  27.475  1.00  0.00     0.050 A 
BRANCH   7  12
ATOM     12  N   UNL A   1      44.168  43.948  23.717  1.00  0.00    -0.367 N 
ATOM     13  N   UNL A   1      44.228  43.731  20.845  1.00  0.00    -0.368 N 
ATOM     14  C   UNL A   1      45.149  44.623  21.547  1.00  0.00     0.138 C 
ATOM     15  C   UNL A   1      43.815  42.557  21.650  1.00  0.00     0.138 C 
ATOM     16  C   UNL A   1      44.474  45.105  22.829  1.00  0.00     0.138 C 
ATOM     17  C   UNL A   1      43.274  42.968  23.058  1.00  0.00     0.138 C 
BRANCH  13  18
ATOM     18  C   UNL A   1      43.668  44.142  19.656  1.00  0.00     0.037 A 
ATOM     19  C   UNL A   1      42.456  45.218  17.310  1.00  0.00     0.119 A 
ATOM     20  C   UNL A   1      41.680  44.839  18.393  1.00  0.00     0.048 A 
ATOM     21  C   UNL A   1      43.823  44.980  17.363  1.00  0.00     0.048 A 
ATOM     22  C   UNL A   1      42.276  44.292  19.532  1.00  0.00     0.030 A 
ATOM     23  C   UNL A   1      44.421  44.464  18.529  1.00  0.00     0.030 A 
BRANCH  19  24
ATOM     24  O   UNL A   1      41.753  45.850  16.332  1.00  0.00    -0.497 OA
ATOM     25  C   UNL A   1      41.812  47.261  16.239  1.00  0.00     0.278 C 
ENDBRANCH  19  24
ENDBRANCH  13  18
ENDBRANCH   7  12
BRANCH  11  26
ATOM     26  N   UNL A   1      46.908  44.372  28.659  1.00  0.00    -0.279 N 
ATOM     27  H   UNL A   1      46.486  44.666  29.498  1.00  0.00     0.180 HD
BRANCH  26  28
ATOM     28  S   UNL A   1      48.583  44.041  28.604  1.00  0.00     0.271 S 
ATOM     29  O   UNL A   1      49.071  44.091  29.966  1.00  0.00    -0.200 OA
ATOM     30  O   UNL A   1      48.715  42.830  27.818  1.00  0.00    -0.200 OA
BRANCH  28  31
ATOM     31  C   UNL A   1      49.510  45.261  27.683  1.00  0.00     0.140 A 
ATOM     32  C   UNL A   1      50.319  45.162  26.562  1.00  0.00     0.034 A 
ATOM     33  S   UNL A   1      49.448  46.882  28.250  1.00  0.00    -0.131 S 
ATOM     34  C   UNL A   1      50.757  46.435  26.089  1.00  0.00     0.013 A 
ATOM     35  C   UNL A   1      50.294  47.462  26.881  1.00  0.00     0.066 A 
ENDBRANCH  28  31
ENDBRANCH  26  28
ENDBRANCH  11  26
ENDBRANCH   4   6
ENDBRANCH   3   4
ENDBRANCH   2   3
ENDBRANCH   1   2
BRANCH   1  36
ATOM     36  O   UNL A   1      43.520  38.816  28.566  1.00  0.00    -0.374 OA
BRANCH  36  37
ATOM     37  C   UNL A   1      44.421  38.703  29.668  1.00  0.00     0.202 C 
BRANCH  37  38
ATOM     38  C   UNL A   1      45.910  38.838  29.327  1.00  0.00     0.261 C 
BRANCH  38  39
ATOM     39  O   UNL A   1      46.578  37.571  29.190  1.00  0.00    -0.460 OA
BRANCH  39  40
ATOM     40  C   UNL A   1      46.483  36.985  27.969  1.00  0.00     0.338 C 
ATOM     41  O   UNL A   1      46.841  37.435  26.899  1.00  0.00    -0.246 OA
BRANCH  40  42
ATOM     42  C   UNL A   1      45.955  35.616  28.135  1.00  0.00     0.060 A 
ATOM     43  C   UNL A   1      46.363  34.825  29.218  1.00  0.00     0.016 A 
ATOM     44  C   UNL A   1      45.097  35.093  27.181  1.00  0.00     0.016 A 
ATOM     45  C   UNL A   1      45.892  33.506  29.355  1.00  0.00     0.010 A 
ATOM     46  C   UNL A   1      44.637  33.782  27.329  1.00  0.00     0.010 A 
ATOM     47  C   UNL A   1      45.010  32.960  28.414  1.00  0.00    -0.014 A 
BRANCH  47  48
ATOM     48  C   UNL A   1      44.508  31.539  28.454  1.00  0.00     0.031 A 
ATOM     49  C   UNL A   1      45.253  30.482  27.664  1.00  0.00     0.074 A 
ATOM     50  C   UNL A   1      43.351  31.183  29.058  1.00  0.00     0.049 A 
ATOM     51  N   UNL A   1      44.874  29.285  27.283  1.00  0.00    -0.248 NA
ATOM     52  C   UNL A   1      46.597  30.854  27.194  1.00  0.00     0.031 C 
ATOM     53  C   UNL A   1      42.472  32.063  29.825  1.00  0.00     0.029 A 
ATOM     54  N   UNL A   1      42.674  29.977  29.047  1.00  0.00    -0.354 N 
ATOM     55  C   UNL A   1      45.899  28.805  26.474  1.00  0.00     0.074 A 
ATOM     56  C   UNL A   1      46.877  29.864  26.363  1.00  0.00     0.031 C 
ATOM     57  C   UNL A   1      41.353  31.395  30.159  1.00  0.00     0.029 A 
ATOM     58  C   UNL A   1      41.415  30.045  29.602  1.00  0.00     0.049 A 
ATOM     59  H   UNL A   1      43.056  29.148  28.678  1.00  0.00     0.167 HD
ATOM     60  C   UNL A   1      46.048  27.582  25.907  1.00  0.00     0.037 A 
ATOM     61  C   UNL A   1      40.396  29.156  29.605  1.00  0.00     0.037 A 
ATOM     62  C   UNL A   1      45.122  26.495  26.070  1.00  0.00     0.049 A 
ATOM     63  C   UNL A   1      40.562  27.800  28.962  1.00  0.00     0.074 A 
ATOM     64  C   UNL A   1      45.241  25.186  25.632  1.00  0.00     0.029 A 
ATOM     65  N   UNL A   1      43.907  26.587  26.728  1.00  0.00    -0.354 N 
ATOM     66  N   UNL A   1      41.575  27.325  28.281  1.00  0.00    -0.248 NA
ATOM     67  C   UNL A   1      39.438  26.856  29.085  1.00  0.00     0.031 C 
ATOM     68  C   UNL A   1      44.077  24.499  25.982  1.00  0.00     0.029 A 
ATOM     69  C   UNL A   1      43.259  25.363  26.691  1.00  0.00     0.049 A 
ATOM     70  H   UNL A   1      43.556  27.401  27.156  1.00  0.00     0.167 HD
ATOM     71  C   UNL A   1      41.240  26.015  27.956  1.00  0.00     0.074 A 
ATOM     72  C   UNL A   1      39.919  25.774  28.489  1.00  0.00     0.031 C 
ATOM     73  C   UNL A   1      41.974  25.097  27.283  1.00  0.00     0.037 A 
BRANCH  60  74
ATOM     74  C   UNL A   1      47.285  27.336  25.086  1.00  0.00     0.064 A 
ATOM     75  C   UNL A   1      48.408  26.688  25.624  1.00  0.00     0.173 A 
ATOM     76  C   UNL A   1      47.336  27.713  23.734  1.00  0.00     0.173 A 
ATOM     77  F   UNL A   1      48.416  26.302  26.909  1.00  0.00    -0.203 F 
ATOM     78  C   UNL A   1      49.551  26.473  24.859  1.00  0.00     0.198 A 
ATOM     79  C   UNL A   1      48.464  27.455  22.959  1.00  0.00     0.198 A 
ATOM     80  F   UNL A   1      46.285  28.318  23.158  1.00  0.00    -0.203 F 
ATOM     81  F   UNL A   1      50.634  25.917  25.419  1.00  0.00    -0.200 F 
ATOM     82  C   UNL A   1      49.574  26.849  23.525  1.00  0.00     0.200 A 
ATOM     83  F   UNL A   1      48.476  27.794  21.663  1.00  0.00    -0.200 F 
ATOM     84  F   UNL A   1      50.671  26.630  22.787  1.00  0.00    -0.200 F 
ENDBRANCH  60  74
BRANCH  61  85
ATOM     85  C   UNL A   1      39.079  29.521  30.197  1.00  0.00     0.064 A 
ATOM     86  C   UNL A   1      38.097  30.165  29.432  1.00  0.00     0.173 A 
ATOM     87  C   UNL A   1      38.810  29.310  31.557  1.00  0.00     0.173 A 
ATOM     88  F   UNL A   1      38.327  30.432  28.138  1.00  0.00    -0.203 F 
ATOM     89  C   UNL A   1      36.906  30.603  30.011  1.00  0.00     0.198 A 
ATOM     90  C   UNL A   1      37.606  29.721  32.128  1.00  0.00     0.198 A 
ATOM     91  F   UNL A   1      39.724  28.724  32.341  1.00  0.00    -0.203 F 
ATOM     92  F   UNL A   1      36.014  31.275  29.271  1.00  0.00    -0.200 F 
ATOM     93  C   UNL A   1      36.660  30.377  31.357  1.00  0.00     0.200 A 
ATOM     94  F   UNL A   1      37.375  29.500  33.430  1.00  0.00    -0.200 F 
ATOM     95  F   UNL A   1      35.521  30.809  31.915  1.00  0.00    -0.200 F 
ENDBRANCH  61  85
BRANCH  73  96
ATOM     96  C   UNL A   1      41.446  23.694  27.187  1.00  0.00     0.064 A 
ATOM     97  C   UNL A   1      40.313  23.366  26.432  1.00  0.00     0.173 A 
ATOM     98  C   UNL A   1      42.148  22.645  27.806  1.00  0.00     0.173 A 
ATOM     99  F   UNL A   1      39.598  24.330  25.832  1.00  0.00    -0.203 F 
ATOM    100  C   UNL A   1      39.895  22.042  26.307  1.00  0.00     0.198 A 
ATOM    101  C   UNL A   1      41.746  21.321  27.654  1.00  0.00     0.198 A 
ATOM    102  F   UNL A   1      43.243  22.904  28.536  1.00  0.00    -0.203 F 
ATOM    103  F   UNL A   1      38.790  21.754  25.605  1.00  0.00    -0.200 F 
ATOM    104  C   UNL A   1      40.618  21.021  26.907  1.00  0.00     0.200 A 
ATOM    105  F   UNL A   1      42.456  20.337  28.222  1.00  0.00    -0.200 F 
ATOM    106  F   UNL A   1      40.225  19.746  26.769  1.00  0.00    -0.200 F 
ENDBRANCH  73  96
ENDBRANCH  47  48
ENDBRANCH  40  42
ENDBRANCH  39  40
ENDBRANCH  38  39
ENDBRANCH  37  38
ENDBRANCH  36  37
ENDBRANCH   1  36
TORSDOF 20
ENDMDL
