MODEL 1
REMARK VINA RESULT:     -10.2      0.000      0.000
REMARK SMILES CCc1cc(Oc2cncc(C(=O)OCCOCCOC(=O)c3ccc(-c4c5nc(c(-c6c(F)c(F)c(F)c(F)c6F)c6ccc([nH]6)c(-c6c(F)c(F)c(F)c(F)c6F)c6nc(c(-c7c(F)c(F)c(F)c(F)c7F)c7ccc4[nH]7)C=C6)C=C5)cc3)n2)ccc1Cl
REMARK SMILES IDX 16 1 15 2 14 3 12 4 13 5 11 6 7 7 8 8 86 9 9 10 10 11 6 12
REMARK SMILES IDX 5 13 3 14 4 15 89 16 88 17 90 18 87 19 2 20 1 21 17 22 18 23
REMARK SMILES IDX 19 24 20 25 21 26 22 27 23 28 24 29 85 30 25 31 84 32 26 33
REMARK SMILES IDX 27 34 28 35 78 36 29 37 83 38 77 39 79 40 30 41 82 42 76 43
REMARK SMILES IDX 75 44 31 46 63 47 43 48 62 49 44 50 47 51 61 52 80 53 45 54
REMARK SMILES IDX 46 55 60 57 81 58 48 59 32 60 33 61 41 62 34 63 35 64 39 65
REMARK SMILES IDX 42 66 36 67 37 68 40 69 38 70 64 71 65 72 73 73 66 74 67 75
REMARK SMILES IDX 71 76 74 77 68 78 69 79 72 80 70 81 49 82 50 83 58 84 51 85
REMARK SMILES IDX 52 86 56 87 59 88 53 89 54 90 57 91 55 92
REMARK H PARENT 79 45 47 56
REMARK Flexibility Score: inf
ROOT
ATOM      1  C   UNL A   1      33.028  36.001  29.670  1.00  0.00     0.202 C 
ENDROOT
BRANCH   1   2
ATOM      2  C   UNL A   1      32.514  36.583  30.990  1.00  0.00     0.261 C 
BRANCH   2   3
ATOM      3  O   UNL A   1      32.717  35.667  32.077  1.00  0.00    -0.458 OA
BRANCH   3   4
ATOM      4  C   UNL A   1      33.614  36.069  33.013  1.00  0.00     0.358 C 
ATOM      5  O   UNL A   1      33.571  37.108  33.656  1.00  0.00    -0.244 OA
BRANCH   4   6
ATOM      6  C   UNL A   1      34.624  35.014  33.275  1.00  0.00     0.170 A 
ATOM      7  C   UNL A   1      36.766  34.314  33.727  1.00  0.00     0.238 A 
ATOM      8  C   UNL A   1      36.315  32.995  33.727  1.00  0.00     0.179 A 
ATOM      9  N   UNL A   1      35.921  35.353  33.516  1.00  0.00    -0.203 NA
ATOM     10  N   UNL A   1      35.035  32.652  33.436  1.00  0.00    -0.257 NA
ATOM     11  C   UNL A   1      34.199  33.694  33.211  1.00  0.00     0.147 A 
BRANCH   7  12
ATOM     12  O   UNL A   1      38.062  34.671  34.025  1.00  0.00    -0.437 OA
BRANCH  12  13
ATOM     13  C   UNL A   1      39.030  34.633  33.045  1.00  0.00     0.129 A 
ATOM     14  C   UNL A   1      39.448  34.494  30.630  1.00  0.00    -0.026 A 
ATOM     15  C   UNL A   1      38.561  34.549  31.726  1.00  0.00     0.052 A 
ATOM     16  C   UNL A   1      40.825  34.561  30.892  1.00  0.00     0.044 A 
ATOM     17  C   UNL A   1      41.294  34.596  32.210  1.00  0.00     0.024 A 
ATOM     18  Cl  UNL A   1      42.007  34.639  29.637  1.00  0.00    -0.084 Cl
ATOM     19  C   UNL A   1      40.403  34.602  33.283  1.00  0.00     0.049 A 
BRANCH  14  20
ATOM     20  C   UNL A   1      38.875  34.375  29.234  1.00  0.00     0.034 C 
ATOM     21  C   UNL A   1      37.872  33.236  29.069  1.00  0.00     0.009 C 
ENDBRANCH  14  20
ENDBRANCH  12  13
ENDBRANCH   7  12
ENDBRANCH   4   6
ENDBRANCH   3   4
ENDBRANCH   2   3
ENDBRANCH   1   2
BRANCH   1  22
ATOM     22  O   UNL A   1      33.002  34.579  29.560  1.00  0.00    -0.374 OA
BRANCH  22  23
ATOM     23  C   UNL A   1      34.211  33.939  29.145  1.00  0.00     0.202 C 
BRANCH  23  24
ATOM     24  C   UNL A   1      34.063  32.558  28.494  1.00  0.00     0.261 C 
BRANCH  24  25
ATOM     25  O   UNL A   1      34.994  31.604  29.037  1.00  0.00    -0.460 OA
BRANCH  25  26
ATOM     26  C   UNL A   1      35.090  30.438  28.358  1.00  0.00     0.338 C 
ATOM     27  O   UNL A   1      34.278  29.963  27.576  1.00  0.00    -0.246 OA
BRANCH  26  28
ATOM     28  C   UNL A   1      36.436  29.868  28.546  1.00  0.00     0.060 A 
ATOM     29  C   UNL A   1      36.749  29.332  29.802  1.00  0.00     0.016 A 
ATOM     30  C   UNL A   1      37.389  29.890  27.526  1.00  0.00     0.016 A 
ATOM     31  C   UNL A   1      38.026  28.831  30.050  1.00  0.00     0.010 A 
ATOM     32  C   UNL A   1      38.673  29.399  27.781  1.00  0.00     0.010 A 
ATOM     33  C   UNL A   1      39.004  28.883  29.047  1.00  0.00    -0.014 A 
BRANCH  33  34
ATOM     34  C   UNL A   1      40.398  28.472  29.339  1.00  0.00     0.031 A 
ATOM     35  C   UNL A   1      41.308  29.417  30.069  1.00  0.00     0.074 A 
ATOM     36  C   UNL A   1      40.850  27.272  28.934  1.00  0.00     0.049 A 
ATOM     37  N   UNL A   1      42.585  29.304  30.330  1.00  0.00    -0.248 NA
ATOM     38  C   UNL A   1      40.699  30.660  30.567  1.00  0.00     0.031 C 
ATOM     39  C   UNL A   1      40.053  26.259  28.245  1.00  0.00     0.029 A 
ATOM     40  N   UNL A   1      42.102  26.715  29.021  1.00  0.00    -0.354 N 
ATOM     41  C   UNL A   1      42.936  30.464  31.008  1.00  0.00     0.074 A 
ATOM     42  C   UNL A   1      41.742  31.277  31.104  1.00  0.00     0.031 C 
ATOM     43  C   UNL A   1      40.841  25.213  27.947  1.00  0.00     0.029 A 
ATOM     44  C   UNL A   1      42.206  25.502  28.385  1.00  0.00     0.049 A 
ATOM     45  H   UNL A   1      42.853  27.142  29.494  1.00  0.00     0.167 HD
ATOM     46  C   UNL A   1      44.146  30.813  31.505  1.00  0.00     0.037 A 
ATOM     47  C   UNL A   1      43.287  24.733  28.147  1.00  0.00     0.037 A 
ATOM     48  C   UNL A   1      45.326  29.995  31.415  1.00  0.00     0.049 A 
ATOM     49  C   UNL A   1      44.637  25.182  28.645  1.00  0.00     0.074 A 
ATOM     50  C   UNL A   1      46.583  30.234  31.943  1.00  0.00     0.029 A 
ATOM     51  N   UNL A   1      45.399  28.785  30.741  1.00  0.00    -0.354 N 
ATOM     52  N   UNL A   1      44.951  26.255  29.329  1.00  0.00    -0.248 NA
ATOM     53  C   UNL A   1      45.783  24.317  28.331  1.00  0.00     0.031 C 
ATOM     54  C   UNL A   1      47.432  29.200  31.535  1.00  0.00     0.029 A 
ATOM     55  C   UNL A   1      46.692  28.290  30.799  1.00  0.00     0.049 A 
ATOM     56  H   UNL A   1      44.644  28.344  30.288  1.00  0.00     0.167 HD
ATOM     57  C   UNL A   1      46.322  26.186  29.541  1.00  0.00     0.074 A 
ATOM     58  C   UNL A   1      46.779  24.956  28.930  1.00  0.00     0.031 C 
ATOM     59  C   UNL A   1      47.131  27.065  30.181  1.00  0.00     0.037 A 
BRANCH  46  60
ATOM     60  C   UNL A   1      44.271  32.154  32.167  1.00  0.00     0.064 A 
ATOM     61  C   UNL A   1      43.994  32.336  33.528  1.00  0.00     0.173 A 
ATOM     62  C   UNL A   1      44.737  33.259  31.437  1.00  0.00     0.173 A 
ATOM     63  F   UNL A   1      43.537  31.313  34.267  1.00  0.00    -0.203 F 
ATOM     64  C   UNL A   1      44.163  33.579  34.133  1.00  0.00     0.198 A 
ATOM     65  C   UNL A   1      44.930  34.493  32.050  1.00  0.00     0.198 A 
ATOM     66  F   UNL A   1      45.022  33.137  30.132  1.00  0.00    -0.203 F 
ATOM     67  F   UNL A   1      43.860  33.739  35.429  1.00  0.00    -0.200 F 
ATOM     68  C   UNL A   1      44.639  34.654  33.396  1.00  0.00     0.200 A 
ATOM     69  F   UNL A   1      45.403  35.526  31.339  1.00  0.00    -0.200 F 
ATOM     70  F   UNL A   1      44.814  35.846  33.983  1.00  0.00    -0.200 F 
ENDBRANCH  46  60
BRANCH  47  71
ATOM     71  C   UNL A   1      43.147  23.480  27.359  1.00  0.00     0.064 A 
ATOM     72  C   UNL A   1      42.638  22.311  27.938  1.00  0.00     0.173 A 
ATOM     73  C   UNL A   1      43.544  23.423  26.014  1.00  0.00     0.173 A 
ATOM     74  F   UNL A   1      42.272  22.308  29.228  1.00  0.00    -0.203 F 
ATOM     75  C   UNL A   1      42.547  21.127  27.208  1.00  0.00     0.198 A 
ATOM     76  C   UNL A   1      43.425  22.247  25.277  1.00  0.00     0.198 A 
ATOM     77  F   UNL A   1      44.044  24.512  25.413  1.00  0.00    -0.203 F 
ATOM     78  F   UNL A   1      42.103  20.010  27.800  1.00  0.00    -0.200 F 
ATOM     79  C   UNL A   1      42.934  21.098  25.877  1.00  0.00     0.200 A 
ATOM     80  F   UNL A   1      43.790  22.227  23.987  1.00  0.00    -0.200 F 
ATOM     81  F   UNL A   1      42.845  19.959  25.175  1.00  0.00    -0.200 F 
ENDBRANCH  47  71
BRANCH  59  82
ATOM     82  C   UNL A   1      48.592  26.729  30.266  1.00  0.00     0.064 A 
ATOM     83  C   UNL A   1      49.507  27.206  29.315  1.00  0.00     0.173 A 
ATOM     84  C   UNL A   1      49.092  25.977  31.339  1.00  0.00     0.173 A 
ATOM     85  F   UNL A   1      49.078  27.916  28.261  1.00  0.00    -0.203 F 
ATOM     86  C   UNL A   1      50.867  26.930  29.431  1.00  0.00     0.198 A 
ATOM     87  C   UNL A   1      50.455  25.728  31.467  1.00  0.00     0.198 A 
ATOM     88  F   UNL A   1      48.259  25.504  32.278  1.00  0.00    -0.203 F 
ATOM     89  F   UNL A   1      51.719  27.365  28.491  1.00  0.00    -0.200 F 
ATOM     90  C   UNL A   1      51.341  26.200  30.510  1.00  0.00     0.200 A 
ATOM     91  F   UNL A   1      50.913  25.035  32.519  1.00  0.00    -0.200 F 
ATOM     92  F   UNL A   1      52.652  25.948  30.627  1.00  0.00    -0.200 F 
ENDBRANCH  59  82
ENDBRANCH  33  34
ENDBRANCH  26  28
ENDBRANCH  25  26
ENDBRANCH  24  25
ENDBRANCH  23  24
ENDBRANCH  22  23
ENDBRANCH   1  22
TORSDOF 17
ENDMDL
MODEL 2
REMARK VINA RESULT:      -9.9      4.659      8.293
REMARK SMILES CCc1cc(Oc2cncc(C(=O)OCCOCCOC(=O)c3ccc(-c4c5nc(c(-c6c(F)c(F)c(F)c(F)c6F)c6ccc([nH]6)c(-c6c(F)c(F)c(F)c(F)c6F)c6nc(c(-c7c(F)c(F)c(F)c(F)c7F)c7ccc4[nH]7)C=C6)C=C5)cc3)n2)ccc1Cl
REMARK SMILES IDX 16 1 15 2 14 3 12 4 13 5 11 6 7 7 8 8 86 9 9 10 10 11 6 12
REMARK SMILES IDX 5 13 3 14 4 15 89 16 88 17 90 18 87 19 2 20 1 21 17 22 18 23
REMARK SMILES IDX 19 24 20 25 21 26 22 27 23 28 24 29 85 30 25 31 84 32 26 33
REMARK SMILES IDX 27 34 28 35 78 36 29 37 83 38 77 39 79 40 30 41 82 42 76 43
REMARK SMILES IDX 75 44 31 46 63 47 43 48 62 49 44 50 47 51 61 52 80 53 45 54
REMARK SMILES IDX 46 55 60 57 81 58 48 59 32 60 33 61 41 62 34 63 35 64 39 65
REMARK SMILES IDX 42 66 36 67 37 68 40 69 38 70 64 71 65 72 73 73 66 74 67 75
REMARK SMILES IDX 71 76 74 77 68 78 69 79 72 80 70 81 49 82 50 83 58 84 51 85
REMARK SMILES IDX 52 86 56 87 59 88 53 89 54 90 57 91 55 92
REMARK H PARENT 79 45 47 56
REMARK Flexibility Score: inf
ROOT
ATOM      1  C   UNL A   1      34.530  33.275  29.334  1.00  0.00     0.202 C 
ENDROOT
BRANCH   1   2
ATOM      2  C   UNL A   1      34.777  32.568  27.999  1.00  0.00     0.261 C 
BRANCH   2   3
ATOM      3  O   UNL A   1      33.821  31.519  27.779  1.00  0.00    -0.458 OA
BRANCH   3   4
ATOM      4  C   UNL A   1      34.351  30.307  27.475  1.00  0.00     0.358 C 
ATOM      5  O   UNL A   1      35.314  29.783  28.015  1.00  0.00    -0.244 OA
BRANCH   4   6
ATOM      6  C   UNL A   1      33.527  29.601  26.463  1.00  0.00     0.170 A 
ATOM      7  C   UNL A   1      33.204  27.961  24.886  1.00  0.00     0.238 A 
ATOM      8  C   UNL A   1      31.914  28.445  24.673  1.00  0.00     0.179 A 
ATOM      9  N   UNL A   1      34.032  28.523  25.801  1.00  0.00    -0.203 NA
ATOM     10  N   UNL A   1      31.429  29.550  25.292  1.00  0.00    -0.257 NA
ATOM     11  C   UNL A   1      32.266  30.116  26.195  1.00  0.00     0.147 A 
BRANCH   7  12
ATOM     12  O   UNL A   1      33.704  26.839  24.264  1.00  0.00    -0.437 OA
BRANCH  12  13
ATOM     13  C   UNL A   1      33.735  25.635  24.933  1.00  0.00     0.129 A 
ATOM     14  C   UNL A   1      34.918  23.497  25.181  1.00  0.00    -0.026 A 
ATOM     15  C   UNL A   1      34.776  24.765  24.577  1.00  0.00     0.052 A 
ATOM     16  C   UNL A   1      34.002  23.138  26.182  1.00  0.00     0.044 A 
ATOM     17  C   UNL A   1      32.935  23.985  26.502  1.00  0.00     0.024 A 
ATOM     18  Cl  UNL A   1      34.143  21.677  27.090  1.00  0.00    -0.084 Cl
ATOM     19  C   UNL A   1      32.784  25.215  25.861  1.00  0.00     0.049 A 
BRANCH  14  20
ATOM     20  C   UNL A   1      36.048  22.597  24.730  1.00  0.00     0.034 C 
ATOM     21  C   UNL A   1      36.614  22.952  23.357  1.00  0.00     0.009 C 
ENDBRANCH  14  20
ENDBRANCH  12  13
ENDBRANCH   7  12
ENDBRANCH   4   6
ENDBRANCH   3   4
ENDBRANCH   2   3
ENDBRANCH   1   2
BRANCH   1  22
ATOM     22  O   UNL A   1      33.303  33.995  29.444  1.00  0.00    -0.374 OA
BRANCH  22  23
ATOM     23  C   UNL A   1      33.303  35.349  28.985  1.00  0.00     0.202 C 
BRANCH  23  24
ATOM     24  C   UNL A   1      32.829  36.409  29.988  1.00  0.00     0.261 C 
BRANCH  24  25
ATOM     25  O   UNL A   1      32.138  35.821  31.105  1.00  0.00    -0.460 OA
BRANCH  25  26
ATOM     26  C   UNL A   1      32.679  36.076  32.319  1.00  0.00     0.338 C 
ATOM     27  O   UNL A   1      32.215  36.775  33.209  1.00  0.00    -0.246 OA
BRANCH  26  28
ATOM     28  C   UNL A   1      33.865  35.224  32.518  1.00  0.00     0.060 A 
ATOM     29  C   UNL A   1      33.663  33.921  32.990  1.00  0.00     0.016 A 
ATOM     30  C   UNL A   1      35.157  35.701  32.282  1.00  0.00     0.016 A 
ATOM     31  C   UNL A   1      34.754  33.093  33.249  1.00  0.00     0.010 A 
ATOM     32  C   UNL A   1      36.250  34.875  32.555  1.00  0.00     0.010 A 
ATOM     33  C   UNL A   1      36.057  33.573  33.055  1.00  0.00    -0.014 A 
BRANCH  33  34
ATOM     34  C   UNL A   1      37.224  32.749  33.448  1.00  0.00     0.031 A 
ATOM     35  C   UNL A   1      37.933  33.042  34.739  1.00  0.00     0.074 A 
ATOM     36  C   UNL A   1      37.659  31.762  32.644  1.00  0.00     0.049 A 
ATOM     37  N   UNL A   1      39.032  32.519  35.219  1.00  0.00    -0.248 NA
ATOM     38  C   UNL A   1      37.326  34.066  35.602  1.00  0.00     0.031 C 
ATOM     39  C   UNL A   1      37.034  31.365  31.384  1.00  0.00     0.029 A 
ATOM     40  N   UNL A   1      38.746  30.931  32.760  1.00  0.00    -0.354 N 
ATOM     41  C   UNL A   1      39.257  33.159  36.431  1.00  0.00     0.074 A 
ATOM     42  C   UNL A   1      38.189  34.121  36.606  1.00  0.00     0.031 C 
ATOM     43  C   UNL A   1      37.764  30.384  30.826  1.00  0.00     0.029 A 
ATOM     44  C   UNL A   1      38.928  30.116  31.669  1.00  0.00     0.049 A 
ATOM     45  H   UNL A   1      39.337  30.919  33.547  1.00  0.00     0.167 HD
ATOM     46  C   UNL A   1      40.263  32.956  37.314  1.00  0.00     0.037 A 
ATOM     47  C   UNL A   1      39.941  29.280  31.367  1.00  0.00     0.037 A 
ATOM     48  C   UNL A   1      41.314  31.990  37.138  1.00  0.00     0.049 A 
ATOM     49  C   UNL A   1      41.088  29.130  32.334  1.00  0.00     0.074 A 
ATOM     50  C   UNL A   1      42.342  31.666  38.006  1.00  0.00     0.029 A 
ATOM     51  N   UNL A   1      41.481  31.201  36.009  1.00  0.00    -0.354 N 
ATOM     52  N   UNL A   1      41.267  29.700  33.500  1.00  0.00    -0.248 NA
ATOM     53  C   UNL A   1      42.178  28.225  31.938  1.00  0.00     0.031 C 
ATOM     54  C   UNL A   1      43.167  30.728  37.377  1.00  0.00     0.029 A 
ATOM     55  C   UNL A   1      42.622  30.427  36.140  1.00  0.00     0.049 A 
ATOM     56  H   UNL A   1      40.878  31.193  35.231  1.00  0.00     0.167 HD
ATOM     57  C   UNL A   1      42.475  29.213  33.983  1.00  0.00     0.074 A 
ATOM     58  C   UNL A   1      42.979  28.285  32.993  1.00  0.00     0.031 C 
ATOM     59  C   UNL A   1      43.112  29.511  35.142  1.00  0.00     0.037 A 
BRANCH  46  60
ATOM     60  C   UNL A   1      40.299  33.816  38.543  1.00  0.00     0.064 A 
ATOM     61  C   UNL A   1      39.621  33.459  39.716  1.00  0.00     0.173 A 
ATOM     62  C   UNL A   1      41.078  34.983  38.564  1.00  0.00     0.173 A 
ATOM     63  F   UNL A   1      38.855  32.358  39.745  1.00  0.00    -0.203 F 
ATOM     64  C   UNL A   1      39.708  34.248  40.861  1.00  0.00     0.198 A 
ATOM     65  C   UNL A   1      41.184  35.755  39.717  1.00  0.00     0.198 A 
ATOM     66  F   UNL A   1      41.752  35.367  37.468  1.00  0.00    -0.203 F 
ATOM     67  F   UNL A   1      39.024  33.906  41.962  1.00  0.00    -0.200 F 
ATOM     68  C   UNL A   1      40.495  35.390  40.863  1.00  0.00     0.200 A 
ATOM     69  F   UNL A   1      41.957  36.850  39.720  1.00  0.00    -0.200 F 
ATOM     70  F   UNL A   1      40.588  36.139  41.970  1.00  0.00    -0.200 F 
ENDBRANCH  46  60
BRANCH  47  71
ATOM     71  C   UNL A   1      39.942  28.554  30.070  1.00  0.00     0.064 A 
ATOM     72  C   UNL A   1      39.354  27.289  29.945  1.00  0.00     0.173 A 
ATOM     73  C   UNL A   1      40.555  29.103  28.933  1.00  0.00     0.173 A 
ATOM     74  F   UNL A   1      38.782  26.709  31.011  1.00  0.00    -0.203 F 
ATOM     75  C   UNL A   1      39.393  26.593  28.739  1.00  0.00     0.198 A 
ATOM     76  C   UNL A   1      40.566  28.419  27.719  1.00  0.00     0.198 A 
ATOM     77  F   UNL A   1      41.138  30.309  28.999  1.00  0.00    -0.203 F 
ATOM     78  F   UNL A   1      38.866  25.363  28.660  1.00  0.00    -0.200 F 
ATOM     79  C   UNL A   1      39.993  27.161  27.625  1.00  0.00     0.200 A 
ATOM     80  F   UNL A   1      41.139  28.979  26.644  1.00  0.00    -0.200 F 
ATOM     81  F   UNL A   1      40.029  26.492  26.464  1.00  0.00    -0.200 F 
ENDBRANCH  47  71
BRANCH  59  82
ATOM     82  C   UNL A   1      44.420  28.823  35.412  1.00  0.00     0.064 A 
ATOM     83  C   UNL A   1      44.471  27.574  36.047  1.00  0.00     0.173 A 
ATOM     84  C   UNL A   1      45.628  29.388  34.976  1.00  0.00     0.173 A 
ATOM     85  F   UNL A   1      43.345  26.999  36.498  1.00  0.00    -0.203 F 
ATOM     86  C   UNL A   1      45.685  26.922  36.247  1.00  0.00     0.198 A 
ATOM     87  C   UNL A   1      46.836  28.721  35.152  1.00  0.00     0.198 A 
ATOM     88  F   UNL A   1      45.632  30.578  34.357  1.00  0.00    -0.203 F 
ATOM     89  F   UNL A   1      45.714  25.746  36.890  1.00  0.00    -0.200 F 
ATOM     90  C   UNL A   1      46.864  27.490  35.792  1.00  0.00     0.200 A 
ATOM     91  F   UNL A   1      47.973  29.265  34.697  1.00  0.00    -0.200 F 
ATOM     92  F   UNL A   1      48.030  26.855  35.973  1.00  0.00    -0.200 F 
ENDBRANCH  59  82
ENDBRANCH  33  34
ENDBRANCH  26  28
ENDBRANCH  25  26
ENDBRANCH  24  25
ENDBRANCH  23  24
ENDBRANCH  22  23
ENDBRANCH   1  22
TORSDOF 17
ENDMDL
MODEL 3
REMARK VINA RESULT:      -9.8      1.363      2.252
REMARK SMILES CCc1cc(Oc2cncc(C(=O)OCCOCCOC(=O)c3ccc(-c4c5nc(c(-c6c(F)c(F)c(F)c(F)c6F)c6ccc([nH]6)c(-c6c(F)c(F)c(F)c(F)c6F)c6nc(c(-c7c(F)c(F)c(F)c(F)c7F)c7ccc4[nH]7)C=C6)C=C5)cc3)n2)ccc1Cl
REMARK SMILES IDX 16 1 15 2 14 3 12 4 13 5 11 6 7 7 8 8 86 9 9 10 10 11 6 12
REMARK SMILES IDX 5 13 3 14 4 15 89 16 88 17 90 18 87 19 2 20 1 21 17 22 18 23
REMARK SMILES IDX 19 24 20 25 21 26 22 27 23 28 24 29 85 30 25 31 84 32 26 33
REMARK SMILES IDX 27 34 28 35 78 36 29 37 83 38 77 39 79 40 30 41 82 42 76 43
REMARK SMILES IDX 75 44 31 46 63 47 43 48 62 49 44 50 47 51 61 52 80 53 45 54
REMARK SMILES IDX 46 55 60 57 81 58 48 59 32 60 33 61 41 62 34 63 35 64 39 65
REMARK SMILES IDX 42 66 36 67 37 68 40 69 38 70 64 71 65 72 73 73 66 74 67 75
REMARK SMILES IDX 71 76 74 77 68 78 69 79 72 80 70 81 49 82 50 83 58 84 51 85
REMARK SMILES IDX 52 86 56 87 59 88 53 89 54 90 57 91 55 92
REMARK H PARENT 79 45 47 56
REMARK Flexibility Score: inf
ROOT
ATOM      1  C   UNL A   1      33.801  35.579  28.739  1.00  0.00     0.202 C 
ENDROOT
BRANCH   1   2
ATOM      2  C   UNL A   1      33.268  36.885  29.335  1.00  0.00     0.261 C 
BRANCH   2   3
ATOM      3  O   UNL A   1      32.532  36.644  30.544  1.00  0.00    -0.458 OA
BRANCH   3   4
ATOM      4  C   UNL A   1      33.154  37.032  31.687  1.00  0.00     0.358 C 
ATOM      5  O   UNL A   1      33.170  38.161  32.154  1.00  0.00    -0.244 OA
BRANCH   4   6
ATOM      6  C   UNL A   1      33.729  35.868  32.405  1.00  0.00     0.170 A 
ATOM      7  C   UNL A   1      35.432  34.804  33.523  1.00  0.00     0.238 A 
ATOM      8  C   UNL A   1      34.612  33.686  33.672  1.00  0.00     0.179 A 
ATOM      9  N   UNL A   1      34.997  35.926  32.898  1.00  0.00    -0.203 NA
ATOM     10  N   UNL A   1      33.368  33.607  33.137  1.00  0.00    -0.257 NA
ATOM     11  C   UNL A   1      32.945  34.726  32.501  1.00  0.00     0.147 A 
BRANCH   7  12
ATOM     12  O   UNL A   1      36.694  34.894  34.066  1.00  0.00    -0.437 OA
BRANCH  12  13
ATOM     13  C   UNL A   1      37.522  33.792  34.076  1.00  0.00     0.129 A 
ATOM     14  C   UNL A   1      39.483  32.754  35.126  1.00  0.00    -0.026 A 
ATOM     15  C   UNL A   1      38.560  33.816  35.018  1.00  0.00     0.052 A 
ATOM     16  C   UNL A   1      39.313  31.645  34.282  1.00  0.00     0.044 A 
ATOM     17  C   UNL A   1      38.308  31.643  33.310  1.00  0.00     0.024 A 
ATOM     18  Cl  UNL A   1      40.289  30.227  34.406  1.00  0.00    -0.084 Cl
ATOM     19  C   UNL A   1      37.433  32.722  33.186  1.00  0.00     0.049 A 
BRANCH  14  20
ATOM     20  C   UNL A   1      40.597  32.857  36.146  1.00  0.00     0.034 C 
ATOM     21  C   UNL A   1      40.512  34.096  37.034  1.00  0.00     0.009 C 
ENDBRANCH  14  20
ENDBRANCH  12  13
ENDBRANCH   7  12
ENDBRANCH   4   6
ENDBRANCH   3   4
ENDBRANCH   2   3
ENDBRANCH   1   2
BRANCH   1  22
ATOM     22  O   UNL A   1      32.840  34.542  28.542  1.00  0.00    -0.374 OA
BRANCH  22  23
ATOM     23  C   UNL A   1      33.278  33.380  27.833  1.00  0.00     0.202 C 
BRANCH  23  24
ATOM     24  C   UNL A   1      34.516  32.666  28.391  1.00  0.00     0.261 C 
BRANCH  24  25
ATOM     25  O   UNL A   1      34.247  31.287  28.702  1.00  0.00    -0.460 OA
BRANCH  25  26
ATOM     26  C   UNL A   1      34.814  30.386  27.867  1.00  0.00     0.338 C 
ATOM     27  O   UNL A   1      34.369  29.971  26.806  1.00  0.00    -0.246 OA
BRANCH  26  28
ATOM     28  C   UNL A   1      36.182  30.084  28.325  1.00  0.00     0.060 A 
ATOM     29  C   UNL A   1      37.219  30.167  27.386  1.00  0.00     0.016 A 
ATOM     30  C   UNL A   1      36.445  29.689  29.639  1.00  0.00     0.016 A 
ATOM     31  C   UNL A   1      38.522  29.837  27.752  1.00  0.00     0.010 A 
ATOM     32  C   UNL A   1      37.750  29.346  30.000  1.00  0.00     0.010 A 
ATOM     33  C   UNL A   1      38.793  29.401  29.057  1.00  0.00    -0.014 A 
BRANCH  33  34
ATOM     34  C   UNL A   1      40.148  28.926  29.421  1.00  0.00     0.031 A 
ATOM     35  C   UNL A   1      41.059  29.825  30.206  1.00  0.00     0.074 A 
ATOM     36  C   UNL A   1      40.567  27.708  29.034  1.00  0.00     0.049 A 
ATOM     37  N   UNL A   1      42.314  29.652  30.536  1.00  0.00    -0.248 NA
ATOM     38  C   UNL A   1      40.481  31.094  30.677  1.00  0.00     0.031 C 
ATOM     39  C   UNL A   1      39.763  26.735  28.297  1.00  0.00     0.029 A 
ATOM     40  N   UNL A   1      41.786  27.093  29.186  1.00  0.00    -0.354 N 
ATOM     41  C   UNL A   1      42.680  30.793  31.238  1.00  0.00     0.074 A 
ATOM     42  C   UNL A   1      41.520  31.659  31.274  1.00  0.00     0.031 C 
ATOM     43  C   UNL A   1      40.518  25.655  28.036  1.00  0.00     0.029 A 
ATOM     44  C   UNL A   1      41.868  25.879  28.549  1.00  0.00     0.049 A 
ATOM     45  H   UNL A   1      42.528  27.483  29.702  1.00  0.00     0.167 HD
ATOM     46  C   UNL A   1      43.875  31.085  31.803  1.00  0.00     0.037 A 
ATOM     47  C   UNL A   1      42.924  25.062  28.366  1.00  0.00     0.037 A 
ATOM     48  C   UNL A   1      45.019  30.213  31.773  1.00  0.00     0.049 A 
ATOM     49  C   UNL A   1      44.264  25.447  28.940  1.00  0.00     0.074 A 
ATOM     50  C   UNL A   1      46.256  30.392  32.370  1.00  0.00     0.029 A 
ATOM     51  N   UNL A   1      45.075  29.004  31.096  1.00  0.00    -0.354 N 
ATOM     52  N   UNL A   1      44.589  26.502  29.647  1.00  0.00    -0.248 NA
ATOM     53  C   UNL A   1      45.386  24.531  28.684  1.00  0.00     0.031 C 
ATOM     54  C   UNL A   1      47.078  29.322  32.003  1.00  0.00     0.029 A 
ATOM     55  C   UNL A   1      46.338  28.449  31.222  1.00  0.00     0.049 A 
ATOM     56  H   UNL A   1      44.326  28.600  30.600  1.00  0.00     0.167 HD
ATOM     57  C   UNL A   1      45.942  26.369  29.933  1.00  0.00     0.074 A 
ATOM     58  C   UNL A   1      46.375  25.121  29.340  1.00  0.00     0.031 C 
ATOM     59  C   UNL A   1      46.754  27.208  30.622  1.00  0.00     0.037 A 
BRANCH  46  60
ATOM     60  C   UNL A   1      44.025  32.416  32.478  1.00  0.00     0.064 A 
ATOM     61  C   UNL A   1      43.782  32.582  33.849  1.00  0.00     0.173 A 
ATOM     62  C   UNL A   1      44.480  33.527  31.752  1.00  0.00     0.173 A 
ATOM     63  F   UNL A   1      43.337  31.553  34.585  1.00  0.00    -0.203 F 
ATOM     64  C   UNL A   1      43.974  33.816  34.465  1.00  0.00     0.198 A 
ATOM     65  C   UNL A   1      44.696  34.752  32.377  1.00  0.00     0.198 A 
ATOM     66  F   UNL A   1      44.733  33.420  30.439  1.00  0.00    -0.203 F 
ATOM     67  F   UNL A   1      43.703  33.961  35.770  1.00  0.00    -0.200 F 
ATOM     68  C   UNL A   1      44.439  34.897  33.731  1.00  0.00     0.200 A 
ATOM     69  F   UNL A   1      45.159  35.791  31.667  1.00  0.00    -0.200 F 
ATOM     70  F   UNL A   1      44.635  36.080  34.329  1.00  0.00    -0.200 F 
ENDBRANCH  46  60
BRANCH  47  71
ATOM     71  C   UNL A   1      42.771  23.820  27.564  1.00  0.00     0.064 A 
ATOM     72  C   UNL A   1      42.347  22.622  28.154  1.00  0.00     0.173 A 
ATOM     73  C   UNL A   1      43.070  23.802  26.193  1.00  0.00     0.173 A 
ATOM     74  F   UNL A   1      42.077  22.582  29.467  1.00  0.00    -0.203 F 
ATOM     75  C   UNL A   1      42.244  21.450  27.408  1.00  0.00     0.198 A 
ATOM     76  C   UNL A   1      42.938  22.636  25.442  1.00  0.00     0.198 A 
ATOM     77  F   UNL A   1      43.486  24.920  25.580  1.00  0.00    -0.203 F 
ATOM     78  F   UNL A   1      41.884  20.307  28.007  1.00  0.00    -0.200 F 
ATOM     79  C   UNL A   1      42.533  21.459  26.052  1.00  0.00     0.200 A 
ATOM     80  F   UNL A   1      43.208  22.654  24.129  1.00  0.00    -0.200 F 
ATOM     81  F   UNL A   1      42.432  20.331  25.334  1.00  0.00    -0.200 F 
ENDBRANCH  47  71
BRANCH  59  82
ATOM     82  C   UNL A   1      48.191  26.805  30.784  1.00  0.00     0.064 A 
ATOM     83  C   UNL A   1      48.592  25.913  31.790  1.00  0.00     0.173 A 
ATOM     84  C   UNL A   1      49.168  27.265  29.887  1.00  0.00     0.173 A 
ATOM     85  F   UNL A   1      47.699  25.458  32.683  1.00  0.00    -0.203 F 
ATOM     86  C   UNL A   1      49.919  25.508  31.899  1.00  0.00     0.198 A 
ATOM     87  C   UNL A   1      50.487  26.834  29.982  1.00  0.00     0.198 A 
ATOM     88  F   UNL A   1      48.835  28.114  28.903  1.00  0.00    -0.203 F 
ATOM     89  F   UNL A   1      50.286  24.683  32.891  1.00  0.00    -0.200 F 
ATOM     90  C   UNL A   1      50.864  25.960  30.991  1.00  0.00     0.200 A 
ATOM     91  F   UNL A   1      51.396  27.261  29.093  1.00  0.00    -0.200 F 
ATOM     92  F   UNL A   1      52.138  25.557  31.089  1.00  0.00    -0.200 F 
ENDBRANCH  59  82
ENDBRANCH  33  34
ENDBRANCH  26  28
ENDBRANCH  25  26
ENDBRANCH  24  25
ENDBRANCH  23  24
ENDBRANCH  22  23
ENDBRANCH   1  22
TORSDOF 17
ENDMDL
