MODEL 1
REMARK VINA RESULT:     -11.9      0.000      0.000
REMARK SMILES Cc1cc2nc(C(F)(F)F)c(=O)n([C@H](C)C(=O)OCCOCCOC(=O)c3ccc(-c4c5nc(c(-c6c(F)c(F)c(F)c(F)c6F)c6ccc([nH]6)c(-c6c(F)c(F)c(F)c(F)c6F)c6nc(c(-c7c(F)c(F)c(F)c(F)c7F)c7ccc4[nH]7)C=C6)C=C5)cc3)c2cc1C
REMARK SMILES IDX 21 1 20 2 19 3 18 4 16 5 17 6 14 7 15 8 13 9 1 10 2 11 3 12
REMARK SMILES IDX 92 13 4 14 91 15 93 16 5 17 90 18 6 19 11 20 12 21 7 22 8 23
REMARK SMILES IDX 9 24 10 25 22 26 23 27 24 28 25 29 26 30 27 31 28 32 89 33
REMARK SMILES IDX 29 34 88 35 30 36 31 37 32 38 82 39 33 40 87 41 81 42 83 43
REMARK SMILES IDX 34 44 86 45 80 46 79 47 35 49 67 50 47 51 66 52 48 53 51 54
REMARK SMILES IDX 65 55 84 56 49 57 50 58 64 60 85 61 52 62 36 63 37 64 45 65
REMARK SMILES IDX 38 66 39 67 43 68 46 69 40 70 41 71 44 72 42 73 68 74 69 75
REMARK SMILES IDX 77 76 70 77 71 78 75 79 78 80 72 81 73 82 76 83 74 84 53 85
REMARK SMILES IDX 54 86 62 87 55 88 56 89 60 90 63 91 57 92 58 93 61 94 59 95
REMARK H PARENT 83 48 51 59
REMARK Flexibility Score: inf
ROOT
ATOM      1  O   UNL A   1      34.819  21.424  26.619  1.00  0.00    -0.374 OA
ENDROOT
BRANCH   1   2
ATOM      2  C   UNL A   1      34.350  22.717  26.983  1.00  0.00     0.202 C 
BRANCH   2   3
ATOM      3  C   UNL A   1      32.843  22.979  26.938  1.00  0.00     0.261 C 
BRANCH   3   4
ATOM      4  O   UNL A   1      32.461  23.769  25.803  1.00  0.00    -0.462 OA
BRANCH   4   5
ATOM      5  C   UNL A   1      32.335  25.102  26.061  1.00  0.00     0.329 C 
ATOM      6  O   UNL A   1      31.590  25.572  26.914  1.00  0.00    -0.250 OA
BRANCH   5   7
ATOM      7  C   UNL A   1      33.127  25.972  25.080  1.00  0.00     0.197 C 
ATOM      8  C   UNL A   1      33.536  25.352  23.743  1.00  0.00     0.044 C 
BRANCH   7   9
ATOM      9  N   UNL A   1      32.499  27.297  25.073  1.00  0.00    -0.291 N 
ATOM     10  C   UNL A   1      34.082  31.854  28.208  1.00  0.00     0.044 C 
ATOM     11  C   UNL A   1      33.755  30.658  27.359  1.00  0.00    -0.046 A 
ATOM     12  C   UNL A   1      32.613  30.699  26.546  1.00  0.00     0.034 A 
ATOM     13  C   UNL A   1      34.592  29.535  27.286  1.00  0.00    -0.046 A 
ATOM     14  C   UNL A   1      32.245  29.617  25.739  1.00  0.00     0.088 A 
ATOM     15  C   UNL A   1      34.224  28.458  26.457  1.00  0.00     0.032 A 
ATOM     16  C   UNL A   1      35.865  29.443  28.085  1.00  0.00     0.044 C 
ATOM     17  N   UNL A   1      31.141  29.796  24.894  1.00  0.00    -0.236 NA
ATOM     18  C   UNL A   1      33.017  28.445  25.746  1.00  0.00     0.071 A 
ATOM     19  C   UNL A   1      30.732  28.781  24.185  1.00  0.00     0.210 A 
ATOM     20  C   UNL A   1      31.297  27.401  24.358  1.00  0.00     0.282 A 
ATOM     21  O   UNL A   1      30.683  26.452  23.893  1.00  0.00    -0.267 OA
BRANCH  19  22
ATOM     22  C   UNL A   1      29.634  28.901  23.162  1.00  0.00     0.438 C 
ATOM     23  F   UNL A   1      29.193  30.183  23.032  1.00  0.00    -0.164 F 
ATOM     24  F   UNL A   1      30.063  28.529  21.918  1.00  0.00    -0.164 F 
ATOM     25  F   UNL A   1      28.538  28.132  23.398  1.00  0.00    -0.164 F 
ENDBRANCH  19  22
ENDBRANCH   7   9
ENDBRANCH   5   7
ENDBRANCH   4   5
ENDBRANCH   3   4
ENDBRANCH   2   3
ENDBRANCH   1   2
BRANCH   1  26
ATOM     26  C   UNL A   1      35.403  21.245  25.332  1.00  0.00     0.202 C 
BRANCH  26  27
ATOM     27  C   UNL A   1      36.839  20.709  25.240  1.00  0.00     0.261 C 
BRANCH  27  28
ATOM     28  O   UNL A   1      37.840  21.742  25.316  1.00  0.00    -0.460 OA
BRANCH  28  29
ATOM     29  C   UNL A   1      38.930  21.419  26.059  1.00  0.00     0.338 C 
ATOM     30  O   UNL A   1      39.476  20.328  26.138  1.00  0.00    -0.246 OA
BRANCH  29  31
ATOM     31  C   UNL A   1      39.532  22.643  26.619  1.00  0.00     0.060 A 
ATOM     32  C   UNL A   1      40.559  22.589  27.562  1.00  0.00     0.016 A 
ATOM     33  C   UNL A   1      39.083  23.875  26.126  1.00  0.00     0.016 A 
ATOM     34  C   UNL A   1      41.154  23.781  27.992  1.00  0.00     0.010 A 
ATOM     35  C   UNL A   1      39.667  25.060  26.566  1.00  0.00     0.010 A 
ATOM     36  C   UNL A   1      40.724  25.021  27.487  1.00  0.00    -0.014 A 
BRANCH  36  37
ATOM     37  C   UNL A   1      41.430  26.282  27.826  1.00  0.00     0.031 A 
ATOM     38  C   UNL A   1      40.744  27.370  28.598  1.00  0.00     0.074 A 
ATOM     39  C   UNL A   1      42.687  26.462  27.378  1.00  0.00     0.049 A 
ATOM     40  N   UNL A   1      41.194  28.554  28.933  1.00  0.00    -0.248 NA
ATOM     41  C   UNL A   1      39.372  27.096  29.052  1.00  0.00     0.031 C 
ATOM     42  C   UNL A   1      43.452  25.484  26.603  1.00  0.00     0.029 A 
ATOM     43  N   UNL A   1      43.540  27.530  27.501  1.00  0.00    -0.354 N 
ATOM     44  C   UNL A   1      40.175  29.158  29.656  1.00  0.00     0.074 A 
ATOM     45  C   UNL A   1      39.062  28.230  29.669  1.00  0.00     0.031 C 
ATOM     46  C   UNL A   1      44.667  25.988  26.339  1.00  0.00     0.029 A 
ATOM     47  C   UNL A   1      44.754  27.338  26.889  1.00  0.00     0.049 A 
ATOM     48  H   UNL A   1      43.303  28.355  27.984  1.00  0.00     0.167 HD
ATOM     49  C   UNL A   1      40.181  30.364  30.272  1.00  0.00     0.037 A 
ATOM     50  C   UNL A   1      45.814  28.161  26.777  1.00  0.00     0.037 A 
ATOM     51  C   UNL A   1      41.281  31.295  30.240  1.00  0.00     0.049 A 
ATOM     52  C   UNL A   1      45.749  29.532  27.397  1.00  0.00     0.074 A 
ATOM     53  C   UNL A   1      41.371  32.545  30.830  1.00  0.00     0.029 A 
ATOM     54  N   UNL A   1      42.481  31.084  29.579  1.00  0.00    -0.354 N 
ATOM     55  N   UNL A   1      44.797  30.076  28.113  1.00  0.00    -0.248 NA
ATOM     56  C   UNL A   1      46.918  30.401  27.194  1.00  0.00     0.031 C 
ATOM     57  C   UNL A   1      42.606  33.106  30.492  1.00  0.00     0.029 A 
ATOM     58  C   UNL A   1      43.311  32.185  29.735  1.00  0.00     0.049 A 
ATOM     59  H   UNL A   1      42.712  30.272  29.072  1.00  0.00     0.167 HD
ATOM     60  C   UNL A   1      45.262  31.334  28.473  1.00  0.00     0.074 A 
ATOM     61  C   UNL A   1      46.595  31.461  27.919  1.00  0.00     0.031 C 
ATOM     62  C   UNL A   1      44.640  32.301  29.191  1.00  0.00     0.037 A 
BRANCH  49  63
ATOM     63  C   UNL A   1      38.966  30.753  31.066  1.00  0.00     0.064 A 
ATOM     64  C   UNL A   1      38.882  30.477  32.438  1.00  0.00     0.173 A 
ATOM     65  C   UNL A   1      37.931  31.500  30.481  1.00  0.00     0.173 A 
ATOM     66  F   UNL A   1      39.841  29.759  33.042  1.00  0.00    -0.203 F 
ATOM     67  C   UNL A   1      37.807  30.931  33.197  1.00  0.00     0.198 A 
ATOM     68  C   UNL A   1      36.871  31.976  31.249  1.00  0.00     0.198 A 
ATOM     69  F   UNL A   1      37.967  31.798  29.175  1.00  0.00    -0.203 F 
ATOM     70  F   UNL A   1      37.740  30.639  34.504  1.00  0.00    -0.200 F 
ATOM     71  C   UNL A   1      36.810  31.691  32.605  1.00  0.00     0.200 A 
ATOM     72  F   UNL A   1      35.916  32.725  30.679  1.00  0.00    -0.200 F 
ATOM     73  F   UNL A   1      35.790  32.151  33.342  1.00  0.00    -0.200 F 
ENDBRANCH  49  63
BRANCH  50  74
ATOM     74  C   UNL A   1      47.043  27.712  26.071  1.00  0.00     0.064 A 
ATOM     75  C   UNL A   1      47.116  27.750  24.671  1.00  0.00     0.173 A 
ATOM     76  C   UNL A   1      48.150  27.206  26.766  1.00  0.00     0.173 A 
ATOM     77  F   UNL A   1      46.073  28.205  23.959  1.00  0.00    -0.203 F 
ATOM     78  C   UNL A   1      48.235  27.274  23.993  1.00  0.00     0.198 A 
ATOM     79  C   UNL A   1      49.283  26.761  26.089  1.00  0.00     0.198 A 
ATOM     80  F   UNL A   1      48.134  27.147  28.106  1.00  0.00    -0.203 F 
ATOM     81  F   UNL A   1      48.251  27.266  22.653  1.00  0.00    -0.200 F 
ATOM     82  C   UNL A   1      49.320  26.784  24.703  1.00  0.00     0.200 A 
ATOM     83  F   UNL A   1      50.336  26.301  26.779  1.00  0.00    -0.200 F 
ATOM     84  F   UNL A   1      50.397  26.323  24.052  1.00  0.00    -0.200 F 
ENDBRANCH  50  74
BRANCH  62  85
ATOM     85  C   UNL A   1      45.405  33.569  29.452  1.00  0.00     0.064 A 
ATOM     86  C   UNL A   1      45.316  34.675  28.593  1.00  0.00     0.173 A 
ATOM     87  C   UNL A   1      46.221  33.689  30.589  1.00  0.00     0.173 A 
ATOM     88  F   UNL A   1      44.561  34.611  27.486  1.00  0.00    -0.203 F 
ATOM     89  C   UNL A   1      46.044  35.836  28.840  1.00  0.00     0.198 A 
ATOM     90  C   UNL A   1      46.918  34.865  30.853  1.00  0.00     0.198 A 
ATOM     91  F   UNL A   1      46.336  32.667  31.449  1.00  0.00    -0.203 F 
ATOM     92  F   UNL A   1      45.991  36.855  27.971  1.00  0.00    -0.200 F 
ATOM     93  C   UNL A   1      46.837  35.934  29.973  1.00  0.00     0.200 A 
ATOM     94  F   UNL A   1      47.670  34.963  31.957  1.00  0.00    -0.200 F 
ATOM     95  F   UNL A   1      47.534  37.053  30.211  1.00  0.00    -0.200 F 
ENDBRANCH  62  85
ENDBRANCH  36  37
ENDBRANCH  29  31
ENDBRANCH  28  29
ENDBRANCH  27  28
ENDBRANCH  26  27
ENDBRANCH   1  26
TORSDOF 16
ENDMDL
MODEL 2
REMARK VINA RESULT:     -11.9      4.364      9.791
REMARK SMILES Cc1cc2nc(C(F)(F)F)c(=O)n([C@H](C)C(=O)OCCOCCOC(=O)c3ccc(-c4c5nc(c(-c6c(F)c(F)c(F)c(F)c6F)c6ccc([nH]6)c(-c6c(F)c(F)c(F)c(F)c6F)c6nc(c(-c7c(F)c(F)c(F)c(F)c7F)c7ccc4[nH]7)C=C6)C=C5)cc3)c2cc1C
REMARK SMILES IDX 21 1 20 2 19 3 18 4 16 5 17 6 14 7 15 8 13 9 1 10 2 11 3 12
REMARK SMILES IDX 92 13 4 14 91 15 93 16 5 17 90 18 6 19 11 20 12 21 7 22 8 23
REMARK SMILES IDX 9 24 10 25 22 26 23 27 24 28 25 29 26 30 27 31 28 32 89 33
REMARK SMILES IDX 29 34 88 35 30 36 31 37 32 38 82 39 33 40 87 41 81 42 83 43
REMARK SMILES IDX 34 44 86 45 80 46 79 47 35 49 67 50 47 51 66 52 48 53 51 54
REMARK SMILES IDX 65 55 84 56 49 57 50 58 64 60 85 61 52 62 36 63 37 64 45 65
REMARK SMILES IDX 38 66 39 67 43 68 46 69 40 70 41 71 44 72 42 73 68 74 69 75
REMARK SMILES IDX 77 76 70 77 71 78 75 79 78 80 72 81 73 82 76 83 74 84 53 85
REMARK SMILES IDX 54 86 62 87 55 88 56 89 60 90 63 91 57 92 58 93 61 94 59 95
REMARK H PARENT 83 48 51 59
REMARK Flexibility Score: inf
ROOT
ATOM      1  O   UNL A   1      33.060  28.961  24.000  1.00  0.00    -0.374 OA
ENDROOT
BRANCH   1   2
ATOM      2  C   UNL A   1      32.669  28.261  22.825  1.00  0.00     0.202 C 
BRANCH   2   3
ATOM      3  C   UNL A   1      33.354  26.928  22.516  1.00  0.00     0.261 C 
BRANCH   3   4
ATOM      4  O   UNL A   1      33.950  26.340  23.681  1.00  0.00    -0.462 OA
BRANCH   4   5
ATOM      5  C   UNL A   1      34.066  24.982  23.630  1.00  0.00     0.329 C 
ATOM      6  O   UNL A   1      34.332  24.351  22.613  1.00  0.00    -0.250 OA
BRANCH   5   7
ATOM      7  C   UNL A   1      33.697  24.307  24.954  1.00  0.00     0.197 C 
ATOM      8  C   UNL A   1      32.255  24.436  25.446  1.00  0.00     0.044 C 
BRANCH   7   9
ATOM      9  N   UNL A   1      34.317  22.978  24.949  1.00  0.00    -0.291 N 
ATOM     10  C   UNL A   1      39.827  21.767  26.081  1.00  0.00     0.044 C 
ATOM     11  C   UNL A   1      38.384  22.128  25.865  1.00  0.00    -0.046 A 
ATOM     12  C   UNL A   1      37.493  21.129  25.448  1.00  0.00     0.034 A 
ATOM     13  C   UNL A   1      37.878  23.406  26.145  1.00  0.00    -0.046 A 
ATOM     14  C   UNL A   1      36.140  21.398  25.219  1.00  0.00     0.088 A 
ATOM     15  C   UNL A   1      36.511  23.664  25.929  1.00  0.00     0.032 A 
ATOM     16  C   UNL A   1      38.762  24.514  26.651  1.00  0.00     0.044 C 
ATOM     17  N   UNL A   1      35.317  20.310  24.897  1.00  0.00    -0.236 NA
ATOM     18  C   UNL A   1      35.648  22.702  25.389  1.00  0.00     0.071 A 
ATOM     19  C   UNL A   1      34.066  20.542  24.608  1.00  0.00     0.210 A 
ATOM     20  C   UNL A   1      33.523  21.934  24.456  1.00  0.00     0.282 A 
ATOM     21  O   UNL A   1      32.444  22.085  23.901  1.00  0.00    -0.267 OA
BRANCH  19  22
ATOM     22  C   UNL A   1      33.075  19.436  24.366  1.00  0.00     0.438 C 
ATOM     23  F   UNL A   1      32.572  19.466  23.101  1.00  0.00    -0.164 F 
ATOM     24  F   UNL A   1      33.651  18.205  24.507  1.00  0.00    -0.164 F 
ATOM     25  F   UNL A   1      32.008  19.420  25.210  1.00  0.00    -0.164 F 
ENDBRANCH  19  22
ENDBRANCH   7   9
ENDBRANCH   5   7
ENDBRANCH   4   5
ENDBRANCH   3   4
ENDBRANCH   2   3
ENDBRANCH   1   2
BRANCH   1  26
ATOM     26  C   UNL A   1      32.160  29.000  25.104  1.00  0.00     0.202 C 
BRANCH  26  27
ATOM     27  C   UNL A   1      31.832  30.358  25.742  1.00  0.00     0.261 C 
BRANCH  27  28
ATOM     28  O   UNL A   1      32.381  30.515  27.064  1.00  0.00    -0.460 OA
BRANCH  28  29
ATOM     29  C   UNL A   1      33.086  31.660  27.252  1.00  0.00     0.338 C 
ATOM     30  O   UNL A   1      32.676  32.807  27.154  1.00  0.00    -0.246 OA
BRANCH  29  31
ATOM     31  C   UNL A   1      34.409  31.344  27.820  1.00  0.00     0.060 A 
ATOM     32  C   UNL A   1      35.364  32.334  28.050  1.00  0.00     0.016 A 
ATOM     33  C   UNL A   1      34.661  30.015  28.185  1.00  0.00     0.016 A 
ATOM     34  C   UNL A   1      36.570  31.990  28.673  1.00  0.00     0.010 A 
ATOM     35  C   UNL A   1      35.867  29.672  28.792  1.00  0.00     0.010 A 
ATOM     36  C   UNL A   1      36.823  30.662  29.062  1.00  0.00    -0.014 A 
BRANCH  36  37
ATOM     37  C   UNL A   1      38.031  30.301  29.844  1.00  0.00     0.031 A 
ATOM     38  C   UNL A   1      39.073  29.381  29.280  1.00  0.00     0.074 A 
ATOM     39  C   UNL A   1      38.155  30.770  31.101  1.00  0.00     0.049 A 
ATOM     40  N   UNL A   1      40.161  28.920  29.845  1.00  0.00    -0.248 NA
ATOM     41  C   UNL A   1      38.865  28.912  27.901  1.00  0.00     0.031 C 
ATOM     42  C   UNL A   1      37.200  31.659  31.764  1.00  0.00     0.029 A 
ATOM     43  N   UNL A   1      39.127  30.560  32.045  1.00  0.00    -0.354 N 
ATOM     44  C   UNL A   1      40.781  28.129  28.889  1.00  0.00     0.074 A 
ATOM     45  C   UNL A   1      39.922  28.129  27.722  1.00  0.00     0.031 C 
ATOM     46  C   UNL A   1      37.644  31.935  33.000  1.00  0.00     0.029 A 
ATOM     47  C   UNL A   1      38.892  31.213  33.231  1.00  0.00     0.049 A 
ATOM     48  H   UNL A   1      39.919  29.996  31.888  1.00  0.00     0.167 HD
ATOM     49  C   UNL A   1      41.969  27.483  28.972  1.00  0.00     0.037 A 
ATOM     50  C   UNL A   1      39.598  31.219  34.378  1.00  0.00     0.037 A 
ATOM     51  C   UNL A   1      42.812  27.466  30.141  1.00  0.00     0.049 A 
ATOM     52  C   UNL A   1      40.869  30.416  34.463  1.00  0.00     0.074 A 
ATOM     53  C   UNL A   1      44.031  26.831  30.317  1.00  0.00     0.029 A 
ATOM     54  N   UNL A   1      42.524  28.106  31.337  1.00  0.00    -0.354 N 
ATOM     55  N   UNL A   1      41.467  29.705  33.540  1.00  0.00    -0.248 NA
ATOM     56  C   UNL A   1      41.565  30.424  35.759  1.00  0.00     0.031 C 
ATOM     57  C   UNL A   1      44.459  27.052  31.629  1.00  0.00     0.029 A 
ATOM     58  C   UNL A   1      43.535  27.870  32.258  1.00  0.00     0.049 A 
ATOM     59  H   UNL A   1      41.721  28.648  31.509  1.00  0.00     0.167 HD
ATOM     60  C   UNL A   1      42.623  29.209  34.129  1.00  0.00     0.074 A 
ATOM     61  C   UNL A   1      42.656  29.724  35.482  1.00  0.00     0.031 C 
ATOM     62  C   UNL A   1      43.568  28.394  33.600  1.00  0.00     0.037 A 
BRANCH  49  63
ATOM     63  C   UNL A   1      42.459  26.754  27.753  1.00  0.00     0.064 A 
ATOM     64  C   UNL A   1      43.210  27.414  26.770  1.00  0.00     0.173 A 
ATOM     65  C   UNL A   1      42.274  25.369  27.619  1.00  0.00     0.173 A 
ATOM     66  F   UNL A   1      43.407  28.739  26.848  1.00  0.00    -0.203 F 
ATOM     67  C   UNL A   1      43.755  26.717  25.695  1.00  0.00     0.198 A 
ATOM     68  C   UNL A   1      42.844  24.671  26.557  1.00  0.00     0.198 A 
ATOM     69  F   UNL A   1      41.571  24.688  28.536  1.00  0.00    -0.203 F 
ATOM     70  F   UNL A   1      44.454  27.374  24.758  1.00  0.00    -0.200 F 
ATOM     71  C   UNL A   1      43.583  25.345  25.597  1.00  0.00     0.200 A 
ATOM     72  F   UNL A   1      42.691  23.341  26.473  1.00  0.00    -0.200 F 
ATOM     73  F   UNL A   1      44.133  24.671  24.577  1.00  0.00    -0.200 F 
ENDBRANCH  49  63
BRANCH  50  74
ATOM     74  C   UNL A   1      39.142  32.032  35.537  1.00  0.00     0.064 A 
ATOM     75  C   UNL A   1      39.532  33.373  35.665  1.00  0.00     0.173 A 
ATOM     76  C   UNL A   1      38.346  31.486  36.553  1.00  0.00     0.173 A 
ATOM     77  F   UNL A   1      40.313  33.935  34.729  1.00  0.00    -0.203 F 
ATOM     78  C   UNL A   1      39.166  34.127  36.776  1.00  0.00     0.198 A 
ATOM     79  C   UNL A   1      37.952  32.251  37.648  1.00  0.00     0.198 A 
ATOM     80  F   UNL A   1      37.945  30.207  36.480  1.00  0.00    -0.203 F 
ATOM     81  F   UNL A   1      39.604  35.388  36.900  1.00  0.00    -0.200 F 
ATOM     82  C   UNL A   1      38.372  33.568  37.765  1.00  0.00     0.200 A 
ATOM     83  F   UNL A   1      37.173  31.711  38.595  1.00  0.00    -0.200 F 
ATOM     84  F   UNL A   1      38.022  34.292  38.836  1.00  0.00    -0.200 F 
ENDBRANCH  50  74
BRANCH  62  85
ATOM     85  C   UNL A   1      44.739  28.037  34.472  1.00  0.00     0.064 A 
ATOM     86  C   UNL A   1      44.728  26.899  35.293  1.00  0.00     0.173 A 
ATOM     87  C   UNL A   1      45.898  28.830  34.471  1.00  0.00     0.173 A 
ATOM     88  F   UNL A   1      43.641  26.113  35.343  1.00  0.00    -0.203 F 
ATOM     89  C   UNL A   1      45.814  26.591  36.108  1.00  0.00     0.198 A 
ATOM     90  C   UNL A   1      46.998  28.497  35.259  1.00  0.00     0.198 A 
ATOM     91  F   UNL A   1      45.969  29.923  33.699  1.00  0.00    -0.203 F 
ATOM     92  F   UNL A   1      45.753  25.534  36.931  1.00  0.00    -0.200 F 
ATOM     93  C   UNL A   1      46.950  27.385  36.085  1.00  0.00     0.200 A 
ATOM     94  F   UNL A   1      48.101  29.256  35.220  1.00  0.00    -0.200 F 
ATOM     95  F   UNL A   1      47.997  27.084  36.866  1.00  0.00    -0.200 F 
ENDBRANCH  62  85
ENDBRANCH  36  37
ENDBRANCH  29  31
ENDBRANCH  28  29
ENDBRANCH  27  28
ENDBRANCH  26  27
ENDBRANCH   1  26
TORSDOF 16
ENDMDL
MODEL 3
REMARK VINA RESULT:     -11.6      0.794      7.293
REMARK SMILES Cc1cc2nc(C(F)(F)F)c(=O)n([C@H](C)C(=O)OCCOCCOC(=O)c3ccc(-c4c5nc(c(-c6c(F)c(F)c(F)c(F)c6F)c6ccc([nH]6)c(-c6c(F)c(F)c(F)c(F)c6F)c6nc(c(-c7c(F)c(F)c(F)c(F)c7F)c7ccc4[nH]7)C=C6)C=C5)cc3)c2cc1C
REMARK SMILES IDX 21 1 20 2 19 3 18 4 16 5 17 6 14 7 15 8 13 9 1 10 2 11 3 12
REMARK SMILES IDX 92 13 4 14 91 15 93 16 5 17 90 18 6 19 11 20 12 21 7 22 8 23
REMARK SMILES IDX 9 24 10 25 22 26 23 27 24 28 25 29 26 30 27 31 28 32 89 33
REMARK SMILES IDX 29 34 88 35 30 36 31 37 32 38 82 39 33 40 87 41 81 42 83 43
REMARK SMILES IDX 34 44 86 45 80 46 79 47 35 49 67 50 47 51 66 52 48 53 51 54
REMARK SMILES IDX 65 55 84 56 49 57 50 58 64 60 85 61 52 62 36 63 37 64 45 65
REMARK SMILES IDX 38 66 39 67 43 68 46 69 40 70 41 71 44 72 42 73 68 74 69 75
REMARK SMILES IDX 77 76 70 77 71 78 75 79 78 80 72 81 73 82 76 83 74 84 53 85
REMARK SMILES IDX 54 86 62 87 55 88 56 89 60 90 63 91 57 92 58 93 61 94 59 95
REMARK H PARENT 83 48 51 59
REMARK Flexibility Score: inf
ROOT
ATOM      1  O   UNL A   1      34.667  21.572  24.647  1.00  0.00    -0.374 OA
ENDROOT
BRANCH   1   2
ATOM      2  C   UNL A   1      35.190  22.592  23.805  1.00  0.00     0.202 C 
BRANCH   2   3
ATOM      3  C   UNL A   1      34.240  23.692  23.326  1.00  0.00     0.261 C 
BRANCH   3   4
ATOM      4  O   UNL A   1      34.526  24.960  23.932  1.00  0.00    -0.462 OA
BRANCH   4   5
ATOM      5  C   UNL A   1      33.590  25.922  23.695  1.00  0.00     0.329 C 
ATOM      6  O   UNL A   1      33.647  26.729  22.774  1.00  0.00    -0.250 OA
BRANCH   5   7
ATOM      7  C   UNL A   1      32.513  25.980  24.783  1.00  0.00     0.197 C 
ATOM      8  C   UNL A   1      32.816  25.314  26.127  1.00  0.00     0.044 C 
BRANCH   7   9
ATOM      9  N   UNL A   1      31.974  27.344  24.786  1.00  0.00    -0.291 N 
ATOM     10  C   UNL A   1      33.917  31.784  27.887  1.00  0.00     0.044 C 
ATOM     11  C   UNL A   1      33.494  30.613  27.045  1.00  0.00    -0.046 A 
ATOM     12  C   UNL A   1      32.342  30.730  26.255  1.00  0.00     0.034 A 
ATOM     13  C   UNL A   1      34.253  29.437  26.958  1.00  0.00    -0.046 A 
ATOM     14  C   UNL A   1      31.888  29.675  25.456  1.00  0.00     0.088 A 
ATOM     15  C   UNL A   1      33.799  28.387  26.137  1.00  0.00     0.032 A 
ATOM     16  C   UNL A   1      35.532  29.260  27.733  1.00  0.00     0.044 C 
ATOM     17  N   UNL A   1      30.782  29.927  24.632  1.00  0.00    -0.236 NA
ATOM     18  C   UNL A   1      32.581  28.455  25.449  1.00  0.00     0.071 A 
ATOM     19  C   UNL A   1      30.293  28.942  23.931  1.00  0.00     0.210 A 
ATOM     20  C   UNL A   1      30.769  27.528  24.094  1.00  0.00     0.282 A 
ATOM     21  O   UNL A   1      30.083  26.622  23.642  1.00  0.00    -0.267 OA
BRANCH  19  22
ATOM     22  C   UNL A   1      29.187  29.136  22.929  1.00  0.00     0.438 C 
ATOM     23  F   UNL A   1      28.668  30.394  22.975  1.00  0.00    -0.164 F 
ATOM     24  F   UNL A   1      29.633  28.966  21.648  1.00  0.00    -0.164 F 
ATOM     25  F   UNL A   1      28.140  28.277  23.051  1.00  0.00    -0.164 F 
ENDBRANCH  19  22
ENDBRANCH   7   9
ENDBRANCH   5   7
ENDBRANCH   4   5
ENDBRANCH   3   4
ENDBRANCH   2   3
ENDBRANCH   1   2
BRANCH   1  26
ATOM     26  C   UNL A   1      35.480  20.436  24.932  1.00  0.00     0.202 C 
BRANCH  26  27
ATOM     27  C   UNL A   1      37.007  20.583  24.858  1.00  0.00     0.261 C 
BRANCH  27  28
ATOM     28  O   UNL A   1      37.561  21.344  25.948  1.00  0.00    -0.460 OA
BRANCH  28  29
ATOM     29  C   UNL A   1      38.898  21.187  26.126  1.00  0.00     0.338 C 
ATOM     30  O   UNL A   1      39.585  20.240  25.774  1.00  0.00    -0.246 OA
BRANCH  29  31
ATOM     31  C   UNL A   1      39.485  22.442  26.628  1.00  0.00     0.060 A 
ATOM     32  C   UNL A   1      40.551  22.444  27.528  1.00  0.00     0.016 A 
ATOM     33  C   UNL A   1      38.978  23.647  26.123  1.00  0.00     0.016 A 
ATOM     34  C   UNL A   1      41.127  23.665  27.901  1.00  0.00     0.010 A 
ATOM     35  C   UNL A   1      39.544  24.860  26.506  1.00  0.00     0.010 A 
ATOM     36  C   UNL A   1      40.639  24.877  27.383  1.00  0.00    -0.014 A 
BRANCH  36  37
ATOM     37  C   UNL A   1      41.320  26.167  27.658  1.00  0.00     0.031 A 
ATOM     38  C   UNL A   1      42.739  26.399  27.232  1.00  0.00     0.074 A 
ATOM     39  C   UNL A   1      40.660  27.114  28.353  1.00  0.00     0.049 A 
ATOM     40  N   UNL A   1      43.503  27.444  27.439  1.00  0.00    -0.248 NA
ATOM     41  C   UNL A   1      43.390  25.317  26.479  1.00  0.00     0.031 C 
ATOM     42  C   UNL A   1      39.283  26.997  28.835  1.00  0.00     0.029 A 
ATOM     43  N   UNL A   1      41.059  28.355  28.780  1.00  0.00    -0.354 N 
ATOM     44  C   UNL A   1      44.713  27.159  26.822  1.00  0.00     0.074 A 
ATOM     45  C   UNL A   1      44.602  25.820  26.277  1.00  0.00     0.031 C 
ATOM     46  C   UNL A   1      38.945  28.129  29.472  1.00  0.00     0.029 A 
ATOM     47  C   UNL A   1      40.091  29.033  29.480  1.00  0.00     0.049 A 
ATOM     48  H   UNL A   1      41.954  28.725  28.600  1.00  0.00     0.167 HD
ATOM     49  C   UNL A   1      45.804  27.952  26.703  1.00  0.00     0.037 A 
ATOM     50  C   UNL A   1      40.128  30.244  30.069  1.00  0.00     0.037 A 
ATOM     51  C   UNL A   1      45.922  29.274  27.265  1.00  0.00     0.049 A 
ATOM     52  C   UNL A   1      41.391  31.061  29.994  1.00  0.00     0.074 A 
ATOM     53  C   UNL A   1      46.995  30.148  27.200  1.00  0.00     0.029 A 
ATOM     54  N   UNL A   1      44.936  29.914  28.001  1.00  0.00    -0.354 N 
ATOM     55  N   UNL A   1      42.515  30.798  29.374  1.00  0.00    -0.248 NA
ATOM     56  C   UNL A   1      41.384  32.350  30.701  1.00  0.00     0.031 C 
ATOM     57  C   UNL A   1      46.675  31.296  27.929  1.00  0.00     0.029 A 
ATOM     58  C   UNL A   1      45.382  31.165  28.406  1.00  0.00     0.049 A 
ATOM     59  H   UNL A   1      44.050  29.538  28.206  1.00  0.00     0.167 HD
ATOM     60  C   UNL A   1      43.334  31.899  29.587  1.00  0.00     0.074 A 
ATOM     61  C   UNL A   1      42.567  32.845  30.371  1.00  0.00     0.031 C 
ATOM     62  C   UNL A   1      44.610  32.106  29.177  1.00  0.00     0.037 A 
BRANCH  49  63
ATOM     63  C   UNL A   1      46.968  27.430  25.909  1.00  0.00     0.064 A 
ATOM     64  C   UNL A   1      47.048  27.639  24.524  1.00  0.00     0.173 A 
ATOM     65  C   UNL A   1      48.059  26.818  26.545  1.00  0.00     0.173 A 
ATOM     66  F   UNL A   1      46.028  28.212  23.868  1.00  0.00    -0.203 F 
ATOM     67  C   UNL A   1      48.175  27.251  23.805  1.00  0.00     0.198 A 
ATOM     68  C   UNL A   1      49.195  26.456  25.826  1.00  0.00     0.198 A 
ATOM     69  F   UNL A   1      48.036  26.602  27.868  1.00  0.00    -0.203 F 
ATOM     70  F   UNL A   1      48.220  27.445  22.479  1.00  0.00    -0.200 F 
ATOM     71  C   UNL A   1      49.253  26.673  24.457  1.00  0.00     0.200 A 
ATOM     72  F   UNL A   1      50.244  25.913  26.462  1.00  0.00    -0.200 F 
ATOM     73  F   UNL A   1      50.348  26.327  23.768  1.00  0.00    -0.200 F 
ENDBRANCH  49  63
BRANCH  50  74
ATOM     74  C   UNL A   1      38.927  30.779  30.763  1.00  0.00     0.064 A 
ATOM     75  C   UNL A   1      37.987  31.552  30.068  1.00  0.00     0.173 A 
ATOM     76  C   UNL A   1      38.709  30.565  32.132  1.00  0.00     0.173 A 
ATOM     77  F   UNL A   1      38.163  31.805  28.761  1.00  0.00    -0.203 F 
ATOM     78  C   UNL A   1      36.891  32.114  30.718  1.00  0.00     0.198 A 
ATOM     79  C   UNL A   1      37.595  31.098  32.775  1.00  0.00     0.198 A 
ATOM     80  F   UNL A   1      39.578  29.832  32.845  1.00  0.00    -0.203 F 
ATOM     81  F   UNL A   1      36.042  32.898  30.040  1.00  0.00    -0.200 F 
ATOM     82  C   UNL A   1      36.693  31.882  32.071  1.00  0.00     0.200 A 
ATOM     83  F   UNL A   1      37.398  30.861  34.079  1.00  0.00    -0.200 F 
ATOM     84  F   UNL A   1      35.640  32.424  32.698  1.00  0.00    -0.200 F 
ENDBRANCH  50  74
BRANCH  62  85
ATOM     85  C   UNL A   1      45.247  33.419  29.536  1.00  0.00     0.064 A 
ATOM     86  C   UNL A   1      45.990  33.581  30.715  1.00  0.00     0.173 A 
ATOM     87  C   UNL A   1      45.133  34.526  28.679  1.00  0.00     0.173 A 
ATOM     88  F   UNL A   1      46.121  32.560  31.576  1.00  0.00    -0.203 F 
ATOM     89  C   UNL A   1      46.560  34.809  31.042  1.00  0.00     0.198 A 
ATOM     90  C   UNL A   1      45.736  35.742  28.991  1.00  0.00     0.198 A 
ATOM     91  F   UNL A   1      44.442  34.427  27.534  1.00  0.00    -0.203 F 
ATOM     92  F   UNL A   1      47.211  34.955  32.204  1.00  0.00    -0.200 F 
ATOM     93  C   UNL A   1      46.440  35.886  30.177  1.00  0.00     0.200 A 
ATOM     94  F   UNL A   1      45.633  36.775  28.144  1.00  0.00    -0.200 F 
ATOM     95  F   UNL A   1      46.992  37.065  30.490  1.00  0.00    -0.200 F 
ENDBRANCH  62  85
ENDBRANCH  36  37
ENDBRANCH  29  31
ENDBRANCH  28  29
ENDBRANCH  27  28
ENDBRANCH  26  27
ENDBRANCH   1  26
TORSDOF 16
ENDMDL
