MODEL 1
REMARK VINA RESULT:     -11.5      0.000      0.000
REMARK SMILES CCC(CC)(NC(=O)c1ccc(NC(C)=O)cc1)C(=O)OCCOCCOC(=O)c1ccc(-c2c3nc(c(-c4c(F)c(F)c(F)c(F)c4F)c4ccc([nH]4)c(-c4c(F)c(F)c(F)c(F)c4F)c4nc(c(-c5c(F)c(F)c(F)c(F)c5F)c5ccc2[nH]5)C=C4)C=C3)cc1
REMARK SMILES IDX 23 1 22 2 21 3 19 4 20 5 3 6 2 7 1 8 4 9 5 10 6 11 7 12 8 14
REMARK SMILES IDX 9 15 10 16 18 17 11 18 17 19 12 20 13 21 14 22 15 24 16 25
REMARK SMILES IDX 24 26 25 27 26 28 27 29 28 30 29 31 30 32 31 33 92 34 32 35
REMARK SMILES IDX 91 36 33 37 34 38 35 39 85 40 36 41 90 42 84 43 86 44 37 45
REMARK SMILES IDX 89 46 83 47 82 48 38 50 70 51 50 52 69 53 51 54 54 55 68 56
REMARK SMILES IDX 87 57 52 58 53 59 67 61 88 62 55 63 39 64 40 65 48 66 41 67
REMARK SMILES IDX 42 68 46 69 49 70 43 71 44 72 47 73 45 74 71 75 72 76 80 77
REMARK SMILES IDX 73 78 74 79 78 80 81 81 75 82 76 83 79 84 77 85 56 86 57 87
REMARK SMILES IDX 65 88 58 89 59 90 63 91 66 92 60 93 61 94 64 95 62 96
REMARK H PARENT 6 13 13 23 86 49 54 60
REMARK Flexibility Score: inf
ROOT
ATOM      1  C   UNL A   1      38.744  21.540  25.779  1.00  0.00     0.202 C 
ENDROOT
BRANCH   1   2
ATOM      2  C   UNL A   1      37.989  22.894  25.683  1.00  0.00     0.261 C 
BRANCH   2   3
ATOM      3  O   UNL A   1      36.777  22.712  24.975  1.00  0.00    -0.461 OA
BRANCH   3   4
ATOM      4  C   UNL A   1      35.651  23.327  25.344  1.00  0.00     0.331 C 
ATOM      5  O   UNL A   1      35.583  24.503  25.692  1.00  0.00    -0.249 OA
BRANCH   4   6
ATOM      6  C   UNL A   1      34.464  22.355  25.145  1.00  0.00     0.137 C 
BRANCH   6   7
ATOM      7  C   UNL A   1      33.462  22.724  26.322  1.00  0.00     0.037 C 
ATOM      8  C   UNL A   1      33.901  22.329  27.747  1.00  0.00     0.007 C 
ENDBRANCH   6   7
BRANCH   6   9
ATOM      9  C   UNL A   1      34.932  20.882  25.251  1.00  0.00     0.037 C 
ATOM     10  C   UNL A   1      33.894  19.842  24.811  1.00  0.00     0.007 C 
ENDBRANCH   6   9
BRANCH   6  11
ATOM     11  N   UNL A   1      33.752  22.535  23.781  1.00  0.00    -0.336 N 
ATOM     12  C   UNL A   1      33.618  23.654  22.929  1.00  0.00     0.252 C 
ATOM     13  H   UNL A   1      33.312  21.721  23.446  1.00  0.00     0.165 HD
ATOM     14  O   UNL A   1      33.975  23.512  21.757  1.00  0.00    -0.269 OA
BRANCH  12  15
ATOM     15  C   UNL A   1      32.819  24.912  23.245  1.00  0.00     0.039 A 
ATOM     16  C   UNL A   1      31.447  24.889  23.092  1.00  0.00     0.016 A 
ATOM     17  C   UNL A   1      33.312  26.179  23.509  1.00  0.00     0.016 A 
ATOM     18  C   UNL A   1      30.543  25.938  23.285  1.00  0.00     0.027 A 
ATOM     19  C   UNL A   1      32.420  27.298  23.698  1.00  0.00     0.027 A 
ATOM     20  C   UNL A   1      31.020  27.182  23.584  1.00  0.00     0.041 A 
BRANCH  20  21
ATOM     21  N   UNL A   1      30.129  28.268  23.787  1.00  0.00    -0.326 N 
ATOM     22  C   UNL A   1      29.624  29.102  22.786  1.00  0.00     0.221 C 
ATOM     23  H   UNL A   1      29.844  28.450  24.711  1.00  0.00     0.169 HD
ATOM     24  C   UNL A   1      28.490  29.993  23.227  1.00  0.00     0.114 C 
ATOM     25  O   UNL A   1      30.028  29.185  21.629  1.00  0.00    -0.275 OA
ENDBRANCH  20  21
ENDBRANCH  12  15
ENDBRANCH   6  11
ENDBRANCH   4   6
ENDBRANCH   3   4
ENDBRANCH   2   3
ENDBRANCH   1   2
BRANCH   1  26
ATOM     26  O   UNL A   1      39.751  21.322  26.807  1.00  0.00    -0.374 OA
BRANCH  26  27
ATOM     27  C   UNL A   1      40.830  20.382  26.571  1.00  0.00     0.202 C 
BRANCH  27  28
ATOM     28  C   UNL A   1      42.260  21.037  26.161  1.00  0.00     0.261 C 
BRANCH  28  29
ATOM     29  O   UNL A   1      42.294  22.068  25.064  1.00  0.00    -0.460 OA
BRANCH  29  30
ATOM     30  C   UNL A   1      43.062  23.207  25.211  1.00  0.00     0.338 C 
ATOM     31  O   UNL A   1      44.019  23.474  24.497  1.00  0.00    -0.246 OA
BRANCH  30  32
ATOM     32  C   UNL A   1      42.540  24.250  26.204  1.00  0.00     0.060 A 
ATOM     33  C   UNL A   1      43.242  25.461  26.322  1.00  0.00     0.016 A 
ATOM     34  C   UNL A   1      41.512  24.054  27.135  1.00  0.00     0.016 A 
ATOM     35  C   UNL A   1      42.841  26.511  27.190  1.00  0.00     0.010 A 
ATOM     36  C   UNL A   1      41.160  25.079  28.079  1.00  0.00     0.010 A 
ATOM     37  C   UNL A   1      41.793  26.341  28.099  1.00  0.00    -0.014 A 
BRANCH  37  38
ATOM     38  C   UNL A   1      41.477  27.411  29.127  1.00  0.00     0.031 A 
ATOM     39  C   UNL A   1      42.302  27.501  30.396  1.00  0.00     0.074 A 
ATOM     40  C   UNL A   1      40.529  28.362  28.952  1.00  0.00     0.049 A 
ATOM     41  N   UNL A   1      42.099  28.202  31.489  1.00  0.00    -0.248 NA
ATOM     42  C   UNL A   1      43.539  26.710  30.420  1.00  0.00     0.031 C 
ATOM     43  C   UNL A   1      39.750  28.565  27.734  1.00  0.00     0.029 A 
ATOM     44  N   UNL A   1      40.055  29.346  29.807  1.00  0.00    -0.354 N 
ATOM     45  C   UNL A   1      43.158  27.902  32.343  1.00  0.00     0.074 A 
ATOM     46  C   UNL A   1      44.019  26.986  31.625  1.00  0.00     0.031 C 
ATOM     47  C   UNL A   1      38.877  29.574  27.928  1.00  0.00     0.029 A 
ATOM     48  C   UNL A   1      38.980  30.053  29.309  1.00  0.00     0.049 A 
ATOM     49  H   UNL A   1      40.451  29.524  30.691  1.00  0.00     0.167 HD
ATOM     50  C   UNL A   1      43.383  28.324  33.613  1.00  0.00     0.037 A 
ATOM     51  C   UNL A   1      38.136  30.933  29.903  1.00  0.00     0.037 A 
ATOM     52  C   UNL A   1      42.546  29.248  34.339  1.00  0.00     0.049 A 
ATOM     53  C   UNL A   1      38.318  31.282  31.368  1.00  0.00     0.074 A 
ATOM     54  C   UNL A   1      42.682  29.699  35.642  1.00  0.00     0.029 A 
ATOM     55  N   UNL A   1      41.417  29.863  33.823  1.00  0.00    -0.354 N 
ATOM     56  N   UNL A   1      39.272  30.929  32.195  1.00  0.00    -0.248 NA
ATOM     57  C   UNL A   1      37.291  32.138  31.991  1.00  0.00     0.031 C 
ATOM     58  C   UNL A   1      41.602  30.537  35.935  1.00  0.00     0.029 A 
ATOM     59  C   UNL A   1      40.829  30.661  34.794  1.00  0.00     0.049 A 
ATOM     60  H   UNL A   1      41.083  29.751  32.904  1.00  0.00     0.167 HD
ATOM     61  C   UNL A   1      38.970  31.526  33.415  1.00  0.00     0.074 A 
ATOM     62  C   UNL A   1      37.760  32.293  33.221  1.00  0.00     0.031 C 
ATOM     63  C   UNL A   1      39.632  31.437  34.595  1.00  0.00     0.037 A 
BRANCH  50  64
ATOM     64  C   UNL A   1      44.546  27.723  34.354  1.00  0.00     0.064 A 
ATOM     65  C   UNL A   1      44.450  26.508  35.046  1.00  0.00     0.173 A 
ATOM     66  C   UNL A   1      45.799  28.359  34.320  1.00  0.00     0.173 A 
ATOM     67  F   UNL A   1      43.277  25.860  35.115  1.00  0.00    -0.203 F 
ATOM     68  C   UNL A   1      45.557  25.966  35.699  1.00  0.00     0.198 A 
ATOM     69  C   UNL A   1      46.909  27.802  34.947  1.00  0.00     0.198 A 
ATOM     70  F   UNL A   1      45.950  29.516  33.657  1.00  0.00    -0.203 F 
ATOM     71  F   UNL A   1      45.434  24.824  36.390  1.00  0.00    -0.200 F 
ATOM     72  C   UNL A   1      46.785  26.610  35.644  1.00  0.00     0.200 A 
ATOM     73  F   UNL A   1      48.097  28.415  34.874  1.00  0.00    -0.200 F 
ATOM     74  F   UNL A   1      47.851  26.082  36.262  1.00  0.00    -0.200 F 
ENDBRANCH  50  64
BRANCH  51  75
ATOM     75  C   UNL A   1      36.948  31.480  29.170  1.00  0.00     0.064 A 
ATOM     76  C   UNL A   1      36.848  32.840  28.830  1.00  0.00     0.173 A 
ATOM     77  C   UNL A   1      35.836  30.669  28.889  1.00  0.00     0.173 A 
ATOM     78  F   UNL A   1      37.853  33.678  29.117  1.00  0.00    -0.203 F 
ATOM     79  C   UNL A   1      35.683  33.365  28.264  1.00  0.00     0.198 A 
ATOM     80  C   UNL A   1      34.688  31.187  28.287  1.00  0.00     0.198 A 
ATOM     81  F   UNL A   1      35.852  29.370  29.217  1.00  0.00    -0.203 F 
ATOM     82  F   UNL A   1      35.590  34.680  28.022  1.00  0.00    -0.200 F 
ATOM     83  C   UNL A   1      34.607  32.536  27.986  1.00  0.00     0.200 A 
ATOM     84  F   UNL A   1      33.654  30.379  28.017  1.00  0.00    -0.200 F 
ATOM     85  F   UNL A   1      33.488  33.040  27.449  1.00  0.00    -0.200 F 
ENDBRANCH  51  75
BRANCH  63  86
ATOM     86  C   UNL A   1      39.092  32.211  35.768  1.00  0.00     0.064 A 
ATOM     87  C   UNL A   1      38.249  31.618  36.720  1.00  0.00     0.173 A 
ATOM     88  C   UNL A   1      39.466  33.549  35.972  1.00  0.00     0.173 A 
ATOM     89  F   UNL A   1      37.850  30.347  36.569  1.00  0.00    -0.203 F 
ATOM     90  C   UNL A   1      37.783  32.341  37.817  1.00  0.00     0.198 A 
ATOM     91  C   UNL A   1      39.024  34.259  37.087  1.00  0.00     0.198 A 
ATOM     92  F   UNL A   1      40.276  34.166  35.098  1.00  0.00    -0.203 F 
ATOM     93  F   UNL A   1      36.943  31.765  38.688  1.00  0.00    -0.200 F 
ATOM     94  C   UNL A   1      38.178  33.656  38.004  1.00  0.00     0.200 A 
ATOM     95  F   UNL A   1      39.420  35.526  37.273  1.00  0.00    -0.200 F 
ATOM     96  F   UNL A   1      37.738  34.346  39.066  1.00  0.00    -0.200 F 
ENDBRANCH  63  86
ENDBRANCH  37  38
ENDBRANCH  30  32
ENDBRANCH  29  30
ENDBRANCH  28  29
ENDBRANCH  27  28
ENDBRANCH  26  27
ENDBRANCH   1  26
TORSDOF 19
ENDMDL
MODEL 2
REMARK VINA RESULT:     -10.8      4.480      6.812
REMARK SMILES CCC(CC)(NC(=O)c1ccc(NC(C)=O)cc1)C(=O)OCCOCCOC(=O)c1ccc(-c2c3nc(c(-c4c(F)c(F)c(F)c(F)c4F)c4ccc([nH]4)c(-c4c(F)c(F)c(F)c(F)c4F)c4nc(c(-c5c(F)c(F)c(F)c(F)c5F)c5ccc2[nH]5)C=C4)C=C3)cc1
REMARK SMILES IDX 23 1 22 2 21 3 19 4 20 5 3 6 2 7 1 8 4 9 5 10 6 11 7 12 8 14
REMARK SMILES IDX 9 15 10 16 18 17 11 18 17 19 12 20 13 21 14 22 15 24 16 25
REMARK SMILES IDX 24 26 25 27 26 28 27 29 28 30 29 31 30 32 31 33 92 34 32 35
REMARK SMILES IDX 91 36 33 37 34 38 35 39 85 40 36 41 90 42 84 43 86 44 37 45
REMARK SMILES IDX 89 46 83 47 82 48 38 50 70 51 50 52 69 53 51 54 54 55 68 56
REMARK SMILES IDX 87 57 52 58 53 59 67 61 88 62 55 63 39 64 40 65 48 66 41 67
REMARK SMILES IDX 42 68 46 69 49 70 43 71 44 72 47 73 45 74 71 75 72 76 80 77
REMARK SMILES IDX 73 78 74 79 78 80 81 81 75 82 76 83 79 84 77 85 56 86 57 87
REMARK SMILES IDX 65 88 58 89 59 90 63 91 66 92 60 93 61 94 64 95 62 96
REMARK H PARENT 6 13 13 23 86 49 54 60
REMARK Flexibility Score: inf
ROOT
ATOM      1  C   UNL A   1      35.282  20.066  24.951  1.00  0.00     0.202 C 
ENDROOT
BRANCH   1   2
ATOM      2  C   UNL A   1      33.976  20.777  25.399  1.00  0.00     0.261 C 
BRANCH   2   3
ATOM      3  O   UNL A   1      34.034  22.146  25.042  1.00  0.00    -0.461 OA
BRANCH   3   4
ATOM      4  C   UNL A   1      34.148  23.105  25.963  1.00  0.00     0.331 C 
ATOM      5  O   UNL A   1      34.903  23.055  26.931  1.00  0.00    -0.249 OA
BRANCH   4   6
ATOM      6  C   UNL A   1      33.273  24.309  25.538  1.00  0.00     0.137 C 
BRANCH   6   7
ATOM      7  C   UNL A   1      34.220  25.567  25.751  1.00  0.00     0.037 C 
ATOM      8  C   UNL A   1      33.540  26.866  26.230  1.00  0.00     0.007 C 
ENDBRANCH   6   7
BRANCH   6   9
ATOM      9  C   UNL A   1      32.005  24.410  26.421  1.00  0.00     0.037 C 
ATOM     10  C   UNL A   1      31.322  23.070  26.726  1.00  0.00     0.007 C 
ENDBRANCH   6   9
BRANCH   6  11
ATOM     11  N   UNL A   1      32.823  24.242  24.057  1.00  0.00    -0.336 N 
ATOM     12  C   UNL A   1      32.788  25.219  23.038  1.00  0.00     0.252 C 
ATOM     13  H   UNL A   1      32.504  23.355  23.774  1.00  0.00     0.165 HD
ATOM     14  O   UNL A   1      33.369  24.951  21.984  1.00  0.00    -0.269 OA
BRANCH  12  15
ATOM     15  C   UNL A   1      31.872  26.436  23.015  1.00  0.00     0.039 A 
ATOM     16  C   UNL A   1      32.406  27.672  22.710  1.00  0.00     0.016 A 
ATOM     17  C   UNL A   1      30.557  26.507  23.445  1.00  0.00     0.016 A 
ATOM     18  C   UNL A   1      31.753  28.907  22.679  1.00  0.00     0.027 A 
ATOM     19  C   UNL A   1      29.844  27.763  23.447  1.00  0.00     0.027 A 
ATOM     20  C   UNL A   1      30.444  28.979  23.063  1.00  0.00     0.041 A 
BRANCH  20  21
ATOM     21  N   UNL A   1      29.751  30.217  23.042  1.00  0.00    -0.326 N 
ATOM     22  C   UNL A   1      28.926  30.668  22.009  1.00  0.00     0.221 C 
ATOM     23  H   UNL A   1      29.862  30.808  23.821  1.00  0.00     0.169 HD
ATOM     24  C   UNL A   1      28.095  31.878  22.355  1.00  0.00     0.114 C 
ATOM     25  O   UNL A   1      28.843  30.194  20.878  1.00  0.00    -0.275 OA
ENDBRANCH  20  21
ENDBRANCH  12  15
ENDBRANCH   6  11
ENDBRANCH   4   6
ENDBRANCH   3   4
ENDBRANCH   2   3
ENDBRANCH   1   2
BRANCH   1  26
ATOM     26  O   UNL A   1      36.584  20.639  25.259  1.00  0.00    -0.374 OA
BRANCH  26  27
ATOM     27  C   UNL A   1      37.779  20.084  24.652  1.00  0.00     0.202 C 
BRANCH  27  28
ATOM     28  C   UNL A   1      38.630  19.057  25.581  1.00  0.00     0.261 C 
BRANCH  28  29
ATOM     29  O   UNL A   1      40.108  19.290  25.748  1.00  0.00    -0.460 OA
BRANCH  29  30
ATOM     30  C   UNL A   1      40.591  19.841  26.919  1.00  0.00     0.338 C 
ATOM     31  O   UNL A   1      40.897  19.180  27.902  1.00  0.00    -0.246 OA
BRANCH  30  32
ATOM     32  C   UNL A   1      40.925  21.335  26.873  1.00  0.00     0.060 A 
ATOM     33  C   UNL A   1      42.032  21.789  27.609  1.00  0.00     0.016 A 
ATOM     34  C   UNL A   1      40.134  22.336  26.294  1.00  0.00     0.016 A 
ATOM     35  C   UNL A   1      42.453  23.145  27.626  1.00  0.00     0.010 A 
ATOM     36  C   UNL A   1      40.504  23.721  26.385  1.00  0.00     0.010 A 
ATOM     37  C   UNL A   1      41.691  24.149  27.020  1.00  0.00    -0.014 A 
BRANCH  37  38
ATOM     38  C   UNL A   1      42.066  25.610  27.179  1.00  0.00     0.031 A 
ATOM     39  C   UNL A   1      43.371  26.118  26.598  1.00  0.00     0.074 A 
ATOM     40  C   UNL A   1      41.262  26.532  27.759  1.00  0.00     0.049 A 
ATOM     41  N   UNL A   1      43.984  27.268  26.770  1.00  0.00    -0.248 NA
ATOM     42  C   UNL A   1      44.062  25.211  25.672  1.00  0.00     0.031 C 
ATOM     43  C   UNL A   1      39.897  26.293  28.220  1.00  0.00     0.029 A 
ATOM     44  N   UNL A   1      41.476  27.868  28.062  1.00  0.00    -0.354 N 
ATOM     45  C   UNL A   1      45.150  27.202  26.013  1.00  0.00     0.074 A 
ATOM     46  C   UNL A   1      45.139  25.915  25.349  1.00  0.00     0.031 C 
ATOM     47  C   UNL A   1      39.412  27.421  28.776  1.00  0.00     0.029 A 
ATOM     48  C   UNL A   1      40.451  28.454  28.777  1.00  0.00     0.049 A 
ATOM     49  H   UNL A   1      42.287  28.356  27.791  1.00  0.00     0.167 HD
ATOM     50  C   UNL A   1      46.152  28.111  25.896  1.00  0.00     0.037 A 
ATOM     51  C   UNL A   1      40.375  29.649  29.413  1.00  0.00     0.037 A 
ATOM     52  C   UNL A   1      46.173  29.404  26.536  1.00  0.00     0.049 A 
ATOM     53  C   UNL A   1      41.562  30.593  29.393  1.00  0.00     0.074 A 
ATOM     54  C   UNL A   1      47.166  30.370  26.500  1.00  0.00     0.029 A 
ATOM     55  N   UNL A   1      45.155  29.912  27.325  1.00  0.00    -0.354 N 
ATOM     56  N   UNL A   1      42.697  30.489  28.744  1.00  0.00    -0.248 NA
ATOM     57  C   UNL A   1      41.468  31.815  30.214  1.00  0.00     0.031 C 
ATOM     58  C   UNL A   1      46.776  31.435  27.319  1.00  0.00     0.029 A 
ATOM     59  C   UNL A   1      45.511  31.162  27.811  1.00  0.00     0.049 A 
ATOM     60  H   UNL A   1      44.304  29.454  27.513  1.00  0.00     0.167 HD
ATOM     61  C   UNL A   1      43.433  31.626  29.063  1.00  0.00     0.074 A 
ATOM     62  C   UNL A   1      42.610  32.428  29.940  1.00  0.00     0.031 C 
ATOM     63  C   UNL A   1      44.685  31.968  28.672  1.00  0.00     0.037 A 
BRANCH  50  64
ATOM     64  C   UNL A   1      47.370  27.713  25.109  1.00  0.00     0.064 A 
ATOM     65  C   UNL A   1      47.442  27.848  23.716  1.00  0.00     0.173 A 
ATOM     66  C   UNL A   1      48.508  27.235  25.781  1.00  0.00     0.173 A 
ATOM     67  F   UNL A   1      46.384  28.296  23.024  1.00  0.00    -0.203 F 
ATOM     68  C   UNL A   1      48.600  27.495  23.022  1.00  0.00     0.198 A 
ATOM     69  C   UNL A   1      49.671  26.911  25.088  1.00  0.00     0.198 A 
ATOM     70  F   UNL A   1      48.499  27.102  27.116  1.00  0.00    -0.203 F 
ATOM     71  F   UNL A   1      48.634  27.594  21.685  1.00  0.00    -0.200 F 
ATOM     72  C   UNL A   1      49.713  27.033  23.709  1.00  0.00     0.200 A 
ATOM     73  F   UNL A   1      50.751  26.485  25.756  1.00  0.00    -0.200 F 
ATOM     74  F   UNL A   1      50.828  26.704  23.040  1.00  0.00    -0.200 F 
ENDBRANCH  50  64
BRANCH  51  75
ATOM     75  C   UNL A   1      39.178  30.009  30.241  1.00  0.00     0.064 A 
ATOM     76  C   UNL A   1      39.044  29.589  31.575  1.00  0.00     0.173 A 
ATOM     77  C   UNL A   1      38.088  30.694  29.676  1.00  0.00     0.173 A 
ATOM     78  F   UNL A   1      40.025  28.886  32.158  1.00  0.00    -0.203 F 
ATOM     79  C   UNL A   1      37.869  29.817  32.296  1.00  0.00     0.198 A 
ATOM     80  C   UNL A   1      36.931  30.957  30.410  1.00  0.00     0.198 A 
ATOM     81  F   UNL A   1      38.137  31.094  28.398  1.00  0.00    -0.203 F 
ATOM     82  F   UNL A   1      37.743  29.337  33.541  1.00  0.00    -0.200 F 
ATOM     83  C   UNL A   1      36.817  30.508  31.715  1.00  0.00     0.200 A 
ATOM     84  F   UNL A   1      35.920  31.629  29.844  1.00  0.00    -0.200 F 
ATOM     85  F   UNL A   1      35.688  30.723  32.405  1.00  0.00    -0.200 F 
ENDBRANCH  51  75
BRANCH  63  86
ATOM     86  C   UNL A   1      45.241  33.281  29.154  1.00  0.00     0.064 A 
ATOM     87  C   UNL A   1      45.016  34.479  28.459  1.00  0.00     0.173 A 
ATOM     88  C   UNL A   1      45.963  33.351  30.357  1.00  0.00     0.173 A 
ATOM     89  F   UNL A   1      44.344  34.469  27.299  1.00  0.00    -0.203 F 
ATOM     90  C   UNL A   1      45.512  35.691  28.937  1.00  0.00     0.198 A 
ATOM     91  C   UNL A   1      46.429  34.569  30.848  1.00  0.00     0.198 A 
ATOM     92  F   UNL A   1      46.202  32.239  31.069  1.00  0.00    -0.203 F 
ATOM     93  F   UNL A   1      45.322  36.815  28.231  1.00  0.00    -0.200 F 
ATOM     94  C   UNL A   1      46.209  35.737  30.134  1.00  0.00     0.200 A 
ATOM     95  F   UNL A   1      47.090  34.612  32.013  1.00  0.00    -0.200 F 
ATOM     96  F   UNL A   1      46.676  36.905  30.597  1.00  0.00    -0.200 F 
ENDBRANCH  63  86
ENDBRANCH  37  38
ENDBRANCH  30  32
ENDBRANCH  29  30
ENDBRANCH  28  29
ENDBRANCH  27  28
ENDBRANCH  26  27
ENDBRANCH   1  26
TORSDOF 19
ENDMDL
MODEL 3
REMARK VINA RESULT:     -10.7      1.015      2.001
REMARK SMILES CCC(CC)(NC(=O)c1ccc(NC(C)=O)cc1)C(=O)OCCOCCOC(=O)c1ccc(-c2c3nc(c(-c4c(F)c(F)c(F)c(F)c4F)c4ccc([nH]4)c(-c4c(F)c(F)c(F)c(F)c4F)c4nc(c(-c5c(F)c(F)c(F)c(F)c5F)c5ccc2[nH]5)C=C4)C=C3)cc1
REMARK SMILES IDX 23 1 22 2 21 3 19 4 20 5 3 6 2 7 1 8 4 9 5 10 6 11 7 12 8 14
REMARK SMILES IDX 9 15 10 16 18 17 11 18 17 19 12 20 13 21 14 22 15 24 16 25
REMARK SMILES IDX 24 26 25 27 26 28 27 29 28 30 29 31 30 32 31 33 92 34 32 35
REMARK SMILES IDX 91 36 33 37 34 38 35 39 85 40 36 41 90 42 84 43 86 44 37 45
REMARK SMILES IDX 89 46 83 47 82 48 38 50 70 51 50 52 69 53 51 54 54 55 68 56
REMARK SMILES IDX 87 57 52 58 53 59 67 61 88 62 55 63 39 64 40 65 48 66 41 67
REMARK SMILES IDX 42 68 46 69 49 70 43 71 44 72 47 73 45 74 71 75 72 76 80 77
REMARK SMILES IDX 73 78 74 79 78 80 81 81 75 82 76 83 79 84 77 85 56 86 57 87
REMARK SMILES IDX 65 88 58 89 59 90 63 91 66 92 60 93 61 94 64 95 62 96
REMARK H PARENT 6 13 13 23 86 49 54 60
REMARK Flexibility Score: inf
ROOT
ATOM      1  C   UNL A   1      38.494  21.235  25.750  1.00  0.00     0.202 C 
ENDROOT
BRANCH   1   2
ATOM      2  C   UNL A   1      37.261  22.173  25.860  1.00  0.00     0.261 C 
BRANCH   2   3
ATOM      3  O   UNL A   1      36.150  21.573  25.221  1.00  0.00    -0.461 OA
BRANCH   3   4
ATOM      4  C   UNL A   1      35.479  22.199  24.250  1.00  0.00     0.331 C 
ATOM      5  O   UNL A   1      35.999  22.901  23.386  1.00  0.00    -0.249 OA
BRANCH   4   6
ATOM      6  C   UNL A   1      33.988  21.796  24.336  1.00  0.00     0.137 C 
BRANCH   6   7
ATOM      7  C   UNL A   1      33.474  22.500  25.664  1.00  0.00     0.037 C 
ATOM      8  C   UNL A   1      33.583  21.677  26.965  1.00  0.00     0.007 C 
ENDBRANCH   6   7
BRANCH   6   9
ATOM      9  C   UNL A   1      33.835  20.257  24.425  1.00  0.00     0.037 C 
ATOM     10  C   UNL A   1      32.530  19.703  23.840  1.00  0.00     0.007 C 
ENDBRANCH   6   9
BRANCH   6  11
ATOM     11  N   UNL A   1      33.153  22.293  23.129  1.00  0.00    -0.336 N 
ATOM     12  C   UNL A   1      33.094  23.543  22.474  1.00  0.00     0.252 C 
ATOM     13  H   UNL A   1      32.553  21.611  22.747  1.00  0.00     0.165 HD
ATOM     14  O   UNL A   1      33.280  23.547  21.255  1.00  0.00    -0.269 OA
BRANCH  12  15
ATOM     15  C   UNL A   1      32.547  24.829  23.080  1.00  0.00     0.039 A 
ATOM     16  C   UNL A   1      33.342  25.552  23.948  1.00  0.00     0.016 A 
ATOM     17  C   UNL A   1      31.247  25.304  23.015  1.00  0.00     0.016 A 
ATOM     18  C   UNL A   1      33.016  26.722  24.638  1.00  0.00     0.027 A 
ATOM     19  C   UNL A   1      30.858  26.500  23.724  1.00  0.00     0.027 A 
ATOM     20  C   UNL A   1      31.747  27.220  24.548  1.00  0.00     0.041 A 
BRANCH  20  21
ATOM     21  N   UNL A   1      31.385  28.407  25.235  1.00  0.00    -0.326 N 
ATOM     22  C   UNL A   1      32.145  29.578  25.290  1.00  0.00     0.221 C 
ATOM     23  H   UNL A   1      30.525  28.405  25.714  1.00  0.00     0.169 HD
ATOM     24  C   UNL A   1      31.412  30.774  25.844  1.00  0.00     0.114 C 
ATOM     25  O   UNL A   1      33.322  29.703  24.960  1.00  0.00    -0.275 OA
ENDBRANCH  20  21
ENDBRANCH  12  15
ENDBRANCH   6  11
ENDBRANCH   4   6
ENDBRANCH   3   4
ENDBRANCH   2   3
ENDBRANCH   1   2
BRANCH   1  26
ATOM     26  O   UNL A   1      39.760  21.595  26.372  1.00  0.00    -0.374 OA
BRANCH  26  27
ATOM     27  C   UNL A   1      40.832  20.620  26.442  1.00  0.00     0.202 C 
BRANCH  27  28
ATOM     28  C   UNL A   1      42.292  21.142  25.957  1.00  0.00     0.261 C 
BRANCH  28  29
ATOM     29  O   UNL A   1      42.365  22.303  25.001  1.00  0.00    -0.460 OA
BRANCH  29  30
ATOM     30  C   UNL A   1      43.385  23.227  25.115  1.00  0.00     0.338 C 
ATOM     31  O   UNL A   1      44.336  23.284  24.347  1.00  0.00    -0.246 OA
BRANCH  30  32
ATOM     32  C   UNL A   1      43.176  24.338  26.150  1.00  0.00     0.060 A 
ATOM     33  C   UNL A   1      42.253  24.114  27.185  1.00  0.00     0.016 A 
ATOM     34  C   UNL A   1      43.700  25.634  26.078  1.00  0.00     0.016 A 
ATOM     35  C   UNL A   1      41.993  25.057  28.213  1.00  0.00     0.010 A 
ATOM     36  C   UNL A   1      43.369  26.625  27.065  1.00  0.00     0.010 A 
ATOM     37  C   UNL A   1      42.539  26.344  28.173  1.00  0.00    -0.014 A 
BRANCH  37  38
ATOM     38  C   UNL A   1      42.130  27.392  29.190  1.00  0.00     0.031 A 
ATOM     39  C   UNL A   1      42.926  27.547  30.471  1.00  0.00     0.074 A 
ATOM     40  C   UNL A   1      41.117  28.270  28.995  1.00  0.00     0.049 A 
ATOM     41  N   UNL A   1      42.655  28.237  31.557  1.00  0.00    -0.248 NA
ATOM     42  C   UNL A   1      44.217  26.850  30.518  1.00  0.00     0.031 C 
ATOM     43  C   UNL A   1      40.345  28.410  27.765  1.00  0.00     0.029 A 
ATOM     44  N   UNL A   1      40.559  29.220  29.838  1.00  0.00    -0.354 N 
ATOM     45  C   UNL A   1      43.719  28.018  32.429  1.00  0.00     0.074 A 
ATOM     46  C   UNL A   1      44.657  27.165  31.729  1.00  0.00     0.031 C 
ATOM     47  C   UNL A   1      39.397  29.353  27.940  1.00  0.00     0.029 A 
ATOM     48  C   UNL A   1      39.443  29.845  29.319  1.00  0.00     0.049 A 
ATOM     49  H   UNL A   1      40.927  29.430  30.726  1.00  0.00     0.167 HD
ATOM     50  C   UNL A   1      43.893  28.461  33.700  1.00  0.00     0.037 A 
ATOM     51  C   UNL A   1      38.528  30.662  29.896  1.00  0.00     0.037 A 
ATOM     52  C   UNL A   1      42.979  29.324  34.408  1.00  0.00     0.049 A 
ATOM     53  C   UNL A   1      38.661  31.030  31.362  1.00  0.00     0.074 A 
ATOM     54  C   UNL A   1      43.061  29.789  35.710  1.00  0.00     0.029 A 
ATOM     55  N   UNL A   1      41.816  29.852  33.871  1.00  0.00    -0.354 N 
ATOM     56  N   UNL A   1      39.625  30.751  32.205  1.00  0.00    -0.248 NA
ATOM     57  C   UNL A   1      37.564  31.811  31.964  1.00  0.00     0.031 C 
ATOM     58  C   UNL A   1      41.918  30.547  35.982  1.00  0.00     0.029 A 
ATOM     59  C   UNL A   1      41.156  30.610  34.829  1.00  0.00     0.049 A 
ATOM     60  H   UNL A   1      41.506  29.713  32.948  1.00  0.00     0.167 HD
ATOM     61  C   UNL A   1      39.261  31.330  33.417  1.00  0.00     0.074 A 
ATOM     62  C   UNL A   1      38.001  32.005  33.200  1.00  0.00     0.031 C 
ATOM     63  C   UNL A   1      39.909  31.294  34.608  1.00  0.00     0.037 A 
BRANCH  50  64
ATOM     64  C   UNL A   1      45.085  27.950  34.462  1.00  0.00     0.064 A 
ATOM     65  C   UNL A   1      46.271  28.687  34.584  1.00  0.00     0.173 A 
ATOM     66  C   UNL A   1      45.010  26.714  35.127  1.00  0.00     0.173 A 
ATOM     67  F   UNL A   1      46.399  29.870  33.966  1.00  0.00    -0.203 F 
ATOM     68  C   UNL A   1      47.347  28.193  35.322  1.00  0.00     0.198 A 
ATOM     69  C   UNL A   1      46.075  26.238  35.887  1.00  0.00     0.198 A 
ATOM     70  F   UNL A   1      43.891  25.976  35.056  1.00  0.00    -0.203 F 
ATOM     71  F   UNL A   1      48.487  28.895  35.393  1.00  0.00    -0.200 F 
ATOM     72  C   UNL A   1      47.246  26.974  35.977  1.00  0.00     0.200 A 
ATOM     73  F   UNL A   1      45.966  25.070  36.534  1.00  0.00    -0.200 F 
ATOM     74  F   UNL A   1      48.277  26.507  36.694  1.00  0.00    -0.200 F 
ENDBRANCH  50  64
BRANCH  51  75
ATOM     75  C   UNL A   1      37.315  31.118  29.142  1.00  0.00     0.064 A 
ATOM     76  C   UNL A   1      37.136  32.460  28.765  1.00  0.00     0.173 A 
ATOM     77  C   UNL A   1      36.255  30.235  28.876  1.00  0.00     0.173 A 
ATOM     78  F   UNL A   1      38.087  33.364  29.036  1.00  0.00    -0.203 F 
ATOM     79  C   UNL A   1      35.945  32.899  28.179  1.00  0.00     0.198 A 
ATOM     80  C   UNL A   1      35.083  30.667  28.254  1.00  0.00     0.198 A 
ATOM     81  F   UNL A   1      36.346  28.948  29.239  1.00  0.00    -0.203 F 
ATOM     82  F   UNL A   1      35.776  34.199  27.901  1.00  0.00    -0.200 F 
ATOM     83  C   UNL A   1      34.923  32.000  27.917  1.00  0.00     0.200 A 
ATOM     84  F   UNL A   1      34.101  29.791  28.000  1.00  0.00    -0.200 F 
ATOM     85  F   UNL A   1      33.780  32.422  27.360  1.00  0.00    -0.200 F 
ENDBRANCH  51  75
BRANCH  63  86
ATOM     86  C   UNL A   1      39.295  32.032  35.768  1.00  0.00     0.064 A 
ATOM     87  C   UNL A   1      39.543  33.394  35.991  1.00  0.00     0.173 A 
ATOM     88  C   UNL A   1      38.403  31.380  36.635  1.00  0.00     0.173 A 
ATOM     89  F   UNL A   1      40.395  34.064  35.202  1.00  0.00    -0.203 F 
ATOM     90  C   UNL A   1      38.941  34.070  37.053  1.00  0.00     0.198 A 
ATOM     91  C   UNL A   1      37.779  32.066  37.675  1.00  0.00     0.198 A 
ATOM     92  F   UNL A   1      38.122  30.079  36.464  1.00  0.00    -0.203 F 
ATOM     93  F   UNL A   1      39.230  35.360  37.273  1.00  0.00    -0.200 F 
ATOM     94  C   UNL A   1      38.054  33.408  37.887  1.00  0.00     0.200 A 
ATOM     95  F   UNL A   1      36.910  31.427  38.471  1.00  0.00    -0.200 F 
ATOM     96  F   UNL A   1      37.468  34.061  38.900  1.00  0.00    -0.200 F 
ENDBRANCH  63  86
ENDBRANCH  37  38
ENDBRANCH  30  32
ENDBRANCH  29  30
ENDBRANCH  28  29
ENDBRANCH  27  28
ENDBRANCH  26  27
ENDBRANCH   1  26
TORSDOF 19
ENDMDL
