MODEL 1
REMARK VINA RESULT:     -11.2      0.000      0.000
REMARK SMILES CNC(=O)NC(=O)CCSc1csc(C(=O)OCCOCCOC(=O)c2ccc(-c3c4nc(c(-c5c(F)c(F)c(F)c(F)c5F)c5ccc([nH]5)c(-c5c(F)c(F)c(F)c(F)c5F)c5nc(c(-c6c(F)c(F)c(F)c(F)c6F)c6ccc3[nH]6)C=C5)C=C4)cc2)c1
REMARK SMILES IDX 19 1 18 2 17 3 15 4 16 5 14 6 11 7 12 8 89 9 13 10 10 11
REMARK SMILES IDX 9 12 8 13 6 14 1 15 2 16 3 17 4 19 5 20 7 22 20 23 21 24
REMARK SMILES IDX 22 25 23 26 24 27 25 28 26 29 27 30 88 31 28 32 87 33 29 34
REMARK SMILES IDX 30 35 31 36 81 37 32 38 86 39 80 40 82 41 33 42 85 43 79 44
REMARK SMILES IDX 78 45 34 47 66 48 46 49 65 50 47 51 50 52 64 53 83 54 48 55
REMARK SMILES IDX 49 56 63 58 84 59 51 60 35 61 36 62 44 63 37 64 38 65 42 66
REMARK SMILES IDX 45 67 39 68 40 69 43 70 41 71 67 72 68 73 76 74 69 75 70 76
REMARK SMILES IDX 74 77 77 78 71 79 72 80 75 81 73 82 52 83 53 84 61 85 54 86
REMARK SMILES IDX 55 87 59 88 62 89 56 90 57 91 60 92 58 93
REMARK H PARENT 2 18 5 21 82 46 50 57
REMARK Flexibility Score: inf
ROOT
ATOM      1  C   UNL A   1      44.882  19.655  24.857  1.00  0.00     0.202 C 
ENDROOT
BRANCH   1   2
ATOM      2  C   UNL A   1      43.732  18.742  25.289  1.00  0.00     0.261 C 
BRANCH   2   3
ATOM      3  O   UNL A   1      42.486  19.454  25.278  1.00  0.00    -0.459 OA
BRANCH   3   4
ATOM      4  C   UNL A   1      41.806  19.501  26.462  1.00  0.00     0.348 C 
ATOM      5  O   UNL A   1      42.202  19.026  27.518  1.00  0.00    -0.245 OA
BRANCH   4   6
ATOM      6  C   UNL A   1      40.597  20.271  26.269  1.00  0.00     0.113 A 
ATOM      7  C   UNL A   1      38.463  20.935  25.596  1.00  0.00     0.019 A 
ATOM      8  C   UNL A   1      39.001  22.127  26.029  1.00  0.00     0.080 A 
ATOM      9  C   UNL A   1      39.382  19.862  25.750  1.00  0.00     0.042 A 
ATOM     10  S   UNL A   1      40.584  21.937  26.649  1.00  0.00    -0.136 S 
BRANCH   7  11
ATOM     11  S   UNL A   1      36.835  20.835  24.939  1.00  0.00    -0.125 SA
BRANCH  11  12
ATOM     12  C   UNL A   1      35.985  22.307  25.564  1.00  0.00     0.085 C 
BRANCH  12  13
ATOM     13  C   UNL A   1      34.471  22.326  25.400  1.00  0.00     0.112 C 
BRANCH  13  14
ATOM     14  C   UNL A   1      33.676  21.457  26.341  1.00  0.00     0.228 C 
ATOM     15  C   UNL A   1      32.220  21.658  23.072  1.00  0.00     0.144 C 
ATOM     16  N   UNL A   1      32.397  20.327  23.594  1.00  0.00    -0.341 N 
ATOM     17  C   UNL A   1      32.453  19.872  24.859  1.00  0.00     0.321 C 
ATOM     18  H   UNL A   1      32.495  19.630  22.905  1.00  0.00     0.165 HD
ATOM     19  O   UNL A   1      32.303  18.667  25.066  1.00  0.00    -0.248 OA
ATOM     20  N   UNL A   1      32.594  20.717  25.917  1.00  0.00    -0.278 N 
ATOM     21  H   UNL A   1      31.787  20.816  26.473  1.00  0.00     0.174 HD
ATOM     22  O   UNL A   1      33.978  21.414  27.538  1.00  0.00    -0.275 OA
ENDBRANCH  13  14
ENDBRANCH  12  13
ENDBRANCH  11  12
ENDBRANCH   7  11
ENDBRANCH   4   6
ENDBRANCH   3   4
ENDBRANCH   2   3
ENDBRANCH   1   2
BRANCH   1  23
ATOM     23  O   UNL A   1      44.516  20.558  23.813  1.00  0.00    -0.374 OA
BRANCH  23  24
ATOM     24  C   UNL A   1      44.876  21.926  24.037  1.00  0.00     0.202 C 
BRANCH  24  25
ATOM     25  C   UNL A   1      44.155  22.544  25.237  1.00  0.00     0.261 C 
BRANCH  25  26
ATOM     26  O   UNL A   1      43.464  23.745  24.843  1.00  0.00    -0.460 OA
BRANCH  26  27
ATOM     27  C   UNL A   1      44.133  24.898  25.077  1.00  0.00     0.338 C 
ATOM     28  O   UNL A   1      45.132  25.310  24.512  1.00  0.00    -0.246 OA
BRANCH  27  29
ATOM     29  C   UNL A   1      43.385  25.707  26.061  1.00  0.00     0.060 A 
ATOM     30  C   UNL A   1      43.825  27.017  26.287  1.00  0.00     0.016 A 
ATOM     31  C   UNL A   1      42.310  25.186  26.786  1.00  0.00     0.016 A 
ATOM     32  C   UNL A   1      43.221  27.795  27.272  1.00  0.00     0.010 A 
ATOM     33  C   UNL A   1      41.707  25.967  27.777  1.00  0.00     0.010 A 
ATOM     34  C   UNL A   1      42.182  27.263  28.046  1.00  0.00    -0.014 A 
BRANCH  34  35
ATOM     35  C   UNL A   1      41.690  28.011  29.228  1.00  0.00     0.031 A 
ATOM     36  C   UNL A   1      42.417  27.866  30.536  1.00  0.00     0.074 A 
ATOM     37  C   UNL A   1      40.626  28.826  29.134  1.00  0.00     0.049 A 
ATOM     38  N   UNL A   1      42.147  28.397  31.702  1.00  0.00    -0.248 NA
ATOM     39  C   UNL A   1      43.610  27.005  30.530  1.00  0.00     0.031 C 
ATOM     40  C   UNL A   1      39.859  29.074  27.916  1.00  0.00     0.029 A 
ATOM     41  N   UNL A   1      40.003  29.591  30.088  1.00  0.00    -0.354 N 
ATOM     42  C   UNL A   1      43.130  27.933  32.564  1.00  0.00     0.074 A 
ATOM     43  C   UNL A   1      43.987  27.053  31.799  1.00  0.00     0.031 C 
ATOM     44  C   UNL A   1      38.861  29.930  28.197  1.00  0.00     0.029 A 
ATOM     45  C   UNL A   1      38.903  30.265  29.620  1.00  0.00     0.049 A 
ATOM     46  H   UNL A   1      40.316  29.652  31.020  1.00  0.00     0.167 HD
ATOM     47  C   UNL A   1      43.310  28.222  33.875  1.00  0.00     0.037 A 
ATOM     48  C   UNL A   1      38.020  31.045  30.273  1.00  0.00     0.037 A 
ATOM     49  C   UNL A   1      42.461  29.100  34.637  1.00  0.00     0.049 A 
ATOM     50  C   UNL A   1      38.204  31.301  31.746  1.00  0.00     0.074 A 
ATOM     51  C   UNL A   1      42.572  29.473  35.965  1.00  0.00     0.029 A 
ATOM     52  N   UNL A   1      41.338  29.741  34.135  1.00  0.00    -0.354 N 
ATOM     53  N   UNL A   1      39.149  30.877  32.549  1.00  0.00    -0.248 NA
ATOM     54  C   UNL A   1      37.197  32.146  32.403  1.00  0.00     0.031 C 
ATOM     55  C   UNL A   1      41.491  30.303  36.279  1.00  0.00     0.029 A 
ATOM     56  C   UNL A   1      40.734  30.486  35.134  1.00  0.00     0.049 A 
ATOM     57  H   UNL A   1      41.018  29.676  33.206  1.00  0.00     0.167 HD
ATOM     58  C   UNL A   1      38.868  31.422  33.795  1.00  0.00     0.074 A 
ATOM     59  C   UNL A   1      37.668  32.219  33.641  1.00  0.00     0.031 C 
ATOM     60  C   UNL A   1      39.543  31.279  34.963  1.00  0.00     0.037 A 
BRANCH  47  61
ATOM     61  C   UNL A   1      44.458  27.560  34.577  1.00  0.00     0.064 A 
ATOM     62  C   UNL A   1      44.339  26.279  35.137  1.00  0.00     0.173 A 
ATOM     63  C   UNL A   1      45.701  28.203  34.666  1.00  0.00     0.173 A 
ATOM     64  F   UNL A   1      43.166  25.629  35.091  1.00  0.00    -0.203 F 
ATOM     65  C   UNL A   1      45.417  25.676  35.780  1.00  0.00     0.198 A 
ATOM     66  C   UNL A   1      46.785  27.586  35.286  1.00  0.00     0.198 A 
ATOM     67  F   UNL A   1      45.868  29.427  34.144  1.00  0.00    -0.203 F 
ATOM     68  F   UNL A   1      45.269  24.470  36.345  1.00  0.00    -0.200 F 
ATOM     69  C   UNL A   1      46.639  26.327  35.848  1.00  0.00     0.200 A 
ATOM     70  F   UNL A   1      47.968  28.213  35.341  1.00  0.00    -0.200 F 
ATOM     71  F   UNL A   1      47.678  25.744  36.463  1.00  0.00    -0.200 F 
ENDBRANCH  47  61
BRANCH  48  72
ATOM     72  C   UNL A   1      36.873  31.637  29.539  1.00  0.00     0.064 A 
ATOM     73  C   UNL A   1      36.824  33.009  29.257  1.00  0.00     0.173 A 
ATOM     74  C   UNL A   1      35.792  30.846  29.121  1.00  0.00     0.173 A 
ATOM     75  F   UNL A   1      37.820  33.811  29.662  1.00  0.00    -0.203 F 
ATOM     76  C   UNL A   1      35.732  33.570  28.597  1.00  0.00     0.198 A 
ATOM     77  C   UNL A   1      34.713  31.402  28.439  1.00  0.00     0.198 A 
ATOM     78  F   UNL A   1      35.789  29.529  29.372  1.00  0.00    -0.203 F 
ATOM     79  F   UNL A   1      35.691  34.891  28.378  1.00  0.00    -0.200 F 
ATOM     80  C   UNL A   1      34.681  32.765  28.184  1.00  0.00     0.200 A 
ATOM     81  F   UNL A   1      33.705  30.620  28.033  1.00  0.00    -0.200 F 
ATOM     82  F   UNL A   1      33.632  33.304  27.547  1.00  0.00    -0.200 F 
ENDBRANCH  48  72
BRANCH  60  83
ATOM     83  C   UNL A   1      39.020  32.020  36.157  1.00  0.00     0.064 A 
ATOM     84  C   UNL A   1      39.374  33.354  36.408  1.00  0.00     0.173 A 
ATOM     85  C   UNL A   1      38.118  31.403  37.037  1.00  0.00     0.173 A 
ATOM     86  F   UNL A   1      40.244  33.984  35.604  1.00  0.00    -0.203 F 
ATOM     87  C   UNL A   1      38.861  34.035  37.509  1.00  0.00     0.198 A 
ATOM     88  C   UNL A   1      37.586  32.095  38.122  1.00  0.00     0.198 A 
ATOM     89  F   UNL A   1      37.742  30.131  36.837  1.00  0.00    -0.203 F 
ATOM     90  F   UNL A   1      39.246  35.295  37.754  1.00  0.00    -0.200 F 
ATOM     91  C   UNL A   1      37.963  33.409  38.360  1.00  0.00     0.200 A 
ATOM     92  F   UNL A   1      36.708  31.493  38.936  1.00  0.00    -0.200 F 
ATOM     93  F   UNL A   1      37.465  34.068  39.415  1.00  0.00    -0.200 F 
ENDBRANCH  60  83
ENDBRANCH  34  35
ENDBRANCH  27  29
ENDBRANCH  26  27
ENDBRANCH  25  26
ENDBRANCH  24  25
ENDBRANCH  23  24
ENDBRANCH   1  23
TORSDOF 18
ENDMDL
MODEL 2
REMARK VINA RESULT:     -11.1      0.734      2.110
REMARK SMILES CNC(=O)NC(=O)CCSc1csc(C(=O)OCCOCCOC(=O)c2ccc(-c3c4nc(c(-c5c(F)c(F)c(F)c(F)c5F)c5ccc([nH]5)c(-c5c(F)c(F)c(F)c(F)c5F)c5nc(c(-c6c(F)c(F)c(F)c(F)c6F)c6ccc3[nH]6)C=C5)C=C4)cc2)c1
REMARK SMILES IDX 19 1 18 2 17 3 15 4 16 5 14 6 11 7 12 8 89 9 13 10 10 11
REMARK SMILES IDX 9 12 8 13 6 14 1 15 2 16 3 17 4 19 5 20 7 22 20 23 21 24
REMARK SMILES IDX 22 25 23 26 24 27 25 28 26 29 27 30 88 31 28 32 87 33 29 34
REMARK SMILES IDX 30 35 31 36 81 37 32 38 86 39 80 40 82 41 33 42 85 43 79 44
REMARK SMILES IDX 78 45 34 47 66 48 46 49 65 50 47 51 50 52 64 53 83 54 48 55
REMARK SMILES IDX 49 56 63 58 84 59 51 60 35 61 36 62 44 63 37 64 38 65 42 66
REMARK SMILES IDX 45 67 39 68 40 69 43 70 41 71 67 72 68 73 76 74 69 75 70 76
REMARK SMILES IDX 74 77 77 78 71 79 72 80 75 81 73 82 52 83 53 84 61 85 54 86
REMARK SMILES IDX 55 87 59 88 62 89 56 90 57 91 60 92 58 93
REMARK H PARENT 2 18 5 21 82 46 50 57
REMARK Flexibility Score: inf
ROOT
ATOM      1  C   UNL A   1      43.897  18.817  25.391  1.00  0.00     0.202 C 
ENDROOT
BRANCH   1   2
ATOM      2  C   UNL A   1      42.607  18.464  26.137  1.00  0.00     0.261 C 
BRANCH   2   3
ATOM      3  O   UNL A   1      41.498  19.213  25.620  1.00  0.00    -0.459 OA
BRANCH   3   4
ATOM      4  C   UNL A   1      40.956  20.145  26.458  1.00  0.00     0.348 C 
ATOM      5  O   UNL A   1      41.490  20.571  27.474  1.00  0.00    -0.245 OA
BRANCH   4   6
ATOM      6  C   UNL A   1      39.700  20.594  25.897  1.00  0.00     0.113 A 
ATOM      7  C   UNL A   1      37.874  21.921  25.305  1.00  0.00     0.019 A 
ATOM      8  C   UNL A   1      37.410  20.659  25.004  1.00  0.00     0.080 A 
ATOM      9  C   UNL A   1      39.203  21.881  25.806  1.00  0.00     0.042 A 
ATOM     10  S   UNL A   1      38.586  19.450  25.290  1.00  0.00    -0.136 S 
BRANCH   7  11
ATOM     11  S   UNL A   1      36.881  23.354  25.077  1.00  0.00    -0.125 SA
BRANCH  11  12
ATOM     12  C   UNL A   1      35.609  23.254  26.362  1.00  0.00     0.085 C 
BRANCH  12  13
ATOM     13  C   UNL A   1      34.196  22.951  25.883  1.00  0.00     0.112 C 
BRANCH  13  14
ATOM     14  C   UNL A   1      33.413  21.937  26.677  1.00  0.00     0.228 C 
ATOM     15  C   UNL A   1      32.182  22.333  23.335  1.00  0.00     0.144 C 
ATOM     16  N   UNL A   1      32.434  20.977  23.748  1.00  0.00    -0.341 N 
ATOM     17  C   UNL A   1      32.438  20.409  24.968  1.00  0.00     0.321 C 
ATOM     18  H   UNL A   1      32.640  20.358  23.010  1.00  0.00     0.165 HD
ATOM     19  O   UNL A   1      32.378  19.181  25.055  1.00  0.00    -0.248 OA
ATOM     20  N   UNL A   1      32.432  21.157  26.106  1.00  0.00    -0.278 N 
ATOM     21  H   UNL A   1      31.582  21.139  26.603  1.00  0.00     0.174 HD
ATOM     22  O   UNL A   1      33.632  21.803  27.886  1.00  0.00    -0.275 OA
ENDBRANCH  13  14
ENDBRANCH  12  13
ENDBRANCH  11  12
ENDBRANCH   7  11
ENDBRANCH   4   6
ENDBRANCH   3   4
ENDBRANCH   2   3
ENDBRANCH   1   2
BRANCH   1  23
ATOM     23  O   UNL A   1      43.730  19.891  24.465  1.00  0.00    -0.374 OA
BRANCH  23  24
ATOM     24  C   UNL A   1      44.622  20.995  24.646  1.00  0.00     0.202 C 
BRANCH  24  25
ATOM     25  C   UNL A   1      44.193  21.932  25.777  1.00  0.00     0.261 C 
BRANCH  25  26
ATOM     26  O   UNL A   1      43.286  22.935  25.281  1.00  0.00    -0.460 OA
BRANCH  26  27
ATOM     27  C   UNL A   1      43.801  24.182  25.183  1.00  0.00     0.338 C 
ATOM     28  O   UNL A   1      44.623  24.589  24.379  1.00  0.00    -0.246 OA
BRANCH  27  29
ATOM     29  C   UNL A   1      43.108  25.075  26.133  1.00  0.00     0.060 A 
ATOM     30  C   UNL A   1      43.584  26.387  26.250  1.00  0.00     0.016 A 
ATOM     31  C   UNL A   1      42.051  24.632  26.932  1.00  0.00     0.016 A 
ATOM     32  C   UNL A   1      43.034  27.247  27.198  1.00  0.00     0.010 A 
ATOM     33  C   UNL A   1      41.501  25.495  27.885  1.00  0.00     0.010 A 
ATOM     34  C   UNL A   1      42.013  26.795  28.045  1.00  0.00    -0.014 A 
BRANCH  34  35
ATOM     35  C   UNL A   1      41.582  27.635  29.188  1.00  0.00     0.031 A 
ATOM     36  C   UNL A   1      42.345  27.554  30.480  1.00  0.00     0.074 A 
ATOM     37  C   UNL A   1      40.540  28.476  29.070  1.00  0.00     0.049 A 
ATOM     38  N   UNL A   1      42.127  28.170  31.615  1.00  0.00    -0.248 NA
ATOM     39  C   UNL A   1      43.510  26.656  30.497  1.00  0.00     0.031 C 
ATOM     40  C   UNL A   1      39.743  28.668  27.861  1.00  0.00     0.029 A 
ATOM     41  N   UNL A   1      39.972  29.323  29.988  1.00  0.00    -0.354 N 
ATOM     42  C   UNL A   1      43.123  27.732  32.478  1.00  0.00     0.074 A 
ATOM     43  C   UNL A   1      43.928  26.776  31.749  1.00  0.00     0.031 C 
ATOM     44  C   UNL A   1      38.782  29.573  28.113  1.00  0.00     0.029 A 
ATOM     45  C   UNL A   1      38.878  29.999  29.508  1.00  0.00     0.049 A 
ATOM     46  H   UNL A   1      40.315  29.435  30.904  1.00  0.00     0.167 HD
ATOM     47  C   UNL A   1      43.352  28.101  33.761  1.00  0.00     0.037 A 
ATOM     48  C   UNL A   1      38.040  30.849  30.132  1.00  0.00     0.037 A 
ATOM     49  C   UNL A   1      42.555  29.055  34.486  1.00  0.00     0.049 A 
ATOM     50  C   UNL A   1      38.278  31.196  31.579  1.00  0.00     0.074 A 
ATOM     51  C   UNL A   1      42.719  29.512  35.782  1.00  0.00     0.029 A 
ATOM     52  N   UNL A   1      41.437  29.697  33.975  1.00  0.00    -0.354 N 
ATOM     53  N   UNL A   1      39.234  30.796  32.381  1.00  0.00    -0.248 NA
ATOM     54  C   UNL A   1      37.318  32.116  32.207  1.00  0.00     0.031 C 
ATOM     55  C   UNL A   1      41.674  30.395  36.071  1.00  0.00     0.029 A 
ATOM     56  C   UNL A   1      40.887  30.527  34.939  1.00  0.00     0.049 A 
ATOM     57  H   UNL A   1      41.086  29.581  33.062  1.00  0.00     0.167 HD
ATOM     58  C   UNL A   1      39.009  31.432  33.595  1.00  0.00     0.074 A 
ATOM     59  C   UNL A   1      37.830  32.255  33.422  1.00  0.00     0.031 C 
ATOM     60  C   UNL A   1      39.715  31.345  34.749  1.00  0.00     0.037 A 
BRANCH  47  61
ATOM     61  C   UNL A   1      44.501  27.451  34.472  1.00  0.00     0.064 A 
ATOM     62  C   UNL A   1      45.799  27.978  34.406  1.00  0.00     0.173 A 
ATOM     63  C   UNL A   1      44.295  26.305  35.254  1.00  0.00     0.173 A 
ATOM     64  F   UNL A   1      46.051  29.064  33.660  1.00  0.00    -0.203 F 
ATOM     65  C   UNL A   1      46.855  27.365  35.078  1.00  0.00     0.198 A 
ATOM     66  C   UNL A   1      45.347  25.711  35.946  1.00  0.00     0.198 A 
ATOM     67  F   UNL A   1      43.071  25.765  35.352  1.00  0.00    -0.203 F 
ATOM     68  F   UNL A   1      48.095  27.859  34.967  1.00  0.00    -0.200 F 
ATOM     69  C   UNL A   1      46.626  26.237  35.852  1.00  0.00     0.200 A 
ATOM     70  F   UNL A   1      45.122  24.627  36.701  1.00  0.00    -0.200 F 
ATOM     71  F   UNL A   1      47.641  25.651  36.502  1.00  0.00    -0.200 F 
ENDBRANCH  47  61
BRANCH  48  72
ATOM     72  C   UNL A   1      36.889  31.429  29.395  1.00  0.00     0.064 A 
ATOM     73  C   UNL A   1      35.774  30.647  29.063  1.00  0.00     0.173 A 
ATOM     74  C   UNL A   1      36.888  32.772  28.991  1.00  0.00     0.173 A 
ATOM     75  F   UNL A   1      35.742  29.350  29.404  1.00  0.00    -0.203 F 
ATOM     76  C   UNL A   1      34.708  31.182  28.344  1.00  0.00     0.198 A 
ATOM     77  C   UNL A   1      35.810  33.314  28.294  1.00  0.00     0.198 A 
ATOM     78  F   UNL A   1      37.933  33.560  29.279  1.00  0.00    -0.203 F 
ATOM     79  F   UNL A   1      33.674  30.402  28.002  1.00  0.00    -0.200 F 
ATOM     80  C   UNL A   1      34.725  32.516  27.965  1.00  0.00     0.200 A 
ATOM     81  F   UNL A   1      35.826  34.605  27.939  1.00  0.00    -0.200 F 
ATOM     82  F   UNL A   1      33.698  33.032  27.275  1.00  0.00    -0.200 F 
ENDBRANCH  48  72
BRANCH  60  83
ATOM     83  C   UNL A   1      39.253  32.180  35.906  1.00  0.00     0.064 A 
ATOM     84  C   UNL A   1      38.347  31.686  36.855  1.00  0.00     0.173 A 
ATOM     85  C   UNL A   1      39.760  33.476  36.093  1.00  0.00     0.173 A 
ATOM     86  F   UNL A   1      37.823  30.459  36.713  1.00  0.00    -0.203 F 
ATOM     87  C   UNL A   1      37.946  32.467  37.936  1.00  0.00     0.198 A 
ATOM     88  C   UNL A   1      39.378  34.244  37.190  1.00  0.00     0.198 A 
ATOM     89  F   UNL A   1      40.635  33.992  35.217  1.00  0.00    -0.203 F 
ATOM     90  F   UNL A   1      37.046  31.991  38.807  1.00  0.00    -0.200 F 
ATOM     91  C   UNL A   1      38.467  33.741  38.107  1.00  0.00     0.200 A 
ATOM     92  F   UNL A   1      39.892  35.470  37.360  1.00  0.00    -0.200 F 
ATOM     93  F   UNL A   1      38.085  34.489  39.152  1.00  0.00    -0.200 F 
ENDBRANCH  60  83
ENDBRANCH  34  35
ENDBRANCH  27  29
ENDBRANCH  26  27
ENDBRANCH  25  26
ENDBRANCH  24  25
ENDBRANCH  23  24
ENDBRANCH   1  23
TORSDOF 18
ENDMDL
MODEL 3
REMARK VINA RESULT:     -10.9      5.041      7.929
REMARK SMILES CNC(=O)NC(=O)CCSc1csc(C(=O)OCCOCCOC(=O)c2ccc(-c3c4nc(c(-c5c(F)c(F)c(F)c(F)c5F)c5ccc([nH]5)c(-c5c(F)c(F)c(F)c(F)c5F)c5nc(c(-c6c(F)c(F)c(F)c(F)c6F)c6ccc3[nH]6)C=C5)C=C4)cc2)c1
REMARK SMILES IDX 19 1 18 2 17 3 15 4 16 5 14 6 11 7 12 8 89 9 13 10 10 11
REMARK SMILES IDX 9 12 8 13 6 14 1 15 2 16 3 17 4 19 5 20 7 22 20 23 21 24
REMARK SMILES IDX 22 25 23 26 24 27 25 28 26 29 27 30 88 31 28 32 87 33 29 34
REMARK SMILES IDX 30 35 31 36 81 37 32 38 86 39 80 40 82 41 33 42 85 43 79 44
REMARK SMILES IDX 78 45 34 47 66 48 46 49 65 50 47 51 50 52 64 53 83 54 48 55
REMARK SMILES IDX 49 56 63 58 84 59 51 60 35 61 36 62 44 63 37 64 38 65 42 66
REMARK SMILES IDX 45 67 39 68 40 69 43 70 41 71 67 72 68 73 76 74 69 75 70 76
REMARK SMILES IDX 74 77 77 78 71 79 72 80 75 81 73 82 52 83 53 84 61 85 54 86
REMARK SMILES IDX 55 87 59 88 62 89 56 90 57 91 60 92 58 93
REMARK H PARENT 2 18 5 21 82 46 50 57
REMARK Flexibility Score: inf
ROOT
ATOM      1  C   UNL A   1      36.060  21.749  24.310  1.00  0.00     0.202 C 
ENDROOT
BRANCH   1   2
ATOM      2  C   UNL A   1      34.974  21.182  25.228  1.00  0.00     0.261 C 
BRANCH   2   3
ATOM      3  O   UNL A   1      34.102  20.304  24.501  1.00  0.00    -0.459 OA
BRANCH   3   4
ATOM      4  C   UNL A   1      32.785  20.326  24.861  1.00  0.00     0.348 C 
ATOM      5  O   UNL A   1      32.186  19.400  25.390  1.00  0.00    -0.245 OA
BRANCH   4   6
ATOM      6  C   UNL A   1      32.255  21.645  24.590  1.00  0.00     0.113 A 
ATOM      7  C   UNL A   1      31.198  23.712  24.827  1.00  0.00     0.019 A 
ATOM      8  C   UNL A   1      31.337  23.626  23.459  1.00  0.00     0.080 A 
ATOM      9  C   UNL A   1      31.743  22.573  25.478  1.00  0.00     0.042 A 
ATOM     10  S   UNL A   1      32.152  22.202  22.977  1.00  0.00    -0.136 S 
BRANCH   7  11
ATOM     11  S   UNL A   1      30.423  25.090  25.597  1.00  0.00    -0.125 SA
BRANCH  11  12
ATOM     12  C   UNL A   1      29.829  26.119  24.230  1.00  0.00     0.085 C 
BRANCH  12  13
ATOM     13  C   UNL A   1      30.516  27.467  24.060  1.00  0.00     0.112 C 
BRANCH  13  14
ATOM     14  C   UNL A   1      30.938  27.841  22.662  1.00  0.00     0.228 C 
ATOM     15  C   UNL A   1      33.710  26.991  24.768  1.00  0.00     0.144 C 
ATOM     16  N   UNL A   1      33.665  26.316  23.497  1.00  0.00    -0.341 N 
ATOM     17  C   UNL A   1      33.113  26.675  22.323  1.00  0.00     0.321 C 
ATOM     18  H   UNL A   1      34.116  25.441  23.484  1.00  0.00     0.165 HD
ATOM     19  O   UNL A   1      33.459  26.088  21.297  1.00  0.00    -0.248 OA
ATOM     20  N   UNL A   1      32.241  27.717  22.232  1.00  0.00    -0.278 N 
ATOM     21  H   UNL A   1      32.602  28.515  21.783  1.00  0.00     0.174 HD
ATOM     22  O   UNL A   1      30.105  28.298  21.871  1.00  0.00    -0.275 OA
ENDBRANCH  13  14
ENDBRANCH  12  13
ENDBRANCH  11  12
ENDBRANCH   7  11
ENDBRANCH   4   6
ENDBRANCH   3   4
ENDBRANCH   2   3
ENDBRANCH   1   2
BRANCH   1  23
ATOM     23  O   UNL A   1      37.257  20.970  24.314  1.00  0.00    -0.374 OA
BRANCH  23  24
ATOM     24  C   UNL A   1      37.958  20.936  25.561  1.00  0.00     0.202 C 
BRANCH  24  25
ATOM     25  C   UNL A   1      39.125  19.945  25.565  1.00  0.00     0.261 C 
BRANCH  25  26
ATOM     26  O   UNL A   1      40.364  20.631  25.828  1.00  0.00    -0.460 OA
BRANCH  26  27
ATOM     27  C   UNL A   1      40.738  20.667  27.128  1.00  0.00     0.338 C 
ATOM     28  O   UNL A   1      40.953  19.722  27.869  1.00  0.00    -0.246 OA
BRANCH  27  29
ATOM     29  C   UNL A   1      41.002  22.064  27.525  1.00  0.00     0.060 A 
ATOM     30  C   UNL A   1      40.324  23.072  26.828  1.00  0.00     0.016 A 
ATOM     31  C   UNL A   1      41.928  22.391  28.519  1.00  0.00     0.016 A 
ATOM     32  C   UNL A   1      40.604  24.412  27.091  1.00  0.00     0.010 A 
ATOM     33  C   UNL A   1      42.211  23.735  28.780  1.00  0.00     0.010 A 
ATOM     34  C   UNL A   1      41.574  24.750  28.044  1.00  0.00    -0.014 A 
BRANCH  34  35
ATOM     35  C   UNL A   1      42.022  26.158  28.166  1.00  0.00     0.031 A 
ATOM     36  C   UNL A   1      43.352  26.553  27.587  1.00  0.00     0.074 A 
ATOM     37  C   UNL A   1      41.245  27.078  28.763  1.00  0.00     0.049 A 
ATOM     38  N   UNL A   1      43.956  27.715  27.607  1.00  0.00    -0.248 NA
ATOM     39  C   UNL A   1      44.104  25.496  26.894  1.00  0.00     0.031 C 
ATOM     40  C   UNL A   1      39.924  26.826  29.333  1.00  0.00     0.029 A 
ATOM     41  N   UNL A   1      41.464  28.413  28.994  1.00  0.00    -0.354 N 
ATOM     42  C   UNL A   1      45.156  27.526  26.935  1.00  0.00     0.074 A 
ATOM     43  C   UNL A   1      45.211  26.133  26.546  1.00  0.00     0.031 C 
ATOM     44  C   UNL A   1      39.450  27.970  29.855  1.00  0.00     0.029 A 
ATOM     45  C   UNL A   1      40.446  29.026  29.682  1.00  0.00     0.049 A 
ATOM     46  H   UNL A   1      42.273  28.888  28.694  1.00  0.00     0.167 HD
ATOM     47  C   UNL A   1      46.121  28.435  26.657  1.00  0.00     0.037 A 
ATOM     48  C   UNL A   1      40.344  30.289  30.137  1.00  0.00     0.037 A 
ATOM     49  C   UNL A   1      46.066  29.821  27.040  1.00  0.00     0.049 A 
ATOM     50  C   UNL A   1      41.460  31.266  29.872  1.00  0.00     0.074 A 
ATOM     51  C   UNL A   1      46.983  30.825  26.787  1.00  0.00     0.029 A 
ATOM     52  N   UNL A   1      45.031  30.397  27.763  1.00  0.00    -0.354 N 
ATOM     53  N   UNL A   1      42.580  31.086  29.216  1.00  0.00    -0.248 NA
ATOM     54  C   UNL A   1      41.294  32.624  30.411  1.00  0.00     0.031 C 
ATOM     55  C   UNL A   1      46.527  31.999  27.396  1.00  0.00     0.029 A 
ATOM     56  C   UNL A   1      45.302  31.738  27.986  1.00  0.00     0.049 A 
ATOM     57  H   UNL A   1      44.225  29.924  28.071  1.00  0.00     0.167 HD
ATOM     58  C   UNL A   1      43.239  32.308  29.240  1.00  0.00     0.074 A 
ATOM     59  C   UNL A   1      42.388  33.228  29.966  1.00  0.00     0.031 C 
ATOM     60  C   UNL A   1      44.441  32.642  28.706  1.00  0.00     0.037 A 
BRANCH  47  61
ATOM     61  C   UNL A   1      47.335  27.950  25.923  1.00  0.00     0.064 A 
ATOM     62  C   UNL A   1      48.499  27.559  26.602  1.00  0.00     0.173 A 
ATOM     63  C   UNL A   1      47.325  27.847  24.524  1.00  0.00     0.173 A 
ATOM     64  F   UNL A   1      48.564  27.653  27.939  1.00  0.00    -0.203 F 
ATOM     65  C   UNL A   1      49.616  27.105  25.905  1.00  0.00     0.198 A 
ATOM     66  C   UNL A   1      48.434  27.367  23.832  1.00  0.00     0.198 A 
ATOM     67  F   UNL A   1      46.235  28.205  23.828  1.00  0.00    -0.203 F 
ATOM     68  F   UNL A   1      50.732  26.778  26.570  1.00  0.00    -0.200 F 
ATOM     69  C   UNL A   1      49.580  27.004  24.522  1.00  0.00     0.200 A 
ATOM     70  F   UNL A   1      48.393  27.260  22.497  1.00  0.00    -0.200 F 
ATOM     71  F   UNL A   1      50.654  26.562  23.853  1.00  0.00    -0.200 F 
ENDBRANCH  47  61
BRANCH  48  72
ATOM     72  C   UNL A   1      39.140  30.705  30.902  1.00  0.00     0.064 A 
ATOM     73  C   UNL A   1      38.036  31.279  30.258  1.00  0.00     0.173 A 
ATOM     74  C   UNL A   1      39.077  30.552  32.295  1.00  0.00     0.173 A 
ATOM     75  F   UNL A   1      38.062  31.472  28.930  1.00  0.00    -0.203 F 
ATOM     76  C   UNL A   1      36.920  31.699  30.979  1.00  0.00     0.198 A 
ATOM     77  C   UNL A   1      37.951  30.947  33.012  1.00  0.00     0.198 A 
ATOM     78  F   UNL A   1      40.110  30.012  32.958  1.00  0.00    -0.203 F 
ATOM     79  F   UNL A   1      35.896  32.285  30.344  1.00  0.00    -0.200 F 
ATOM     80  C   UNL A   1      36.876  31.527  32.354  1.00  0.00     0.200 A 
ATOM     81  F   UNL A   1      37.908  30.771  34.339  1.00  0.00    -0.200 F 
ATOM     82  F   UNL A   1      35.802  31.927  33.048  1.00  0.00    -0.200 F 
ENDBRANCH  48  72
BRANCH  60  83
ATOM     83  C   UNL A   1      44.894  34.063  28.859  1.00  0.00     0.064 A 
ATOM     84  C   UNL A   1      45.712  34.464  29.926  1.00  0.00     0.173 A 
ATOM     85  C   UNL A   1      44.543  35.027  27.902  1.00  0.00     0.173 A 
ATOM     86  F   UNL A   1      46.063  33.582  30.875  1.00  0.00    -0.203 F 
ATOM     87  C   UNL A   1      46.143  35.783  30.041  1.00  0.00     0.198 A 
ATOM     88  C   UNL A   1      44.998  36.340  28.005  1.00  0.00     0.198 A 
ATOM     89  F   UNL A   1      43.768  34.693  26.859  1.00  0.00    -0.203 F 
ATOM     90  F   UNL A   1      46.888  36.154  31.091  1.00  0.00    -0.200 F 
ATOM     91  C   UNL A   1      45.792  36.717  29.077  1.00  0.00     0.200 A 
ATOM     92  F   UNL A   1      44.668  37.237  27.066  1.00  0.00    -0.200 F 
ATOM     93  F   UNL A   1      46.214  37.985  29.185  1.00  0.00    -0.200 F 
ENDBRANCH  60  83
ENDBRANCH  34  35
ENDBRANCH  27  29
ENDBRANCH  26  27
ENDBRANCH  25  26
ENDBRANCH  24  25
ENDBRANCH  23  24
ENDBRANCH   1  23
TORSDOF 18
ENDMDL
