MODEL 1
REMARK VINA RESULT:     -10.4      0.000      0.000
REMARK SMILES O=C(OCCOCCOC(=O)[C@@H](F)Oc1ccc(F)c(Cl)c1)c1ccc(-c2c3nc(c(-c4c(F)c(F)c(F)c(F)c4F)c4ccc([nH]4)c(-c4c(F)c(F)c(F)c(F)c4F)c4nc(c(-c5c(F)c(F)c(F)c(F)c5F)c5ccc2[nH]5)C=C4)C=C3)cc1
REMARK SMILES IDX 6 1 5 2 4 3 3 4 2 5 1 6 23 7 24 8 85 9 25 10 84 11 26 12
REMARK SMILES IDX 27 13 28 14 78 15 29 16 83 17 77 18 79 19 30 20 82 21 76 22
REMARK SMILES IDX 75 23 31 25 63 26 43 27 62 28 44 29 47 30 61 31 80 32 45 33
REMARK SMILES IDX 46 34 60 36 81 37 48 38 32 39 33 40 41 41 34 42 35 43 39 44
REMARK SMILES IDX 42 45 36 46 37 47 40 48 38 49 64 50 65 51 73 52 66 53 67 54
REMARK SMILES IDX 71 55 74 56 68 57 69 58 72 59 70 60 49 61 50 62 58 63 51 64
REMARK SMILES IDX 52 65 56 66 59 67 53 68 54 69 57 70 55 71 7 72 8 73 9 74
REMARK SMILES IDX 10 75 11 76 12 77 13 78 14 79 15 80 16 81 22 82 17 83 20 84
REMARK SMILES IDX 18 85 21 86 19 87
REMARK H PARENT 79 24 47 35
REMARK Flexibility Score: inf
ROOT
ATOM      1  O   UNL A   1      32.949  34.526  28.183  1.00  0.00    -0.374 OA
ENDROOT
BRANCH   1   2
ATOM      2  C   UNL A   1      34.234  33.906  28.057  1.00  0.00     0.202 C 
BRANCH   2   3
ATOM      3  C   UNL A   1      34.378  32.534  28.742  1.00  0.00     0.261 C 
BRANCH   3   4
ATOM      4  O   UNL A   1      34.026  31.440  27.872  1.00  0.00    -0.460 OA
BRANCH   4   5
ATOM      5  C   UNL A   1      34.532  30.185  27.813  1.00  0.00     0.338 C 
ATOM      6  O   UNL A   1      33.769  29.261  27.536  1.00  0.00    -0.246 OA
BRANCH   5   7
ATOM      7  C   UNL A   1      35.952  29.832  28.141  1.00  0.00     0.060 A 
ATOM      8  C   UNL A   1      37.035  30.049  27.295  1.00  0.00     0.016 A 
ATOM      9  C   UNL A   1      36.226  29.332  29.429  1.00  0.00     0.016 A 
ATOM     10  C   UNL A   1      38.334  29.835  27.697  1.00  0.00     0.010 A 
ATOM     11  C   UNL A   1      37.542  29.090  29.848  1.00  0.00     0.010 A 
ATOM     12  C   UNL A   1      38.595  29.360  28.974  1.00  0.00    -0.014 A 
BRANCH  12  13
ATOM     13  C   UNL A   1      40.003  29.032  29.220  1.00  0.00     0.031 A 
ATOM     14  C   UNL A   1      40.733  29.859  30.228  1.00  0.00     0.074 A 
ATOM     15  C   UNL A   1      40.467  27.844  28.789  1.00  0.00     0.049 A 
ATOM     16  N   UNL A   1      41.932  29.705  30.713  1.00  0.00    -0.248 NA
ATOM     17  C   UNL A   1      39.986  30.992  30.807  1.00  0.00     0.031 C 
ATOM     18  C   UNL A   1      39.707  26.892  27.973  1.00  0.00     0.029 A 
ATOM     19  N   UNL A   1      41.650  27.205  29.032  1.00  0.00    -0.354 N 
ATOM     20  C   UNL A   1      42.087  30.720  31.645  1.00  0.00     0.074 A 
ATOM     21  C   UNL A   1      40.865  31.489  31.662  1.00  0.00     0.031 C 
ATOM     22  C   UNL A   1      40.443  25.783  27.794  1.00  0.00     0.029 A 
ATOM     23  C   UNL A   1      41.743  25.977  28.422  1.00  0.00     0.049 A 
ATOM     24  H   UNL A   1      42.366  27.587  29.589  1.00  0.00     0.167 HD
ATOM     25  C   UNL A   1      43.170  30.978  32.410  1.00  0.00     0.037 A 
ATOM     26  C   UNL A   1      42.791  25.138  28.355  1.00  0.00     0.037 A 
ATOM     27  C   UNL A   1      44.373  30.195  32.345  1.00  0.00     0.049 A 
ATOM     28  C   UNL A   1      44.043  25.543  29.090  1.00  0.00     0.074 A 
ATOM     29  C   UNL A   1      45.588  30.416  32.961  1.00  0.00     0.029 A 
ATOM     30  N   UNL A   1      44.499  29.026  31.603  1.00  0.00    -0.354 N 
ATOM     31  N   UNL A   1      44.240  26.568  29.886  1.00  0.00    -0.248 NA
ATOM     32  C   UNL A   1      45.220  24.687  28.911  1.00  0.00     0.031 C 
ATOM     33  C   UNL A   1      46.465  29.406  32.551  1.00  0.00     0.029 A 
ATOM     34  C   UNL A   1      45.779  28.521  31.730  1.00  0.00     0.049 A 
ATOM     35  H   UNL A   1      43.782  28.617  31.066  1.00  0.00     0.167 HD
ATOM     36  C   UNL A   1      45.555  26.476  30.314  1.00  0.00     0.074 A 
ATOM     37  C   UNL A   1      46.096  25.270  29.716  1.00  0.00     0.031 C 
ATOM     38  C   UNL A   1      46.263  27.310  31.116  1.00  0.00     0.037 A 
BRANCH  25  39
ATOM     39  C   UNL A   1      43.114  32.193  33.284  1.00  0.00     0.064 A 
ATOM     40  C   UNL A   1      43.467  33.466  32.815  1.00  0.00     0.173 A 
ATOM     41  C   UNL A   1      42.736  32.071  34.631  1.00  0.00     0.173 A 
ATOM     42  F   UNL A   1      43.875  33.630  31.548  1.00  0.00    -0.203 F 
ATOM     43  C   UNL A   1      43.464  34.569  33.668  1.00  0.00     0.198 A 
ATOM     44  C   UNL A   1      42.709  33.179  35.472  1.00  0.00     0.198 A 
ATOM     45  F   UNL A   1      42.409  30.871  35.134  1.00  0.00    -0.203 F 
ATOM     46  F   UNL A   1      43.860  35.766  33.214  1.00  0.00    -0.200 F 
ATOM     47  C   UNL A   1      43.079  34.425  34.992  1.00  0.00     0.200 A 
ATOM     48  F   UNL A   1      42.340  33.036  36.752  1.00  0.00    -0.200 F 
ATOM     49  F   UNL A   1      43.081  35.486  35.812  1.00  0.00    -0.200 F 
ENDBRANCH  25  39
BRANCH  26  50
ATOM     50  C   UNL A   1      42.744  23.916  27.504  1.00  0.00     0.064 A 
ATOM     51  C   UNL A   1      42.382  22.665  28.022  1.00  0.00     0.173 A 
ATOM     52  C   UNL A   1      43.136  23.964  26.154  1.00  0.00     0.173 A 
ATOM     53  F   UNL A   1      42.017  22.553  29.308  1.00  0.00    -0.203 F 
ATOM     54  C   UNL A   1      42.452  21.510  27.240  1.00  0.00     0.198 A 
ATOM     55  C   UNL A   1      43.168  22.818  25.364  1.00  0.00     0.198 A 
ATOM     56  F   UNL A   1      43.499  25.131  25.599  1.00  0.00    -0.203 F 
ATOM     57  F   UNL A   1      42.172  20.318  27.785  1.00  0.00    -0.200 F 
ATOM     58  C   UNL A   1      42.843  21.589  25.912  1.00  0.00     0.200 A 
ATOM     59  F   UNL A   1      43.533  22.904  24.078  1.00  0.00    -0.200 F 
ATOM     60  F   UNL A   1      42.924  20.478  25.167  1.00  0.00    -0.200 F 
ENDBRANCH  26  50
BRANCH  38  61
ATOM     61  C   UNL A   1      47.680  26.916  31.405  1.00  0.00     0.064 A 
ATOM     62  C   UNL A   1      47.997  26.002  32.420  1.00  0.00     0.173 A 
ATOM     63  C   UNL A   1      48.728  27.440  30.633  1.00  0.00     0.173 A 
ATOM     64  F   UNL A   1      47.028  25.488  33.193  1.00  0.00    -0.203 F 
ATOM     65  C   UNL A   1      49.319  25.656  32.679  1.00  0.00     0.198 A 
ATOM     66  C   UNL A   1      50.045  27.060  30.869  1.00  0.00     0.198 A 
ATOM     67  F   UNL A   1      48.474  28.309  29.644  1.00  0.00    -0.203 F 
ATOM     68  F   UNL A   1      49.606  24.832  33.695  1.00  0.00    -0.200 F 
ATOM     69  C   UNL A   1      50.340  26.179  31.898  1.00  0.00     0.200 A 
ATOM     70  F   UNL A   1      51.029  27.550  30.102  1.00  0.00    -0.200 F 
ATOM     71  F   UNL A   1      51.612  25.839  32.144  1.00  0.00    -0.200 F 
ENDBRANCH  38  61
ENDBRANCH  12  13
ENDBRANCH   5   7
ENDBRANCH   4   5
ENDBRANCH   3   4
ENDBRANCH   2   3
ENDBRANCH   1   2
BRANCH   1  72
ATOM     72  C   UNL A   1      32.942  35.795  28.847  1.00  0.00     0.202 C 
BRANCH  72  73
ATOM     73  C   UNL A   1      33.124  35.594  30.338  1.00  0.00     0.261 C 
BRANCH  73  74
ATOM     74  O   UNL A   1      32.467  36.692  30.976  1.00  0.00    -0.458 OA
BRANCH  74  75
ATOM     75  C   UNL A   1      32.522  36.767  32.335  1.00  0.00     0.381 C 
ATOM     76  O   UNL A   1      31.551  36.814  33.083  1.00  0.00    -0.244 OA
BRANCH  75  77
ATOM     77  C   UNL A   1      33.984  36.846  32.784  1.00  0.00     0.461 C 
ATOM     78  F   UNL A   1      34.429  38.140  32.890  1.00  0.00    -0.189 F 
BRANCH  77  79
ATOM     79  O   UNL A   1      34.289  36.154  34.001  1.00  0.00    -0.451 OA
BRANCH  79  80
ATOM     80  C   UNL A   1      35.200  35.148  33.822  1.00  0.00     0.125 A 
ATOM     81  C   UNL A   1      35.558  34.302  34.876  1.00  0.00     0.050 A 
ATOM     82  C   UNL A   1      35.717  34.934  32.546  1.00  0.00     0.070 A 
ATOM     83  C   UNL A   1      36.551  33.343  34.695  1.00  0.00     0.044 A 
ATOM     84  C   UNL A   1      36.662  33.925  32.352  1.00  0.00     0.080 A 
ATOM     85  C   UNL A   1      37.100  33.158  33.431  1.00  0.00     0.142 A 
ATOM     86  Cl  UNL A   1      37.272  33.630  30.769  1.00  0.00    -0.081 Cl
ATOM     87  F   UNL A   1      38.042  32.218  33.273  1.00  0.00    -0.205 F 
ENDBRANCH  79  80
ENDBRANCH  77  79
ENDBRANCH  75  77
ENDBRANCH  74  75
ENDBRANCH  73  74
ENDBRANCH  72  73
ENDBRANCH   1  72
TORSDOF 16
ENDMDL
MODEL 2
REMARK VINA RESULT:     -10.3      0.708      7.661
REMARK SMILES O=C(OCCOCCOC(=O)[C@@H](F)Oc1ccc(F)c(Cl)c1)c1ccc(-c2c3nc(c(-c4c(F)c(F)c(F)c(F)c4F)c4ccc([nH]4)c(-c4c(F)c(F)c(F)c(F)c4F)c4nc(c(-c5c(F)c(F)c(F)c(F)c5F)c5ccc2[nH]5)C=C4)C=C3)cc1
REMARK SMILES IDX 6 1 5 2 4 3 3 4 2 5 1 6 23 7 24 8 85 9 25 10 84 11 26 12
REMARK SMILES IDX 27 13 28 14 78 15 29 16 83 17 77 18 79 19 30 20 82 21 76 22
REMARK SMILES IDX 75 23 31 25 63 26 43 27 62 28 44 29 47 30 61 31 80 32 45 33
REMARK SMILES IDX 46 34 60 36 81 37 48 38 32 39 33 40 41 41 34 42 35 43 39 44
REMARK SMILES IDX 42 45 36 46 37 47 40 48 38 49 64 50 65 51 73 52 66 53 67 54
REMARK SMILES IDX 71 55 74 56 68 57 69 58 72 59 70 60 49 61 50 62 58 63 51 64
REMARK SMILES IDX 52 65 56 66 59 67 53 68 54 69 57 70 55 71 7 72 8 73 9 74
REMARK SMILES IDX 10 75 11 76 12 77 13 78 14 79 15 80 16 81 22 82 17 83 20 84
REMARK SMILES IDX 18 85 21 86 19 87
REMARK H PARENT 79 24 47 35
REMARK Flexibility Score: inf
ROOT
ATOM      1  O   UNL A   1      32.967  34.648  28.069  1.00  0.00    -0.374 OA
ENDROOT
BRANCH   1   2
ATOM      2  C   UNL A   1      34.213  33.945  28.149  1.00  0.00     0.202 C 
BRANCH   2   3
ATOM      3  C   UNL A   1      34.154  32.571  28.841  1.00  0.00     0.261 C 
BRANCH   3   4
ATOM      4  O   UNL A   1      33.892  31.495  27.918  1.00  0.00    -0.460 OA
BRANCH   4   5
ATOM      5  C   UNL A   1      34.520  30.303  27.778  1.00  0.00     0.338 C 
ATOM      6  O   UNL A   1      33.886  29.363  27.299  1.00  0.00    -0.246 OA
BRANCH   5   7
ATOM      7  C   UNL A   1      35.917  30.027  28.243  1.00  0.00     0.060 A 
ATOM      8  C   UNL A   1      36.257  29.632  29.533  1.00  0.00     0.016 A 
ATOM      9  C   UNL A   1      36.953  30.080  27.289  1.00  0.00     0.016 A 
ATOM     10  C   UNL A   1      37.538  29.258  29.873  1.00  0.00     0.010 A 
ATOM     11  C   UNL A   1      38.266  29.720  27.622  1.00  0.00     0.010 A 
ATOM     12  C   UNL A   1      38.546  29.295  28.921  1.00  0.00    -0.014 A 
BRANCH  12  13
ATOM     13  C   UNL A   1      39.886  29.021  29.450  1.00  0.00     0.031 A 
ATOM     14  C   UNL A   1      40.573  27.786  28.965  1.00  0.00     0.074 A 
ATOM     15  C   UNL A   1      40.545  30.018  30.069  1.00  0.00     0.049 A 
ATOM     16  N   UNL A   1      41.792  27.379  29.179  1.00  0.00    -0.248 NA
ATOM     17  C   UNL A   1      39.791  26.910  28.072  1.00  0.00     0.031 C 
ATOM     18  C   UNL A   1      39.980  31.336  30.375  1.00  0.00     0.029 A 
ATOM     19  N   UNL A   1      41.844  30.108  30.485  1.00  0.00    -0.354 N 
ATOM     20  C   UNL A   1      41.921  26.202  28.458  1.00  0.00     0.074 A 
ATOM     21  C   UNL A   1      40.661  25.952  27.799  1.00  0.00     0.031 C 
ATOM     22  C   UNL A   1      40.934  32.106  30.921  1.00  0.00     0.029 A 
ATOM     23  C   UNL A   1      42.149  31.316  31.063  1.00  0.00     0.049 A 
ATOM     24  H   UNL A   1      42.496  29.377  30.381  1.00  0.00     0.167 HD
ATOM     25  C   UNL A   1      43.008  25.404  28.369  1.00  0.00     0.037 A 
ATOM     26  C   UNL A   1      43.282  31.704  31.675  1.00  0.00     0.037 A 
ATOM     27  C   UNL A   1      44.236  25.683  29.060  1.00  0.00     0.049 A 
ATOM     28  C   UNL A   1      44.421  30.718  31.699  1.00  0.00     0.074 A 
ATOM     29  C   UNL A   1      45.369  24.903  29.167  1.00  0.00     0.029 A 
ATOM     30  N   UNL A   1      44.480  26.855  29.767  1.00  0.00    -0.354 N 
ATOM     31  N   UNL A   1      44.513  29.545  31.116  1.00  0.00    -0.248 NA
ATOM     32  C   UNL A   1      45.607  31.097  32.475  1.00  0.00     0.031 C 
ATOM     33  C   UNL A   1      46.281  25.583  29.983  1.00  0.00     0.029 A 
ATOM     34  C   UNL A   1      45.740  26.813  30.332  1.00  0.00     0.049 A 
ATOM     35  H   UNL A   1      43.847  27.605  29.854  1.00  0.00     0.167 HD
ATOM     36  C   UNL A   1      45.768  29.052  31.438  1.00  0.00     0.074 A 
ATOM     37  C   UNL A   1      46.415  30.073  32.240  1.00  0.00     0.031 C 
ATOM     38  C   UNL A   1      46.337  27.863  31.118  1.00  0.00     0.037 A 
BRANCH  25  39
ATOM     39  C   UNL A   1      42.861  24.137  27.585  1.00  0.00     0.064 A 
ATOM     40  C   UNL A   1      42.442  22.937  28.177  1.00  0.00     0.173 A 
ATOM     41  C   UNL A   1      43.187  24.115  26.219  1.00  0.00     0.173 A 
ATOM     42  F   UNL A   1      42.159  22.894  29.488  1.00  0.00    -0.203 F 
ATOM     43  C   UNL A   1      42.373  21.758  27.436  1.00  0.00     0.198 A 
ATOM     44  C   UNL A   1      43.092  22.943  25.477  1.00  0.00     0.198 A 
ATOM     45  F   UNL A   1      43.613  25.232  25.610  1.00  0.00    -0.203 F 
ATOM     46  F   UNL A   1      42.024  20.611  28.035  1.00  0.00    -0.200 F 
ATOM     47  C   UNL A   1      42.692  21.764  26.087  1.00  0.00     0.200 A 
ATOM     48  F   UNL A   1      43.403  22.950  24.174  1.00  0.00    -0.200 F 
ATOM     49  F   UNL A   1      42.630  20.629  25.376  1.00  0.00    -0.200 F 
ENDBRANCH  25  39
BRANCH  26  50
ATOM     50  C   UNL A   1      43.363  33.011  32.386  1.00  0.00     0.064 A 
ATOM     51  C   UNL A   1      42.923  33.166  33.707  1.00  0.00     0.173 A 
ATOM     52  C   UNL A   1      43.820  34.163  31.721  1.00  0.00     0.173 A 
ATOM     53  F   UNL A   1      42.457  32.106  34.386  1.00  0.00    -0.203 F 
ATOM     54  C   UNL A   1      42.898  34.420  34.320  1.00  0.00     0.198 A 
ATOM     55  C   UNL A   1      43.833  35.407  32.347  1.00  0.00     0.198 A 
ATOM     56  F   UNL A   1      44.251  34.083  30.453  1.00  0.00    -0.203 F 
ATOM     57  F   UNL A   1      42.401  34.548  35.558  1.00  0.00    -0.200 F 
ATOM     58  C   UNL A   1      43.355  35.538  33.639  1.00  0.00     0.200 A 
ATOM     59  F   UNL A   1      44.289  36.481  31.687  1.00  0.00    -0.200 F 
ATOM     60  F   UNL A   1      43.318  36.743  34.224  1.00  0.00    -0.200 F 
ENDBRANCH  26  50
BRANCH  38  61
ATOM     61  C   UNL A   1      47.733  27.635  31.616  1.00  0.00     0.064 A 
ATOM     62  C   UNL A   1      48.853  28.041  30.876  1.00  0.00     0.173 A 
ATOM     63  C   UNL A   1      47.946  27.030  32.863  1.00  0.00     0.173 A 
ATOM     64  F   UNL A   1      48.697  28.610  29.671  1.00  0.00    -0.203 F 
ATOM     65  C   UNL A   1      50.140  27.813  31.350  1.00  0.00     0.198 A 
ATOM     66  C   UNL A   1      49.234  26.840  33.352  1.00  0.00     0.198 A 
ATOM     67  F   UNL A   1      46.907  26.635  33.612  1.00  0.00    -0.203 F 
ATOM     68  F   UNL A   1      51.197  28.148  30.599  1.00  0.00    -0.200 F 
ATOM     69  C   UNL A   1      50.329  27.220  32.590  1.00  0.00     0.200 A 
ATOM     70  F   UNL A   1      49.415  26.286  34.559  1.00  0.00    -0.200 F 
ATOM     71  F   UNL A   1      51.570  27.008  33.049  1.00  0.00    -0.200 F 
ENDBRANCH  38  61
ENDBRANCH  12  13
ENDBRANCH   5   7
ENDBRANCH   4   5
ENDBRANCH   3   4
ENDBRANCH   2   3
ENDBRANCH   1   2
BRANCH   1  72
ATOM     72  C   UNL A   1      32.908  35.877  28.801  1.00  0.00     0.202 C 
BRANCH  72  73
ATOM     73  C   UNL A   1      33.012  35.595  30.285  1.00  0.00     0.261 C 
BRANCH  73  74
ATOM     74  O   UNL A   1      32.358  36.679  30.950  1.00  0.00    -0.458 OA
BRANCH  74  75
ATOM     75  C   UNL A   1      32.486  36.771  32.303  1.00  0.00     0.381 C 
ATOM     76  O   UNL A   1      31.558  36.823  33.101  1.00  0.00    -0.244 OA
BRANCH  75  77
ATOM     77  C   UNL A   1      33.971  36.861  32.670  1.00  0.00     0.461 C 
ATOM     78  F   UNL A   1      34.408  38.159  32.760  1.00  0.00    -0.189 F 
BRANCH  77  79
ATOM     79  O   UNL A   1      34.349  36.164  33.864  1.00  0.00    -0.451 OA
BRANCH  79  80
ATOM     80  C   UNL A   1      35.203  35.122  33.617  1.00  0.00     0.125 A 
ATOM     81  C   UNL A   1      35.527  34.202  34.619  1.00  0.00     0.050 A 
ATOM     82  C   UNL A   1      35.693  34.951  32.324  1.00  0.00     0.070 A 
ATOM     83  C   UNL A   1      36.465  33.203  34.373  1.00  0.00     0.044 A 
ATOM     84  C   UNL A   1      36.581  33.906  32.063  1.00  0.00     0.080 A 
ATOM     85  C   UNL A   1      36.989  33.060  33.093  1.00  0.00     0.142 A 
ATOM     86  Cl  UNL A   1      37.156  33.666  30.458  1.00  0.00    -0.081 Cl
ATOM     87  F   UNL A   1      37.878  32.081  32.871  1.00  0.00    -0.205 F 
ENDBRANCH  79  80
ENDBRANCH  77  79
ENDBRANCH  75  77
ENDBRANCH  74  75
ENDBRANCH  73  74
ENDBRANCH  72  73
ENDBRANCH   1  72
TORSDOF 16
ENDMDL
MODEL 3
REMARK VINA RESULT:     -10.2      5.441     11.898
REMARK SMILES O=C(OCCOCCOC(=O)[C@@H](F)Oc1ccc(F)c(Cl)c1)c1ccc(-c2c3nc(c(-c4c(F)c(F)c(F)c(F)c4F)c4ccc([nH]4)c(-c4c(F)c(F)c(F)c(F)c4F)c4nc(c(-c5c(F)c(F)c(F)c(F)c5F)c5ccc2[nH]5)C=C4)C=C3)cc1
REMARK SMILES IDX 6 1 5 2 4 3 3 4 2 5 1 6 23 7 24 8 85 9 25 10 84 11 26 12
REMARK SMILES IDX 27 13 28 14 78 15 29 16 83 17 77 18 79 19 30 20 82 21 76 22
REMARK SMILES IDX 75 23 31 25 63 26 43 27 62 28 44 29 47 30 61 31 80 32 45 33
REMARK SMILES IDX 46 34 60 36 81 37 48 38 32 39 33 40 41 41 34 42 35 43 39 44
REMARK SMILES IDX 42 45 36 46 37 47 40 48 38 49 64 50 65 51 73 52 66 53 67 54
REMARK SMILES IDX 71 55 74 56 68 57 69 58 72 59 70 60 49 61 50 62 58 63 51 64
REMARK SMILES IDX 52 65 56 66 59 67 53 68 54 69 57 70 55 71 7 72 8 73 9 74
REMARK SMILES IDX 10 75 11 76 12 77 13 78 14 79 15 80 16 81 22 82 17 83 20 84
REMARK SMILES IDX 18 85 21 86 19 87
REMARK H PARENT 79 24 47 35
REMARK Flexibility Score: inf
ROOT
ATOM      1  O   UNL A   1      46.384  21.366  25.665  1.00  0.00    -0.374 OA
ENDROOT
BRANCH   1   2
ATOM      2  C   UNL A   1      46.281  22.791  25.561  1.00  0.00     0.202 C 
BRANCH   2   3
ATOM      3  C   UNL A   1      45.746  23.320  24.217  1.00  0.00     0.261 C 
BRANCH   3   4
ATOM      4  O   UNL A   1      44.677  24.273  24.382  1.00  0.00    -0.460 OA
BRANCH   4   5
ATOM      5  C   UNL A   1      43.460  24.118  24.957  1.00  0.00     0.338 C 
ATOM      6  O   UNL A   1      42.690  23.288  24.475  1.00  0.00    -0.246 OA
BRANCH   5   7
ATOM      7  C   UNL A   1      42.956  24.948  26.097  1.00  0.00     0.060 A 
ATOM      8  C   UNL A   1      42.151  24.471  27.127  1.00  0.00     0.016 A 
ATOM      9  C   UNL A   1      43.399  26.283  26.188  1.00  0.00     0.016 A 
ATOM     10  C   UNL A   1      41.829  25.239  28.223  1.00  0.00     0.010 A 
ATOM     11  C   UNL A   1      43.064  27.085  27.288  1.00  0.00     0.010 A 
ATOM     12  C   UNL A   1      42.285  26.545  28.312  1.00  0.00    -0.014 A 
BRANCH  12  13
ATOM     13  C   UNL A   1      41.745  27.297  29.449  1.00  0.00     0.031 A 
ATOM     14  C   UNL A   1      42.577  27.354  30.690  1.00  0.00     0.074 A 
ATOM     15  C   UNL A   1      40.721  28.141  29.228  1.00  0.00     0.049 A 
ATOM     16  N   UNL A   1      42.390  28.041  31.780  1.00  0.00    -0.248 NA
ATOM     17  C   UNL A   1      43.822  26.563  30.678  1.00  0.00     0.031 C 
ATOM     18  C   UNL A   1      40.006  28.280  27.955  1.00  0.00     0.029 A 
ATOM     19  N   UNL A   1      40.150  29.085  30.035  1.00  0.00    -0.354 N 
ATOM     20  C   UNL A   1      43.484  27.761  32.586  1.00  0.00     0.074 A 
ATOM     21  C   UNL A   1      44.333  26.841  31.866  1.00  0.00     0.031 C 
ATOM     22  C   UNL A   1      39.099  29.264  28.066  1.00  0.00     0.029 A 
ATOM     23  C   UNL A   1      39.125  29.772  29.431  1.00  0.00     0.049 A 
ATOM     24  H   UNL A   1      40.445  29.256  30.959  1.00  0.00     0.167 HD
ATOM     25  C   UNL A   1      43.739  28.237  33.824  1.00  0.00     0.037 A 
ATOM     26  C   UNL A   1      38.281  30.677  29.958  1.00  0.00     0.037 A 
ATOM     27  C   UNL A   1      42.853  29.136  34.509  1.00  0.00     0.049 A 
ATOM     28  C   UNL A   1      38.498  31.061  31.398  1.00  0.00     0.074 A 
ATOM     29  C   UNL A   1      42.915  29.596  35.809  1.00  0.00     0.029 A 
ATOM     30  N   UNL A   1      41.730  29.713  33.927  1.00  0.00    -0.354 N 
ATOM     31  N   UNL A   1      39.468  30.710  32.211  1.00  0.00    -0.248 NA
ATOM     32  C   UNL A   1      37.502  31.952  32.002  1.00  0.00     0.031 C 
ATOM     33  C   UNL A   1      41.800  30.412  36.029  1.00  0.00     0.029 A 
ATOM     34  C   UNL A   1      41.077  30.512  34.848  1.00  0.00     0.049 A 
ATOM     35  H   UNL A   1      41.441  29.574  32.996  1.00  0.00     0.167 HD
ATOM     36  C   UNL A   1      39.209  31.346  33.415  1.00  0.00     0.074 A 
ATOM     37  C   UNL A   1      38.009  32.135  33.212  1.00  0.00     0.031 C 
ATOM     38  C   UNL A   1      39.887  31.281  34.589  1.00  0.00     0.037 A 
BRANCH  25  39
ATOM     39  C   UNL A   1      44.957  27.711  34.519  1.00  0.00     0.064 A 
ATOM     40  C   UNL A   1      46.185  28.387  34.484  1.00  0.00     0.173 A 
ATOM     41  C   UNL A   1      44.901  26.486  35.201  1.00  0.00     0.173 A 
ATOM     42  F   UNL A   1      46.302  29.542  33.810  1.00  0.00    -0.203 F 
ATOM     43  C   UNL A   1      47.318  27.845  35.089  1.00  0.00     0.198 A 
ATOM     44  C   UNL A   1      46.028  25.960  35.826  1.00  0.00     0.198 A 
ATOM     45  F   UNL A   1      43.755  25.790  35.247  1.00  0.00    -0.203 F 
ATOM     46  F   UNL A   1      48.495  28.478  34.994  1.00  0.00    -0.200 F 
ATOM     47  C   UNL A   1      47.236  26.636  35.764  1.00  0.00     0.200 A 
ATOM     48  F   UNL A   1      45.947  24.791  36.475  1.00  0.00    -0.200 F 
ATOM     49  F   UNL A   1      48.328  26.113  36.340  1.00  0.00    -0.200 F 
ENDBRANCH  25  39
BRANCH  26  50
ATOM     50  C   UNL A   1      37.123  31.195  29.175  1.00  0.00     0.064 A 
ATOM     51  C   UNL A   1      37.045  32.531  28.762  1.00  0.00     0.173 A 
ATOM     52  C   UNL A   1      36.024  30.367  28.886  1.00  0.00     0.173 A 
ATOM     53  F   UNL A   1      38.055  33.374  29.027  1.00  0.00    -0.203 F 
ATOM     54  C   UNL A   1      35.904  33.028  28.130  1.00  0.00     0.198 A 
ATOM     55  C   UNL A   1      34.902  30.853  28.220  1.00  0.00     0.198 A 
ATOM     56  F   UNL A   1      36.034  29.078  29.259  1.00  0.00    -0.203 F 
ATOM     57  F   UNL A   1      35.828  34.329  27.815  1.00  0.00    -0.200 F 
ATOM     58  C   UNL A   1      34.835  32.188  27.858  1.00  0.00     0.200 A 
ATOM     59  F   UNL A   1      33.879  30.032  27.948  1.00  0.00    -0.200 F 
ATOM     60  F   UNL A   1      33.734  32.669  27.264  1.00  0.00    -0.200 F 
ENDBRANCH  26  50
BRANCH  38  61
ATOM     61  C   UNL A   1      39.351  32.112  35.716  1.00  0.00     0.064 A 
ATOM     62  C   UNL A   1      38.427  31.595  36.637  1.00  0.00     0.173 A 
ATOM     63  C   UNL A   1      39.792  33.432  35.890  1.00  0.00     0.173 A 
ATOM     64  F   UNL A   1      37.966  30.343  36.500  1.00  0.00    -0.203 F 
ATOM     65  C   UNL A   1      37.935  32.385  37.670  1.00  0.00     0.198 A 
ATOM     66  C   UNL A   1      39.328  34.205  36.948  1.00  0.00     0.198 A 
ATOM     67  F   UNL A   1      40.682  33.967  35.041  1.00  0.00    -0.203 F 
ATOM     68  F   UNL A   1      37.005  31.894  38.499  1.00  0.00    -0.200 F 
ATOM     69  C   UNL A   1      38.392  33.685  37.830  1.00  0.00     0.200 A 
ATOM     70  F   UNL A   1      39.784  35.454  37.114  1.00  0.00    -0.200 F 
ATOM     71  F   UNL A   1      37.922  34.442  38.830  1.00  0.00    -0.200 F 
ENDBRANCH  38  61
ENDBRANCH  12  13
ENDBRANCH   5   7
ENDBRANCH   4   5
ENDBRANCH   3   4
ENDBRANCH   2   3
ENDBRANCH   1   2
BRANCH   1  72
ATOM     72  C   UNL A   1      45.996  20.637  24.495  1.00  0.00     0.202 C 
BRANCH  72  73
ATOM     73  C   UNL A   1      45.195  19.415  24.897  1.00  0.00     0.261 C 
BRANCH  73  74
ATOM     74  O   UNL A   1      43.820  19.742  24.675  1.00  0.00    -0.458 OA
BRANCH  74  75
ATOM     75  C   UNL A   1      43.076  20.135  25.747  1.00  0.00     0.381 C 
ATOM     76  O   UNL A   1      43.364  21.047  26.514  1.00  0.00    -0.244 OA
BRANCH  75  77
ATOM     77  C   UNL A   1      41.854  19.222  25.882  1.00  0.00     0.461 C 
ATOM     78  F   UNL A   1      42.200  17.925  26.167  1.00  0.00    -0.189 F 
BRANCH  77  79
ATOM     79  O   UNL A   1      40.869  19.654  26.829  1.00  0.00    -0.451 OA
BRANCH  79  80
ATOM     80  C   UNL A   1      39.806  20.281  26.236  1.00  0.00     0.125 A 
ATOM     81  C   UNL A   1      38.880  19.565  25.473  1.00  0.00     0.050 A 
ATOM     82  C   UNL A   1      39.623  21.643  26.464  1.00  0.00     0.070 A 
ATOM     83  C   UNL A   1      37.858  20.235  24.805  1.00  0.00     0.044 A 
ATOM     84  C   UNL A   1      38.555  22.301  25.848  1.00  0.00     0.080 A 
ATOM     85  C   UNL A   1      37.701  21.603  24.996  1.00  0.00     0.142 A 
ATOM     86  Cl  UNL A   1      38.301  23.975  26.160  1.00  0.00    -0.081 Cl
ATOM     87  F   UNL A   1      36.700  22.227  24.359  1.00  0.00    -0.205 F 
ENDBRANCH  79  80
ENDBRANCH  77  79
ENDBRANCH  75  77
ENDBRANCH  74  75
ENDBRANCH  73  74
ENDBRANCH  72  73
ENDBRANCH   1  72
TORSDOF 16
ENDMDL
