MODEL 1
REMARK VINA RESULT:     -11.4      0.000      0.000
REMARK SMILES CNC(=O)NC1=[NH+]N=CN[C@@H]1C(=O)OCCOCCOC(=O)c1ccc(-c2c3nc(c(-c4c(F)c(F)c(F)c(F)c4F)c4ccc([nH]4)c(-c4c(F)c(F)c(F)c(F)c4F)c4nc(c(-c5c(F)c(F)c(F)c(F)c5F)c5ccc2[nH]5)C=C4)C=C3)cc1
REMARK SMILES IDX 18 1 17 2 16 3 15 4 14 5 12 6 13 7 11 8 1 9 2 10 3 11 4 13
REMARK SMILES IDX 5 14 6 15 7 17 8 18 10 20 9 21 19 23 20 24 21 25 22 26 23 27
REMARK SMILES IDX 24 28 85 29 25 30 84 31 26 32 27 33 28 34 78 35 29 36 83 37
REMARK SMILES IDX 77 38 79 39 30 40 82 41 76 42 75 43 31 45 63 46 43 47 62 48
REMARK SMILES IDX 44 49 47 50 61 51 80 52 45 53 46 54 60 56 81 57 48 58 32 59
REMARK SMILES IDX 33 60 41 61 34 62 35 63 39 64 42 65 36 66 37 67 40 68 38 69
REMARK SMILES IDX 64 70 65 71 73 72 66 73 67 74 71 75 74 76 68 77 69 78 72 79
REMARK SMILES IDX 70 80 49 81 50 82 58 83 51 84 52 85 56 86 59 87 53 88 54 89
REMARK SMILES IDX 57 90 55 91
REMARK H PARENT 2 12 5 16 7 19 10 22 79 44 47 55
REMARK Flexibility Score: inf
ROOT
ATOM      1  C   UNL A   1      31.898  29.921  25.299  1.00  0.00     0.202 C 
ENDROOT
BRANCH   1   2
ATOM      2  O   UNL A   1      30.691  29.397  24.746  1.00  0.00    -0.374 OA
BRANCH   2   3
ATOM      3  C   UNL A   1      30.781  28.340  23.793  1.00  0.00     0.202 C 
BRANCH   3   4
ATOM      4  C   UNL A   1      29.693  27.265  23.866  1.00  0.00     0.261 C 
BRANCH   4   5
ATOM      5  O   UNL A   1      30.145  26.127  24.615  1.00  0.00    -0.461 OA
BRANCH   5   6
ATOM      6  C   UNL A   1      30.684  25.113  23.872  1.00  0.00     0.341 C 
ATOM      7  O   UNL A   1      30.185  24.680  22.840  1.00  0.00    -0.249 OA
BRANCH   6   8
ATOM      8  C   UNL A   1      32.053  24.673  24.397  1.00  0.00     0.308 C 
ATOM      9  C   UNL A   1      32.717  21.837  26.136  1.00  0.00     0.147 C 
ATOM     10  N   UNL A   1      31.328  22.203  26.310  1.00  0.00    -0.321 N 
ATOM     11  C   UNL A   1      30.833  23.335  26.875  1.00  0.00     0.406 C 
ATOM     12  H   UNL A   1      30.663  21.555  25.981  1.00  0.00     0.167 HD
ATOM     13  O   UNL A   1      29.723  23.323  27.394  1.00  0.00    -0.221 OA
ATOM     14  N   UNL A   1      31.614  24.455  26.876  1.00  0.00    -0.191 N 
ATOM     15  C   UNL A   1      32.234  25.117  25.843  1.00  0.00     0.311 C 
ATOM     16  H   UNL A   1      31.756  24.854  27.764  1.00  0.00     0.317 HD
ATOM     17  N   UNL A   1      32.946  26.145  26.197  1.00  0.00    -0.148 N 
ATOM     18  N   UNL A   1      33.691  26.833  25.221  1.00  0.00    -0.077 NA
ATOM     19  H   UNL A   1      32.965  26.437  27.136  1.00  0.00     0.342 HD
ATOM     20  N   UNL A   1      33.158  25.198  23.591  1.00  0.00    -0.350 N 
ATOM     21  C   UNL A   1      33.788  26.312  24.044  1.00  0.00     0.241 C 
ATOM     22  H   UNL A   1      33.434  24.759  22.753  1.00  0.00     0.163 HD
ENDBRANCH   6   8
ENDBRANCH   5   6
ENDBRANCH   4   5
ENDBRANCH   3   4
ENDBRANCH   2   3
ENDBRANCH   1   2
BRANCH   1  23
ATOM     23  C   UNL A   1      31.766  31.077  26.298  1.00  0.00     0.261 C 
BRANCH  23  24
ATOM     24  O   UNL A   1      32.669  30.940  27.415  1.00  0.00    -0.460 OA
BRANCH  24  25
ATOM     25  C   UNL A   1      33.504  31.997  27.586  1.00  0.00     0.338 C 
ATOM     26  O   UNL A   1      33.199  33.181  27.634  1.00  0.00    -0.246 OA
BRANCH  25  27
ATOM     27  C   UNL A   1      34.868  31.542  27.899  1.00  0.00     0.060 A 
ATOM     28  C   UNL A   1      35.062  30.168  28.090  1.00  0.00     0.016 A 
ATOM     29  C   UNL A   1      35.905  32.445  28.138  1.00  0.00     0.016 A 
ATOM     30  C   UNL A   1      36.281  29.695  28.570  1.00  0.00     0.010 A 
ATOM     31  C   UNL A   1      37.128  31.968  28.630  1.00  0.00     0.010 A 
ATOM     32  C   UNL A   1      37.306  30.597  28.885  1.00  0.00    -0.014 A 
BRANCH  32  33
ATOM     33  C   UNL A   1      38.489  30.101  29.631  1.00  0.00     0.031 A 
ATOM     34  C   UNL A   1      38.709  30.564  31.046  1.00  0.00     0.074 A 
ATOM     35  C   UNL A   1      39.320  29.199  29.081  1.00  0.00     0.049 A 
ATOM     36  N   UNL A   1      39.643  30.224  31.898  1.00  0.00    -0.248 NA
ATOM     37  C   UNL A   1      37.741  31.540  31.573  1.00  0.00     0.031 C 
ATOM     38  C   UNL A   1      39.193  28.647  27.734  1.00  0.00     0.029 A 
ATOM     39  N   UNL A   1      40.433  28.583  29.596  1.00  0.00    -0.354 N 
ATOM     40  C   UNL A   1      39.378  30.941  33.057  1.00  0.00     0.074 A 
ATOM     41  C   UNL A   1      38.213  31.759  32.792  1.00  0.00     0.031 C 
ATOM     42  C   UNL A   1      40.192  27.771  27.527  1.00  0.00     0.029 A 
ATOM     43  C   UNL A   1      41.037  27.717  28.719  1.00  0.00     0.049 A 
ATOM     44  H   UNL A   1      40.766  28.745  30.509  1.00  0.00     0.167 HD
ATOM     45  C   UNL A   1      40.038  30.913  34.239  1.00  0.00     0.037 A 
ATOM     46  C   UNL A   1      42.151  26.973  28.862  1.00  0.00     0.037 A 
ATOM     47  C   UNL A   1      41.193  30.096  34.506  1.00  0.00     0.049 A 
ATOM     48  C   UNL A   1      42.901  27.004  30.168  1.00  0.00     0.074 A 
ATOM     49  C   UNL A   1      41.914  29.977  35.682  1.00  0.00     0.029 A 
ATOM     50  N   UNL A   1      41.800  29.263  33.579  1.00  0.00    -0.354 N 
ATOM     51  N   UNL A   1      42.619  27.654  31.271  1.00  0.00    -0.248 NA
ATOM     52  C   UNL A   1      44.123  26.192  30.249  1.00  0.00     0.031 C 
ATOM     53  C   UNL A   1      42.986  29.108  35.451  1.00  0.00     0.029 A 
ATOM     54  C   UNL A   1      42.904  28.648  34.147  1.00  0.00     0.049 A 
ATOM     55  H   UNL A   1      41.493  29.129  32.653  1.00  0.00     0.167 HD
ATOM     56  C   UNL A   1      43.607  27.307  32.184  1.00  0.00     0.074 A 
ATOM     57  C   UNL A   1      44.490  26.379  31.510  1.00  0.00     0.031 C 
ATOM     58  C   UNL A   1      43.769  27.720  33.465  1.00  0.00     0.037 A 
BRANCH  45  59
ATOM     59  C   UNL A   1      39.540  31.810  35.333  1.00  0.00     0.064 A 
ATOM     60  C   UNL A   1      39.968  33.141  35.448  1.00  0.00     0.173 A 
ATOM     61  C   UNL A   1      38.592  31.343  36.256  1.00  0.00     0.173 A 
ATOM     62  F   UNL A   1      40.883  33.631  34.598  1.00  0.00    -0.203 F 
ATOM     63  C   UNL A   1      39.482  33.964  36.461  1.00  0.00     0.198 A 
ATOM     64  C   UNL A   1      38.090  32.175  37.252  1.00  0.00     0.198 A 
ATOM     65  F   UNL A   1      38.149  30.079  36.188  1.00  0.00    -0.203 F 
ATOM     66  F   UNL A   1      39.935  35.220  36.577  1.00  0.00    -0.200 F 
ATOM     67  C   UNL A   1      38.539  33.483  37.356  1.00  0.00     0.200 A 
ATOM     68  F   UNL A   1      37.171  31.712  38.111  1.00  0.00    -0.200 F 
ATOM     69  F   UNL A   1      38.067  34.279  38.327  1.00  0.00    -0.200 F 
ENDBRANCH  45  59
BRANCH  46  70
ATOM     70  C   UNL A   1      42.632  26.130  27.737  1.00  0.00     0.064 A 
ATOM     71  C   UNL A   1      43.592  26.606  26.834  1.00  0.00     0.173 A 
ATOM     72  C   UNL A   1      42.122  24.840  27.528  1.00  0.00     0.173 A 
ATOM     73  F   UNL A   1      44.090  27.844  26.977  1.00  0.00    -0.203 F 
ATOM     74  C   UNL A   1      44.009  25.833  25.752  1.00  0.00     0.198 A 
ATOM     75  C   UNL A   1      42.559  24.058  26.461  1.00  0.00     0.198 A 
ATOM     76  F   UNL A   1      41.197  24.341  28.361  1.00  0.00    -0.203 F 
ATOM     77  F   UNL A   1      44.891  26.332  24.876  1.00  0.00    -0.200 F 
ATOM     78  C   UNL A   1      43.495  24.558  25.570  1.00  0.00     0.200 A 
ATOM     79  F   UNL A   1      42.066  22.823  26.292  1.00  0.00    -0.200 F 
ATOM     80  F   UNL A   1      43.896  23.816  24.528  1.00  0.00    -0.200 F 
ENDBRANCH  46  70
BRANCH  58  81
ATOM     81  C   UNL A   1      44.924  27.145  34.232  1.00  0.00     0.064 A 
ATOM     82  C   UNL A   1      46.172  27.786  34.274  1.00  0.00     0.173 A 
ATOM     83  C   UNL A   1      44.772  25.955  34.960  1.00  0.00     0.173 A 
ATOM     84  F   UNL A   1      46.372  28.919  33.584  1.00  0.00    -0.203 F 
ATOM     85  C   UNL A   1      47.232  27.241  34.994  1.00  0.00     0.198 A 
ATOM     86  C   UNL A   1      45.825  25.428  35.702  1.00  0.00     0.198 A 
ATOM     87  F   UNL A   1      43.597  25.308  34.959  1.00  0.00    -0.203 F 
ATOM     88  F   UNL A   1      48.429  27.843  34.980  1.00  0.00    -0.200 F 
ATOM     89  C   UNL A   1      47.056  26.067  35.711  1.00  0.00     0.200 A 
ATOM     90  F   UNL A   1      45.650  24.301  36.404  1.00  0.00    -0.200 F 
ATOM     91  F   UNL A   1      48.077  25.545  36.406  1.00  0.00    -0.200 F 
ENDBRANCH  58  81
ENDBRANCH  32  33
ENDBRANCH  25  27
ENDBRANCH  24  25
ENDBRANCH  23  24
ENDBRANCH   1  23
TORSDOF 14
ENDMDL
MODEL 2
REMARK VINA RESULT:     -11.4      0.962      2.057
REMARK SMILES CNC(=O)NC1=[NH+]N=CN[C@@H]1C(=O)OCCOCCOC(=O)c1ccc(-c2c3nc(c(-c4c(F)c(F)c(F)c(F)c4F)c4ccc([nH]4)c(-c4c(F)c(F)c(F)c(F)c4F)c4nc(c(-c5c(F)c(F)c(F)c(F)c5F)c5ccc2[nH]5)C=C4)C=C3)cc1
REMARK SMILES IDX 18 1 17 2 16 3 15 4 14 5 12 6 13 7 11 8 1 9 2 10 3 11 4 13
REMARK SMILES IDX 5 14 6 15 7 17 8 18 10 20 9 21 19 23 20 24 21 25 22 26 23 27
REMARK SMILES IDX 24 28 85 29 25 30 84 31 26 32 27 33 28 34 78 35 29 36 83 37
REMARK SMILES IDX 77 38 79 39 30 40 82 41 76 42 75 43 31 45 63 46 43 47 62 48
REMARK SMILES IDX 44 49 47 50 61 51 80 52 45 53 46 54 60 56 81 57 48 58 32 59
REMARK SMILES IDX 33 60 41 61 34 62 35 63 39 64 42 65 36 66 37 67 40 68 38 69
REMARK SMILES IDX 64 70 65 71 73 72 66 73 67 74 71 75 74 76 68 77 69 78 72 79
REMARK SMILES IDX 70 80 49 81 50 82 58 83 51 84 52 85 56 86 59 87 53 88 54 89
REMARK SMILES IDX 57 90 55 91
REMARK H PARENT 2 12 5 16 7 19 10 22 79 44 47 55
REMARK Flexibility Score: inf
ROOT
ATOM      1  C   UNL A   1      31.405  31.029  25.912  1.00  0.00     0.202 C 
ENDROOT
BRANCH   1   2
ATOM      2  O   UNL A   1      32.427  30.034  25.891  1.00  0.00    -0.374 OA
BRANCH   2   3
ATOM      3  C   UNL A   1      32.670  29.332  24.673  1.00  0.00     0.202 C 
BRANCH   3   4
ATOM      4  C   UNL A   1      31.450  29.065  23.789  1.00  0.00     0.261 C 
BRANCH   4   5
ATOM      5  O   UNL A   1      31.622  27.862  23.025  1.00  0.00    -0.461 OA
BRANCH   5   6
ATOM      6  C   UNL A   1      30.674  26.898  23.228  1.00  0.00     0.341 C 
ATOM      7  O   UNL A   1      29.468  27.091  23.128  1.00  0.00    -0.249 OA
BRANCH   6   8
ATOM      8  C   UNL A   1      31.291  25.515  23.457  1.00  0.00     0.308 C 
ATOM      9  C   UNL A   1      30.838  23.543  26.180  1.00  0.00     0.147 C 
ATOM     10  N   UNL A   1      30.611  24.927  26.536  1.00  0.00    -0.321 N 
ATOM     11  C   UNL A   1      31.501  25.952  26.487  1.00  0.00     0.406 C 
ATOM     12  H   UNL A   1      29.706  25.152  26.850  1.00  0.00     0.167 HD
ATOM     13  O   UNL A   1      31.365  26.915  27.234  1.00  0.00    -0.221 OA
ATOM     14  N   UNL A   1      32.552  25.860  25.620  1.00  0.00    -0.191 N 
ATOM     15  C   UNL A   1      32.578  25.637  24.264  1.00  0.00     0.311 C 
ATOM     16  H   UNL A   1      33.437  25.974  26.035  1.00  0.00     0.317 HD
ATOM     17  N   UNL A   1      33.765  25.568  23.741  1.00  0.00    -0.148 N 
ATOM     18  N   UNL A   1      33.897  25.252  22.375  1.00  0.00    -0.077 NA
ATOM     19  H   UNL A   1      34.563  25.733  24.293  1.00  0.00     0.342 HD
ATOM     20  N   UNL A   1      31.575  24.813  22.204  1.00  0.00    -0.350 N 
ATOM     21  C   UNL A   1      32.847  24.862  21.733  1.00  0.00     0.241 C 
ATOM     22  H   UNL A   1      30.870  24.323  21.720  1.00  0.00     0.163 HD
ENDBRANCH   6   8
ENDBRANCH   5   6
ENDBRANCH   4   5
ENDBRANCH   3   4
ENDBRANCH   2   3
ENDBRANCH   1   2
BRANCH   1  23
ATOM     23  C   UNL A   1      31.667  32.284  26.754  1.00  0.00     0.261 C 
BRANCH  23  24
ATOM     24  O   UNL A   1      32.695  32.073  27.744  1.00  0.00    -0.460 OA
BRANCH  24  25
ATOM     25  C   UNL A   1      33.672  33.015  27.739  1.00  0.00     0.338 C 
ATOM     26  O   UNL A   1      33.532  34.227  27.644  1.00  0.00    -0.246 OA
BRANCH  25  27
ATOM     27  C   UNL A   1      34.980  32.415  28.050  1.00  0.00     0.060 A 
ATOM     28  C   UNL A   1      35.019  31.033  28.271  1.00  0.00     0.016 A 
ATOM     29  C   UNL A   1      36.115  33.200  28.260  1.00  0.00     0.016 A 
ATOM     30  C   UNL A   1      36.182  30.435  28.750  1.00  0.00     0.010 A 
ATOM     31  C   UNL A   1      37.281  32.598  28.751  1.00  0.00     0.010 A 
ATOM     32  C   UNL A   1      37.306  31.222  29.036  1.00  0.00    -0.014 A 
BRANCH  32  33
ATOM     33  C   UNL A   1      38.434  30.611  29.782  1.00  0.00     0.031 A 
ATOM     34  C   UNL A   1      38.633  30.970  31.230  1.00  0.00     0.074 A 
ATOM     35  C   UNL A   1      39.230  29.697  29.199  1.00  0.00     0.049 A 
ATOM     36  N   UNL A   1      39.518  30.523  32.085  1.00  0.00    -0.248 NA
ATOM     37  C   UNL A   1      37.705  31.966  31.791  1.00  0.00     0.031 C 
ATOM     38  C   UNL A   1      39.116  29.241  27.816  1.00  0.00     0.029 A 
ATOM     39  N   UNL A   1      40.288  28.986  29.706  1.00  0.00    -0.354 N 
ATOM     40  C   UNL A   1      39.256  31.180  33.280  1.00  0.00     0.074 A 
ATOM     41  C   UNL A   1      38.149  32.080  33.035  1.00  0.00     0.031 C 
ATOM     42  C   UNL A   1      40.070  28.322  27.583  1.00  0.00     0.029 A 
ATOM     43  C   UNL A   1      40.871  28.143  28.793  1.00  0.00     0.049 A 
ATOM     44  H   UNL A   1      40.600  29.071  30.637  1.00  0.00     0.167 HD
ATOM     45  C   UNL A   1      39.875  31.038  34.476  1.00  0.00     0.037 A 
ATOM     46  C   UNL A   1      41.935  27.327  28.920  1.00  0.00     0.037 A 
ATOM     47  C   UNL A   1      40.971  30.140  34.724  1.00  0.00     0.049 A 
ATOM     48  C   UNL A   1      42.643  27.232  30.247  1.00  0.00     0.074 A 
ATOM     49  C   UNL A   1      41.645  29.905  35.909  1.00  0.00     0.029 A 
ATOM     50  N   UNL A   1      41.560  29.333  33.763  1.00  0.00    -0.354 N 
ATOM     51  N   UNL A   1      42.361  27.827  31.380  1.00  0.00    -0.248 NA
ATOM     52  C   UNL A   1      43.813  26.345  30.310  1.00  0.00     0.031 C 
ATOM     53  C   UNL A   1      42.673  28.991  35.655  1.00  0.00     0.029 A 
ATOM     54  C   UNL A   1      42.608  28.619  34.322  1.00  0.00     0.049 A 
ATOM     55  H   UNL A   1      41.276  29.276  32.821  1.00  0.00     0.167 HD
ATOM     56  C   UNL A   1      43.298  27.366  32.297  1.00  0.00     0.074 A 
ATOM     57  C   UNL A   1      44.148  26.432  31.590  1.00  0.00     0.031 C 
ATOM     58  C   UNL A   1      43.441  27.687  33.606  1.00  0.00     0.037 A 
BRANCH  45  59
ATOM     59  C   UNL A   1      39.392  31.894  35.612  1.00  0.00     0.064 A 
ATOM     60  C   UNL A   1      38.421  31.438  36.516  1.00  0.00     0.173 A 
ATOM     61  C   UNL A   1      39.936  33.170  35.818  1.00  0.00     0.173 A 
ATOM     62  F   UNL A   1      37.861  30.230  36.354  1.00  0.00    -0.203 F 
ATOM     63  C   UNL A   1      37.997  32.240  37.573  1.00  0.00     0.198 A 
ATOM     64  C   UNL A   1      39.528  33.958  36.890  1.00  0.00     0.198 A 
ATOM     65  F   UNL A   1      40.868  33.651  34.982  1.00  0.00    -0.203 F 
ATOM     66  F   UNL A   1      37.039  31.801  38.402  1.00  0.00    -0.200 F 
ATOM     67  C   UNL A   1      38.555  33.494  37.763  1.00  0.00     0.200 A 
ATOM     68  F   UNL A   1      40.075  35.166  37.078  1.00  0.00    -0.200 F 
ATOM     69  F   UNL A   1      38.151  34.262  38.786  1.00  0.00    -0.200 F 
ENDBRANCH  45  59
BRANCH  46  70
ATOM     70  C   UNL A   1      42.404  26.529  27.757  1.00  0.00     0.064 A 
ATOM     71  C   UNL A   1      41.885  25.253  27.498  1.00  0.00     0.173 A 
ATOM     72  C   UNL A   1      43.399  27.017  26.897  1.00  0.00     0.173 A 
ATOM     73  F   UNL A   1      40.952  24.733  28.310  1.00  0.00    -0.203 F 
ATOM     74  C   UNL A   1      42.358  24.486  26.436  1.00  0.00     0.198 A 
ATOM     75  C   UNL A   1      43.852  26.259  25.819  1.00  0.00     0.198 A 
ATOM     76  F   UNL A   1      43.930  28.230  27.105  1.00  0.00    -0.203 F 
ATOM     77  F   UNL A   1      41.881  23.249  26.241  1.00  0.00    -0.200 F 
ATOM     78  C   UNL A   1      43.338  24.992  25.595  1.00  0.00     0.200 A 
ATOM     79  F   UNL A   1      44.794  26.754  25.004  1.00  0.00    -0.200 F 
ATOM     80  F   UNL A   1      43.793  24.252  24.574  1.00  0.00    -0.200 F 
ENDBRANCH  46  70
BRANCH  58  81
ATOM     81  C   UNL A   1      44.535  26.998  34.369  1.00  0.00     0.064 A 
ATOM     82  C   UNL A   1      45.807  27.573  34.511  1.00  0.00     0.173 A 
ATOM     83  C   UNL A   1      44.300  25.762  34.990  1.00  0.00     0.173 A 
ATOM     84  F   UNL A   1      46.087  28.746  33.925  1.00  0.00    -0.203 F 
ATOM     85  C   UNL A   1      46.811  26.922  35.224  1.00  0.00     0.198 A 
ATOM     86  C   UNL A   1      45.296  25.128  35.726  1.00  0.00     0.198 A 
ATOM     87  F   UNL A   1      43.099  25.174  34.890  1.00  0.00    -0.203 F 
ATOM     88  F   UNL A   1      48.033  27.466  35.306  1.00  0.00    -0.200 F 
ATOM     89  C   UNL A   1      46.553  25.704  35.836  1.00  0.00     0.200 A 
ATOM     90  F   UNL A   1      45.042  23.957  36.326  1.00  0.00    -0.200 F 
ATOM     91  F   UNL A   1      47.518  25.080  36.524  1.00  0.00    -0.200 F 
ENDBRANCH  58  81
ENDBRANCH  32  33
ENDBRANCH  25  27
ENDBRANCH  24  25
ENDBRANCH  23  24
ENDBRANCH   1  23
TORSDOF 14
ENDMDL
MODEL 3
REMARK VINA RESULT:     -11.3      1.242      2.097
REMARK SMILES CNC(=O)NC1=[NH+]N=CN[C@@H]1C(=O)OCCOCCOC(=O)c1ccc(-c2c3nc(c(-c4c(F)c(F)c(F)c(F)c4F)c4ccc([nH]4)c(-c4c(F)c(F)c(F)c(F)c4F)c4nc(c(-c5c(F)c(F)c(F)c(F)c5F)c5ccc2[nH]5)C=C4)C=C3)cc1
REMARK SMILES IDX 18 1 17 2 16 3 15 4 14 5 12 6 13 7 11 8 1 9 2 10 3 11 4 13
REMARK SMILES IDX 5 14 6 15 7 17 8 18 10 20 9 21 19 23 20 24 21 25 22 26 23 27
REMARK SMILES IDX 24 28 85 29 25 30 84 31 26 32 27 33 28 34 78 35 29 36 83 37
REMARK SMILES IDX 77 38 79 39 30 40 82 41 76 42 75 43 31 45 63 46 43 47 62 48
REMARK SMILES IDX 44 49 47 50 61 51 80 52 45 53 46 54 60 56 81 57 48 58 32 59
REMARK SMILES IDX 33 60 41 61 34 62 35 63 39 64 42 65 36 66 37 67 40 68 38 69
REMARK SMILES IDX 64 70 65 71 73 72 66 73 67 74 71 75 74 76 68 77 69 78 72 79
REMARK SMILES IDX 70 80 49 81 50 82 58 83 51 84 52 85 56 86 59 87 53 88 54 89
REMARK SMILES IDX 57 90 55 91
REMARK H PARENT 2 12 5 16 7 19 10 22 79 44 47 55
REMARK Flexibility Score: inf
ROOT
ATOM      1  C   UNL A   1      30.837  31.299  25.676  1.00  0.00     0.202 C 
ENDROOT
BRANCH   1   2
ATOM      2  O   UNL A   1      31.556  30.096  25.405  1.00  0.00    -0.374 OA
BRANCH   2   3
ATOM      3  C   UNL A   1      31.085  29.241  24.366  1.00  0.00     0.202 C 
BRANCH   3   4
ATOM      4  C   UNL A   1      32.092  28.888  23.269  1.00  0.00     0.261 C 
BRANCH   4   5
ATOM      5  O   UNL A   1      32.250  27.466  23.155  1.00  0.00    -0.461 OA
BRANCH   5   6
ATOM      6  C   UNL A   1      32.982  26.876  24.149  1.00  0.00     0.341 C 
ATOM      7  O   UNL A   1      33.986  27.370  24.645  1.00  0.00    -0.249 OA
BRANCH   6   8
ATOM      8  C   UNL A   1      32.326  25.594  24.670  1.00  0.00     0.308 C 
ATOM      9  C   UNL A   1      33.238  22.419  23.898  1.00  0.00     0.147 C 
ATOM     10  N   UNL A   1      33.650  23.316  22.840  1.00  0.00    -0.321 N 
ATOM     11  C   UNL A   1      32.858  24.086  22.050  1.00  0.00     0.406 C 
ATOM     12  H   UNL A   1      34.619  23.376  22.674  1.00  0.00     0.167 HD
ATOM     13  O   UNL A   1      33.239  24.406  20.930  1.00  0.00    -0.221 OA
ATOM     14  N   UNL A   1      31.631  24.456  22.523  1.00  0.00    -0.191 N 
ATOM     15  C   UNL A   1      31.274  25.098  23.685  1.00  0.00     0.311 C 
ATOM     16  H   UNL A   1      30.878  24.223  21.934  1.00  0.00     0.317 HD
ATOM     17  N   UNL A   1      29.997  25.266  23.850  1.00  0.00    -0.148 N 
ATOM     18  N   UNL A   1      29.528  25.834  25.050  1.00  0.00    -0.077 NA
ATOM     19  H   UNL A   1      29.364  24.999  23.146  1.00  0.00     0.342 HD
ATOM     20  N   UNL A   1      31.706  25.775  25.984  1.00  0.00    -0.350 N 
ATOM     21  C   UNL A   1      30.367  25.998  26.018  1.00  0.00     0.241 C 
ATOM     22  H   UNL A   1      32.239  25.737  26.811  1.00  0.00     0.163 HD
ENDBRANCH   6   8
ENDBRANCH   5   6
ENDBRANCH   4   5
ENDBRANCH   3   4
ENDBRANCH   2   3
ENDBRANCH   1   2
BRANCH   1  23
ATOM     23  C   UNL A   1      31.466  32.281  26.673  1.00  0.00     0.261 C 
BRANCH  23  24
ATOM     24  O   UNL A   1      32.710  31.789  27.214  1.00  0.00    -0.460 OA
BRANCH  24  25
ATOM     25  C   UNL A   1      33.545  32.762  27.657  1.00  0.00     0.338 C 
ATOM     26  O   UNL A   1      33.256  33.920  27.925  1.00  0.00    -0.246 OA
BRANCH  25  27
ATOM     27  C   UNL A   1      34.875  32.211  27.966  1.00  0.00     0.060 A 
ATOM     28  C   UNL A   1      34.962  30.834  28.206  1.00  0.00     0.016 A 
ATOM     29  C   UNL A   1      35.984  33.037  28.158  1.00  0.00     0.016 A 
ATOM     30  C   UNL A   1      36.149  30.283  28.685  1.00  0.00     0.010 A 
ATOM     31  C   UNL A   1      37.174  32.482  28.649  1.00  0.00     0.010 A 
ATOM     32  C   UNL A   1      37.247  31.111  28.952  1.00  0.00    -0.014 A 
BRANCH  32  33
ATOM     33  C   UNL A   1      38.400  30.549  29.698  1.00  0.00     0.031 A 
ATOM     34  C   UNL A   1      38.602  30.942  31.136  1.00  0.00     0.074 A 
ATOM     35  C   UNL A   1      39.217  29.649  29.124  1.00  0.00     0.049 A 
ATOM     36  N   UNL A   1      39.508  30.538  31.990  1.00  0.00    -0.248 NA
ATOM     37  C   UNL A   1      37.650  31.920  31.688  1.00  0.00     0.031 C 
ATOM     38  C   UNL A   1      39.104  29.162  27.752  1.00  0.00     0.029 A 
ATOM     39  N   UNL A   1      40.302  28.979  29.634  1.00  0.00    -0.354 N 
ATOM     40  C   UNL A   1      39.238  31.210  33.175  1.00  0.00     0.074 A 
ATOM     41  C   UNL A   1      38.102  32.071  32.925  1.00  0.00     0.031 C 
ATOM     42  C   UNL A   1      40.083  28.268  27.526  1.00  0.00     0.029 A 
ATOM     43  C   UNL A   1      40.901  28.136  28.731  1.00  0.00     0.049 A 
ATOM     44  H   UNL A   1      40.620  29.091  30.559  1.00  0.00     0.167 HD
ATOM     45  C   UNL A   1      39.872  31.110  34.368  1.00  0.00     0.037 A 
ATOM     46  C   UNL A   1      41.990  27.356  28.862  1.00  0.00     0.037 A 
ATOM     47  C   UNL A   1      40.998  30.250  34.621  1.00  0.00     0.049 A 
ATOM     48  C   UNL A   1      42.713  27.308  30.183  1.00  0.00     0.074 A 
ATOM     49  C   UNL A   1      41.690  30.059  35.804  1.00  0.00     0.029 A 
ATOM     50  N   UNL A   1      41.602  29.443  33.670  1.00  0.00    -0.354 N 
ATOM     51  N   UNL A   1      42.425  27.916  31.308  1.00  0.00    -0.248 NA
ATOM     52  C   UNL A   1      43.911  26.458  30.252  1.00  0.00     0.031 C 
ATOM     53  C   UNL A   1      42.743  29.171  35.557  1.00  0.00     0.029 A 
ATOM     54  C   UNL A   1      42.676  28.772  34.232  1.00  0.00     0.049 A 
ATOM     55  H   UNL A   1      41.311  29.359  32.732  1.00  0.00     0.167 HD
ATOM     56  C   UNL A   1      43.384  27.501  32.224  1.00  0.00     0.074 A 
ATOM     57  C   UNL A   1      44.255  26.579  31.527  1.00  0.00     0.031 C 
ATOM     58  C   UNL A   1      43.530  27.851  33.526  1.00  0.00     0.037 A 
BRANCH  45  59
ATOM     59  C   UNL A   1      39.375  31.972  35.492  1.00  0.00     0.064 A 
ATOM     60  C   UNL A   1      38.453  31.494  36.434  1.00  0.00     0.173 A 
ATOM     61  C   UNL A   1      39.857  33.280  35.648  1.00  0.00     0.173 A 
ATOM     62  F   UNL A   1      37.952  30.255  36.321  1.00  0.00    -0.203 F 
ATOM     63  C   UNL A   1      38.014  32.303  37.480  1.00  0.00     0.198 A 
ATOM     64  C   UNL A   1      39.436  34.077  36.708  1.00  0.00     0.198 A 
ATOM     65  F   UNL A   1      40.742  33.783  34.774  1.00  0.00    -0.203 F 
ATOM     66  F   UNL A   1      37.102  31.841  38.346  1.00  0.00    -0.200 F 
ATOM     67  C   UNL A   1      38.511  33.590  37.620  1.00  0.00     0.200 A 
ATOM     68  F   UNL A   1      39.924  35.317  36.848  1.00  0.00    -0.200 F 
ATOM     69  F   UNL A   1      38.093  34.365  38.631  1.00  0.00    -0.200 F 
ENDBRANCH  45  59
BRANCH  46  70
ATOM     70  C   UNL A   1      42.472  26.550  27.710  1.00  0.00     0.064 A 
ATOM     71  C   UNL A   1      43.445  27.049  26.834  1.00  0.00     0.173 A 
ATOM     72  C   UNL A   1      41.949  25.275  27.448  1.00  0.00     0.173 A 
ATOM     73  F   UNL A   1      43.954  28.276  27.027  1.00  0.00    -0.203 F 
ATOM     74  C   UNL A   1      43.863  26.314  25.727  1.00  0.00     0.198 A 
ATOM     75  C   UNL A   1      42.388  24.529  26.356  1.00  0.00     0.198 A 
ATOM     76  F   UNL A   1      41.013  24.755  28.254  1.00  0.00    -0.203 F 
ATOM     77  F   UNL A   1      44.757  26.835  24.877  1.00  0.00    -0.200 F 
ATOM     78  C   UNL A   1      43.337  25.052  25.492  1.00  0.00     0.200 A 
ATOM     79  F   UNL A   1      41.882  23.307  26.137  1.00  0.00    -0.200 F 
ATOM     80  F   UNL A   1      43.738  24.345  24.427  1.00  0.00    -0.200 F 
ENDBRANCH  46  70
BRANCH  58  81
ATOM     81  C   UNL A   1      44.652  27.210  34.289  1.00  0.00     0.064 A 
ATOM     82  C   UNL A   1      45.914  27.816  34.391  1.00  0.00     0.173 A 
ATOM     83  C   UNL A   1      44.454  25.990  34.954  1.00  0.00     0.173 A 
ATOM     84  F   UNL A   1      46.157  28.976  33.762  1.00  0.00    -0.203 F 
ATOM     85  C   UNL A   1      46.943  27.210  35.106  1.00  0.00     0.198 A 
ATOM     86  C   UNL A   1      45.476  25.401  35.692  1.00  0.00     0.198 A 
ATOM     87  F   UNL A   1      43.264  25.374  34.895  1.00  0.00    -0.203 F 
ATOM     88  F   UNL A   1      48.154  27.782  35.149  1.00  0.00    -0.200 F 
ATOM     89  C   UNL A   1      46.722  26.007  35.761  1.00  0.00     0.200 A 
ATOM     90  F   UNL A   1      45.258  24.246  36.334  1.00  0.00    -0.200 F 
ATOM     91  F   UNL A   1      47.713  25.426  36.451  1.00  0.00    -0.200 F 
ENDBRANCH  58  81
ENDBRANCH  32  33
ENDBRANCH  25  27
ENDBRANCH  24  25
ENDBRANCH  23  24
ENDBRANCH   1  23
TORSDOF 14
ENDMDL
