MODEL 1
REMARK VINA RESULT:     -12.5      0.000      0.000
REMARK SMILES COc1cc([C@H]2CC(c3ccc(S(C)(=O)=O)cc3)=NN2c2ccc(C(=O)OCCOCCOC(=O)c3ccc(-c4c5nc(c(-c6c(F)c(F)c(F)c(F)c6F)c6ccc([nH]6)c(-c6c(F)c(F)c(F)c(F)c6F)c6nc(c(-c7c(F)c(F)c(F)c(F)c7F)c7ccc4[nH]7)C=C6)C=C5)cc3)cc2)cc(OC)c1OC
REMARK SMILES IDX 29 1 28 2 27 3 25 4 26 5 24 6 21 7 22 8 100 9 23 10 99 11
REMARK SMILES IDX 20 12 6 13 7 14 8 15 19 16 5 17 3 18 4 19 105 20 102 21
REMARK SMILES IDX 101 22 2 23 1 24 106 25 107 26 103 27 104 28 9 29 10 30
REMARK SMILES IDX 18 31 11 32 17 33 12 34 13 35 14 36 15 37 16 38 30 39 31 40
REMARK SMILES IDX 32 41 33 42 34 43 35 44 36 45 37 46 98 47 38 48 97 49 39 50
REMARK SMILES IDX 40 51 41 52 91 53 42 54 96 55 90 56 92 57 43 58 95 59 89 60
REMARK SMILES IDX 88 61 44 63 76 64 56 65 75 66 57 67 60 68 74 69 93 70 58 71
REMARK SMILES IDX 59 72 73 74 94 75 61 76 45 77 46 78 54 79 47 80 48 81 52 82
REMARK SMILES IDX 55 83 49 84 50 85 53 86 51 87 77 88 78 89 86 90 79 91 80 92
REMARK SMILES IDX 84 93 87 94 81 95 82 96 85 97 83 98 62 99 63 100 71 101
REMARK SMILES IDX 64 102 65 103 69 104 72 105 66 106 67 107 70 108 68 109
REMARK H PARENT 92 62 60 73
REMARK Flexibility Score: inf
ROOT
ATOM      1  C   UNL A   1      41.508  21.484  26.323  1.00  0.00     0.202 C 
ENDROOT
BRANCH   1   2
ATOM      2  C   UNL A   1      40.081  21.558  26.875  1.00  0.00     0.261 C 
BRANCH   2   3
ATOM      3  O   UNL A   1      39.162  22.025  25.873  1.00  0.00    -0.460 OA
BRANCH   3   4
ATOM      4  C   UNL A   1      38.716  23.292  26.052  1.00  0.00     0.338 C 
ATOM      5  O   UNL A   1      39.364  24.243  26.465  1.00  0.00    -0.246 OA
BRANCH   4   6
ATOM      6  C   UNL A   1      37.340  23.428  25.528  1.00  0.00     0.060 A 
ATOM      7  C   UNL A   1      34.799  23.749  24.358  1.00  0.00     0.060 A 
ATOM      8  C   UNL A   1      35.809  23.037  23.697  1.00  0.00     0.029 A 
ATOM      9  C   UNL A   1      35.063  24.225  25.652  1.00  0.00     0.029 A 
ATOM     10  C   UNL A   1      37.076  22.899  24.262  1.00  0.00     0.018 A 
ATOM     11  C   UNL A   1      36.320  24.057  26.246  1.00  0.00     0.018 A 
BRANCH   7  12
ATOM     12  N   UNL A   1      33.606  24.039  23.707  1.00  0.00    -0.257 N 
ATOM     13  C   UNL A   1      32.763  23.025  23.056  1.00  0.00     0.144 C 
ATOM     14  C   UNL A   1      31.416  23.753  22.916  1.00  0.00     0.091 C 
ATOM     15  C   UNL A   1      31.809  25.132  23.375  1.00  0.00     0.071 C 
ATOM     16  N   UNL A   1      33.009  25.254  23.848  1.00  0.00    -0.176 NA
BRANCH  13  17
ATOM     17  C   UNL A   1      32.699  21.719  23.841  1.00  0.00    -0.015 A 
ATOM     18  C   UNL A   1      32.604  19.274  23.870  1.00  0.00     0.164 A 
ATOM     19  C   UNL A   1      32.517  20.498  23.179  1.00  0.00     0.056 A 
ATOM     20  C   UNL A   1      32.886  19.231  25.249  1.00  0.00     0.203 A 
ATOM     21  C   UNL A   1      33.043  20.459  25.924  1.00  0.00     0.164 A 
ATOM     22  C   UNL A   1      32.949  21.674  25.219  1.00  0.00     0.056 A 
BRANCH  18  23
ATOM     23  O   UNL A   1      32.536  18.132  23.111  1.00  0.00    -0.493 OA
ATOM     24  C   UNL A   1      32.162  18.415  21.762  1.00  0.00     0.278 C 
ENDBRANCH  18  23
BRANCH  20  25
ATOM     25  O   UNL A   1      33.045  18.100  26.001  1.00  0.00    -0.490 OA
ATOM     26  C   UNL A   1      32.401  16.887  25.656  1.00  0.00     0.278 C 
ENDBRANCH  20  25
BRANCH  21  27
ATOM     27  O   UNL A   1      33.297  20.678  27.257  1.00  0.00    -0.493 OA
ATOM     28  C   UNL A   1      33.303  22.007  27.756  1.00  0.00     0.278 C 
ENDBRANCH  21  27
ENDBRANCH  13  17
BRANCH  15  29
ATOM     29  C   UNL A   1      30.884  26.269  23.246  1.00  0.00    -0.002 A 
ATOM     30  C   UNL A   1      31.320  27.408  22.557  1.00  0.00     0.011 A 
ATOM     31  C   UNL A   1      29.592  26.210  23.775  1.00  0.00     0.011 A 
ATOM     32  C   UNL A   1      30.449  28.484  22.365  1.00  0.00     0.021 A 
ATOM     33  C   UNL A   1      28.727  27.297  23.607  1.00  0.00     0.021 A 
ATOM     34  C   UNL A   1      29.157  28.425  22.897  1.00  0.00     0.067 A 
BRANCH  34  35
ATOM     35  S   UNL A   1      28.034  29.774  22.604  1.00  0.00     0.175 S 
ATOM     36  C   UNL A   1      28.757  31.154  23.452  1.00  0.00     0.163 C 
ATOM     37  O   UNL A   1      28.073  30.043  21.179  1.00  0.00    -0.224 OA
ATOM     38  O   UNL A   1      26.786  29.457  23.270  1.00  0.00    -0.224 OA
ENDBRANCH  34  35
ENDBRANCH  15  29
ENDBRANCH   7  12
ENDBRANCH   4   6
ENDBRANCH   3   4
ENDBRANCH   2   3
ENDBRANCH   1   2
BRANCH   1  39
ATOM     39  O   UNL A   1      42.241  20.306  26.657  1.00  0.00    -0.374 OA
BRANCH  39  40
ATOM     40  C   UNL A   1      42.197  19.235  25.712  1.00  0.00     0.202 C 
BRANCH  40  41
ATOM     41  C   UNL A   1      43.426  18.318  25.696  1.00  0.00     0.261 C 
BRANCH  41  42
ATOM     42  O   UNL A   1      44.640  19.068  25.504  1.00  0.00    -0.460 OA
BRANCH  42  43
ATOM     43  C   UNL A   1      44.664  19.843  24.396  1.00  0.00     0.338 C 
ATOM     44  O   UNL A   1      44.311  19.536  23.265  1.00  0.00    -0.246 OA
BRANCH  43  45
ATOM     45  C   UNL A   1      45.028  21.225  24.758  1.00  0.00     0.060 A 
ATOM     46  C   UNL A   1      45.433  21.457  26.078  1.00  0.00     0.016 A 
ATOM     47  C   UNL A   1      44.926  22.283  23.851  1.00  0.00     0.016 A 
ATOM     48  C   UNL A   1      45.690  22.756  26.510  1.00  0.00     0.010 A 
ATOM     49  C   UNL A   1      45.180  23.588  24.289  1.00  0.00     0.010 A 
ATOM     50  C   UNL A   1      45.531  23.833  25.629  1.00  0.00    -0.014 A 
BRANCH  50  51
ATOM     51  C   UNL A   1      45.630  25.218  26.150  1.00  0.00     0.031 A 
ATOM     52  C   UNL A   1      46.955  25.924  26.129  1.00  0.00     0.074 A 
ATOM     53  C   UNL A   1      44.537  25.851  26.609  1.00  0.00     0.049 A 
ATOM     54  N   UNL A   1      47.254  27.142  26.506  1.00  0.00    -0.248 NA
ATOM     55  C   UNL A   1      48.098  25.153  25.621  1.00  0.00     0.031 C 
ATOM     56  C   UNL A   1      43.196  25.275  26.674  1.00  0.00     0.029 A 
ATOM     57  N   UNL A   1      44.387  27.119  27.112  1.00  0.00    -0.354 N 
ATOM     58  C   UNL A   1      48.617  27.282  26.284  1.00  0.00     0.074 A 
ATOM     59  C   UNL A   1      49.093  26.014  25.772  1.00  0.00     0.031 C 
ATOM     60  C   UNL A   1      42.359  26.184  27.201  1.00  0.00     0.029 A 
ATOM     61  C   UNL A   1      43.109  27.396  27.525  1.00  0.00     0.049 A 
ATOM     62  H   UNL A   1      45.126  27.767  27.170  1.00  0.00     0.167 HD
ATOM     63  C   UNL A   1      49.397  28.372  26.480  1.00  0.00     0.037 A 
ATOM     64  C   UNL A   1      42.604  28.498  28.111  1.00  0.00     0.037 A 
ATOM     65  C   UNL A   1      48.922  29.633  26.986  1.00  0.00     0.049 A 
ATOM     66  C   UNL A   1      43.496  29.688  28.348  1.00  0.00     0.074 A 
ATOM     67  C   UNL A   1      49.622  30.814  27.162  1.00  0.00     0.029 A 
ATOM     68  N   UNL A   1      47.623  29.872  27.415  1.00  0.00    -0.354 N 
ATOM     69  N   UNL A   1      44.769  29.834  28.076  1.00  0.00    -0.248 NA
ATOM     70  C   UNL A   1      42.874  30.869  28.964  1.00  0.00     0.031 C 
ATOM     71  C   UNL A   1      48.762  31.749  27.750  1.00  0.00     0.029 A 
ATOM     72  C   UNL A   1      47.512  31.169  27.891  1.00  0.00     0.049 A 
ATOM     73  H   UNL A   1      46.890  29.216  27.385  1.00  0.00     0.167 HD
ATOM     74  C   UNL A   1      45.101  31.122  28.475  1.00  0.00     0.074 A 
ATOM     75  C   UNL A   1      43.888  31.724  28.989  1.00  0.00     0.031 C 
ATOM     76  C   UNL A   1      46.303  31.750  28.421  1.00  0.00     0.037 A 
BRANCH  63  77
ATOM     77  C   UNL A   1      50.860  28.233  26.172  1.00  0.00     0.064 A 
ATOM     78  C   UNL A   1      51.817  28.054  27.183  1.00  0.00     0.173 A 
ATOM     79  C   UNL A   1      51.311  28.270  24.843  1.00  0.00     0.173 A 
ATOM     80  F   UNL A   1      51.441  28.024  28.470  1.00  0.00    -0.203 F 
ATOM     81  C   UNL A   1      53.173  27.956  26.877  1.00  0.00     0.198 A 
ATOM     82  C   UNL A   1      52.663  28.141  24.539  1.00  0.00     0.198 A 
ATOM     83  F   UNL A   1      50.437  28.434  23.837  1.00  0.00    -0.203 F 
ATOM     84  F   UNL A   1      54.074  27.841  27.863  1.00  0.00    -0.200 F 
ATOM     85  C   UNL A   1      53.594  27.994  25.556  1.00  0.00     0.200 A 
ATOM     86  F   UNL A   1      53.067  28.169  23.262  1.00  0.00    -0.200 F 
ATOM     87  F   UNL A   1      54.899  27.900  25.264  1.00  0.00    -0.200 F 
ENDBRANCH  63  77
BRANCH  64  88
ATOM     88  C   UNL A   1      41.176  28.518  28.516  1.00  0.00     0.064 A 
ATOM     89  C   UNL A   1      40.772  28.067  29.779  1.00  0.00     0.173 A 
ATOM     90  C   UNL A   1      40.189  29.015  27.651  1.00  0.00     0.173 A 
ATOM     91  F   UNL A   1      41.677  27.562  30.630  1.00  0.00    -0.203 F 
ATOM     92  C   UNL A   1      39.433  28.108  30.161  1.00  0.00     0.198 A 
ATOM     93  C   UNL A   1      38.855  29.079  28.044  1.00  0.00     0.198 A 
ATOM     94  F   UNL A   1      40.528  29.458  26.431  1.00  0.00    -0.203 F 
ATOM     95  F   UNL A   1      39.067  27.645  31.364  1.00  0.00    -0.200 F 
ATOM     96  C   UNL A   1      38.477  28.622  29.297  1.00  0.00     0.200 A 
ATOM     97  F   UNL A   1      37.938  29.587  27.210  1.00  0.00    -0.200 F 
ATOM     98  F   UNL A   1      37.191  28.675  29.670  1.00  0.00    -0.200 F 
ENDBRANCH  64  88
BRANCH  76  99
ATOM     99  C   UNL A   1      46.363  33.160  28.932  1.00  0.00     0.064 A 
ATOM    100  C   UNL A   1      46.177  34.259  28.078  1.00  0.00     0.173 A 
ATOM    101  C   UNL A   1      46.584  33.419  30.293  1.00  0.00     0.173 A 
ATOM    102  F   UNL A   1      45.976  34.066  26.765  1.00  0.00    -0.203 F 
ATOM    103  C   UNL A   1      46.238  35.562  28.563  1.00  0.00     0.198 A 
ATOM    104  C   UNL A   1      46.615  34.723  30.780  1.00  0.00     0.198 A 
ATOM    105  F   UNL A   1      46.762  32.406  31.155  1.00  0.00    -0.203 F 
ATOM    106  F   UNL A   1      46.108  36.596  27.719  1.00  0.00    -0.200 F 
ATOM    107  C   UNL A   1      46.451  35.794  29.913  1.00  0.00     0.200 A 
ATOM    108  F   UNL A   1      46.808  34.946  32.088  1.00  0.00    -0.200 F 
ATOM    109  F   UNL A   1      46.507  37.050  30.379  1.00  0.00    -0.200 F 
ENDBRANCH  76  99
ENDBRANCH  50  51
ENDBRANCH  43  45
ENDBRANCH  42  43
ENDBRANCH  41  42
ENDBRANCH  40  41
ENDBRANCH  39  40
ENDBRANCH   1  39
TORSDOF 21
ENDMDL
MODEL 2
REMARK VINA RESULT:     -12.0      5.000      9.802
REMARK SMILES COc1cc([C@H]2CC(c3ccc(S(C)(=O)=O)cc3)=NN2c2ccc(C(=O)OCCOCCOC(=O)c3ccc(-c4c5nc(c(-c6c(F)c(F)c(F)c(F)c6F)c6ccc([nH]6)c(-c6c(F)c(F)c(F)c(F)c6F)c6nc(c(-c7c(F)c(F)c(F)c(F)c7F)c7ccc4[nH]7)C=C6)C=C5)cc3)cc2)cc(OC)c1OC
REMARK SMILES IDX 29 1 28 2 27 3 25 4 26 5 24 6 21 7 22 8 100 9 23 10 99 11
REMARK SMILES IDX 20 12 6 13 7 14 8 15 19 16 5 17 3 18 4 19 105 20 102 21
REMARK SMILES IDX 101 22 2 23 1 24 106 25 107 26 103 27 104 28 9 29 10 30
REMARK SMILES IDX 18 31 11 32 17 33 12 34 13 35 14 36 15 37 16 38 30 39 31 40
REMARK SMILES IDX 32 41 33 42 34 43 35 44 36 45 37 46 98 47 38 48 97 49 39 50
REMARK SMILES IDX 40 51 41 52 91 53 42 54 96 55 90 56 92 57 43 58 95 59 89 60
REMARK SMILES IDX 88 61 44 63 76 64 56 65 75 66 57 67 60 68 74 69 93 70 58 71
REMARK SMILES IDX 59 72 73 74 94 75 61 76 45 77 46 78 54 79 47 80 48 81 52 82
REMARK SMILES IDX 55 83 49 84 50 85 53 86 51 87 77 88 78 89 86 90 79 91 80 92
REMARK SMILES IDX 84 93 87 94 81 95 82 96 85 97 83 98 62 99 63 100 71 101
REMARK SMILES IDX 64 102 65 103 69 104 72 105 66 106 67 107 70 108 68 109
REMARK H PARENT 92 62 60 73
REMARK Flexibility Score: inf
ROOT
ATOM      1  C   UNL A   1      30.806  26.489  26.086  1.00  0.00     0.202 C 
ENDROOT
BRANCH   1   2
ATOM      2  C   UNL A   1      29.707  25.436  25.920  1.00  0.00     0.261 C 
BRANCH   2   3
ATOM      3  O   UNL A   1      29.466  24.740  27.154  1.00  0.00    -0.460 OA
BRANCH   3   4
ATOM      4  C   UNL A   1      29.463  23.389  27.058  1.00  0.00     0.338 C 
ATOM      5  O   UNL A   1      28.519  22.643  27.273  1.00  0.00    -0.246 OA
BRANCH   4   6
ATOM      6  C   UNL A   1      30.746  22.914  26.495  1.00  0.00     0.060 A 
ATOM      7  C   UNL A   1      33.264  22.191  25.463  1.00  0.00     0.060 A 
ATOM      8  C   UNL A   1      33.151  22.794  26.724  1.00  0.00     0.029 A 
ATOM      9  C   UNL A   1      32.084  21.884  24.768  1.00  0.00     0.029 A 
ATOM     10  C   UNL A   1      31.908  23.178  27.226  1.00  0.00     0.018 A 
ATOM     11  C   UNL A   1      30.827  22.229  25.281  1.00  0.00     0.018 A 
BRANCH   7  12
ATOM     12  N   UNL A   1      34.516  21.986  24.895  1.00  0.00    -0.257 N 
ATOM     13  C   UNL A   1      34.915  22.517  23.584  1.00  0.00     0.144 C 
ATOM     14  C   UNL A   1      36.449  22.416  23.638  1.00  0.00     0.091 C 
ATOM     15  C   UNL A   1      36.623  21.675  24.937  1.00  0.00     0.071 C 
ATOM     16  N   UNL A   1      35.546  21.488  25.633  1.00  0.00    -0.176 NA
BRANCH  13  17
ATOM     17  C   UNL A   1      34.380  23.922  23.328  1.00  0.00    -0.015 A 
ATOM     18  C   UNL A   1      32.932  25.433  22.061  1.00  0.00     0.164 A 
ATOM     19  C   UNL A   1      33.552  24.180  22.228  1.00  0.00     0.056 A 
ATOM     20  C   UNL A   1      33.113  26.469  22.997  1.00  0.00     0.203 A 
ATOM     21  C   UNL A   1      33.967  26.222  24.092  1.00  0.00     0.164 A 
ATOM     22  C   UNL A   1      34.583  24.965  24.241  1.00  0.00     0.056 A 
BRANCH  18  23
ATOM     23  O   UNL A   1      32.042  25.545  21.022  1.00  0.00    -0.493 OA
ATOM     24  C   UNL A   1      32.682  25.380  19.756  1.00  0.00     0.278 C 
ENDBRANCH  18  23
BRANCH  20  25
ATOM     25  O   UNL A   1      32.517  27.699  22.958  1.00  0.00    -0.490 OA
ATOM     26  C   UNL A   1      33.230  28.853  22.551  1.00  0.00     0.278 C 
ENDBRANCH  20  25
BRANCH  21  27
ATOM     27  O   UNL A   1      34.318  27.071  25.114  1.00  0.00    -0.493 OA
ATOM     28  C   UNL A   1      34.263  26.606  26.454  1.00  0.00     0.278 C 
ENDBRANCH  21  27
ENDBRANCH  13  17
BRANCH  15  29
ATOM     29  C   UNL A   1      37.939  21.164  25.351  1.00  0.00    -0.002 A 
ATOM     30  C   UNL A   1      38.255  19.829  25.071  1.00  0.00     0.011 A 
ATOM     31  C   UNL A   1      38.865  21.994  25.988  1.00  0.00     0.011 A 
ATOM     32  C   UNL A   1      39.516  19.327  25.397  1.00  0.00     0.021 A 
ATOM     33  C   UNL A   1      40.120  21.486  26.341  1.00  0.00     0.021 A 
ATOM     34  C   UNL A   1      40.442  20.157  26.038  1.00  0.00     0.067 A 
BRANCH  34  35
ATOM     35  S   UNL A   1      42.066  19.529  26.404  1.00  0.00     0.175 S 
ATOM     36  C   UNL A   1      43.175  20.646  25.589  1.00  0.00     0.163 C 
ATOM     37  O   UNL A   1      42.250  19.666  27.837  1.00  0.00    -0.224 OA
ATOM     38  O   UNL A   1      42.193  18.238  25.757  1.00  0.00    -0.224 OA
ENDBRANCH  34  35
ENDBRANCH  15  29
ENDBRANCH   7  12
ENDBRANCH   4   6
ENDBRANCH   3   4
ENDBRANCH   2   3
ENDBRANCH   1   2
BRANCH   1  39
ATOM     39  O   UNL A   1      30.698  27.322  27.240  1.00  0.00    -0.374 OA
BRANCH  39  40
ATOM     40  C   UNL A   1      31.818  28.160  27.532  1.00  0.00     0.202 C 
BRANCH  40  41
ATOM     41  C   UNL A   1      31.769  29.565  26.920  1.00  0.00     0.261 C 
BRANCH  41  42
ATOM     42  O   UNL A   1      33.079  30.016  26.529  1.00  0.00    -0.460 OA
BRANCH  42  43
ATOM     43  C   UNL A   1      33.488  31.162  27.119  1.00  0.00     0.338 C 
ATOM     44  O   UNL A   1      32.832  32.178  27.306  1.00  0.00    -0.246 OA
BRANCH  43  45
ATOM     45  C   UNL A   1      34.836  30.981  27.688  1.00  0.00     0.060 A 
ATOM     46  C   UNL A   1      35.227  29.674  28.008  1.00  0.00     0.016 A 
ATOM     47  C   UNL A   1      35.682  32.060  27.957  1.00  0.00     0.016 A 
ATOM     48  C   UNL A   1      36.445  29.448  28.644  1.00  0.00     0.010 A 
ATOM     49  C   UNL A   1      36.903  31.830  28.601  1.00  0.00     0.010 A 
ATOM     50  C   UNL A   1      37.275  30.526  28.976  1.00  0.00    -0.014 A 
BRANCH  50  51
ATOM     51  C   UNL A   1      38.476  30.287  29.812  1.00  0.00     0.031 A 
ATOM     52  C   UNL A   1      39.609  29.469  29.262  1.00  0.00     0.074 A 
ATOM     53  C   UNL A   1      38.568  30.824  31.040  1.00  0.00     0.049 A 
ATOM     54  N   UNL A   1      40.758  29.166  29.812  1.00  0.00    -0.248 NA
ATOM     55  C   UNL A   1      39.420  28.912  27.916  1.00  0.00     0.031 C 
ATOM     56  C   UNL A   1      37.539  31.640  31.680  1.00  0.00     0.029 A 
ATOM     57  N   UNL A   1      39.575  30.755  31.970  1.00  0.00    -0.354 N 
ATOM     58  C   UNL A   1      41.427  28.382  28.881  1.00  0.00     0.074 A 
ATOM     59  C   UNL A   1      40.541  28.227  27.747  1.00  0.00     0.031 C 
ATOM     60  C   UNL A   1      37.962  31.988  32.907  1.00  0.00     0.029 A 
ATOM     61  C   UNL A   1      39.282  31.405  33.142  1.00  0.00     0.049 A 
ATOM     62  H   UNL A   1      40.425  30.286  31.811  1.00  0.00     0.167 HD
ATOM     63  C   UNL A   1      42.670  27.849  28.962  1.00  0.00     0.037 A 
ATOM     64  C   UNL A   1      39.992  31.505  34.282  1.00  0.00     0.037 A 
ATOM     65  C   UNL A   1      43.551  28.007  30.090  1.00  0.00     0.049 A 
ATOM     66  C   UNL A   1      41.359  30.879  34.362  1.00  0.00     0.074 A 
ATOM     67  C   UNL A   1      44.851  27.557  30.242  1.00  0.00     0.029 A 
ATOM     68  N   UNL A   1      43.213  28.654  31.271  1.00  0.00    -0.354 N 
ATOM     69  N   UNL A   1      42.010  30.193  33.454  1.00  0.00    -0.248 NA
ATOM     70  C   UNL A   1      42.093  31.051  35.624  1.00  0.00     0.031 C 
ATOM     71  C   UNL A   1      45.279  27.882  31.535  1.00  0.00     0.029 A 
ATOM     72  C   UNL A   1      44.266  28.581  32.170  1.00  0.00     0.049 A 
ATOM     73  H   UNL A   1      42.352  29.098  31.444  1.00  0.00     0.167 HD
ATOM     74  C   UNL A   1      43.231  29.862  34.026  1.00  0.00     0.074 A 
ATOM     75  C   UNL A   1      43.239  30.441  35.353  1.00  0.00     0.031 C 
ATOM     76  C   UNL A   1      44.253  29.142  33.498  1.00  0.00     0.037 A 
BRANCH  63  77
ATOM     77  C   UNL A   1      43.137  27.017  27.804  1.00  0.00     0.064 A 
ATOM     78  C   UNL A   1      42.868  25.641  27.723  1.00  0.00     0.173 A 
ATOM     79  C   UNL A   1      43.857  27.606  26.752  1.00  0.00     0.173 A 
ATOM     80  F   UNL A   1      42.195  25.027  28.707  1.00  0.00    -0.203 F 
ATOM     81  C   UNL A   1      43.335  24.881  26.653  1.00  0.00     0.198 A 
ATOM     82  C   UNL A   1      44.295  26.849  25.670  1.00  0.00     0.198 A 
ATOM     83  F   UNL A   1      44.136  28.918  26.777  1.00  0.00    -0.203 F 
ATOM     84  F   UNL A   1      43.114  23.560  26.624  1.00  0.00    -0.200 F 
ATOM     85  C   UNL A   1      44.043  25.487  25.625  1.00  0.00     0.200 A 
ATOM     86  F   UNL A   1      44.971  27.437  24.673  1.00  0.00    -0.200 F 
ATOM     87  F   UNL A   1      44.492  24.754  24.596  1.00  0.00    -0.200 F 
ENDBRANCH  63  77
BRANCH  64  88
ATOM     88  C   UNL A   1      39.412  32.229  35.440  1.00  0.00     0.064 A 
ATOM     89  C   UNL A   1      38.617  31.569  36.386  1.00  0.00     0.173 A 
ATOM     90  C   UNL A   1      39.664  33.595  35.636  1.00  0.00     0.173 A 
ATOM     91  F   UNL A   1      38.330  30.268  36.228  1.00  0.00    -0.203 F 
ATOM     92  C   UNL A   1      38.093  32.250  37.483  1.00  0.00     0.198 A 
ATOM     93  C   UNL A   1      39.160  34.268  36.745  1.00  0.00     0.198 A 
ATOM     94  F   UNL A   1      40.419  34.270  34.756  1.00  0.00    -0.203 F 
ATOM     95  F   UNL A   1      37.312  31.603  38.359  1.00  0.00    -0.200 F 
ATOM     96  C   UNL A   1      38.373  33.596  37.666  1.00  0.00     0.200 A 
ATOM     97  F   UNL A   1      39.443  35.565  36.924  1.00  0.00    -0.200 F 
ATOM     98  F   UNL A   1      37.880  34.247  38.729  1.00  0.00    -0.200 F 
ENDBRANCH  64  88
BRANCH  76  99
ATOM     99  C   UNL A   1      45.466  28.942  34.360  1.00  0.00     0.064 A 
ATOM    100  C   UNL A   1      45.586  27.833  35.212  1.00  0.00     0.173 A 
ATOM    101  C   UNL A   1      46.532  29.853  34.318  1.00  0.00     0.173 A 
ATOM    102  F   UNL A   1      44.588  26.940  35.301  1.00  0.00    -0.203 F 
ATOM    103  C   UNL A   1      46.714  27.659  36.009  1.00  0.00     0.198 A 
ATOM    104  C   UNL A   1      47.672  29.660  35.094  1.00  0.00     0.198 A 
ATOM    105  F   UNL A   1      46.474  30.927  33.516  1.00  0.00    -0.203 F 
ATOM    106  F   UNL A   1      46.783  26.619  36.853  1.00  0.00    -0.200 F 
ATOM    107  C   UNL A   1      47.758  28.569  35.945  1.00  0.00     0.200 A 
ATOM    108  F   UNL A   1      48.687  30.534  35.023  1.00  0.00    -0.200 F 
ATOM    109  F   UNL A   1      48.845  28.399  36.712  1.00  0.00    -0.200 F 
ENDBRANCH  76  99
ENDBRANCH  50  51
ENDBRANCH  43  45
ENDBRANCH  42  43
ENDBRANCH  41  42
ENDBRANCH  40  41
ENDBRANCH  39  40
ENDBRANCH   1  39
TORSDOF 21
ENDMDL
MODEL 3
REMARK VINA RESULT:     -11.9      3.651     10.217
REMARK SMILES COc1cc([C@H]2CC(c3ccc(S(C)(=O)=O)cc3)=NN2c2ccc(C(=O)OCCOCCOC(=O)c3ccc(-c4c5nc(c(-c6c(F)c(F)c(F)c(F)c6F)c6ccc([nH]6)c(-c6c(F)c(F)c(F)c(F)c6F)c6nc(c(-c7c(F)c(F)c(F)c(F)c7F)c7ccc4[nH]7)C=C6)C=C5)cc3)cc2)cc(OC)c1OC
REMARK SMILES IDX 29 1 28 2 27 3 25 4 26 5 24 6 21 7 22 8 100 9 23 10 99 11
REMARK SMILES IDX 20 12 6 13 7 14 8 15 19 16 5 17 3 18 4 19 105 20 102 21
REMARK SMILES IDX 101 22 2 23 1 24 106 25 107 26 103 27 104 28 9 29 10 30
REMARK SMILES IDX 18 31 11 32 17 33 12 34 13 35 14 36 15 37 16 38 30 39 31 40
REMARK SMILES IDX 32 41 33 42 34 43 35 44 36 45 37 46 98 47 38 48 97 49 39 50
REMARK SMILES IDX 40 51 41 52 91 53 42 54 96 55 90 56 92 57 43 58 95 59 89 60
REMARK SMILES IDX 88 61 44 63 76 64 56 65 75 66 57 67 60 68 74 69 93 70 58 71
REMARK SMILES IDX 59 72 73 74 94 75 61 76 45 77 46 78 54 79 47 80 48 81 52 82
REMARK SMILES IDX 55 83 49 84 50 85 53 86 51 87 77 88 78 89 86 90 79 91 80 92
REMARK SMILES IDX 84 93 87 94 81 95 82 96 85 97 83 98 62 99 63 100 71 101
REMARK SMILES IDX 64 102 65 103 69 104 72 105 66 106 67 107 70 108 68 109
REMARK H PARENT 92 62 60 73
REMARK Flexibility Score: inf
ROOT
ATOM      1  C   UNL A   1      36.280  31.912  28.596  1.00  0.00     0.202 C 
ENDROOT
BRANCH   1   2
ATOM      2  C   UNL A   1      35.665  30.510  28.616  1.00  0.00     0.261 C 
BRANCH   2   3
ATOM      3  O   UNL A   1      35.046  30.199  27.356  1.00  0.00    -0.460 OA
BRANCH   3   4
ATOM      4  C   UNL A   1      33.692  30.254  27.355  1.00  0.00     0.338 C 
ATOM      5  O   UNL A   1      33.002  31.255  27.488  1.00  0.00    -0.246 OA
BRANCH   4   6
ATOM      6  C   UNL A   1      33.127  28.931  27.012  1.00  0.00     0.060 A 
ATOM      7  C   UNL A   1      32.128  26.435  26.175  1.00  0.00     0.060 A 
ATOM      8  C   UNL A   1      33.469  26.779  25.961  1.00  0.00     0.029 A 
ATOM      9  C   UNL A   1      31.320  27.334  26.890  1.00  0.00     0.029 A 
ATOM     10  C   UNL A   1      33.960  28.025  26.350  1.00  0.00     0.018 A 
ATOM     11  C   UNL A   1      31.814  28.571  27.321  1.00  0.00     0.018 A 
BRANCH   7  12
ATOM     12  N   UNL A   1      31.606  25.273  25.619  1.00  0.00    -0.257 N 
ATOM     13  C   UNL A   1      30.369  25.232  24.825  1.00  0.00     0.144 C 
ATOM     14  C   UNL A   1      30.489  23.885  24.094  1.00  0.00     0.091 C 
ATOM     15  C   UNL A   1      31.722  23.330  24.756  1.00  0.00     0.071 C 
ATOM     16  N   UNL A   1      32.345  24.132  25.561  1.00  0.00    -0.176 NA
BRANCH  13  17
ATOM     17  C   UNL A   1      30.216  26.440  23.907  1.00  0.00    -0.015 A 
ATOM     18  C   UNL A   1      28.848  28.273  23.036  1.00  0.00     0.164 A 
ATOM     19  C   UNL A   1      28.974  27.072  23.760  1.00  0.00     0.056 A 
ATOM     20  C   UNL A   1      29.965  28.889  22.441  1.00  0.00     0.203 A 
ATOM     21  C   UNL A   1      31.213  28.242  22.564  1.00  0.00     0.164 A 
ATOM     22  C   UNL A   1      31.321  27.039  23.287  1.00  0.00     0.056 A 
BRANCH  18  23
ATOM     23  O   UNL A   1      27.615  28.877  23.057  1.00  0.00    -0.493 OA
ATOM     24  C   UNL A   1      26.602  27.996  23.543  1.00  0.00     0.278 C 
ENDBRANCH  18  23
BRANCH  20  25
ATOM     25  O   UNL A   1      29.962  30.077  21.766  1.00  0.00    -0.490 OA
ATOM     26  C   UNL A   1      29.365  31.238  22.316  1.00  0.00     0.278 C 
ENDBRANCH  20  25
BRANCH  21  27
ATOM     27  O   UNL A   1      32.431  28.627  22.057  1.00  0.00    -0.493 OA
ATOM     28  C   UNL A   1      33.465  29.012  22.950  1.00  0.00     0.278 C 
ENDBRANCH  21  27
ENDBRANCH  13  17
BRANCH  15  29
ATOM     29  C   UNL A   1      32.153  21.943  24.522  1.00  0.00    -0.002 A 
ATOM     30  C   UNL A   1      32.654  21.209  25.604  1.00  0.00     0.011 A 
ATOM     31  C   UNL A   1      32.043  21.358  23.258  1.00  0.00     0.011 A 
ATOM     32  C   UNL A   1      33.018  19.871  25.432  1.00  0.00     0.021 A 
ATOM     33  C   UNL A   1      32.432  20.026  23.076  1.00  0.00     0.021 A 
ATOM     34  C   UNL A   1      32.911  19.288  24.166  1.00  0.00     0.067 A 
BRANCH  34  35
ATOM     35  S   UNL A   1      33.325  17.569  23.962  1.00  0.00     0.175 S 
ATOM     36  C   UNL A   1      35.033  17.459  24.427  1.00  0.00     0.163 C 
ATOM     37  O   UNL A   1      32.539  16.835  24.936  1.00  0.00    -0.224 OA
ATOM     38  O   UNL A   1      33.237  17.261  22.548  1.00  0.00    -0.224 OA
ENDBRANCH  34  35
ENDBRANCH  15  29
ENDBRANCH   7  12
ENDBRANCH   4   6
ENDBRANCH   3   4
ENDBRANCH   2   3
ENDBRANCH   1   2
BRANCH   1  39
ATOM     39  O   UNL A   1      35.702  32.855  29.498  1.00  0.00    -0.374 OA
BRANCH  39  40
ATOM     40  C   UNL A   1      34.831  32.329  30.503  1.00  0.00     0.202 C 
BRANCH  40  41
ATOM     41  C   UNL A   1      35.274  32.571  31.951  1.00  0.00     0.261 C 
BRANCH  41  42
ATOM     42  O   UNL A   1      36.244  33.631  32.036  1.00  0.00    -0.460 OA
BRANCH  42  43
ATOM     43  C   UNL A   1      37.310  33.368  32.824  1.00  0.00     0.338 C 
ATOM     44  O   UNL A   1      37.416  33.571  34.026  1.00  0.00    -0.246 OA
BRANCH  43  45
ATOM     45  C   UNL A   1      38.325  32.617  32.062  1.00  0.00     0.060 A 
ATOM     46  C   UNL A   1      38.926  31.524  32.699  1.00  0.00     0.016 A 
ATOM     47  C   UNL A   1      38.726  32.999  30.779  1.00  0.00     0.016 A 
ATOM     48  C   UNL A   1      39.965  30.838  32.073  1.00  0.00     0.010 A 
ATOM     49  C   UNL A   1      39.773  32.312  30.155  1.00  0.00     0.010 A 
ATOM     50  C   UNL A   1      40.419  31.249  30.813  1.00  0.00    -0.014 A 
BRANCH  50  51
ATOM     51  C   UNL A   1      41.639  30.629  30.244  1.00  0.00     0.031 A 
ATOM     52  C   UNL A   1      41.551  29.272  29.607  1.00  0.00     0.074 A 
ATOM     53  C   UNL A   1      42.811  31.287  30.267  1.00  0.00     0.049 A 
ATOM     54  N   UNL A   1      42.487  28.565  29.024  1.00  0.00    -0.248 NA
ATOM     55  C   UNL A   1      40.234  28.621  29.635  1.00  0.00     0.031 C 
ATOM     56  C   UNL A   1      43.021  32.609  30.851  1.00  0.00     0.029 A 
ATOM     57  N   UNL A   1      44.046  30.925  29.791  1.00  0.00    -0.354 N 
ATOM     58  C   UNL A   1      41.874  27.388  28.619  1.00  0.00     0.074 A 
ATOM     59  C   UNL A   1      40.495  27.459  29.054  1.00  0.00     0.031 C 
ATOM     60  C   UNL A   1      44.314  32.945  30.710  1.00  0.00     0.029 A 
ATOM     61  C   UNL A   1      45.023  31.854  30.043  1.00  0.00     0.049 A 
ATOM     62  H   UNL A   1      44.214  30.080  29.315  1.00  0.00     0.167 HD
ATOM     63  C   UNL A   1      42.410  26.346  27.939  1.00  0.00     0.037 A 
ATOM     64  C   UNL A   1      46.343  31.821  29.778  1.00  0.00     0.037 A 
ATOM     65  C   UNL A   1      43.781  26.277  27.505  1.00  0.00     0.049 A 
ATOM     66  C   UNL A   1      46.924  30.641  29.048  1.00  0.00     0.074 A 
ATOM     67  C   UNL A   1      44.404  25.292  26.757  1.00  0.00     0.029 A 
ATOM     68  N   UNL A   1      44.750  27.228  27.796  1.00  0.00    -0.354 N 
ATOM     69  N   UNL A   1      46.325  29.559  28.613  1.00  0.00    -0.248 NA
ATOM     70  C   UNL A   1      48.366  30.682  28.764  1.00  0.00     0.031 C 
ATOM     71  C   UNL A   1      45.760  25.619  26.645  1.00  0.00     0.029 A 
ATOM     72  C   UNL A   1      45.973  26.834  27.277  1.00  0.00     0.049 A 
ATOM     73  H   UNL A   1      44.590  28.060  28.298  1.00  0.00     0.167 HD
ATOM     74  C   UNL A   1      47.308  28.798  27.995  1.00  0.00     0.074 A 
ATOM     75  C   UNL A   1      48.541  29.552  28.093  1.00  0.00     0.031 C 
ATOM     76  C   UNL A   1      47.199  27.583  27.400  1.00  0.00     0.037 A 
BRANCH  63  77
ATOM     77  C   UNL A   1      41.511  25.179  27.650  1.00  0.00     0.064 A 
ATOM     78  C   UNL A   1      41.666  23.945  28.300  1.00  0.00     0.173 A 
ATOM     79  C   UNL A   1      40.472  25.300  26.714  1.00  0.00     0.173 A 
ATOM     80  F   UNL A   1      42.651  23.772  29.194  1.00  0.00    -0.203 F 
ATOM     81  C   UNL A   1      40.839  22.866  27.997  1.00  0.00     0.198 A 
ATOM     82  C   UNL A   1      39.629  24.229  26.435  1.00  0.00     0.198 A 
ATOM     83  F   UNL A   1      40.277  26.459  26.067  1.00  0.00    -0.203 F 
ATOM     84  F   UNL A   1      41.040  21.681  28.590  1.00  0.00    -0.200 F 
ATOM     85  C   UNL A   1      39.818  23.010  27.069  1.00  0.00     0.200 A 
ATOM     86  F   UNL A   1      38.637  24.373  25.545  1.00  0.00    -0.200 F 
ATOM     87  F   UNL A   1      39.023  21.971  26.777  1.00  0.00    -0.200 F 
ENDBRANCH  63  77
BRANCH  64  88
ATOM     88  C   UNL A   1      47.200  32.951  30.214  1.00  0.00     0.064 A 
ATOM     89  C   UNL A   1      47.797  32.965  31.482  1.00  0.00     0.173 A 
ATOM     90  C   UNL A   1      47.461  34.031  29.357  1.00  0.00     0.173 A 
ATOM     91  F   UNL A   1      47.558  31.966  32.344  1.00  0.00    -0.203 F 
ATOM     92  C   UNL A   1      48.619  34.018  31.877  1.00  0.00     0.198 A 
ATOM     93  C   UNL A   1      48.302  35.071  29.744  1.00  0.00     0.198 A 
ATOM     94  F   UNL A   1      46.911  34.064  28.133  1.00  0.00    -0.203 F 
ATOM     95  F   UNL A   1      49.155  34.022  33.105  1.00  0.00    -0.200 F 
ATOM     96  C   UNL A   1      48.877  35.065  31.005  1.00  0.00     0.200 A 
ATOM     97  F   UNL A   1      48.558  36.074  28.894  1.00  0.00    -0.200 F 
ATOM     98  F   UNL A   1      49.679  36.071  31.381  1.00  0.00    -0.200 F 
ENDBRANCH  64  88
BRANCH  76  99
ATOM     99  C   UNL A   1      48.448  26.995  26.810  1.00  0.00     0.064 A 
ATOM    100  C   UNL A   1      49.340  26.237  27.584  1.00  0.00     0.173 A 
ATOM    101  C   UNL A   1      48.746  27.168  25.449  1.00  0.00     0.173 A 
ATOM    102  F   UNL A   1      49.109  26.055  28.893  1.00  0.00    -0.203 F 
ATOM    103  C   UNL A   1      50.497  25.700  27.026  1.00  0.00     0.198 A 
ATOM    104  C   UNL A   1      49.888  26.604  24.887  1.00  0.00     0.198 A 
ATOM    105  F   UNL A   1      47.924  27.878  24.661  1.00  0.00    -0.203 F 
ATOM    106  F   UNL A   1      51.359  25.023  27.797  1.00  0.00    -0.200 F 
ATOM    107  C   UNL A   1      50.767  25.878  25.677  1.00  0.00     0.200 A 
ATOM    108  F   UNL A   1      50.142  26.766  23.581  1.00  0.00    -0.200 F 
ATOM    109  F   UNL A   1      51.880  25.358  25.141  1.00  0.00    -0.200 F 
ENDBRANCH  76  99
ENDBRANCH  50  51
ENDBRANCH  43  45
ENDBRANCH  42  43
ENDBRANCH  41  42
ENDBRANCH  40  41
ENDBRANCH  39  40
ENDBRANCH   1  39
TORSDOF 21
ENDMDL
