MODEL 1
REMARK VINA RESULT:     -10.2      0.000      0.000
REMARK SMILES CN(CC(C)(C)O)C(=O)N[C@H]1CC[C@H](C(=O)OCCOCCOC(=O)c2ccc(-c3c4nc(c(-c5c(F)c(F)c(F)c(F)c5F)c5ccc([nH]5)c(-c5c(F)c(F)c(F)c(F)c5F)c5nc(c(-c6c(F)c(F)c(F)c(F)c6F)c6ccc3[nH]6)C=C5)C=C4)cc2)C1
REMARK SMILES IDX 18 1 17 2 15 3 16 4 14 5 11 6 12 7 89 8 13 9 10 10 8 11 9 12
REMARK SMILES IDX 2 14 1 15 3 16 4 17 5 18 6 19 7 20 19 22 20 23 21 24 22 25
REMARK SMILES IDX 23 26 24 27 25 28 26 29 27 30 88 31 28 32 87 33 29 34 30 35
REMARK SMILES IDX 31 36 81 37 32 38 86 39 80 40 82 41 33 42 85 43 79 44 78 45
REMARK SMILES IDX 34 47 66 48 46 49 65 50 47 51 50 52 64 53 83 54 48 55 49 56
REMARK SMILES IDX 63 58 84 59 51 60 35 61 36 62 44 63 37 64 38 65 42 66 45 67
REMARK SMILES IDX 39 68 40 69 43 70 41 71 67 72 68 73 76 74 69 75 70 76 74 77
REMARK SMILES IDX 77 78 71 79 72 80 75 81 73 82 52 83 53 84 61 85 54 86 55 87
REMARK SMILES IDX 59 88 62 89 56 90 57 91 60 92 58 93
REMARK H PARENT 10 13 7 21 82 46 50 57
REMARK Flexibility Score: inf
ROOT
ATOM      1  C   UNL A   1      34.579  31.565  28.447  1.00  0.00     0.261 C 
ENDROOT
BRANCH   1   2
ATOM      2  O   UNL A   1      34.213  30.994  27.183  1.00  0.00    -0.463 OA
BRANCH   2   3
ATOM      3  C   UNL A   1      32.903  30.751  26.924  1.00  0.00     0.309 C 
ATOM      4  O   UNL A   1      31.995  31.561  27.033  1.00  0.00    -0.252 OA
BRANCH   3   5
ATOM      5  C   UNL A   1      32.770  29.371  26.312  1.00  0.00     0.101 C 
ATOM      6  C   UNL A   1      33.674  27.204  25.730  1.00  0.00     0.084 C 
ATOM      7  C   UNL A   1      33.774  28.082  24.493  1.00  0.00     0.026 C 
ATOM      8  C   UNL A   1      33.732  28.302  26.830  1.00  0.00     0.040 C 
ATOM      9  C   UNL A   1      32.980  29.344  24.791  1.00  0.00     0.017 C 
BRANCH   6  10
ATOM     10  N   UNL A   1      32.515  26.335  26.035  1.00  0.00    -0.335 N 
ATOM     11  C   UNL A   1      31.979  25.116  25.907  1.00  0.00     0.317 C 
ATOM     12  O   UNL A   1      31.441  24.727  26.955  1.00  0.00    -0.249 OA
ATOM     13  H   UNL A   1      31.871  26.882  26.541  1.00  0.00     0.165 HD
BRANCH  11  14
ATOM     14  N   UNL A   1      31.858  24.384  24.769  1.00  0.00    -0.325 N 
ATOM     15  C   UNL A   1      31.241  23.070  24.934  1.00  0.00     0.148 C 
BRANCH  14  16
ATOM     16  C   UNL A   1      32.032  24.794  23.385  1.00  0.00     0.155 C 
BRANCH  16  17
ATOM     17  C   UNL A   1      33.381  24.402  22.723  1.00  0.00     0.077 C 
ATOM     18  C   UNL A   1      34.540  24.318  23.718  1.00  0.00     0.043 C 
ATOM     19  C   UNL A   1      33.190  23.098  21.933  1.00  0.00     0.043 C 
BRANCH  17  20
ATOM     20  O   UNL A   1      33.746  25.406  21.761  1.00  0.00    -0.389 OA
ATOM     21  H   UNL A   1      34.625  25.755  21.975  1.00  0.00     0.211 HD
ENDBRANCH  17  20
ENDBRANCH  16  17
ENDBRANCH  14  16
ENDBRANCH  11  14
ENDBRANCH   6  10
ENDBRANCH   3   5
ENDBRANCH   2   3
ENDBRANCH   1   2
BRANCH   1  22
ATOM     22  C   UNL A   1      34.792  33.061  28.206  1.00  0.00     0.202 C 
BRANCH  22  23
ATOM     23  O   UNL A   1      33.898  33.870  28.977  1.00  0.00    -0.374 OA
BRANCH  23  24
ATOM     24  C   UNL A   1      33.939  35.276  28.714  1.00  0.00     0.202 C 
BRANCH  24  25
ATOM     25  C   UNL A   1      32.889  36.062  29.507  1.00  0.00     0.261 C 
BRANCH  25  26
ATOM     26  O   UNL A   1      32.396  35.263  30.602  1.00  0.00    -0.460 OA
BRANCH  26  27
ATOM     27  C   UNL A   1      32.692  35.724  31.836  1.00  0.00     0.338 C 
ATOM     28  O   UNL A   1      32.044  36.513  32.512  1.00  0.00    -0.246 OA
BRANCH  27  29
ATOM     29  C   UNL A   1      33.850  34.987  32.369  1.00  0.00     0.060 A 
ATOM     30  C   UNL A   1      35.106  35.597  32.265  1.00  0.00     0.016 A 
ATOM     31  C   UNL A   1      33.726  33.712  32.930  1.00  0.00     0.016 A 
ATOM     32  C   UNL A   1      36.248  34.926  32.700  1.00  0.00     0.010 A 
ATOM     33  C   UNL A   1      34.875  33.037  33.357  1.00  0.00     0.010 A 
ATOM     34  C   UNL A   1      36.143  33.632  33.226  1.00  0.00    -0.014 A 
BRANCH  34  35
ATOM     35  C   UNL A   1      37.371  32.865  33.545  1.00  0.00     0.031 A 
ATOM     36  C   UNL A   1      38.100  33.143  34.828  1.00  0.00     0.074 A 
ATOM     37  C   UNL A   1      37.821  31.915  32.706  1.00  0.00     0.049 A 
ATOM     38  N   UNL A   1      39.217  32.630  35.277  1.00  0.00    -0.248 NA
ATOM     39  C   UNL A   1      37.486  34.131  35.729  1.00  0.00     0.031 C 
ATOM     40  C   UNL A   1      37.175  31.519  31.456  1.00  0.00     0.029 A 
ATOM     41  N   UNL A   1      38.934  31.115  32.779  1.00  0.00    -0.354 N 
ATOM     42  C   UNL A   1      39.442  33.232  36.508  1.00  0.00     0.074 A 
ATOM     43  C   UNL A   1      38.360  34.169  36.725  1.00  0.00     0.031 C 
ATOM     44  C   UNL A   1      37.913  30.562  30.870  1.00  0.00     0.029 A 
ATOM     45  C   UNL A   1      39.100  30.303  31.684  1.00  0.00     0.049 A 
ATOM     46  H   UNL A   1      39.556  31.123  33.543  1.00  0.00     0.167 HD
ATOM     47  C   UNL A   1      40.455  33.015  37.380  1.00  0.00     0.037 A 
ATOM     48  C   UNL A   1      40.111  29.471  31.363  1.00  0.00     0.037 A 
ATOM     49  C   UNL A   1      41.529  32.083  37.163  1.00  0.00     0.049 A 
ATOM     50  C   UNL A   1      41.278  29.325  32.304  1.00  0.00     0.074 A 
ATOM     51  C   UNL A   1      42.582  31.770  38.004  1.00  0.00     0.029 A 
ATOM     52  N   UNL A   1      41.692  31.320  36.017  1.00  0.00    -0.354 N 
ATOM     53  N   UNL A   1      41.468  29.875  33.479  1.00  0.00    -0.248 NA
ATOM     54  C   UNL A   1      42.375  28.447  31.871  1.00  0.00     0.031 C 
ATOM     55  C   UNL A   1      43.414  30.859  37.344  1.00  0.00     0.029 A 
ATOM     56  C   UNL A   1      42.852  30.567  36.111  1.00  0.00     0.049 A 
ATOM     57  H   UNL A   1      41.076  31.315  35.248  1.00  0.00     0.167 HD
ATOM     58  C   UNL A   1      42.691  29.397  33.932  1.00  0.00     0.074 A 
ATOM     59  C   UNL A   1      43.193  28.500  32.913  1.00  0.00     0.031 C 
ATOM     60  C   UNL A   1      43.340  29.679  35.088  1.00  0.00     0.037 A 
BRANCH  47  61
ATOM     61  C   UNL A   1      40.465  33.821  38.645  1.00  0.00     0.064 A 
ATOM     62  C   UNL A   1      39.767  33.406  39.789  1.00  0.00     0.173 A 
ATOM     63  C   UNL A   1      41.223  34.999  38.729  1.00  0.00     0.173 A 
ATOM     64  F   UNL A   1      39.019  32.293  39.755  1.00  0.00    -0.203 F 
ATOM     65  C   UNL A   1      39.810  34.153  40.962  1.00  0.00     0.198 A 
ATOM     66  C   UNL A   1      41.284  35.729  39.912  1.00  0.00     0.198 A 
ATOM     67  F   UNL A   1      41.913  35.436  37.664  1.00  0.00    -0.203 F 
ATOM     68  F   UNL A   1      39.103  33.759  42.032  1.00  0.00    -0.200 F 
ATOM     69  C   UNL A   1      40.574  35.309  41.026  1.00  0.00     0.200 A 
ATOM     70  F   UNL A   1      42.032  36.839  39.974  1.00  0.00    -0.200 F 
ATOM     71  F   UNL A   1      40.620  36.023  42.159  1.00  0.00    -0.200 F 
ENDBRANCH  47  61
BRANCH  48  72
ATOM     72  C   UNL A   1      40.083  28.735  30.072  1.00  0.00     0.064 A 
ATOM     73  C   UNL A   1      39.479  27.476  29.968  1.00  0.00     0.173 A 
ATOM     74  C   UNL A   1      40.682  29.268  28.920  1.00  0.00     0.173 A 
ATOM     75  F   UNL A   1      38.918  26.912  31.049  1.00  0.00    -0.203 F 
ATOM     76  C   UNL A   1      39.486  26.770  28.766  1.00  0.00     0.198 A 
ATOM     77  C   UNL A   1      40.664  28.575  27.712  1.00  0.00     0.198 A 
ATOM     78  F   UNL A   1      41.279  30.468  28.967  1.00  0.00    -0.203 F 
ATOM     79  F   UNL A   1      38.939  25.548  28.706  1.00  0.00    -0.200 F 
ATOM     80  C   UNL A   1      40.072  27.324  27.638  1.00  0.00     0.200 A 
ATOM     81  F   UNL A   1      41.224  29.118  26.623  1.00  0.00    -0.200 F 
ATOM     82  F   UNL A   1      40.077  26.647  26.481  1.00  0.00    -0.200 F 
ENDBRANCH  48  72
BRANCH  60  83
ATOM     83  C   UNL A   1      44.659  29.003  35.326  1.00  0.00     0.064 A 
ATOM     84  C   UNL A   1      45.869  29.612  34.961  1.00  0.00     0.173 A 
ATOM     85  C   UNL A   1      44.718  27.764  35.983  1.00  0.00     0.173 A 
ATOM     86  F   UNL A   1      45.864  30.788  34.316  1.00  0.00    -0.203 F 
ATOM     87  C   UNL A   1      47.088  28.998  35.232  1.00  0.00     0.198 A 
ATOM     88  C   UNL A   1      45.940  27.167  36.276  1.00  0.00     0.198 A 
ATOM     89  F   UNL A   1      43.589  27.144  36.358  1.00  0.00    -0.203 F 
ATOM     90  F   UNL A   1      48.231  29.581  34.844  1.00  0.00    -0.200 F 
ATOM     91  C   UNL A   1      47.124  27.782  35.898  1.00  0.00     0.200 A 
ATOM     92  F   UNL A   1      45.972  25.997  36.932  1.00  0.00    -0.200 F 
ATOM     93  F   UNL A   1      48.300  27.200  36.171  1.00  0.00    -0.200 F 
ENDBRANCH  60  83
ENDBRANCH  34  35
ENDBRANCH  27  29
ENDBRANCH  26  27
ENDBRANCH  25  26
ENDBRANCH  24  25
ENDBRANCH  23  24
ENDBRANCH  22  23
ENDBRANCH   1  22
TORSDOF 19
ENDMDL
MODEL 2
REMARK VINA RESULT:     -10.1      2.056      7.973
REMARK SMILES CN(CC(C)(C)O)C(=O)N[C@H]1CC[C@H](C(=O)OCCOCCOC(=O)c2ccc(-c3c4nc(c(-c5c(F)c(F)c(F)c(F)c5F)c5ccc([nH]5)c(-c5c(F)c(F)c(F)c(F)c5F)c5nc(c(-c6c(F)c(F)c(F)c(F)c6F)c6ccc3[nH]6)C=C5)C=C4)cc2)C1
REMARK SMILES IDX 18 1 17 2 15 3 16 4 14 5 11 6 12 7 89 8 13 9 10 10 8 11 9 12
REMARK SMILES IDX 2 14 1 15 3 16 4 17 5 18 6 19 7 20 19 22 20 23 21 24 22 25
REMARK SMILES IDX 23 26 24 27 25 28 26 29 27 30 88 31 28 32 87 33 29 34 30 35
REMARK SMILES IDX 31 36 81 37 32 38 86 39 80 40 82 41 33 42 85 43 79 44 78 45
REMARK SMILES IDX 34 47 66 48 46 49 65 50 47 51 50 52 64 53 83 54 48 55 49 56
REMARK SMILES IDX 63 58 84 59 51 60 35 61 36 62 44 63 37 64 38 65 42 66 45 67
REMARK SMILES IDX 39 68 40 69 43 70 41 71 67 72 68 73 76 74 69 75 70 76 74 77
REMARK SMILES IDX 77 78 71 79 72 80 75 81 73 82 52 83 53 84 61 85 54 86 55 87
REMARK SMILES IDX 59 88 62 89 56 90 57 91 60 92 58 93
REMARK H PARENT 10 13 7 21 82 46 50 57
REMARK Flexibility Score: inf
ROOT
ATOM      1  C   UNL A   1      32.265  28.558  27.236  1.00  0.00     0.261 C 
ENDROOT
BRANCH   1   2
ATOM      2  O   UNL A   1      32.008  27.836  26.023  1.00  0.00    -0.463 OA
BRANCH   2   3
ATOM      3  C   UNL A   1      31.561  26.557  26.099  1.00  0.00     0.309 C 
ATOM      4  O   UNL A   1      30.676  26.156  26.839  1.00  0.00    -0.252 OA
BRANCH   3   5
ATOM      5  C   UNL A   1      32.211  25.742  24.998  1.00  0.00     0.101 C 
ATOM      6  C   UNL A   1      33.297  25.557  22.845  1.00  0.00     0.084 C 
ATOM      7  C   UNL A   1      31.826  25.236  22.638  1.00  0.00     0.026 C 
ATOM      8  C   UNL A   1      33.185  26.487  24.086  1.00  0.00     0.040 C 
ATOM      9  C   UNL A   1      31.210  25.107  24.022  1.00  0.00     0.017 C 
BRANCH   6  10
ATOM     10  N   UNL A   1      34.329  24.541  23.147  1.00  0.00    -0.335 N 
ATOM     11  C   UNL A   1      34.605  23.235  23.246  1.00  0.00     0.317 C 
ATOM     12  O   UNL A   1      35.708  22.949  22.756  1.00  0.00    -0.249 OA
ATOM     13  H   UNL A   1      35.156  25.027  23.368  1.00  0.00     0.165 HD
BRANCH  11  14
ATOM     14  N   UNL A   1      33.894  22.291  23.918  1.00  0.00    -0.325 N 
ATOM     15  C   UNL A   1      32.709  21.791  23.223  1.00  0.00     0.148 C 
BRANCH  14  16
ATOM     16  C   UNL A   1      34.254  21.536  25.108  1.00  0.00     0.155 C 
BRANCH  16  17
ATOM     17  C   UNL A   1      34.225  22.323  26.447  1.00  0.00     0.077 C 
ATOM     18  C   UNL A   1      35.091  23.584  26.426  1.00  0.00     0.043 C 
ATOM     19  C   UNL A   1      32.764  22.621  26.820  1.00  0.00     0.043 C 
BRANCH  17  20
ATOM     20  O   UNL A   1      34.746  21.491  27.496  1.00  0.00    -0.389 OA
ATOM     21  H   UNL A   1      34.906  20.598  27.152  1.00  0.00     0.211 HD
ENDBRANCH  17  20
ENDBRANCH  16  17
ENDBRANCH  14  16
ENDBRANCH  11  14
ENDBRANCH   6  10
ENDBRANCH   3   5
ENDBRANCH   2   3
ENDBRANCH   1   2
BRANCH   1  22
ATOM     22  C   UNL A   1      33.460  29.473  26.955  1.00  0.00     0.202 C 
BRANCH  22  23
ATOM     23  O   UNL A   1      33.066  30.726  26.388  1.00  0.00    -0.374 OA
BRANCH  23  24
ATOM     24  C   UNL A   1      31.758  31.189  26.737  1.00  0.00     0.202 C 
BRANCH  24  25
ATOM     25  C   UNL A   1      31.683  32.714  26.876  1.00  0.00     0.261 C 
BRANCH  25  26
ATOM     26  O   UNL A   1      33.011  33.276  26.882  1.00  0.00    -0.460 OA
BRANCH  26  27
ATOM     27  C   UNL A   1      33.375  33.893  28.026  1.00  0.00     0.338 C 
ATOM     28  O   UNL A   1      32.754  34.752  28.640  1.00  0.00    -0.246 OA
BRANCH  27  29
ATOM     29  C   UNL A   1      34.583  33.248  28.569  1.00  0.00     0.060 A 
ATOM     30  C   UNL A   1      34.405  32.091  29.336  1.00  0.00     0.016 A 
ATOM     31  C   UNL A   1      35.862  33.774  28.366  1.00  0.00     0.016 A 
ATOM     32  C   UNL A   1      35.503  31.466  29.925  1.00  0.00     0.010 A 
ATOM     33  C   UNL A   1      36.962  33.150  28.966  1.00  0.00     0.010 A 
ATOM     34  C   UNL A   1      36.785  32.005  29.764  1.00  0.00    -0.014 A 
BRANCH  34  35
ATOM     35  C   UNL A   1      37.927  31.428  30.513  1.00  0.00     0.031 A 
ATOM     36  C   UNL A   1      38.796  30.397  29.852  1.00  0.00     0.074 A 
ATOM     37  C   UNL A   1      38.197  31.834  31.767  1.00  0.00     0.049 A 
ATOM     38  N   UNL A   1      39.808  29.726  30.342  1.00  0.00    -0.248 NA
ATOM     39  C   UNL A   1      38.485  30.081  28.450  1.00  0.00     0.031 C 
ATOM     40  C   UNL A   1      37.458  32.861  32.498  1.00  0.00     0.029 A 
ATOM     41  N   UNL A   1      39.165  31.422  32.649  1.00  0.00    -0.354 N 
ATOM     42  C   UNL A   1      40.252  28.909  29.311  1.00  0.00     0.074 A 
ATOM     43  C   UNL A   1      39.385  29.147  28.177  1.00  0.00     0.031 C 
ATOM     44  C   UNL A   1      37.991  32.989  33.726  1.00  0.00     0.029 A 
ATOM     45  C   UNL A   1      39.082  32.028  33.878  1.00  0.00     0.049 A 
ATOM     46  H   UNL A   1      39.854  30.755  32.422  1.00  0.00     0.167 HD
ATOM     47  C   UNL A   1      41.295  28.044  29.311  1.00  0.00     0.037 A 
ATOM     48  C   UNL A   1      39.787  31.808  35.006  1.00  0.00     0.037 A 
ATOM     49  C   UNL A   1      42.157  27.810  30.438  1.00  0.00     0.049 A 
ATOM     50  C   UNL A   1      40.876  30.767  35.009  1.00  0.00     0.074 A 
ATOM     51  C   UNL A   1      43.260  26.978  30.522  1.00  0.00     0.029 A 
ATOM     52  N   UNL A   1      42.006  28.401  31.683  1.00  0.00    -0.354 N 
ATOM     53  N   UNL A   1      41.309  30.020  34.022  1.00  0.00    -0.248 NA
ATOM     54  C   UNL A   1      41.569  30.534  36.284  1.00  0.00     0.031 C 
ATOM     55  C   UNL A   1      43.743  27.023  31.834  1.00  0.00     0.029 A 
ATOM     56  C   UNL A   1      42.971  27.921  32.554  1.00  0.00     0.049 A 
ATOM     57  H   UNL A   1      41.314  29.063  31.915  1.00  0.00     0.167 HD
ATOM     58  C   UNL A   1      42.334  29.245  34.550  1.00  0.00     0.074 A 
ATOM     59  C   UNL A   1      42.469  29.622  35.941  1.00  0.00     0.031 C 
ATOM     60  C   UNL A   1      43.093  28.304  33.937  1.00  0.00     0.037 A 
BRANCH  47  61
ATOM     61  C   UNL A   1      41.550  27.265  28.054  1.00  0.00     0.064 A 
ATOM     62  C   UNL A   1      42.456  27.712  27.081  1.00  0.00     0.173 A 
ATOM     63  C   UNL A   1      40.914  26.033  27.844  1.00  0.00     0.173 A 
ATOM     64  F   UNL A   1      43.079  28.890  27.231  1.00  0.00    -0.203 F 
ATOM     65  C   UNL A   1      42.699  26.963  25.934  1.00  0.00     0.198 A 
ATOM     66  C   UNL A   1      41.179  25.274  26.707  1.00  0.00     0.198 A 
ATOM     67  F   UNL A   1      40.042  25.559  28.747  1.00  0.00    -0.203 F 
ATOM     68  F   UNL A   1      43.540  27.427  24.998  1.00  0.00    -0.200 F 
ATOM     69  C   UNL A   1      42.067  25.742  25.751  1.00  0.00     0.200 A 
ATOM     70  F   UNL A   1      40.576  24.089  26.539  1.00  0.00    -0.200 F 
ATOM     71  F   UNL A   1      42.309  25.018  24.650  1.00  0.00    -0.200 F 
ENDBRANCH  47  61
BRANCH  48  72
ATOM     72  C   UNL A   1      39.462  32.566  36.243  1.00  0.00     0.064 A 
ATOM     73  C   UNL A   1      38.465  32.126  37.122  1.00  0.00     0.173 A 
ATOM     74  C   UNL A   1      40.131  33.759  36.558  1.00  0.00     0.173 A 
ATOM     75  F   UNL A   1      37.779  31.006  36.849  1.00  0.00    -0.203 F 
ATOM     76  C   UNL A   1      38.137  32.857  38.263  1.00  0.00     0.198 A 
ATOM     77  C   UNL A   1      39.822  34.474  37.713  1.00  0.00     0.198 A 
ATOM     78  F   UNL A   1      41.091  34.226  35.746  1.00  0.00    -0.203 F 
ATOM     79  F   UNL A   1      37.148  32.438  39.064  1.00  0.00    -0.200 F 
ATOM     80  C   UNL A   1      38.820  34.027  38.561  1.00  0.00     0.200 A 
ATOM     81  F   UNL A   1      40.492  35.599  38.001  1.00  0.00    -0.200 F 
ATOM     82  F   UNL A   1      38.507  34.728  39.658  1.00  0.00    -0.200 F 
ENDBRANCH  48  72
BRANCH  60  83
ATOM     83  C   UNL A   1      44.149  27.622  34.757  1.00  0.00     0.064 A 
ATOM     84  C   UNL A   1      45.411  28.202  34.952  1.00  0.00     0.173 A 
ATOM     85  C   UNL A   1      43.876  26.407  35.404  1.00  0.00     0.173 A 
ATOM     86  F   UNL A   1      45.726  29.354  34.341  1.00  0.00    -0.203 F 
ATOM     87  C   UNL A   1      46.365  27.583  35.756  1.00  0.00     0.198 A 
ATOM     88  C   UNL A   1      44.823  25.805  36.228  1.00  0.00     0.198 A 
ATOM     89  F   UNL A   1      42.681  25.815  35.254  1.00  0.00    -0.203 F 
ATOM     90  F   UNL A   1      47.577  28.138  35.902  1.00  0.00    -0.200 F 
ATOM     91  C   UNL A   1      46.067  26.392  36.400  1.00  0.00     0.200 A 
ATOM     92  F   UNL A   1      44.528  24.660  36.860  1.00  0.00    -0.200 F 
ATOM     93  F   UNL A   1      46.982  25.806  37.185  1.00  0.00    -0.200 F 
ENDBRANCH  60  83
ENDBRANCH  34  35
ENDBRANCH  27  29
ENDBRANCH  26  27
ENDBRANCH  25  26
ENDBRANCH  24  25
ENDBRANCH  23  24
ENDBRANCH  22  23
ENDBRANCH   1  22
TORSDOF 19
ENDMDL
MODEL 3
REMARK VINA RESULT:     -10.1      3.976      9.334
REMARK SMILES CN(CC(C)(C)O)C(=O)N[C@H]1CC[C@H](C(=O)OCCOCCOC(=O)c2ccc(-c3c4nc(c(-c5c(F)c(F)c(F)c(F)c5F)c5ccc([nH]5)c(-c5c(F)c(F)c(F)c(F)c5F)c5nc(c(-c6c(F)c(F)c(F)c(F)c6F)c6ccc3[nH]6)C=C5)C=C4)cc2)C1
REMARK SMILES IDX 18 1 17 2 15 3 16 4 14 5 11 6 12 7 89 8 13 9 10 10 8 11 9 12
REMARK SMILES IDX 2 14 1 15 3 16 4 17 5 18 6 19 7 20 19 22 20 23 21 24 22 25
REMARK SMILES IDX 23 26 24 27 25 28 26 29 27 30 88 31 28 32 87 33 29 34 30 35
REMARK SMILES IDX 31 36 81 37 32 38 86 39 80 40 82 41 33 42 85 43 79 44 78 45
REMARK SMILES IDX 34 47 66 48 46 49 65 50 47 51 50 52 64 53 83 54 48 55 49 56
REMARK SMILES IDX 63 58 84 59 51 60 35 61 36 62 44 63 37 64 38 65 42 66 45 67
REMARK SMILES IDX 39 68 40 69 43 70 41 71 67 72 68 73 76 74 69 75 70 76 74 77
REMARK SMILES IDX 77 78 71 79 72 80 75 81 73 82 52 83 53 84 61 85 54 86 55 87
REMARK SMILES IDX 59 88 62 89 56 90 57 91 60 92 58 93
REMARK H PARENT 10 13 7 21 82 46 50 57
REMARK Flexibility Score: inf
ROOT
ATOM      1  C   UNL A   1      41.247  21.202  26.931  1.00  0.00     0.261 C 
ENDROOT
BRANCH   1   2
ATOM      2  O   UNL A   1      40.111  21.558  26.131  1.00  0.00    -0.463 OA
BRANCH   2   3
ATOM      3  C   UNL A   1      39.290  22.552  26.556  1.00  0.00     0.309 C 
ATOM      4  O   UNL A   1      39.636  23.538  27.188  1.00  0.00    -0.252 OA
BRANCH   3   5
ATOM      5  C   UNL A   1      37.908  22.333  25.972  1.00  0.00     0.101 C 
ATOM      6  C   UNL A   1      36.432  21.463  24.264  1.00  0.00     0.084 C 
ATOM      7  C   UNL A   1      36.670  22.931  23.951  1.00  0.00     0.026 C 
ATOM      8  C   UNL A   1      37.752  21.145  25.022  1.00  0.00     0.040 C 
ATOM      9  C   UNL A   1      37.383  23.523  25.156  1.00  0.00     0.017 C 
BRANCH   6  10
ATOM     10  N   UNL A   1      35.315  20.967  25.098  1.00  0.00    -0.335 N 
ATOM     11  C   UNL A   1      33.999  21.020  25.335  1.00  0.00     0.317 C 
ATOM     12  O   UNL A   1      33.515  19.899  25.556  1.00  0.00    -0.249 OA
ATOM     13  H   UNL A   1      35.699  20.336  25.749  1.00  0.00     0.165 HD
BRANCH  11  14
ATOM     14  N   UNL A   1      33.233  22.132  25.485  1.00  0.00    -0.325 N 
ATOM     15  C   UNL A   1      33.833  23.201  26.282  1.00  0.00     0.148 C 
BRANCH  14  16
ATOM     16  C   UNL A   1      32.017  22.518  24.787  1.00  0.00     0.155 C 
BRANCH  16  17
ATOM     17  C   UNL A   1      32.142  22.689  23.248  1.00  0.00     0.077 C 
ATOM     18  C   UNL A   1      33.343  23.539  22.830  1.00  0.00     0.043 C 
ATOM     19  C   UNL A   1      32.148  21.301  22.590  1.00  0.00     0.043 C 
BRANCH  17  20
ATOM     20  O   UNL A   1      30.975  23.366  22.751  1.00  0.00    -0.389 OA
ATOM     21  H   UNL A   1      31.205  23.863  21.951  1.00  0.00     0.211 HD
ENDBRANCH  17  20
ENDBRANCH  16  17
ENDBRANCH  14  16
ENDBRANCH  11  14
ENDBRANCH   6  10
ENDBRANCH   3   5
ENDBRANCH   2   3
ENDBRANCH   1   2
BRANCH   1  22
ATOM     22  C   UNL A   1      42.055  20.189  26.116  1.00  0.00     0.202 C 
BRANCH  22  23
ATOM     23  O   UNL A   1      42.949  20.819  25.194  1.00  0.00    -0.374 OA
BRANCH  23  24
ATOM     24  C   UNL A   1      44.338  20.519  25.363  1.00  0.00     0.202 C 
BRANCH  24  25
ATOM     25  C   UNL A   1      45.217  21.774  25.411  1.00  0.00     0.261 C 
BRANCH  25  26
ATOM     26  O   UNL A   1      44.627  22.758  26.284  1.00  0.00    -0.460 OA
BRANCH  26  27
ATOM     27  C   UNL A   1      44.511  23.999  25.766  1.00  0.00     0.338 C 
ATOM     28  O   UNL A   1      44.780  24.360  24.627  1.00  0.00    -0.246 OA
BRANCH  27  29
ATOM     29  C   UNL A   1      43.817  24.870  26.730  1.00  0.00     0.060 A 
ATOM     30  C   UNL A   1      44.167  26.225  26.742  1.00  0.00     0.016 A 
ATOM     31  C   UNL A   1      42.869  24.375  27.630  1.00  0.00     0.016 A 
ATOM     32  C   UNL A   1      43.587  27.089  27.670  1.00  0.00     0.010 A 
ATOM     33  C   UNL A   1      42.295  25.242  28.566  1.00  0.00     0.010 A 
ATOM     34  C   UNL A   1      42.666  26.598  28.604  1.00  0.00    -0.014 A 
BRANCH  34  35
ATOM     35  C   UNL A   1      42.168  27.485  29.683  1.00  0.00     0.031 A 
ATOM     36  C   UNL A   1      42.861  27.485  31.015  1.00  0.00     0.074 A 
ATOM     37  C   UNL A   1      41.116  28.297  29.470  1.00  0.00     0.049 A 
ATOM     38  N   UNL A   1      42.560  28.138  32.109  1.00  0.00    -0.248 NA
ATOM     39  C   UNL A   1      44.058  26.636  31.130  1.00  0.00     0.031 C 
ATOM     40  C   UNL A   1      40.390  28.423  28.208  1.00  0.00     0.029 A 
ATOM     41  N   UNL A   1      40.472  29.164  30.318  1.00  0.00    -0.354 N 
ATOM     42  C   UNL A   1      43.525  27.780  33.040  1.00  0.00     0.074 A 
ATOM     43  C   UNL A   1      44.407  26.831  32.394  1.00  0.00     0.031 C 
ATOM     44  C   UNL A   1      39.389  29.305  28.369  1.00  0.00     0.029 A 
ATOM     45  C   UNL A   1      39.382  29.777  29.752  1.00  0.00     0.049 A 
ATOM     46  H   UNL A   1      40.765  29.330  31.244  1.00  0.00     0.167 HD
ATOM     47  C   UNL A   1      43.665  28.210  34.317  1.00  0.00     0.037 A 
ATOM     48  C   UNL A   1      38.465  30.599  30.300  1.00  0.00     0.037 A 
ATOM     49  C   UNL A   1      42.789  29.154  34.957  1.00  0.00     0.049 A 
ATOM     50  C   UNL A   1      38.586  30.983  31.752  1.00  0.00     0.074 A 
ATOM     51  C   UNL A   1      42.870  29.676  36.237  1.00  0.00     0.029 A 
ATOM     52  N   UNL A   1      41.662  29.709  34.370  1.00  0.00    -0.354 N 
ATOM     53  N   UNL A   1      39.518  30.663  32.617  1.00  0.00    -0.248 NA
ATOM     54  C   UNL A   1      37.524  31.836  32.305  1.00  0.00     0.031 C 
ATOM     55  C   UNL A   1      41.762  30.505  36.442  1.00  0.00     0.029 A 
ATOM     56  C   UNL A   1      41.017  30.537  35.275  1.00  0.00     0.049 A 
ATOM     57  H   UNL A   1      41.364  29.539  33.447  1.00  0.00     0.167 HD
ATOM     58  C   UNL A   1      39.166  31.289  33.807  1.00  0.00     0.074 A 
ATOM     59  C   UNL A   1      37.943  32.019  33.549  1.00  0.00     0.031 C 
ATOM     60  C   UNL A   1      39.799  31.258  35.005  1.00  0.00     0.037 A 
BRANCH  47  61
ATOM     61  C   UNL A   1      44.799  27.644  35.119  1.00  0.00     0.064 A 
ATOM     62  C   UNL A   1      46.049  28.279  35.178  1.00  0.00     0.173 A 
ATOM     63  C   UNL A   1      44.619  26.477  35.876  1.00  0.00     0.173 A 
ATOM     64  F   UNL A   1      46.275  29.391  34.462  1.00  0.00    -0.203 F 
ATOM     65  C   UNL A   1      47.082  27.754  35.948  1.00  0.00     0.198 A 
ATOM     66  C   UNL A   1      45.646  25.969  36.666  1.00  0.00     0.198 A 
ATOM     67  F   UNL A   1      43.440  25.835  35.857  1.00  0.00    -0.203 F 
ATOM     68  F   UNL A   1      48.280  28.355  35.960  1.00  0.00    -0.200 F 
ATOM     69  C   UNL A   1      46.878  26.604  36.698  1.00  0.00     0.200 A 
ATOM     70  F   UNL A   1      45.443  24.865  37.398  1.00  0.00    -0.200 F 
ATOM     71  F   UNL A   1      47.871  26.105  37.446  1.00  0.00    -0.200 F 
ENDBRANCH  47  61
BRANCH  48  72
ATOM     72  C   UNL A   1      37.327  31.091  29.480  1.00  0.00     0.064 A 
ATOM     73  C   UNL A   1      37.262  32.425  29.056  1.00  0.00     0.173 A 
ATOM     74  C   UNL A   1      36.269  30.240  29.124  1.00  0.00     0.173 A 
ATOM     75  F   UNL A   1      38.235  33.283  29.397  1.00  0.00    -0.203 F 
ATOM     76  C   UNL A   1      36.176  32.894  28.319  1.00  0.00     0.198 A 
ATOM     77  C   UNL A   1      35.198  30.703  28.362  1.00  0.00     0.198 A 
ATOM     78  F   UNL A   1      36.281  28.956  29.509  1.00  0.00    -0.203 F 
ATOM     79  F   UNL A   1      36.117  34.184  27.964  1.00  0.00    -0.200 F 
ATOM     80  C   UNL A   1      35.149  32.030  27.967  1.00  0.00     0.200 A 
ATOM     81  F   UNL A   1      34.213  29.863  28.017  1.00  0.00    -0.200 F 
ATOM     82  F   UNL A   1      34.106  32.480  27.256  1.00  0.00    -0.200 F 
ENDBRANCH  48  72
BRANCH  60  83
ATOM     83  C   UNL A   1      39.194  32.045  36.130  1.00  0.00     0.064 A 
ATOM     84  C   UNL A   1      38.235  31.481  36.985  1.00  0.00     0.173 A 
ATOM     85  C   UNL A   1      39.622  33.355  36.395  1.00  0.00     0.173 A 
ATOM     86  F   UNL A   1      37.782  30.238  36.763  1.00  0.00    -0.203 F 
ATOM     87  C   UNL A   1      37.719  32.205  38.056  1.00  0.00     0.198 A 
ATOM     88  C   UNL A   1      39.123  34.065  37.483  1.00  0.00     0.198 A 
ATOM     89  F   UNL A   1      40.542  33.937  35.611  1.00  0.00    -0.203 F 
ATOM     90  F   UNL A   1      36.778  31.659  38.840  1.00  0.00    -0.200 F 
ATOM     91  C   UNL A   1      38.169  33.492  38.310  1.00  0.00     0.200 A 
ATOM     92  F   UNL A   1      39.570  35.305  37.735  1.00  0.00    -0.200 F 
ATOM     93  F   UNL A   1      37.681  34.181  39.350  1.00  0.00    -0.200 F 
ENDBRANCH  60  83
ENDBRANCH  34  35
ENDBRANCH  27  29
ENDBRANCH  26  27
ENDBRANCH  25  26
ENDBRANCH  24  25
ENDBRANCH  23  24
ENDBRANCH  22  23
ENDBRANCH   1  22
TORSDOF 19
ENDMDL
