MODEL 1
REMARK VINA RESULT:     -12.8      0.000      0.000
REMARK SMILES Cc1c(NC(=O)[C@@H]2CC=CC[C@@H]2C(=O)OCCOCCOC(=O)c2ccc(-c3c4nc(c(-c5c(F)c(F)c(F)c(F)c5F)c5ccc([nH]5)c(-c5c(F)c(F)c(F)c(F)c5F)c5nc(c(-c6c(F)c(F)c(F)c(F)c6F)c6ccc3[nH]6)C=C5)C=C4)cc2)cccc1C(=O)N1CCOCC1
REMARK SMILES IDX 17 1 16 2 15 3 13 4 14 5 12 6 7 7 8 8 9 9 11 10 10 11 5 12
REMARK SMILES IDX 4 13 6 15 3 16 1 17 2 18 90 19 87 20 89 21 88 22 91 23 92 24
REMARK SMILES IDX 93 25 94 26 98 27 95 28 97 29 96 30 18 31 19 32 20 33 21 34
REMARK SMILES IDX 22 35 23 36 24 37 25 38 86 39 26 40 85 41 27 42 28 43 29 44
REMARK SMILES IDX 79 45 30 46 84 47 78 48 80 49 31 50 83 51 77 52 76 53 32 55
REMARK SMILES IDX 64 56 44 57 63 58 45 59 48 60 62 61 81 62 46 63 47 64 61 66
REMARK SMILES IDX 82 67 49 68 33 69 34 70 42 71 35 72 36 73 40 74 43 75 37 76
REMARK SMILES IDX 38 77 41 78 39 79 65 80 66 81 74 82 67 83 68 84 72 85 75 86
REMARK SMILES IDX 69 87 70 88 73 89 71 90 50 91 51 92 59 93 52 94 53 95 57 96
REMARK SMILES IDX 60 97 54 98 55 99 58 100 56 101
REMARK H PARENT 4 14 80 54 48 65
REMARK Flexibility Score: inf
ROOT
ATOM      1  C   UNL A   1      35.832  23.214  23.267  1.00  0.00     0.202 C 
ENDROOT
BRANCH   1   2
ATOM      2  C   UNL A   1      34.882  24.075  24.040  1.00  0.00     0.261 C 
BRANCH   2   3
ATOM      3  O   UNL A   1      34.187  25.047  23.233  1.00  0.00    -0.463 OA
BRANCH   3   4
ATOM      4  C   UNL A   1      33.437  26.074  23.732  1.00  0.00     0.310 C 
ATOM      5  O   UNL A   1      33.134  27.088  23.148  1.00  0.00    -0.252 OA
BRANCH   4   6
ATOM      6  C   UNL A   1      33.009  25.747  25.169  1.00  0.00     0.116 C 
ATOM      7  C   UNL A   1      31.463  25.771  25.386  1.00  0.00     0.097 C 
ATOM      8  C   UNL A   1      30.899  27.192  25.130  1.00  0.00     0.041 C 
ATOM      9  C   UNL A   1      31.748  28.263  25.753  1.00  0.00    -0.030 C 
ATOM     10  C   UNL A   1      33.695  26.727  26.126  1.00  0.00     0.043 C 
ATOM     11  C   UNL A   1      32.981  28.045  26.234  1.00  0.00    -0.030 C 
BRANCH   7  12
ATOM     12  C   UNL A   1      30.854  24.648  24.555  1.00  0.00     0.228 C 
ATOM     13  N   UNL A   1      30.923  23.330  24.835  1.00  0.00    -0.326 N 
ATOM     14  H   UNL A   1      30.169  22.823  24.456  1.00  0.00     0.169 HD
ATOM     15  O   UNL A   1      30.268  24.912  23.498  1.00  0.00    -0.274 OA
BRANCH  13  16
ATOM     16  C   UNL A   1      31.821  22.517  25.545  1.00  0.00     0.044 A 
ATOM     17  C   UNL A   1      32.235  21.290  23.381  1.00  0.00     0.047 C 
ATOM     18  C   UNL A   1      32.590  21.565  24.813  1.00  0.00    -0.015 A 
ATOM     19  C   UNL A   1      33.674  20.919  25.453  1.00  0.00     0.045 A 
ATOM     20  C   UNL A   1      32.063  22.697  26.904  1.00  0.00     0.026 A 
ATOM     21  C   UNL A   1      33.847  21.109  26.838  1.00  0.00     0.014 A 
ATOM     22  C   UNL A   1      33.029  21.960  27.564  1.00  0.00     0.003 A 
BRANCH  19  23
ATOM     23  C   UNL A   1      34.622  19.917  24.852  1.00  0.00     0.254 C 
ATOM     24  O   UNL A   1      35.793  20.260  24.675  1.00  0.00    -0.269 OA
ATOM     25  N   UNL A   1      34.245  18.604  24.626  1.00  0.00    -0.334 N 
ATOM     26  C   UNL A   1      33.193  18.175  23.697  1.00  0.00     0.148 C 
ATOM     27  C   UNL A   1      35.258  17.584  24.865  1.00  0.00     0.148 C 
ATOM     28  C   UNL A   1      32.622  16.798  24.101  1.00  0.00     0.181 C 
ATOM     29  C   UNL A   1      34.580  16.305  25.347  1.00  0.00     0.181 C 
ATOM     30  O   UNL A   1      33.653  15.829  24.358  1.00  0.00    -0.378 OA
ENDBRANCH  19  23
ENDBRANCH  13  16
ENDBRANCH   7  12
ENDBRANCH   4   6
ENDBRANCH   3   4
ENDBRANCH   2   3
ENDBRANCH   1   2
BRANCH   1  31
ATOM     31  O   UNL A   1      37.077  23.322  23.923  1.00  0.00    -0.374 OA
BRANCH  31  32
ATOM     32  C   UNL A   1      37.031  23.696  25.283  1.00  0.00     0.202 C 
BRANCH  32  33
ATOM     33  C   UNL A   1      38.031  22.918  26.142  1.00  0.00     0.261 C 
BRANCH  33  34
ATOM     34  O   UNL A   1      39.353  23.481  25.995  1.00  0.00    -0.460 OA
BRANCH  34  35
ATOM     35  C   UNL A   1      39.936  23.930  27.142  1.00  0.00     0.338 C 
ATOM     36  O   UNL A   1      40.438  23.219  28.000  1.00  0.00    -0.246 OA
BRANCH  35  37
ATOM     37  C   UNL A   1      39.613  25.371  27.347  1.00  0.00     0.060 A 
ATOM     38  C   UNL A   1      40.180  26.345  26.500  1.00  0.00     0.016 A 
ATOM     39  C   UNL A   1      39.059  25.747  28.567  1.00  0.00     0.016 A 
ATOM     40  C   UNL A   1      40.342  27.658  26.955  1.00  0.00     0.010 A 
ATOM     41  C   UNL A   1      39.365  26.992  29.066  1.00  0.00     0.010 A 
ATOM     42  C   UNL A   1      40.027  27.945  28.279  1.00  0.00    -0.014 A 
BRANCH  42  43
ATOM     43  C   UNL A   1      40.316  29.192  28.979  1.00  0.00     0.031 A 
ATOM     44  C   UNL A   1      39.230  30.189  29.001  1.00  0.00     0.074 A 
ATOM     45  C   UNL A   1      41.407  29.343  29.769  1.00  0.00     0.049 A 
ATOM     46  N   UNL A   1      39.389  31.401  29.396  1.00  0.00    -0.248 NA
ATOM     47  C   UNL A   1      37.871  29.936  28.506  1.00  0.00     0.031 C 
ATOM     48  C   UNL A   1      41.626  30.282  30.871  1.00  0.00     0.029 A 
ATOM     49  N   UNL A   1      42.635  28.666  29.712  1.00  0.00    -0.354 N 
ATOM     50  C   UNL A   1      38.134  31.910  29.606  1.00  0.00     0.074 A 
ATOM     51  C   UNL A   1      37.259  31.077  28.832  1.00  0.00     0.031 C 
ATOM     52  C   UNL A   1      42.947  30.358  31.128  1.00  0.00     0.029 A 
ATOM     53  C   UNL A   1      43.628  29.572  30.109  1.00  0.00     0.049 A 
ATOM     54  H   UNL A   1      42.772  27.728  29.443  1.00  0.00     0.167 HD
ATOM     55  C   UNL A   1      37.991  32.856  30.573  1.00  0.00     0.037 A 
ATOM     56  C   UNL A   1      44.552  29.984  29.199  1.00  0.00     0.037 A 
ATOM     57  C   UNL A   1      39.311  33.341  31.025  1.00  0.00     0.049 A 
ATOM     58  C   UNL A   1      44.369  31.452  28.952  1.00  0.00     0.074 A 
ATOM     59  C   UNL A   1      40.025  33.309  32.210  1.00  0.00     0.029 A 
ATOM     60  N   UNL A   1      40.239  33.717  30.052  1.00  0.00    -0.354 N 
ATOM     61  N   UNL A   1      43.312  32.100  29.359  1.00  0.00    -0.248 NA
ATOM     62  C   UNL A   1      45.308  32.311  28.252  1.00  0.00     0.031 C 
ATOM     63  C   UNL A   1      41.396  33.630  31.913  1.00  0.00     0.029 A 
ATOM     64  C   UNL A   1      41.510  33.899  30.558  1.00  0.00     0.049 A 
ATOM     65  H   UNL A   1      40.010  33.842  29.103  1.00  0.00     0.167 HD
ATOM     66  C   UNL A   1      43.451  33.422  29.132  1.00  0.00     0.074 A 
ATOM     67  C   UNL A   1      44.665  33.493  28.323  1.00  0.00     0.031 C 
ATOM     68  C   UNL A   1      42.577  34.334  29.654  1.00  0.00     0.037 A 
BRANCH  55  69
ATOM     69  C   UNL A   1      36.665  33.223  31.215  1.00  0.00     0.064 A 
ATOM     70  C   UNL A   1      35.684  33.898  30.462  1.00  0.00     0.173 A 
ATOM     71  C   UNL A   1      36.312  33.015  32.572  1.00  0.00     0.173 A 
ATOM     72  F   UNL A   1      35.890  34.200  29.173  1.00  0.00    -0.203 F 
ATOM     73  C   UNL A   1      34.458  34.302  31.009  1.00  0.00     0.198 A 
ATOM     74  C   UNL A   1      35.063  33.361  33.099  1.00  0.00     0.198 A 
ATOM     75  F   UNL A   1      37.171  32.534  33.476  1.00  0.00    -0.203 F 
ATOM     76  F   UNL A   1      33.586  34.983  30.253  1.00  0.00    -0.200 F 
ATOM     77  C   UNL A   1      34.138  34.012  32.320  1.00  0.00     0.200 A 
ATOM     78  F   UNL A   1      34.783  33.077  34.381  1.00  0.00    -0.200 F 
ATOM     79  F   UNL A   1      32.958  34.380  32.836  1.00  0.00    -0.200 F 
ENDBRANCH  55  69
BRANCH  56  80
ATOM     80  C   UNL A   1      44.905  28.909  28.220  1.00  0.00     0.064 A 
ATOM     81  C   UNL A   1      45.724  27.852  28.672  1.00  0.00     0.173 A 
ATOM     82  C   UNL A   1      44.137  28.653  27.081  1.00  0.00     0.173 A 
ATOM     83  F   UNL A   1      46.435  28.008  29.791  1.00  0.00    -0.203 F 
ATOM     84  C   UNL A   1      45.696  26.580  28.100  1.00  0.00     0.198 A 
ATOM     85  C   UNL A   1      44.095  27.370  26.515  1.00  0.00     0.198 A 
ATOM     86  F   UNL A   1      43.323  29.598  26.593  1.00  0.00    -0.203 F 
ATOM     87  F   UNL A   1      46.385  25.576  28.663  1.00  0.00    -0.200 F 
ATOM     88  C   UNL A   1      44.840  26.329  27.048  1.00  0.00     0.200 A 
ATOM     89  F   UNL A   1      43.245  27.115  25.509  1.00  0.00    -0.200 F 
ATOM     90  F   UNL A   1      44.680  25.075  26.600  1.00  0.00    -0.200 F 
ENDBRANCH  56  80
BRANCH  68  91
ATOM     91  C   UNL A   1      42.649  35.765  29.244  1.00  0.00     0.064 A 
ATOM     92  C   UNL A   1      43.407  36.711  29.944  1.00  0.00     0.173 A 
ATOM     93  C   UNL A   1      41.992  36.216  28.084  1.00  0.00     0.173 A 
ATOM     94  F   UNL A   1      43.922  36.427  31.150  1.00  0.00    -0.203 F 
ATOM     95  C   UNL A   1      43.669  37.962  29.399  1.00  0.00     0.198 A 
ATOM     96  C   UNL A   1      42.191  37.493  27.583  1.00  0.00     0.198 A 
ATOM     97  F   UNL A   1      41.177  35.427  27.371  1.00  0.00    -0.203 F 
ATOM     98  F   UNL A   1      44.530  38.782  30.015  1.00  0.00    -0.200 F 
ATOM     99  C   UNL A   1      43.075  38.345  28.210  1.00  0.00     0.200 A 
ATOM    100  F   UNL A   1      41.557  37.869  26.464  1.00  0.00    -0.200 F 
ATOM    101  F   UNL A   1      43.355  39.535  27.665  1.00  0.00    -0.200 F 
ENDBRANCH  68  91
ENDBRANCH  42  43
ENDBRANCH  35  37
ENDBRANCH  34  35
ENDBRANCH  33  34
ENDBRANCH  32  33
ENDBRANCH  31  32
ENDBRANCH   1  31
TORSDOF 17
ENDMDL
MODEL 2
REMARK VINA RESULT:     -12.8      1.846      4.717
REMARK SMILES Cc1c(NC(=O)[C@@H]2CC=CC[C@@H]2C(=O)OCCOCCOC(=O)c2ccc(-c3c4nc(c(-c5c(F)c(F)c(F)c(F)c5F)c5ccc([nH]5)c(-c5c(F)c(F)c(F)c(F)c5F)c5nc(c(-c6c(F)c(F)c(F)c(F)c6F)c6ccc3[nH]6)C=C5)C=C4)cc2)cccc1C(=O)N1CCOCC1
REMARK SMILES IDX 17 1 16 2 15 3 13 4 14 5 12 6 7 7 8 8 9 9 11 10 10 11 5 12
REMARK SMILES IDX 4 13 6 15 3 16 1 17 2 18 90 19 87 20 89 21 88 22 91 23 92 24
REMARK SMILES IDX 93 25 94 26 98 27 95 28 97 29 96 30 18 31 19 32 20 33 21 34
REMARK SMILES IDX 22 35 23 36 24 37 25 38 86 39 26 40 85 41 27 42 28 43 29 44
REMARK SMILES IDX 79 45 30 46 84 47 78 48 80 49 31 50 83 51 77 52 76 53 32 55
REMARK SMILES IDX 64 56 44 57 63 58 45 59 48 60 62 61 81 62 46 63 47 64 61 66
REMARK SMILES IDX 82 67 49 68 33 69 34 70 42 71 35 72 36 73 40 74 43 75 37 76
REMARK SMILES IDX 38 77 41 78 39 79 65 80 66 81 74 82 67 83 68 84 72 85 75 86
REMARK SMILES IDX 69 87 70 88 73 89 71 90 50 91 51 92 59 93 52 94 53 95 57 96
REMARK SMILES IDX 60 97 54 98 55 99 58 100 56 101
REMARK H PARENT 4 14 80 54 48 65
REMARK Flexibility Score: inf
ROOT
ATOM      1  C   UNL A   1      36.381  21.947  24.141  1.00  0.00     0.202 C 
ENDROOT
BRANCH   1   2
ATOM      2  C   UNL A   1      35.811  20.979  25.130  1.00  0.00     0.261 C 
BRANCH   2   3
ATOM      3  O   UNL A   1      34.746  21.526  25.934  1.00  0.00    -0.463 OA
BRANCH   3   4
ATOM      4  C   UNL A   1      34.186  22.758  25.744  1.00  0.00     0.310 C 
ATOM      5  O   UNL A   1      34.562  23.797  26.235  1.00  0.00    -0.252 OA
BRANCH   4   6
ATOM      6  C   UNL A   1      32.994  22.639  24.786  1.00  0.00     0.116 C 
ATOM      7  C   UNL A   1      32.398  24.016  24.352  1.00  0.00     0.097 C 
ATOM      8  C   UNL A   1      31.831  24.775  25.578  1.00  0.00     0.041 C 
ATOM      9  C   UNL A   1      31.037  23.880  26.485  1.00  0.00    -0.030 C 
ATOM     10  C   UNL A   1      31.913  21.775  25.442  1.00  0.00     0.043 C 
ATOM     11  C   UNL A   1      31.043  22.542  26.397  1.00  0.00    -0.030 C 
BRANCH   7  12
ATOM     12  C   UNL A   1      33.455  24.751  23.537  1.00  0.00     0.228 C 
ATOM     13  N   UNL A   1      33.680  26.081  23.550  1.00  0.00    -0.326 N 
ATOM     14  H   UNL A   1      34.608  26.311  23.311  1.00  0.00     0.169 HD
ATOM     15  O   UNL A   1      34.172  24.123  22.748  1.00  0.00    -0.274 OA
BRANCH  13  16
ATOM     16  C   UNL A   1      32.896  27.213  23.826  1.00  0.00     0.044 A 
ATOM     17  C   UNL A   1      31.240  26.332  22.140  1.00  0.00     0.047 C 
ATOM     18  C   UNL A   1      31.605  27.301  23.227  1.00  0.00    -0.015 A 
ATOM     19  C   UNL A   1      30.702  28.290  23.683  1.00  0.00     0.045 A 
ATOM     20  C   UNL A   1      33.292  28.175  24.751  1.00  0.00     0.026 A 
ATOM     21  C   UNL A   1      31.169  29.261  24.590  1.00  0.00     0.014 A 
ATOM     22  C   UNL A   1      32.461  29.227  25.091  1.00  0.00     0.003 A 
BRANCH  19  23
ATOM     23  C   UNL A   1      29.293  28.525  23.211  1.00  0.00     0.254 C 
ATOM     24  O   UNL A   1      28.499  27.583  23.261  1.00  0.00    -0.269 OA
ATOM     25  N   UNL A   1      28.846  29.787  22.858  1.00  0.00    -0.334 N 
ATOM     26  C   UNL A   1      29.361  30.583  21.738  1.00  0.00     0.148 C 
ATOM     27  C   UNL A   1      27.474  30.120  23.222  1.00  0.00     0.148 C 
ATOM     28  C   UNL A   1      29.114  32.090  21.966  1.00  0.00     0.181 C 
ATOM     29  C   UNL A   1      27.379  31.614  23.513  1.00  0.00     0.181 C 
ATOM     30  O   UNL A   1      27.759  32.373  22.353  1.00  0.00    -0.378 OA
ENDBRANCH  19  23
ENDBRANCH  13  16
ENDBRANCH   7  12
ENDBRANCH   4   6
ENDBRANCH   3   4
ENDBRANCH   2   3
ENDBRANCH   1   2
BRANCH   1  31
ATOM     31  O   UNL A   1      37.642  22.325  24.650  1.00  0.00    -0.374 OA
BRANCH  31  32
ATOM     32  C   UNL A   1      38.231  21.434  25.571  1.00  0.00     0.202 C 
BRANCH  32  33
ATOM     33  C   UNL A   1      39.468  22.026  26.253  1.00  0.00     0.261 C 
BRANCH  33  34
ATOM     34  O   UNL A   1      39.287  23.443  26.465  1.00  0.00    -0.460 OA
BRANCH  34  35
ATOM     35  C   UNL A   1      40.199  24.041  27.283  1.00  0.00     0.338 C 
ATOM     36  O   UNL A   1      41.043  23.454  27.942  1.00  0.00    -0.246 OA
BRANCH  35  37
ATOM     37  C   UNL A   1      39.833  25.472  27.491  1.00  0.00     0.060 A 
ATOM     38  C   UNL A   1      40.323  26.457  26.611  1.00  0.00     0.016 A 
ATOM     39  C   UNL A   1      39.325  25.839  28.734  1.00  0.00     0.016 A 
ATOM     40  C   UNL A   1      40.458  27.780  27.047  1.00  0.00     0.010 A 
ATOM     41  C   UNL A   1      39.609  27.099  29.207  1.00  0.00     0.010 A 
ATOM     42  C   UNL A   1      40.198  28.068  28.382  1.00  0.00    -0.014 A 
BRANCH  42  43
ATOM     43  C   UNL A   1      40.473  29.331  29.057  1.00  0.00     0.031 A 
ATOM     44  C   UNL A   1      39.370  30.308  29.081  1.00  0.00     0.074 A 
ATOM     45  C   UNL A   1      41.574  29.515  29.828  1.00  0.00     0.049 A 
ATOM     46  N   UNL A   1      39.512  31.529  29.454  1.00  0.00    -0.248 NA
ATOM     47  C   UNL A   1      38.009  30.022  28.611  1.00  0.00     0.031 C 
ATOM     48  C   UNL A   1      41.792  30.475  30.912  1.00  0.00     0.029 A 
ATOM     49  N   UNL A   1      42.813  28.859  29.763  1.00  0.00    -0.354 N 
ATOM     50  C   UNL A   1      38.251  32.018  29.676  1.00  0.00     0.074 A 
ATOM     51  C   UNL A   1      37.380  31.157  28.928  1.00  0.00     0.031 C 
ATOM     52  C   UNL A   1      43.116  30.579  31.147  1.00  0.00     0.029 A 
ATOM     53  C   UNL A   1      43.795  29.790  30.129  1.00  0.00     0.049 A 
ATOM     54  H   UNL A   1      42.964  27.920  29.506  1.00  0.00     0.167 HD
ATOM     55  C   UNL A   1      38.105  32.976  30.630  1.00  0.00     0.037 A 
ATOM     56  C   UNL A   1      44.697  30.204  29.199  1.00  0.00     0.037 A 
ATOM     57  C   UNL A   1      39.423  33.493  31.053  1.00  0.00     0.049 A 
ATOM     58  C   UNL A   1      44.483  31.664  28.931  1.00  0.00     0.074 A 
ATOM     59  C   UNL A   1      40.155  33.493  32.227  1.00  0.00     0.029 A 
ATOM     60  N   UNL A   1      40.329  33.870  30.060  1.00  0.00    -0.354 N 
ATOM     61  N   UNL A   1      43.420  32.299  29.344  1.00  0.00    -0.248 NA
ATOM     62  C   UNL A   1      45.395  32.529  28.203  1.00  0.00     0.031 C 
ATOM     63  C   UNL A   1      41.515  33.834  31.904  1.00  0.00     0.029 A 
ATOM     64  C   UNL A   1      41.604  34.083  30.543  1.00  0.00     0.049 A 
ATOM     65  H   UNL A   1      40.083  33.976  29.113  1.00  0.00     0.167 HD
ATOM     66  C   UNL A   1      43.532  33.619  29.094  1.00  0.00     0.074 A 
ATOM     67  C   UNL A   1      44.731  33.700  28.265  1.00  0.00     0.031 C 
ATOM     68  C   UNL A   1      42.649  34.524  29.615  1.00  0.00     0.037 A 
BRANCH  55  69
ATOM     69  C   UNL A   1      36.783  33.329  31.287  1.00  0.00     0.064 A 
ATOM     70  C   UNL A   1      35.785  33.991  30.544  1.00  0.00     0.173 A 
ATOM     71  C   UNL A   1      36.449  33.121  32.648  1.00  0.00     0.173 A 
ATOM     72  F   UNL A   1      35.972  34.291  29.251  1.00  0.00    -0.203 F 
ATOM     73  C   UNL A   1      34.561  34.381  31.104  1.00  0.00     0.198 A 
ATOM     74  C   UNL A   1      35.202  33.454  33.190  1.00  0.00     0.198 A 
ATOM     75  F   UNL A   1      37.324  32.653  33.543  1.00  0.00    -0.203 F 
ATOM     76  F   UNL A   1      33.672  35.050  30.356  1.00  0.00    -0.200 F 
ATOM     77  C   UNL A   1      34.260  34.092  32.419  1.00  0.00     0.200 A 
ATOM     78  F   UNL A   1      34.941  33.171  34.475  1.00  0.00    -0.200 F 
ATOM     79  F   UNL A   1      33.082  34.446  32.949  1.00  0.00    -0.200 F 
ENDBRANCH  55  69
BRANCH  56  80
ATOM     80  C   UNL A   1      45.055  29.119  28.231  1.00  0.00     0.064 A 
ATOM     81  C   UNL A   1      45.912  28.093  28.682  1.00  0.00     0.173 A 
ATOM     82  C   UNL A   1      44.267  28.822  27.117  1.00  0.00     0.173 A 
ATOM     83  F   UNL A   1      46.646  28.290  29.781  1.00  0.00    -0.203 F 
ATOM     84  C   UNL A   1      45.905  26.810  28.136  1.00  0.00     0.198 A 
ATOM     85  C   UNL A   1      44.245  27.528  26.576  1.00  0.00     0.198 A 
ATOM     86  F   UNL A   1      43.416  29.736  26.632  1.00  0.00    -0.203 F 
ATOM     87  F   UNL A   1      46.634  25.836  28.700  1.00  0.00    -0.200 F 
ATOM     88  C   UNL A   1      45.031  26.516  27.110  1.00  0.00     0.200 A 
ATOM     89  F   UNL A   1      43.378  27.231  25.597  1.00  0.00    -0.200 F 
ATOM     90  F   UNL A   1      44.894  25.250  26.689  1.00  0.00    -0.200 F 
ENDBRANCH  56  80
BRANCH  68  91
ATOM     91  C   UNL A   1      42.688  35.949  29.182  1.00  0.00     0.064 A 
ATOM     92  C   UNL A   1      43.450  36.916  29.846  1.00  0.00     0.173 A 
ATOM     93  C   UNL A   1      41.992  36.372  28.033  1.00  0.00     0.173 A 
ATOM     94  F   UNL A   1      44.001  36.659  31.041  1.00  0.00    -0.203 F 
ATOM     95  C   UNL A   1      43.678  38.163  29.275  1.00  0.00     0.198 A 
ATOM     96  C   UNL A   1      42.159  37.643  27.507  1.00  0.00     0.198 A 
ATOM     97  F   UNL A   1      41.170  35.560  27.355  1.00  0.00    -0.203 F 
ATOM     98  F   UNL A   1      44.542  39.005  29.854  1.00  0.00    -0.200 F 
ATOM     99  C   UNL A   1      43.045  38.519  28.097  1.00  0.00     0.200 A 
ATOM    100  F   UNL A   1      41.488  37.992  26.400  1.00  0.00    -0.200 F 
ATOM    101  F   UNL A   1      43.293  39.704  27.527  1.00  0.00    -0.200 F 
ENDBRANCH  68  91
ENDBRANCH  42  43
ENDBRANCH  35  37
ENDBRANCH  34  35
ENDBRANCH  33  34
ENDBRANCH  32  33
ENDBRANCH  31  32
ENDBRANCH   1  31
TORSDOF 17
ENDMDL
MODEL 3
REMARK VINA RESULT:     -12.6      3.470      9.777
REMARK SMILES Cc1c(NC(=O)[C@@H]2CC=CC[C@@H]2C(=O)OCCOCCOC(=O)c2ccc(-c3c4nc(c(-c5c(F)c(F)c(F)c(F)c5F)c5ccc([nH]5)c(-c5c(F)c(F)c(F)c(F)c5F)c5nc(c(-c6c(F)c(F)c(F)c(F)c6F)c6ccc3[nH]6)C=C5)C=C4)cc2)cccc1C(=O)N1CCOCC1
REMARK SMILES IDX 17 1 16 2 15 3 13 4 14 5 12 6 7 7 8 8 9 9 11 10 10 11 5 12
REMARK SMILES IDX 4 13 6 15 3 16 1 17 2 18 90 19 87 20 89 21 88 22 91 23 92 24
REMARK SMILES IDX 93 25 94 26 98 27 95 28 97 29 96 30 18 31 19 32 20 33 21 34
REMARK SMILES IDX 22 35 23 36 24 37 25 38 86 39 26 40 85 41 27 42 28 43 29 44
REMARK SMILES IDX 79 45 30 46 84 47 78 48 80 49 31 50 83 51 77 52 76 53 32 55
REMARK SMILES IDX 64 56 44 57 63 58 45 59 48 60 62 61 81 62 46 63 47 64 61 66
REMARK SMILES IDX 82 67 49 68 33 69 34 70 42 71 35 72 36 73 40 74 43 75 37 76
REMARK SMILES IDX 38 77 41 78 39 79 65 80 66 81 74 82 67 83 68 84 72 85 75 86
REMARK SMILES IDX 69 87 70 88 73 89 71 90 50 91 51 92 59 93 52 94 53 95 57 96
REMARK SMILES IDX 60 97 54 98 55 99 58 100 56 101
REMARK H PARENT 4 14 80 54 48 65
REMARK Flexibility Score: inf
ROOT
ATOM      1  C   UNL A   1      34.054  27.781  26.320  1.00  0.00     0.202 C 
ENDROOT
BRANCH   1   2
ATOM      2  C   UNL A   1      33.496  26.408  26.114  1.00  0.00     0.261 C 
BRANCH   2   3
ATOM      3  O   UNL A   1      34.339  25.549  25.318  1.00  0.00    -0.463 OA
BRANCH   3   4
ATOM      4  C   UNL A   1      34.458  24.200  25.498  1.00  0.00     0.310 C 
ATOM      5  O   UNL A   1      34.483  23.619  26.558  1.00  0.00    -0.252 OA
BRANCH   4   6
ATOM      6  C   UNL A   1      34.543  23.505  24.133  1.00  0.00     0.116 C 
ATOM      7  C   UNL A   1      33.844  22.109  24.094  1.00  0.00     0.097 C 
ATOM      8  C   UNL A   1      34.536  21.125  25.070  1.00  0.00     0.041 C 
ATOM      9  C   UNL A   1      36.034  21.202  24.990  1.00  0.00    -0.030 C 
ATOM     10  C   UNL A   1      36.016  23.372  23.734  1.00  0.00     0.043 C 
ATOM     11  C   UNL A   1      36.693  22.185  24.358  1.00  0.00    -0.030 C 
BRANCH   7  12
ATOM     12  C   UNL A   1      32.351  22.325  24.306  1.00  0.00     0.228 C 
ATOM     13  N   UNL A   1      31.554  23.124  23.566  1.00  0.00    -0.326 N 
ATOM     14  H   UNL A   1      30.613  22.833  23.575  1.00  0.00     0.169 HD
ATOM     15  O   UNL A   1      31.776  21.772  25.252  1.00  0.00    -0.274 OA
BRANCH  13  16
ATOM     16  C   UNL A   1      31.759  24.274  22.787  1.00  0.00     0.044 A 
ATOM     17  C   UNL A   1      30.443  25.543  24.525  1.00  0.00     0.047 C 
ATOM     18  C   UNL A   1      31.321  25.527  23.307  1.00  0.00    -0.015 A 
ATOM     19  C   UNL A   1      31.738  26.720  22.670  1.00  0.00     0.045 A 
ATOM     20  C   UNL A   1      32.475  24.237  21.593  1.00  0.00     0.026 A 
ATOM     21  C   UNL A   1      32.427  26.622  21.445  1.00  0.00     0.014 A 
ATOM     22  C   UNL A   1      32.760  25.395  20.892  1.00  0.00     0.003 A 
BRANCH  19  23
ATOM     23  C   UNL A   1      31.419  28.132  23.078  1.00  0.00     0.254 C 
ATOM     24  O   UNL A   1      32.343  28.846  23.470  1.00  0.00    -0.269 OA
ATOM     25  N   UNL A   1      30.157  28.673  22.896  1.00  0.00    -0.334 N 
ATOM     26  C   UNL A   1      28.932  28.200  23.550  1.00  0.00     0.148 C 
ATOM     27  C   UNL A   1      30.099  30.076  22.503  1.00  0.00     0.148 C 
ATOM     28  C   UNL A   1      27.681  28.575  22.727  1.00  0.00     0.181 C 
ATOM     29  C   UNL A   1      28.875  30.301  21.620  1.00  0.00     0.181 C 
ATOM     30  O   UNL A   1      27.676  29.958  22.333  1.00  0.00    -0.378 OA
ENDBRANCH  19  23
ENDBRANCH  13  16
ENDBRANCH   7  12
ENDBRANCH   4   6
ENDBRANCH   3   4
ENDBRANCH   2   3
ENDBRANCH   1   2
BRANCH   1  31
ATOM     31  O   UNL A   1      33.227  28.396  27.284  1.00  0.00    -0.374 OA
BRANCH  31  32
ATOM     32  C   UNL A   1      32.424  29.461  26.823  1.00  0.00     0.202 C 
BRANCH  32  33
ATOM     33  C   UNL A   1      33.117  30.820  26.955  1.00  0.00     0.261 C 
BRANCH  33  34
ATOM     34  O   UNL A   1      33.918  30.854  28.156  1.00  0.00    -0.460 OA
BRANCH  34  35
ATOM     35  C   UNL A   1      35.192  31.312  28.006  1.00  0.00     0.338 C 
ATOM     36  O   UNL A   1      35.498  32.399  27.540  1.00  0.00    -0.246 OA
BRANCH  35  37
ATOM     37  C   UNL A   1      36.161  30.196  28.208  1.00  0.00     0.060 A 
ATOM     38  C   UNL A   1      36.218  29.532  29.450  1.00  0.00     0.016 A 
ATOM     39  C   UNL A   1      37.214  30.077  27.305  1.00  0.00     0.016 A 
ATOM     40  C   UNL A   1      37.400  28.896  29.849  1.00  0.00     0.010 A 
ATOM     41  C   UNL A   1      38.415  29.593  27.766  1.00  0.00     0.010 A 
ATOM     42  C   UNL A   1      38.526  29.025  29.044  1.00  0.00    -0.014 A 
BRANCH  42  43
ATOM     43  C   UNL A   1      39.880  28.607  29.390  1.00  0.00     0.031 A 
ATOM     44  C   UNL A   1      40.243  27.223  29.035  1.00  0.00     0.074 A 
ATOM     45  C   UNL A   1      40.831  29.489  29.785  1.00  0.00     0.049 A 
ATOM     46  N   UNL A   1      41.313  26.643  29.445  1.00  0.00    -0.248 NA
ATOM     47  C   UNL A   1      39.392  26.328  28.241  1.00  0.00     0.031 C 
ATOM     48  C   UNL A   1      42.289  29.364  29.725  1.00  0.00     0.029 A 
ATOM     49  N   UNL A   1      40.669  30.741  30.397  1.00  0.00    -0.354 N 
ATOM     50  C   UNL A   1      41.483  25.536  28.655  1.00  0.00     0.074 A 
ATOM     51  C   UNL A   1      40.184  25.261  28.112  1.00  0.00     0.031 C 
ATOM     52  C   UNL A   1      42.843  30.275  30.549  1.00  0.00     0.029 A 
ATOM     53  C   UNL A   1      41.753  30.922  31.267  1.00  0.00     0.049 A 
ATOM     54  H   UNL A   1      39.930  31.375  30.244  1.00  0.00     0.167 HD
ATOM     55  C   UNL A   1      42.757  25.122  28.416  1.00  0.00     0.037 A 
ATOM     56  C   UNL A   1      41.529  30.962  32.608  1.00  0.00     0.037 A 
ATOM     57  C   UNL A   1      43.706  25.821  29.307  1.00  0.00     0.049 A 
ATOM     58  C   UNL A   1      42.185  29.772  33.246  1.00  0.00     0.074 A 
ATOM     59  C   UNL A   1      44.757  26.704  29.135  1.00  0.00     0.029 A 
ATOM     60  N   UNL A   1      43.413  25.866  30.671  1.00  0.00    -0.354 N 
ATOM     61  N   UNL A   1      42.635  28.768  32.545  1.00  0.00    -0.248 NA
ATOM     62  C   UNL A   1      42.393  29.590  34.672  1.00  0.00     0.031 C 
ATOM     63  C   UNL A   1      45.050  27.302  30.410  1.00  0.00     0.029 A 
ATOM     64  C   UNL A   1      44.209  26.754  31.366  1.00  0.00     0.049 A 
ATOM     65  H   UNL A   1      42.712  25.320  31.094  1.00  0.00     0.167 HD
ATOM     66  C   UNL A   1      43.294  27.898  33.338  1.00  0.00     0.074 A 
ATOM     67  C   UNL A   1      43.010  28.392  34.682  1.00  0.00     0.031 C 
ATOM     68  C   UNL A   1      44.036  26.874  32.816  1.00  0.00     0.037 A 
BRANCH  55  69
ATOM     69  C   UNL A   1      43.153  24.204  27.273  1.00  0.00     0.064 A 
ATOM     70  C   UNL A   1      42.739  22.858  27.279  1.00  0.00     0.173 A 
ATOM     71  C   UNL A   1      43.992  24.547  26.184  1.00  0.00     0.173 A 
ATOM     72  F   UNL A   1      41.972  22.375  28.267  1.00  0.00    -0.203 F 
ATOM     73  C   UNL A   1      43.107  21.950  26.276  1.00  0.00     0.198 A 
ATOM     74  C   UNL A   1      44.306  23.658  25.151  1.00  0.00     0.198 A 
ATOM     75  F   UNL A   1      44.609  25.729  26.092  1.00  0.00    -0.203 F 
ATOM     76  F   UNL A   1      42.719  20.670  26.364  1.00  0.00    -0.200 F 
ATOM     77  C   UNL A   1      43.870  22.356  25.200  1.00  0.00     0.200 A 
ATOM     78  F   UNL A   1      45.060  24.076  24.122  1.00  0.00    -0.200 F 
ATOM     79  F   UNL A   1      44.205  21.493  24.231  1.00  0.00    -0.200 F 
ENDBRANCH  55  69
BRANCH  56  80
ATOM     80  C   UNL A   1      40.218  31.599  32.947  1.00  0.00     0.064 A 
ATOM     81  C   UNL A   1      40.113  32.999  32.810  1.00  0.00     0.173 A 
ATOM     82  C   UNL A   1      39.017  30.885  32.943  1.00  0.00     0.173 A 
ATOM     83  F   UNL A   1      41.225  33.735  32.742  1.00  0.00    -0.203 F 
ATOM     84  C   UNL A   1      38.900  33.643  32.565  1.00  0.00     0.198 A 
ATOM     85  C   UNL A   1      37.798  31.528  32.681  1.00  0.00     0.198 A 
ATOM     86  F   UNL A   1      39.028  29.550  33.056  1.00  0.00    -0.203 F 
ATOM     87  F   UNL A   1      38.881  34.958  32.297  1.00  0.00    -0.200 F 
ATOM     88  C   UNL A   1      37.747  32.896  32.453  1.00  0.00     0.200 A 
ATOM     89  F   UNL A   1      36.679  30.802  32.544  1.00  0.00    -0.200 F 
ATOM     90  F   UNL A   1      36.607  33.480  32.053  1.00  0.00    -0.200 F 
ENDBRANCH  56  80
BRANCH  68  91
ATOM     91  C   UNL A   1      44.606  25.827  33.709  1.00  0.00     0.064 A 
ATOM     92  C   UNL A   1      43.808  24.895  34.381  1.00  0.00     0.173 A 
ATOM     93  C   UNL A   1      45.999  25.697  33.869  1.00  0.00     0.173 A 
ATOM     94  F   UNL A   1      42.476  25.041  34.437  1.00  0.00    -0.203 F 
ATOM     95  C   UNL A   1      44.369  23.778  34.988  1.00  0.00     0.198 A 
ATOM     96  C   UNL A   1      46.558  24.624  34.544  1.00  0.00     0.198 A 
ATOM     97  F   UNL A   1      46.864  26.572  33.339  1.00  0.00    -0.203 F 
ATOM     98  F   UNL A   1      43.570  22.822  35.479  1.00  0.00    -0.200 F 
ATOM     99  C   UNL A   1      45.744  23.635  35.053  1.00  0.00     0.200 A 
ATOM    100  F   UNL A   1      47.891  24.534  34.653  1.00  0.00    -0.200 F 
ATOM    101  F   UNL A   1      46.285  22.542  35.605  1.00  0.00    -0.200 F 
ENDBRANCH  68  91
ENDBRANCH  42  43
ENDBRANCH  35  37
ENDBRANCH  34  35
ENDBRANCH  33  34
ENDBRANCH  32  33
ENDBRANCH  31  32
ENDBRANCH   1  31
TORSDOF 17
ENDMDL
