MODEL 1
REMARK VINA RESULT:     -11.6      0.000      0.000
REMARK SMILES CCCCCCNC(=O)Oc1cccc(-c2ccc([C@@H](C)C(=O)OCCOCCOC(=O)c3ccc(-c4c5nc(c(-c6c(F)c(F)c(F)c(F)c6F)c6ccc([nH]6)c(-c6c(F)c(F)c(F)c(F)c6F)c6nc(c(-c7c(F)c(F)c(F)c(F)c7F)c7ccc4[nH]7)C=C6)C=C5)cc3)cc2F)c1
REMARK SMILES IDX 22 1 23 2 20 3 21 4 19 5 16 6 17 7 97 8 18 9 96 10 98 11
REMARK SMILES IDX 15 12 11 13 12 14 99 15 13 16 14 17 10 18 8 19 7 20 9 22
REMARK SMILES IDX 6 23 5 24 4 25 3 26 2 27 1 28 24 29 25 30 26 31 27 32 28 33
REMARK SMILES IDX 29 34 30 35 31 36 32 37 33 38 34 39 95 40 35 41 94 42 36 43
REMARK SMILES IDX 37 44 38 45 88 46 39 47 93 48 87 49 89 50 40 51 92 52 86 53
REMARK SMILES IDX 85 54 41 56 73 57 53 58 72 59 54 60 57 61 71 62 90 63 55 64
REMARK SMILES IDX 56 65 70 67 91 68 58 69 42 70 43 71 51 72 44 73 45 74 49 75
REMARK SMILES IDX 52 76 46 77 47 78 50 79 48 80 74 81 75 82 83 83 76 84 77 85
REMARK SMILES IDX 81 86 84 87 78 88 79 89 82 90 80 91 59 92 60 93 68 94 61 95
REMARK SMILES IDX 62 96 66 97 69 98 63 99 64 100 67 101 65 102
REMARK H PARENT 7 21 89 55 57 66
REMARK Flexibility Score: inf
ROOT
ATOM      1  C   UNL A   1      42.285  20.179  26.442  1.00  0.00     0.313 C 
ATOM      2  O   UNL A   1      42.120  19.274  27.255  1.00  0.00    -0.252 OA
ENDROOT
BRANCH   1   3
ATOM      3  C   UNL A   1      41.857  21.608  26.739  1.00  0.00     0.126 C 
ATOM      4  C   UNL A   1      42.350  21.995  28.131  1.00  0.00     0.025 C 
BRANCH   3   5
ATOM      5  C   UNL A   1      40.392  21.978  26.532  1.00  0.00    -0.031 A 
ATOM      6  C   UNL A   1      37.698  22.699  25.895  1.00  0.00     0.018 A 
ATOM      7  C   UNL A   1      38.517  23.538  26.669  1.00  0.00     0.012 A 
ATOM      8  C   UNL A   1      38.246  21.477  25.487  1.00  0.00     0.131 A 
ATOM      9  C   UNL A   1      39.841  23.186  26.981  1.00  0.00     0.005 A 
ATOM     10  C   UNL A   1      39.562  21.118  25.795  1.00  0.00     0.044 A 
ATOM     11  F   UNL A   1      37.525  20.625  24.741  1.00  0.00    -0.206 F 
BRANCH   6  12
ATOM     12  C   UNL A   1      36.344  23.118  25.481  1.00  0.00    -0.012 A 
ATOM     13  C   UNL A   1      34.733  23.763  23.778  1.00  0.00     0.133 A 
ATOM     14  C   UNL A   1      33.765  24.020  24.746  1.00  0.00     0.047 A 
ATOM     15  C   UNL A   1      36.015  23.330  24.131  1.00  0.00     0.056 A 
ATOM     16  C   UNL A   1      34.073  23.814  26.086  1.00  0.00     0.004 A 
ATOM     17  C   UNL A   1      35.349  23.366  26.448  1.00  0.00     0.009 A 
BRANCH  13  18
ATOM     18  O   UNL A   1      34.393  24.081  22.452  1.00  0.00    -0.410 OA
BRANCH  18  19
ATOM     19  C   UNL A   1      33.127  23.752  21.995  1.00  0.00     0.412 C 
ATOM     20  N   UNL A   1      32.405  24.832  21.572  1.00  0.00    -0.321 N 
ATOM     21  H   UNL A   1      31.504  24.648  21.217  1.00  0.00     0.167 HD
ATOM     22  O   UNL A   1      32.643  22.622  21.968  1.00  0.00    -0.224 OA
BRANCH  20  23
ATOM     23  C   UNL A   1      32.820  26.223  21.589  1.00  0.00     0.119 C 
BRANCH  23  24
ATOM     24  C   UNL A   1      32.596  26.877  22.952  1.00  0.00     0.021 C 
BRANCH  24  25
ATOM     25  C   UNL A   1      31.126  27.086  23.336  1.00  0.00     0.002 C 
BRANCH  25  26
ATOM     26  C   UNL A   1      30.822  27.063  24.838  1.00  0.00    -0.000 C 
BRANCH  26  27
ATOM     27  C   UNL A   1      31.951  27.556  25.749  1.00  0.00    -0.003 C 
ATOM     28  C   UNL A   1      31.497  27.843  27.172  1.00  0.00     0.004 C 
ENDBRANCH  26  27
ENDBRANCH  25  26
ENDBRANCH  24  25
ENDBRANCH  23  24
ENDBRANCH  20  23
ENDBRANCH  18  19
ENDBRANCH  13  18
ENDBRANCH   6  12
ENDBRANCH   3   5
ENDBRANCH   1   3
BRANCH   1  29
ATOM     29  O   UNL A   1      42.820  20.009  25.205  1.00  0.00    -0.463 OA
BRANCH  29  30
ATOM     30  C   UNL A   1      44.032  19.234  25.147  1.00  0.00     0.261 C 
BRANCH  30  31
ATOM     31  C   UNL A   1      45.160  20.022  24.477  1.00  0.00     0.202 C 
BRANCH  31  32
ATOM     32  O   UNL A   1      45.999  20.785  25.342  1.00  0.00    -0.374 OA
BRANCH  32  33
ATOM     33  C   UNL A   1      45.773  22.192  25.414  1.00  0.00     0.202 C 
BRANCH  33  34
ATOM     34  C   UNL A   1      45.027  22.834  24.239  1.00  0.00     0.261 C 
BRANCH  34  35
ATOM     35  O   UNL A   1      44.076  23.828  24.665  1.00  0.00    -0.460 OA
BRANCH  35  36
ATOM     36  C   UNL A   1      44.631  25.011  25.023  1.00  0.00     0.338 C 
ATOM     37  O   UNL A   1      45.671  25.497  24.611  1.00  0.00    -0.246 OA
BRANCH  36  38
ATOM     38  C   UNL A   1      43.704  25.778  25.877  1.00  0.00     0.060 A 
ATOM     39  C   UNL A   1      44.091  27.080  26.219  1.00  0.00     0.016 A 
ATOM     40  C   UNL A   1      42.546  25.218  26.420  1.00  0.00     0.016 A 
ATOM     41  C   UNL A   1      43.368  27.798  27.165  1.00  0.00     0.010 A 
ATOM     42  C   UNL A   1      41.819  25.943  27.375  1.00  0.00     0.010 A 
ATOM     43  C   UNL A   1      42.257  27.215  27.788  1.00  0.00    -0.014 A 
BRANCH  43  44
ATOM     44  C   UNL A   1      41.692  27.877  28.992  1.00  0.00     0.031 A 
ATOM     45  C   UNL A   1      42.425  27.754  30.302  1.00  0.00     0.074 A 
ATOM     46  C   UNL A   1      40.602  28.659  28.904  1.00  0.00     0.049 A 
ATOM     47  N   UNL A   1      42.156  28.299  31.462  1.00  0.00    -0.248 NA
ATOM     48  C   UNL A   1      43.628  26.907  30.304  1.00  0.00     0.031 C 
ATOM     49  C   UNL A   1      39.833  28.899  27.684  1.00  0.00     0.029 A 
ATOM     50  N   UNL A   1      39.963  29.410  29.860  1.00  0.00    -0.354 N 
ATOM     51  C   UNL A   1      43.156  27.868  32.324  1.00  0.00     0.074 A 
ATOM     52  C   UNL A   1      44.012  26.980  31.569  1.00  0.00     0.031 C 
ATOM     53  C   UNL A   1      38.828  29.746  27.964  1.00  0.00     0.029 A 
ATOM     54  C   UNL A   1      38.868  30.090  29.384  1.00  0.00     0.049 A 
ATOM     55  H   UNL A   1      40.260  29.456  30.796  1.00  0.00     0.167 HD
ATOM     56  C   UNL A   1      43.354  28.195  33.624  1.00  0.00     0.037 A 
ATOM     57  C   UNL A   1      37.996  30.891  30.027  1.00  0.00     0.037 A 
ATOM     58  C   UNL A   1      42.505  29.078  34.378  1.00  0.00     0.049 A 
ATOM     59  C   UNL A   1      38.194  31.173  31.495  1.00  0.00     0.074 A 
ATOM     60  C   UNL A   1      42.625  29.475  35.699  1.00  0.00     0.029 A 
ATOM     61  N   UNL A   1      41.371  29.701  33.876  1.00  0.00    -0.354 N 
ATOM     62  N   UNL A   1      39.155  30.780  32.294  1.00  0.00    -0.248 NA
ATOM     63  C   UNL A   1      37.183  32.019  32.147  1.00  0.00     0.031 C 
ATOM     64  C   UNL A   1      41.538  30.299  36.010  1.00  0.00     0.029 A 
ATOM     65  C   UNL A   1      40.769  30.458  34.868  1.00  0.00     0.049 A 
ATOM     66  H   UNL A   1      41.043  29.617  32.952  1.00  0.00     0.167 HD
ATOM     67  C   UNL A   1      38.883  31.352  33.531  1.00  0.00     0.074 A 
ATOM     68  C   UNL A   1      37.676  32.134  33.373  1.00  0.00     0.031 C 
ATOM     69  C   UNL A   1      39.572  31.239  34.694  1.00  0.00     0.037 A 
BRANCH  56  70
ATOM     70  C   UNL A   1      44.533  27.580  34.319  1.00  0.00     0.064 A 
ATOM     71  C   UNL A   1      45.788  28.206  34.333  1.00  0.00     0.173 A 
ATOM     72  C   UNL A   1      44.397  26.366  35.010  1.00  0.00     0.173 A 
ATOM     73  F   UNL A   1      45.973  29.362  33.677  1.00  0.00    -0.203 F 
ATOM     74  C   UNL A   1      46.871  27.627  34.992  1.00  0.00     0.198 A 
ATOM     75  C   UNL A   1      45.474  25.805  35.690  1.00  0.00     0.198 A 
ATOM     76  F   UNL A   1      43.217  25.729  35.032  1.00  0.00    -0.203 F 
ATOM     77  F   UNL A   1      48.071  28.222  34.955  1.00  0.00    -0.200 F 
ATOM     78  C   UNL A   1      46.711  26.432  35.675  1.00  0.00     0.200 A 
ATOM     79  F   UNL A   1      45.316  24.655  36.361  1.00  0.00    -0.200 F 
ATOM     80  F   UNL A   1      47.751  25.880  36.315  1.00  0.00    -0.200 F 
ENDBRANCH  56  70
BRANCH  57  81
ATOM     81  C   UNL A   1      36.849  31.488  29.293  1.00  0.00     0.064 A 
ATOM     82  C   UNL A   1      36.810  32.858  28.998  1.00  0.00     0.173 A 
ATOM     83  C   UNL A   1      35.753  30.706  28.903  1.00  0.00     0.173 A 
ATOM     84  F   UNL A   1      37.822  33.653  29.376  1.00  0.00    -0.203 F 
ATOM     85  C   UNL A   1      35.708  33.426  28.364  1.00  0.00     0.198 A 
ATOM     86  C   UNL A   1      34.664  31.270  28.242  1.00  0.00     0.198 A 
ATOM     87  F   UNL A   1      35.738  29.390  29.164  1.00  0.00    -0.203 F 
ATOM     88  F   UNL A   1      35.673  34.748  28.142  1.00  0.00    -0.200 F 
ATOM     89  C   UNL A   1      34.638  32.631  27.981  1.00  0.00     0.200 A 
ATOM     90  F   UNL A   1      33.637  30.496  27.865  1.00  0.00    -0.200 F 
ATOM     91  F   UNL A   1      33.577  33.179  27.373  1.00  0.00    -0.200 F 
ENDBRANCH  57  81
BRANCH  69  92
ATOM     92  C   UNL A   1      39.055  32.004  35.878  1.00  0.00     0.064 A 
ATOM     93  C   UNL A   1      38.211  31.409  36.828  1.00  0.00     0.173 A 
ATOM     94  C   UNL A   1      39.436  33.339  36.084  1.00  0.00     0.173 A 
ATOM     95  F   UNL A   1      37.806  30.140  36.670  1.00  0.00    -0.203 F 
ATOM     96  C   UNL A   1      37.746  32.132  37.924  1.00  0.00     0.198 A 
ATOM     97  C   UNL A   1      38.994  34.048  37.197  1.00  0.00     0.198 A 
ATOM     98  F   UNL A   1      40.248  33.953  35.209  1.00  0.00    -0.203 F 
ATOM     99  F   UNL A   1      36.899  31.559  38.791  1.00  0.00    -0.200 F 
ATOM    100  C   UNL A   1      38.142  33.447  38.110  1.00  0.00     0.200 A 
ATOM    101  F   UNL A   1      39.390  35.315  37.383  1.00  0.00    -0.200 F 
ATOM    102  F   UNL A   1      37.697  34.139  39.169  1.00  0.00    -0.200 F 
ENDBRANCH  69  92
ENDBRANCH  43  44
ENDBRANCH  36  38
ENDBRANCH  35  36
ENDBRANCH  34  35
ENDBRANCH  33  34
ENDBRANCH  32  33
ENDBRANCH  31  32
ENDBRANCH  30  31
ENDBRANCH  29  30
ENDBRANCH   1  29
TORSDOF 23
ENDMDL
MODEL 2
REMARK VINA RESULT:     -11.2      0.859      2.040
REMARK SMILES CCCCCCNC(=O)Oc1cccc(-c2ccc([C@@H](C)C(=O)OCCOCCOC(=O)c3ccc(-c4c5nc(c(-c6c(F)c(F)c(F)c(F)c6F)c6ccc([nH]6)c(-c6c(F)c(F)c(F)c(F)c6F)c6nc(c(-c7c(F)c(F)c(F)c(F)c7F)c7ccc4[nH]7)C=C6)C=C5)cc3)cc2F)c1
REMARK SMILES IDX 22 1 23 2 20 3 21 4 19 5 16 6 17 7 97 8 18 9 96 10 98 11
REMARK SMILES IDX 15 12 11 13 12 14 99 15 13 16 14 17 10 18 8 19 7 20 9 22
REMARK SMILES IDX 6 23 5 24 4 25 3 26 2 27 1 28 24 29 25 30 26 31 27 32 28 33
REMARK SMILES IDX 29 34 30 35 31 36 32 37 33 38 34 39 95 40 35 41 94 42 36 43
REMARK SMILES IDX 37 44 38 45 88 46 39 47 93 48 87 49 89 50 40 51 92 52 86 53
REMARK SMILES IDX 85 54 41 56 73 57 53 58 72 59 54 60 57 61 71 62 90 63 55 64
REMARK SMILES IDX 56 65 70 67 91 68 58 69 42 70 43 71 51 72 44 73 45 74 49 75
REMARK SMILES IDX 52 76 46 77 47 78 50 79 48 80 74 81 75 82 83 83 76 84 77 85
REMARK SMILES IDX 81 86 84 87 78 88 79 89 82 90 80 91 59 92 60 93 68 94 61 95
REMARK SMILES IDX 62 96 66 97 69 98 63 99 64 100 67 101 65 102
REMARK H PARENT 7 21 89 55 57 66
REMARK Flexibility Score: inf
ROOT
ATOM      1  C   UNL A   1      42.081  20.482  26.623  1.00  0.00     0.313 C 
ATOM      2  O   UNL A   1      42.014  19.555  27.424  1.00  0.00    -0.252 OA
ENDROOT
BRANCH   1   3
ATOM      3  C   UNL A   1      41.516  21.858  26.944  1.00  0.00     0.126 C 
ATOM      4  C   UNL A   1      41.764  22.164  28.420  1.00  0.00     0.025 C 
BRANCH   3   5
ATOM      5  C   UNL A   1      40.076  22.157  26.537  1.00  0.00    -0.031 A 
ATOM      6  C   UNL A   1      37.455  22.702  25.530  1.00  0.00     0.018 A 
ATOM      7  C   UNL A   1      38.195  23.681  26.213  1.00  0.00     0.012 A 
ATOM      8  C   UNL A   1      38.042  21.436  25.404  1.00  0.00     0.131 A 
ATOM      9  C   UNL A   1      39.484  23.416  26.707  1.00  0.00     0.005 A 
ATOM     10  C   UNL A   1      39.322  21.164  25.894  1.00  0.00     0.044 A 
ATOM     11  F   UNL A   1      37.396  20.451  24.760  1.00  0.00    -0.206 F 
BRANCH   6  12
ATOM     12  C   UNL A   1      36.147  23.014  24.922  1.00  0.00    -0.012 A 
ATOM     13  C   UNL A   1      33.766  23.478  25.093  1.00  0.00     0.133 A 
ATOM     14  C   UNL A   1      33.641  23.511  23.707  1.00  0.00     0.047 A 
ATOM     15  C   UNL A   1      34.997  23.220  25.704  1.00  0.00     0.056 A 
ATOM     16  C   UNL A   1      34.768  23.311  22.917  1.00  0.00     0.004 A 
ATOM     17  C   UNL A   1      36.007  23.068  23.520  1.00  0.00     0.009 A 
BRANCH  13  18
ATOM     18  O   UNL A   1      32.576  23.590  25.833  1.00  0.00    -0.410 OA
BRANCH  18  19
ATOM     19  C   UNL A   1      31.445  24.077  25.198  1.00  0.00     0.412 C 
ATOM     20  N   UNL A   1      31.134  25.360  25.551  1.00  0.00    -0.321 N 
ATOM     21  H   UNL A   1      30.349  25.760  25.109  1.00  0.00     0.167 HD
ATOM     22  O   UNL A   1      30.743  23.456  24.401  1.00  0.00    -0.224 OA
BRANCH  20  23
ATOM     23  C   UNL A   1      31.834  26.198  26.507  1.00  0.00     0.119 C 
BRANCH  23  24
ATOM     24  C   UNL A   1      32.473  27.420  25.846  1.00  0.00     0.021 C 
BRANCH  24  25
ATOM     25  C   UNL A   1      33.657  27.112  24.921  1.00  0.00     0.002 C 
BRANCH  25  26
ATOM     26  C   UNL A   1      34.009  28.204  23.905  1.00  0.00    -0.000 C 
BRANCH  26  27
ATOM     27  C   UNL A   1      33.233  28.153  22.586  1.00  0.00    -0.003 C 
ATOM     28  C   UNL A   1      32.922  26.738  22.122  1.00  0.00     0.004 C 
ENDBRANCH  26  27
ENDBRANCH  25  26
ENDBRANCH  24  25
ENDBRANCH  23  24
ENDBRANCH  20  23
ENDBRANCH  18  19
ENDBRANCH  13  18
ENDBRANCH   6  12
ENDBRANCH   3   5
ENDBRANCH   1   3
BRANCH   1  29
ATOM     29  O   UNL A   1      42.618  20.384  25.379  1.00  0.00    -0.463 OA
BRANCH  29  30
ATOM     30  C   UNL A   1      43.631  19.375  25.212  1.00  0.00     0.261 C 
BRANCH  30  31
ATOM     31  C   UNL A   1      44.817  19.910  24.406  1.00  0.00     0.202 C 
BRANCH  31  32
ATOM     32  O   UNL A   1      45.923  20.404  25.160  1.00  0.00    -0.374 OA
BRANCH  32  33
ATOM     33  C   UNL A   1      45.872  21.759  25.604  1.00  0.00     0.202 C 
BRANCH  33  34
ATOM     34  C   UNL A   1      45.306  22.789  24.620  1.00  0.00     0.261 C 
BRANCH  34  35
ATOM     35  O   UNL A   1      44.340  23.664  25.231  1.00  0.00    -0.460 OA
BRANCH  35  36
ATOM     36  C   UNL A   1      44.718  24.964  25.277  1.00  0.00     0.338 C 
ATOM     37  O   UNL A   1      45.593  25.506  24.623  1.00  0.00    -0.246 OA
BRANCH  36  38
ATOM     38  C   UNL A   1      43.787  25.742  26.118  1.00  0.00     0.060 A 
ATOM     39  C   UNL A   1      44.194  27.031  26.483  1.00  0.00     0.016 A 
ATOM     40  C   UNL A   1      42.605  25.201  26.627  1.00  0.00     0.016 A 
ATOM     41  C   UNL A   1      43.464  27.754  27.421  1.00  0.00     0.010 A 
ATOM     42  C   UNL A   1      41.871  25.931  27.573  1.00  0.00     0.010 A 
ATOM     43  C   UNL A   1      42.326  27.188  28.011  1.00  0.00    -0.014 A 
BRANCH  43  44
ATOM     44  C   UNL A   1      41.747  27.849  29.208  1.00  0.00     0.031 A 
ATOM     45  C   UNL A   1      42.463  27.722  30.528  1.00  0.00     0.074 A 
ATOM     46  C   UNL A   1      40.660  28.635  29.108  1.00  0.00     0.049 A 
ATOM     47  N   UNL A   1      42.179  28.266  31.685  1.00  0.00    -0.248 NA
ATOM     48  C   UNL A   1      43.664  26.872  30.544  1.00  0.00     0.031 C 
ATOM     49  C   UNL A   1      39.908  28.879  27.879  1.00  0.00     0.029 A 
ATOM     50  N   UNL A   1      40.010  29.384  30.056  1.00  0.00    -0.354 N 
ATOM     51  C   UNL A   1      43.167  27.830  32.560  1.00  0.00     0.074 A 
ATOM     52  C   UNL A   1      44.031  26.942  31.814  1.00  0.00     0.031 C 
ATOM     53  C   UNL A   1      38.901  29.728  28.146  1.00  0.00     0.029 A 
ATOM     54  C   UNL A   1      38.923  30.068  29.568  1.00  0.00     0.049 A 
ATOM     55  H   UNL A   1      40.295  29.428  30.997  1.00  0.00     0.167 HD
ATOM     56  C   UNL A   1      43.349  28.154  33.862  1.00  0.00     0.037 A 
ATOM     57  C   UNL A   1      38.045  30.870  30.201  1.00  0.00     0.037 A 
ATOM     58  C   UNL A   1      42.492  29.038  34.607  1.00  0.00     0.049 A 
ATOM     59  C   UNL A   1      38.224  31.149  31.672  1.00  0.00     0.074 A 
ATOM     60  C   UNL A   1      42.596  29.432  35.930  1.00  0.00     0.029 A 
ATOM     61  N   UNL A   1      41.366  29.664  34.092  1.00  0.00    -0.354 N 
ATOM     62  N   UNL A   1      39.174  30.752  32.483  1.00  0.00    -0.248 NA
ATOM     63  C   UNL A   1      37.207  31.996  32.313  1.00  0.00     0.031 C 
ATOM     64  C   UNL A   1      41.507  30.258  36.229  1.00  0.00     0.029 A 
ATOM     65  C   UNL A   1      40.753  30.421  35.078  1.00  0.00     0.049 A 
ATOM     66  H   UNL A   1      41.050  29.583  33.163  1.00  0.00     0.167 HD
ATOM     67  C   UNL A   1      38.887  31.322  33.717  1.00  0.00     0.074 A 
ATOM     68  C   UNL A   1      37.684  32.107  33.545  1.00  0.00     0.031 C 
ATOM     69  C   UNL A   1      39.560  31.205  34.889  1.00  0.00     0.037 A 
BRANCH  56  70
ATOM     70  C   UNL A   1      44.517  27.535  34.572  1.00  0.00     0.064 A 
ATOM     71  C   UNL A   1      44.398  26.320  35.263  1.00  0.00     0.173 A 
ATOM     72  C   UNL A   1      45.780  28.146  34.532  1.00  0.00     0.173 A 
ATOM     73  F   UNL A   1      43.210  25.702  35.342  1.00  0.00    -0.203 F 
ATOM     74  C   UNL A   1      45.495  25.752  35.908  1.00  0.00     0.198 A 
ATOM     75  C   UNL A   1      46.879  27.561  35.154  1.00  0.00     0.198 A 
ATOM     76  F   UNL A   1      45.948  29.307  33.880  1.00  0.00    -0.203 F 
ATOM     77  F   UNL A   1      45.348  24.612  36.598  1.00  0.00    -0.200 F 
ATOM     78  C   UNL A   1      46.735  26.369  35.847  1.00  0.00     0.200 A 
ATOM     79  F   UNL A   1      48.080  28.153  35.084  1.00  0.00    -0.200 F 
ATOM     80  F   UNL A   1      47.790  25.818  36.462  1.00  0.00    -0.200 F 
ENDBRANCH  56  70
BRANCH  57  81
ATOM     81  C   UNL A   1      36.909  31.471  29.453  1.00  0.00     0.064 A 
ATOM     82  C   UNL A   1      36.873  32.843  29.168  1.00  0.00     0.173 A 
ATOM     83  C   UNL A   1      35.820  30.691  29.040  1.00  0.00     0.173 A 
ATOM     84  F   UNL A   1      37.878  33.637  29.567  1.00  0.00    -0.203 F 
ATOM     85  C   UNL A   1      35.780  33.415  28.520  1.00  0.00     0.198 A 
ATOM     86  C   UNL A   1      34.741  31.259  28.366  1.00  0.00     0.198 A 
ATOM     87  F   UNL A   1      35.803  29.373  29.291  1.00  0.00    -0.203 F 
ATOM     88  F   UNL A   1      35.748  34.738  28.308  1.00  0.00    -0.200 F 
ATOM     89  C   UNL A   1      34.718  32.622  28.115  1.00  0.00     0.200 A 
ATOM     90  F   UNL A   1      33.721  30.487  27.968  1.00  0.00    -0.200 F 
ATOM     91  F   UNL A   1      33.666  33.173  27.494  1.00  0.00    -0.200 F 
ENDBRANCH  57  81
BRANCH  69  92
ATOM     92  C   UNL A   1      39.030  31.968  36.068  1.00  0.00     0.064 A 
ATOM     93  C   UNL A   1      39.370  33.311  36.289  1.00  0.00     0.173 A 
ATOM     94  C   UNL A   1      38.143  31.360  36.969  1.00  0.00     0.173 A 
ATOM     95  F   UNL A   1      40.225  33.936  35.465  1.00  0.00    -0.203 F 
ATOM     96  C   UNL A   1      38.864  34.007  37.384  1.00  0.00     0.198 A 
ATOM     97  C   UNL A   1      37.616  32.068  38.046  1.00  0.00     0.198 A 
ATOM     98  F   UNL A   1      37.779  30.079  36.800  1.00  0.00    -0.203 F 
ATOM     99  F   UNL A   1      39.243  35.274  37.604  1.00  0.00    -0.200 F 
ATOM    100  C   UNL A   1      37.984  33.387  38.258  1.00  0.00     0.200 A 
ATOM    101  F   UNL A   1      36.753  31.471  38.881  1.00  0.00    -0.200 F 
ATOM    102  F   UNL A   1      37.494  34.060  39.309  1.00  0.00    -0.200 F 
ENDBRANCH  69  92
ENDBRANCH  43  44
ENDBRANCH  36  38
ENDBRANCH  35  36
ENDBRANCH  34  35
ENDBRANCH  33  34
ENDBRANCH  32  33
ENDBRANCH  31  32
ENDBRANCH  30  31
ENDBRANCH  29  30
ENDBRANCH   1  29
TORSDOF 23
ENDMDL
MODEL 3
REMARK VINA RESULT:     -10.5      5.522     11.735
REMARK SMILES CCCCCCNC(=O)Oc1cccc(-c2ccc([C@@H](C)C(=O)OCCOCCOC(=O)c3ccc(-c4c5nc(c(-c6c(F)c(F)c(F)c(F)c6F)c6ccc([nH]6)c(-c6c(F)c(F)c(F)c(F)c6F)c6nc(c(-c7c(F)c(F)c(F)c(F)c7F)c7ccc4[nH]7)C=C6)C=C5)cc3)cc2F)c1
REMARK SMILES IDX 22 1 23 2 20 3 21 4 19 5 16 6 17 7 97 8 18 9 96 10 98 11
REMARK SMILES IDX 15 12 11 13 12 14 99 15 13 16 14 17 10 18 8 19 7 20 9 22
REMARK SMILES IDX 6 23 5 24 4 25 3 26 2 27 1 28 24 29 25 30 26 31 27 32 28 33
REMARK SMILES IDX 29 34 30 35 31 36 32 37 33 38 34 39 95 40 35 41 94 42 36 43
REMARK SMILES IDX 37 44 38 45 88 46 39 47 93 48 87 49 89 50 40 51 92 52 86 53
REMARK SMILES IDX 85 54 41 56 73 57 53 58 72 59 54 60 57 61 71 62 90 63 55 64
REMARK SMILES IDX 56 65 70 67 91 68 58 69 42 70 43 71 51 72 44 73 45 74 49 75
REMARK SMILES IDX 52 76 46 77 47 78 50 79 48 80 74 81 75 82 83 83 76 84 77 85
REMARK SMILES IDX 81 86 84 87 78 88 79 89 82 90 80 91 59 92 60 93 68 94 61 95
REMARK SMILES IDX 62 96 66 97 69 98 63 99 64 100 67 101 65 102
REMARK H PARENT 7 21 89 55 57 66
REMARK Flexibility Score: inf
ROOT
ATOM      1  C   UNL A   1      33.008  35.692  30.239  1.00  0.00     0.313 C 
ATOM      2  O   UNL A   1      32.291  34.908  30.854  1.00  0.00    -0.252 OA
ENDROOT
BRANCH   1   3
ATOM      3  C   UNL A   1      34.025  35.209  29.215  1.00  0.00     0.126 C 
ATOM      4  C   UNL A   1      34.334  36.348  28.247  1.00  0.00     0.025 C 
BRANCH   3   5
ATOM      5  C   UNL A   1      33.743  33.901  28.482  1.00  0.00    -0.031 A 
ATOM      6  C   UNL A   1      33.006  31.424  27.256  1.00  0.00     0.018 A 
ATOM      7  C   UNL A   1      34.167  31.537  28.040  1.00  0.00     0.012 A 
ATOM      8  C   UNL A   1      32.252  32.589  27.068  1.00  0.00     0.131 A 
ATOM      9  C   UNL A   1      34.529  32.753  28.645  1.00  0.00     0.005 A 
ATOM     10  C   UNL A   1      32.606  33.802  27.664  1.00  0.00     0.044 A 
ATOM     11  F   UNL A   1      31.128  32.557  26.335  1.00  0.00    -0.206 F 
BRANCH   6  12
ATOM     12  C   UNL A   1      32.574  30.122  26.710  1.00  0.00    -0.012 A 
ATOM     13  C   UNL A   1      32.345  28.545  24.874  1.00  0.00     0.133 A 
ATOM     14  C   UNL A   1      31.636  27.659  25.682  1.00  0.00     0.047 A 
ATOM     15  C   UNL A   1      32.801  29.770  25.368  1.00  0.00     0.056 A 
ATOM     16  C   UNL A   1      31.403  27.991  27.013  1.00  0.00     0.004 A 
ATOM     17  C   UNL A   1      31.870  29.208  27.519  1.00  0.00     0.009 A 
BRANCH  13  18
ATOM     18  O   UNL A   1      32.463  28.197  23.517  1.00  0.00    -0.410 OA
BRANCH  18  19
ATOM     19  C   UNL A   1      31.306  28.025  22.775  1.00  0.00     0.412 C 
ATOM     20  N   UNL A   1      31.167  26.762  22.271  1.00  0.00    -0.321 N 
ATOM     21  H   UNL A   1      30.348  26.583  21.753  1.00  0.00     0.167 HD
ATOM     22  O   UNL A   1      30.463  28.891  22.543  1.00  0.00    -0.224 OA
BRANCH  20  23
ATOM     23  C   UNL A   1      32.095  25.656  22.418  1.00  0.00     0.119 C 
BRANCH  23  24
ATOM     24  C   UNL A   1      31.407  24.388  22.925  1.00  0.00     0.021 C 
BRANCH  24  25
ATOM     25  C   UNL A   1      32.351  23.218  23.231  1.00  0.00     0.002 C 
BRANCH  25  26
ATOM     26  C   UNL A   1      33.836  23.469  22.945  1.00  0.00    -0.000 C 
BRANCH  26  27
ATOM     27  C   UNL A   1      34.815  22.563  23.697  1.00  0.00    -0.003 C 
ATOM     28  C   UNL A   1      36.255  23.050  23.638  1.00  0.00     0.004 C 
ENDBRANCH  26  27
ENDBRANCH  25  26
ENDBRANCH  24  25
ENDBRANCH  23  24
ENDBRANCH  20  23
ENDBRANCH  18  19
ENDBRANCH  13  18
ENDBRANCH   6  12
ENDBRANCH   3   5
ENDBRANCH   1   3
BRANCH   1  29
ATOM     29  O   UNL A   1      33.004  37.038  30.419  1.00  0.00    -0.463 OA
BRANCH  29  30
ATOM     30  C   UNL A   1      33.029  37.487  31.787  1.00  0.00     0.261 C 
BRANCH  30  31
ATOM     31  C   UNL A   1      34.385  37.202  32.437  1.00  0.00     0.202 C 
BRANCH  31  32
ATOM     32  O   UNL A   1      34.394  36.232  33.483  1.00  0.00    -0.374 OA
BRANCH  32  33
ATOM     33  C   UNL A   1      34.553  34.862  33.116  1.00  0.00     0.202 C 
BRANCH  33  34
ATOM     34  C   UNL A   1      35.866  34.184  33.524  1.00  0.00     0.261 C 
BRANCH  34  35
ATOM     35  O   UNL A   1      35.918  32.800  33.130  1.00  0.00    -0.460 OA
BRANCH  35  36
ATOM     36  C   UNL A   1      36.893  32.085  33.740  1.00  0.00     0.338 C 
ATOM     37  O   UNL A   1      37.064  31.935  34.939  1.00  0.00    -0.246 OA
BRANCH  36  38
ATOM     38  C   UNL A   1      37.666  31.314  32.747  1.00  0.00     0.060 A 
ATOM     39  C   UNL A   1      38.785  30.617  33.221  1.00  0.00     0.016 A 
ATOM     40  C   UNL A   1      37.380  31.352  31.381  1.00  0.00     0.016 A 
ATOM     41  C   UNL A   1      39.667  30.022  32.325  1.00  0.00     0.010 A 
ATOM     42  C   UNL A   1      38.271  30.752  30.479  1.00  0.00     0.010 A 
ATOM     43  C   UNL A   1      39.444  30.130  30.946  1.00  0.00    -0.014 A 
BRANCH  43  44
ATOM     44  C   UNL A   1      40.543  29.751  30.020  1.00  0.00     0.031 A 
ATOM     45  C   UNL A   1      41.641  30.746  29.748  1.00  0.00     0.074 A 
ATOM     46  C   UNL A   1      40.620  28.510  29.509  1.00  0.00     0.049 A 
ATOM     47  N   UNL A   1      42.728  30.611  29.031  1.00  0.00    -0.248 NA
ATOM     48  C   UNL A   1      41.497  32.070  30.373  1.00  0.00     0.031 C 
ATOM     49  C   UNL A   1      39.649  27.442  29.738  1.00  0.00     0.029 A 
ATOM     50  N   UNL A   1      41.571  27.934  28.703  1.00  0.00    -0.354 N 
ATOM     51  C   UNL A   1      43.397  31.825  29.125  1.00  0.00     0.074 A 
ATOM     52  C   UNL A   1      42.574  32.700  29.930  1.00  0.00     0.031 C 
ATOM     53  C   UNL A   1      40.057  26.337  29.093  1.00  0.00     0.029 A 
ATOM     54  C   UNL A   1      41.304  26.625  28.387  1.00  0.00     0.049 A 
ATOM     55  H   UNL A   1      42.367  28.415  28.383  1.00  0.00     0.167 HD
ATOM     56  C   UNL A   1      44.597  32.174  28.603  1.00  0.00     0.037 A 
ATOM     57  C   UNL A   1      41.988  25.762  27.610  1.00  0.00     0.037 A 
ATOM     58  C   UNL A   1      45.419  31.306  27.803  1.00  0.00     0.049 A 
ATOM     59  C   UNL A   1      43.282  26.204  26.974  1.00  0.00     0.074 A 
ATOM     60  C   UNL A   1      46.653  31.567  27.232  1.00  0.00     0.029 A 
ATOM     61  N   UNL A   1      45.086  30.005  27.455  1.00  0.00    -0.354 N 
ATOM     62  N   UNL A   1      43.917  27.345  27.089  1.00  0.00    -0.248 NA
ATOM     63  C   UNL A   1      43.957  25.230  26.103  1.00  0.00     0.031 C 
ATOM     64  C   UNL A   1      47.045  30.441  26.500  1.00  0.00     0.029 A 
ATOM     65  C   UNL A   1      46.079  29.460  26.657  1.00  0.00     0.049 A 
ATOM     66  H   UNL A   1      44.266  29.538  27.734  1.00  0.00     0.167 HD
ATOM     67  C   UNL A   1      45.075  27.217  26.333  1.00  0.00     0.074 A 
ATOM     68  C   UNL A   1      45.065  25.881  25.776  1.00  0.00     0.031 C 
ATOM     69  C   UNL A   1      46.059  28.125  26.117  1.00  0.00     0.037 A 
BRANCH  56  70
ATOM     70  C   UNL A   1      45.088  33.566  28.872  1.00  0.00     0.064 A 
ATOM     71  C   UNL A   1      45.977  33.843  29.922  1.00  0.00     0.173 A 
ATOM     72  C   UNL A   1      44.693  34.632  28.048  1.00  0.00     0.173 A 
ATOM     73  F   UNL A   1      46.375  32.862  30.746  1.00  0.00    -0.203 F 
ATOM     74  C   UNL A   1      46.432  35.140  30.152  1.00  0.00     0.198 A 
ATOM     75  C   UNL A   1      45.173  35.921  28.265  1.00  0.00     0.198 A 
ATOM     76  F   UNL A   1      43.849  34.420  27.027  1.00  0.00    -0.203 F 
ATOM     77  F   UNL A   1      47.246  35.389  31.187  1.00  0.00    -0.200 F 
ATOM     78  C   UNL A   1      46.035  36.175  29.320  1.00  0.00     0.200 A 
ATOM     79  F   UNL A   1      44.798  36.918  27.451  1.00  0.00    -0.200 F 
ATOM     80  F   UNL A   1      46.480  37.420  29.537  1.00  0.00    -0.200 F 
ENDBRANCH  56  70
BRANCH  57  81
ATOM     81  C   UNL A   1      41.468  24.388  27.382  1.00  0.00     0.064 A 
ATOM     82  C   UNL A   1      40.317  24.166  26.613  1.00  0.00     0.173 A 
ATOM     83  C   UNL A   1      42.092  23.272  27.958  1.00  0.00     0.173 A 
ATOM     84  F   UNL A   1      39.669  25.204  26.064  1.00  0.00    -0.203 F 
ATOM     85  C   UNL A   1      39.797  22.884  26.449  1.00  0.00     0.198 A 
ATOM     86  C   UNL A   1      41.587  21.987  27.770  1.00  0.00     0.198 A 
ATOM     87  F   UNL A   1      43.194  23.430  28.707  1.00  0.00    -0.203 F 
ATOM     88  F   UNL A   1      38.665  22.707  25.753  1.00  0.00    -0.200 F 
ATOM     89  C   UNL A   1      40.435  21.795  27.024  1.00  0.00     0.200 A 
ATOM     90  F   UNL A   1      42.213  20.937  28.319  1.00  0.00    -0.200 F 
ATOM     91  F   UNL A   1      39.933  20.563  26.868  1.00  0.00    -0.200 F 
ENDBRANCH  57  81
BRANCH  69  92
ATOM     92  C   UNL A   1      47.222  27.694  25.271  1.00  0.00     0.064 A 
ATOM     93  C   UNL A   1      47.217  27.849  23.878  1.00  0.00     0.173 A 
ATOM     94  C   UNL A   1      48.371  27.149  25.866  1.00  0.00     0.173 A 
ATOM     95  F   UNL A   1      46.138  28.352  23.258  1.00  0.00    -0.203 F 
ATOM     96  C   UNL A   1      48.307  27.450  23.108  1.00  0.00     0.198 A 
ATOM     97  C   UNL A   1      49.471  26.779  25.096  1.00  0.00     0.198 A 
ATOM     98  F   UNL A   1      48.431  26.986  27.196  1.00  0.00    -0.203 F 
ATOM     99  F   UNL A   1      48.259  27.560  21.773  1.00  0.00    -0.200 F 
ATOM    100  C   UNL A   1      49.434  26.921  23.718  1.00  0.00     0.200 A 
ATOM    101  F   UNL A   1      50.565  26.282  25.690  1.00  0.00    -0.200 F 
ATOM    102  F   UNL A   1      50.484  26.541  22.976  1.00  0.00    -0.200 F 
ENDBRANCH  69  92
ENDBRANCH  43  44
ENDBRANCH  36  38
ENDBRANCH  35  36
ENDBRANCH  34  35
ENDBRANCH  33  34
ENDBRANCH  32  33
ENDBRANCH  31  32
ENDBRANCH  30  31
ENDBRANCH  29  30
ENDBRANCH   1  29
TORSDOF 23
ENDMDL
