MODEL 1
REMARK VINA RESULT:     -10.5      0.000      0.000
REMARK SMILES CC(C)[C@H](CO)Nc1ccc(C(F)(F)F)cc1C(=O)OCCOCCOC(=O)c1ccc(-c2c3nc(c(-c4c(F)c(F)c(F)c(F)c4F)c4ccc([nH]4)c(-c4c(F)c(F)c(F)c(F)c4F)c4nc(c(-c5c(F)c(F)c(F)c(F)c5F)c5ccc2[nH]5)C=C4)C=C3)cc1
REMARK SMILES IDX 22 1 21 2 20 3 18 4 19 5 17 6 8 7 9 8 10 9 16 10 11 11 7 12
REMARK SMILES IDX 4 14 2 15 1 16 3 17 5 18 6 19 12 21 13 22 14 23 15 24 23 25
REMARK SMILES IDX 24 26 25 27 26 28 27 29 28 30 29 31 30 32 91 33 31 34 90 35
REMARK SMILES IDX 32 36 33 37 34 38 84 39 35 40 89 41 83 42 85 43 36 44 88 45
REMARK SMILES IDX 82 46 81 47 37 49 69 50 49 51 68 52 50 53 53 54 67 55 86 56
REMARK SMILES IDX 51 57 52 58 66 60 87 61 54 62 38 63 39 64 47 65 40 66 41 67
REMARK SMILES IDX 45 68 48 69 42 70 43 71 46 72 44 73 70 74 71 75 79 76 72 77
REMARK SMILES IDX 73 78 77 79 80 80 74 81 75 82 78 83 76 84 55 85 56 86 64 87
REMARK SMILES IDX 57 88 58 89 62 90 65 91 59 92 60 93 63 94 61 95
REMARK H PARENT 7 13 6 20 85 48 53 59
REMARK Flexibility Score: inf
ROOT
ATOM      1  C   UNL A   1      34.774  23.650  24.786  1.00  0.00     0.202 C 
ENDROOT
BRANCH   1   2
ATOM      2  C   UNL A   1      34.398  25.086  24.392  1.00  0.00     0.261 C 
BRANCH   2   3
ATOM      3  O   UNL A   1      34.180  25.865  25.582  1.00  0.00    -0.460 OA
BRANCH   3   4
ATOM      4  C   UNL A   1      32.911  26.266  25.801  1.00  0.00     0.340 C 
ATOM      5  O   UNL A   1      31.957  25.541  26.036  1.00  0.00    -0.246 OA
BRANCH   4   6
ATOM      6  C   UNL A   1      32.884  27.731  26.016  1.00  0.00     0.083 A 
ATOM      7  C   UNL A   1      31.895  28.630  25.584  1.00  0.00     0.049 A 
ATOM      8  C   UNL A   1      32.105  29.991  25.924  1.00  0.00     0.027 A 
ATOM      9  C   UNL A   1      33.236  30.455  26.599  1.00  0.00     0.015 A 
ATOM     10  C   UNL A   1      34.045  28.208  26.686  1.00  0.00     0.031 A 
ATOM     11  C   UNL A   1      34.241  29.568  26.964  1.00  0.00     0.057 A 
BRANCH   7  12
ATOM     12  N   UNL A   1      30.729  28.411  24.889  1.00  0.00    -0.379 N 
ATOM     13  H   UNL A   1      29.989  28.125  25.472  1.00  0.00     0.160 HD
BRANCH  12  14
ATOM     14  C   UNL A   1      30.335  28.507  23.484  1.00  0.00     0.107 C 
BRANCH  14  15
ATOM     15  C   UNL A   1      30.119  27.073  22.897  1.00  0.00     0.007 C 
ATOM     16  C   UNL A   1      31.405  26.367  22.448  1.00  0.00     0.009 C 
ATOM     17  C   UNL A   1      29.375  26.188  23.880  1.00  0.00     0.009 C 
ENDBRANCH  14  15
BRANCH  14  18
ATOM     18  C   UNL A   1      31.475  29.255  22.730  1.00  0.00     0.181 C 
BRANCH  18  19
ATOM     19  O   UNL A   1      31.028  30.039  21.626  1.00  0.00    -0.394 OA
ATOM     20  H   UNL A   1      30.395  29.526  21.101  1.00  0.00     0.210 HD
ENDBRANCH  18  19
ENDBRANCH  14  18
ENDBRANCH  12  14
ENDBRANCH   7  12
BRANCH  11  21
ATOM     21  C   UNL A   1      35.478  30.073  27.662  1.00  0.00     0.416 C 
ATOM     22  F   UNL A   1      35.518  31.434  27.733  1.00  0.00    -0.166 F 
ATOM     23  F   UNL A   1      35.568  29.630  28.945  1.00  0.00    -0.166 F 
ATOM     24  F   UNL A   1      36.634  29.701  27.047  1.00  0.00    -0.166 F 
ENDBRANCH  11  21
ENDBRANCH   4   6
ENDBRANCH   3   4
ENDBRANCH   2   3
ENDBRANCH   1   2
BRANCH   1  25
ATOM     25  O   UNL A   1      36.182  23.406  24.726  1.00  0.00    -0.374 OA
BRANCH  25  26
ATOM     26  C   UNL A   1      36.598  22.362  23.843  1.00  0.00     0.202 C 
BRANCH  26  27
ATOM     27  C   UNL A   1      37.313  21.212  24.557  1.00  0.00     0.261 C 
BRANCH  27  28
ATOM     28  O   UNL A   1      37.755  21.605  25.871  1.00  0.00    -0.460 OA
BRANCH  28  29
ATOM     29  C   UNL A   1      39.076  21.464  26.127  1.00  0.00     0.338 C 
ATOM     30  O   UNL A   1      39.774  20.492  25.898  1.00  0.00    -0.246 OA
BRANCH  29  31
ATOM     31  C   UNL A   1      39.617  22.745  26.640  1.00  0.00     0.060 A 
ATOM     32  C   UNL A   1      39.095  23.937  26.123  1.00  0.00     0.016 A 
ATOM     33  C   UNL A   1      40.611  22.785  27.623  1.00  0.00     0.016 A 
ATOM     34  C   UNL A   1      39.564  25.170  26.588  1.00  0.00     0.010 A 
ATOM     35  C   UNL A   1      41.079  24.021  28.088  1.00  0.00     0.010 A 
ATOM     36  C   UNL A   1      40.570  25.222  27.563  1.00  0.00    -0.014 A 
BRANCH  36  37
ATOM     37  C   UNL A   1      41.199  26.519  27.920  1.00  0.00     0.031 A 
ATOM     38  C   UNL A   1      42.637  26.747  27.544  1.00  0.00     0.074 A 
ATOM     39  C   UNL A   1      40.514  27.486  28.559  1.00  0.00     0.049 A 
ATOM     40  N   UNL A   1      43.392  27.799  27.732  1.00  0.00    -0.248 NA
ATOM     41  C   UNL A   1      43.317  25.628  26.873  1.00  0.00     0.031 C 
ATOM     42  C   UNL A   1      39.120  27.402  28.985  1.00  0.00     0.029 A 
ATOM     43  N   UNL A   1      40.912  28.739  28.961  1.00  0.00    -0.354 N 
ATOM     44  C   UNL A   1      44.631  27.470  27.199  1.00  0.00     0.074 A 
ATOM     45  C   UNL A   1      44.544  26.104  26.731  1.00  0.00     0.031 C 
ATOM     46  C   UNL A   1      38.777  28.555  29.588  1.00  0.00     0.029 A 
ATOM     47  C   UNL A   1      39.929  29.455  29.599  1.00  0.00     0.049 A 
ATOM     48  H   UNL A   1      41.819  29.092  28.806  1.00  0.00     0.167 HD
ATOM     49  C   UNL A   1      45.738  28.242  27.085  1.00  0.00     0.037 A 
ATOM     50  C   UNL A   1      39.960  30.695  30.130  1.00  0.00     0.037 A 
ATOM     51  C   UNL A   1      45.835  29.599  27.545  1.00  0.00     0.049 A 
ATOM     52  C   UNL A   1      41.221  31.519  30.036  1.00  0.00     0.074 A 
ATOM     53  C   UNL A   1      46.906  30.470  27.447  1.00  0.00     0.029 A 
ATOM     54  N   UNL A   1      44.823  30.283  28.200  1.00  0.00    -0.354 N 
ATOM     55  N   UNL A   1      42.367  31.223  29.472  1.00  0.00    -0.248 NA
ATOM     56  C   UNL A   1      41.188  32.857  30.647  1.00  0.00     0.031 C 
ATOM     57  C   UNL A   1      46.558  31.666  28.083  1.00  0.00     0.029 A 
ATOM     58  C   UNL A   1      45.252  31.557  28.534  1.00  0.00     0.049 A 
ATOM     59  H   UNL A   1      43.929  29.917  28.398  1.00  0.00     0.167 HD
ATOM     60  C   UNL A   1      43.174  32.344  29.628  1.00  0.00     0.074 A 
ATOM     61  C   UNL A   1      42.385  33.331  30.334  1.00  0.00     0.031 C 
ATOM     62  C   UNL A   1      44.453  32.539  29.222  1.00  0.00     0.037 A 
BRANCH  49  63
ATOM     63  C   UNL A   1      46.938  27.617  26.439  1.00  0.00     0.064 A 
ATOM     64  C   UNL A   1      47.942  27.000  27.201  1.00  0.00     0.173 A 
ATOM     65  C   UNL A   1      47.086  27.634  25.044  1.00  0.00     0.173 A 
ATOM     66  F   UNL A   1      47.854  26.974  28.539  1.00  0.00    -0.203 F 
ATOM     67  C   UNL A   1      49.068  26.455  26.591  1.00  0.00     0.198 A 
ATOM     68  C   UNL A   1      48.199  27.061  24.437  1.00  0.00     0.198 A 
ATOM     69  F   UNL A   1      46.153  28.210  24.272  1.00  0.00    -0.203 F 
ATOM     70  F   UNL A   1      50.043  25.923  27.342  1.00  0.00    -0.200 F 
ATOM     71  C   UNL A   1      49.194  26.481  25.210  1.00  0.00     0.200 A 
ATOM     72  F   UNL A   1      48.315  27.080  23.102  1.00  0.00    -0.200 F 
ATOM     73  F   UNL A   1      50.280  25.959  24.625  1.00  0.00    -0.200 F 
ENDBRANCH  49  63
BRANCH  50  74
ATOM     74  C   UNL A   1      38.751  31.257  30.788  1.00  0.00     0.064 A 
ATOM     75  C   UNL A   1      37.821  32.015  30.061  1.00  0.00     0.173 A 
ATOM     76  C   UNL A   1      38.523  31.088  32.161  1.00  0.00     0.173 A 
ATOM     77  F   UNL A   1      38.013  32.231  28.752  1.00  0.00    -0.203 F 
ATOM     78  C   UNL A   1      36.722  32.602  30.687  1.00  0.00     0.198 A 
ATOM     79  C   UNL A   1      37.411  31.655  32.781  1.00  0.00     0.198 A 
ATOM     80  F   UNL A   1      39.386  30.377  32.902  1.00  0.00    -0.203 F 
ATOM     81  F   UNL A   1      35.880  33.365  29.979  1.00  0.00    -0.200 F 
ATOM     82  C   UNL A   1      36.516  32.417  32.046  1.00  0.00     0.200 A 
ATOM     83  F   UNL A   1      37.214  31.473  34.094  1.00  0.00    -0.200 F 
ATOM     84  F   UNL A   1      35.466  32.989  32.650  1.00  0.00    -0.200 F 
ENDBRANCH  50  74
BRANCH  62  85
ATOM     85  C   UNL A   1      45.076  33.879  29.490  1.00  0.00     0.064 A 
ATOM     86  C   UNL A   1      45.811  34.132  30.656  1.00  0.00     0.173 A 
ATOM     87  C   UNL A   1      44.984  34.906  28.536  1.00  0.00     0.173 A 
ATOM     88  F   UNL A   1      45.919  33.188  31.603  1.00  0.00    -0.203 F 
ATOM     89  C   UNL A   1      46.416  35.368  30.867  1.00  0.00     0.198 A 
ATOM     90  C   UNL A   1      45.614  36.131  28.738  1.00  0.00     0.198 A 
ATOM     91  F   UNL A   1      44.298  34.713  27.400  1.00  0.00    -0.203 F 
ATOM     92  F   UNL A   1      47.083  35.600  32.007  1.00  0.00    -0.200 F 
ATOM     93  C   UNL A   1      46.324  36.363  29.906  1.00  0.00     0.200 A 
ATOM     94  F   UNL A   1      45.536  37.085  27.802  1.00  0.00    -0.200 F 
ATOM     95  F   UNL A   1      46.918  37.547  30.105  1.00  0.00    -0.200 F 
ENDBRANCH  62  85
ENDBRANCH  36  37
ENDBRANCH  29  31
ENDBRANCH  28  29
ENDBRANCH  27  28
ENDBRANCH  26  27
ENDBRANCH  25  26
ENDBRANCH   1  25
TORSDOF 20
ENDMDL
MODEL 2
REMARK VINA RESULT:     -10.4      4.367      9.749
REMARK SMILES CC(C)[C@H](CO)Nc1ccc(C(F)(F)F)cc1C(=O)OCCOCCOC(=O)c1ccc(-c2c3nc(c(-c4c(F)c(F)c(F)c(F)c4F)c4ccc([nH]4)c(-c4c(F)c(F)c(F)c(F)c4F)c4nc(c(-c5c(F)c(F)c(F)c(F)c5F)c5ccc2[nH]5)C=C4)C=C3)cc1
REMARK SMILES IDX 22 1 21 2 20 3 18 4 19 5 17 6 8 7 9 8 10 9 16 10 11 11 7 12
REMARK SMILES IDX 4 14 2 15 1 16 3 17 5 18 6 19 12 21 13 22 14 23 15 24 23 25
REMARK SMILES IDX 24 26 25 27 26 28 27 29 28 30 29 31 30 32 91 33 31 34 90 35
REMARK SMILES IDX 32 36 33 37 34 38 84 39 35 40 89 41 83 42 85 43 36 44 88 45
REMARK SMILES IDX 82 46 81 47 37 49 69 50 49 51 68 52 50 53 53 54 67 55 86 56
REMARK SMILES IDX 51 57 52 58 66 60 87 61 54 62 38 63 39 64 47 65 40 66 41 67
REMARK SMILES IDX 45 68 48 69 42 70 43 71 46 72 44 73 70 74 71 75 79 76 72 77
REMARK SMILES IDX 73 78 77 79 80 80 74 81 75 82 78 83 76 84 55 85 56 86 64 87
REMARK SMILES IDX 57 88 58 89 62 90 65 91 59 92 60 93 63 94 61 95
REMARK H PARENT 7 13 6 20 85 48 53 59
REMARK Flexibility Score: inf
ROOT
ATOM      1  C   UNL A   1      33.937  27.634  26.063  1.00  0.00     0.202 C 
ENDROOT
BRANCH   1   2
ATOM      2  C   UNL A   1      33.696  26.408  25.172  1.00  0.00     0.261 C 
BRANCH   2   3
ATOM      3  O   UNL A   1      34.350  25.263  25.752  1.00  0.00    -0.460 OA
BRANCH   3   4
ATOM      4  C   UNL A   1      34.128  24.083  25.137  1.00  0.00     0.340 C 
ATOM      5  O   UNL A   1      33.205  23.827  24.381  1.00  0.00    -0.246 OA
BRANCH   4   6
ATOM      6  C   UNL A   1      35.328  23.224  25.266  1.00  0.00     0.083 A 
ATOM      7  C   UNL A   1      35.424  21.856  24.962  1.00  0.00     0.049 A 
ATOM      8  C   UNL A   1      36.695  21.263  25.172  1.00  0.00     0.027 A 
ATOM      9  C   UNL A   1      37.793  21.949  25.696  1.00  0.00     0.015 A 
ATOM     10  C   UNL A   1      36.441  23.916  25.819  1.00  0.00     0.031 A 
ATOM     11  C   UNL A   1      37.670  23.285  26.057  1.00  0.00     0.057 A 
BRANCH   7  12
ATOM     12  N   UNL A   1      34.484  20.981  24.470  1.00  0.00    -0.379 N 
ATOM     13  H   UNL A   1      34.370  21.055  23.495  1.00  0.00     0.160 HD
BRANCH  12  14
ATOM     14  C   UNL A   1      33.615  19.965  25.064  1.00  0.00     0.107 C 
BRANCH  14  15
ATOM     15  C   UNL A   1      33.758  18.622  24.275  1.00  0.00     0.007 C 
ATOM     16  C   UNL A   1      35.015  17.811  24.615  1.00  0.00     0.009 C 
ATOM     17  C   UNL A   1      32.529  17.749  24.457  1.00  0.00     0.009 C 
ENDBRANCH  14  15
BRANCH  14  18
ATOM     18  C   UNL A   1      32.154  20.502  24.995  1.00  0.00     0.181 C 
BRANCH  18  19
ATOM     19  O   UNL A   1      31.870  21.541  25.930  1.00  0.00    -0.394 OA
ATOM     20  H   UNL A   1      32.120  22.396  25.548  1.00  0.00     0.210 HD
ENDBRANCH  18  19
ENDBRANCH  14  18
ENDBRANCH  12  14
ENDBRANCH   7  12
BRANCH  11  21
ATOM     21  C   UNL A   1      38.844  24.017  26.655  1.00  0.00     0.416 C 
ATOM     22  F   UNL A   1      39.803  23.170  27.126  1.00  0.00    -0.166 F 
ATOM     23  F   UNL A   1      39.469  24.822  25.753  1.00  0.00    -0.166 F 
ATOM     24  F   UNL A   1      38.506  24.813  27.706  1.00  0.00    -0.166 F 
ENDBRANCH  11  21
ENDBRANCH   4   6
ENDBRANCH   3   4
ENDBRANCH   2   3
ENDBRANCH   1   2
BRANCH   1  25
ATOM     25  O   UNL A   1      32.768  28.041  26.779  1.00  0.00    -0.374 OA
BRANCH  25  26
ATOM     26  C   UNL A   1      31.961  29.037  26.146  1.00  0.00     0.202 C 
BRANCH  26  27
ATOM     27  C   UNL A   1      32.606  30.424  26.132  1.00  0.00     0.261 C 
BRANCH  27  28
ATOM     28  O   UNL A   1      32.834  30.909  27.470  1.00  0.00    -0.460 OA
BRANCH  28  29
ATOM     29  C   UNL A   1      33.693  31.948  27.594  1.00  0.00     0.338 C 
ATOM     30  O   UNL A   1      33.461  33.127  27.392  1.00  0.00    -0.246 OA
BRANCH  29  31
ATOM     31  C   UNL A   1      34.979  31.459  28.143  1.00  0.00     0.060 A 
ATOM     32  C   UNL A   1      35.057  30.123  28.556  1.00  0.00     0.016 A 
ATOM     33  C   UNL A   1      36.101  32.288  28.242  1.00  0.00     0.016 A 
ATOM     34  C   UNL A   1      36.255  29.613  29.068  1.00  0.00     0.010 A 
ATOM     35  C   UNL A   1      37.301  31.776  28.754  1.00  0.00     0.010 A 
ATOM     36  C   UNL A   1      37.382  30.439  29.183  1.00  0.00    -0.014 A 
BRANCH  36  37
ATOM     37  C   UNL A   1      38.592  29.956  29.896  1.00  0.00     0.031 A 
ATOM     38  C   UNL A   1      38.836  30.432  31.301  1.00  0.00     0.074 A 
ATOM     39  C   UNL A   1      39.461  29.105  29.319  1.00  0.00     0.049 A 
ATOM     40  N   UNL A   1      39.808  30.136  32.126  1.00  0.00    -0.248 NA
ATOM     41  C   UNL A   1      37.852  31.381  31.844  1.00  0.00     0.031 C 
ATOM     42  C   UNL A   1      39.352  28.565  27.966  1.00  0.00     0.029 A 
ATOM     43  N   UNL A   1      40.616  28.545  29.812  1.00  0.00    -0.354 N 
ATOM     44  C   UNL A   1      39.549  30.857  33.283  1.00  0.00     0.074 A 
ATOM     45  C   UNL A   1      38.363  31.647  33.037  1.00  0.00     0.031 C 
ATOM     46  C   UNL A   1      40.397  27.749  27.736  1.00  0.00     0.029 A 
ATOM     47  C   UNL A   1      41.254  27.716  28.921  1.00  0.00     0.049 A 
ATOM     48  H   UNL A   1      40.955  28.721  30.719  1.00  0.00     0.167 HD
ATOM     49  C   UNL A   1      40.223  30.848  34.458  1.00  0.00     0.037 A 
ATOM     50  C   UNL A   1      42.398  27.014  29.051  1.00  0.00     0.037 A 
ATOM     51  C   UNL A   1      41.401  30.067  34.715  1.00  0.00     0.049 A 
ATOM     52  C   UNL A   1      43.160  27.057  30.353  1.00  0.00     0.074 A 
ATOM     53  C   UNL A   1      42.135  29.970  35.884  1.00  0.00     0.029 A 
ATOM     54  N   UNL A   1      42.025  29.252  33.782  1.00  0.00    -0.354 N 
ATOM     55  N   UNL A   1      42.872  27.691  31.464  1.00  0.00    -0.248 NA
ATOM     56  C   UNL A   1      44.406  26.277  30.420  1.00  0.00     0.031 C 
ATOM     57  C   UNL A   1      43.229  29.132  35.645  1.00  0.00     0.029 A 
ATOM     58  C   UNL A   1      43.149  28.668  34.341  1.00  0.00     0.049 A 
ATOM     59  H   UNL A   1      41.713  29.110  32.858  1.00  0.00     0.167 HD
ATOM     60  C   UNL A   1      43.875  27.360  32.368  1.00  0.00     0.074 A 
ATOM     61  C   UNL A   1      44.777  26.462  31.679  1.00  0.00     0.031 C 
ATOM     62  C   UNL A   1      44.032  27.762  33.652  1.00  0.00     0.037 A 
BRANCH  49  63
ATOM     63  C   UNL A   1      39.692  31.724  35.553  1.00  0.00     0.064 A 
ATOM     64  C   UNL A   1      38.664  31.293  36.403  1.00  0.00     0.173 A 
ATOM     65  C   UNL A   1      40.219  33.009  35.754  1.00  0.00     0.173 A 
ATOM     66  F   UNL A   1      38.116  30.080  36.239  1.00  0.00    -0.203 F 
ATOM     67  C   UNL A   1      38.157  32.130  37.393  1.00  0.00     0.198 A 
ATOM     68  C   UNL A   1      39.729  33.831  36.764  1.00  0.00     0.198 A 
ATOM     69  F   UNL A   1      41.205  33.467  34.968  1.00  0.00    -0.203 F 
ATOM     70  F   UNL A   1      37.133  31.719  38.156  1.00  0.00    -0.200 F 
ATOM     71  C   UNL A   1      38.692  33.396  37.576  1.00  0.00     0.200 A 
ATOM     72  F   UNL A   1      40.253  35.051  36.945  1.00  0.00    -0.200 F 
ATOM     73  F   UNL A   1      38.201  34.202  38.528  1.00  0.00    -0.200 F 
ENDBRANCH  49  63
BRANCH  50  74
ATOM     74  C   UNL A   1      42.898  26.183  27.923  1.00  0.00     0.064 A 
ATOM     75  C   UNL A   1      43.688  26.744  26.909  1.00  0.00     0.173 A 
ATOM     76  C   UNL A   1      42.560  24.827  27.812  1.00  0.00     0.173 A 
ATOM     77  F   UNL A   1      44.010  28.046  26.955  1.00  0.00    -0.203 F 
ATOM     78  C   UNL A   1      44.102  25.987  25.815  1.00  0.00     0.198 A 
ATOM     79  C   UNL A   1      42.995  24.064  26.729  1.00  0.00     0.198 A 
ATOM     80  F   UNL A   1      41.801  24.245  28.752  1.00  0.00    -0.203 F 
ATOM     81  F   UNL A   1      44.809  26.562  24.834  1.00  0.00    -0.200 F 
ATOM     82  C   UNL A   1      43.758  24.646  25.728  1.00  0.00     0.200 A 
ATOM     83  F   UNL A   1      42.663  22.768  26.650  1.00  0.00    -0.200 F 
ATOM     84  F   UNL A   1      44.147  23.920  24.672  1.00  0.00    -0.200 F 
ENDBRANCH  50  74
BRANCH  62  85
ATOM     85  C   UNL A   1      45.199  27.209  34.420  1.00  0.00     0.064 A 
ATOM     86  C   UNL A   1      46.432  27.874  34.470  1.00  0.00     0.173 A 
ATOM     87  C   UNL A   1      45.060  26.027  35.166  1.00  0.00     0.173 A 
ATOM     88  F   UNL A   1      46.620  29.000  33.765  1.00  0.00    -0.203 F 
ATOM     89  C   UNL A   1      47.490  27.367  35.221  1.00  0.00     0.198 A 
ATOM     90  C   UNL A   1      46.110  25.539  35.939  1.00  0.00     0.198 A 
ATOM     91  F   UNL A   1      43.898  25.357  35.159  1.00  0.00    -0.203 F 
ATOM     92  F   UNL A   1      48.672  27.999  35.223  1.00  0.00    -0.200 F 
ATOM     93  C   UNL A   1      47.326  26.205  35.961  1.00  0.00     0.200 A 
ATOM     94  F   UNL A   1      45.945  24.425  36.664  1.00  0.00    -0.200 F 
ATOM     95  F   UNL A   1      48.340  25.726  36.693  1.00  0.00    -0.200 F 
ENDBRANCH  62  85
ENDBRANCH  36  37
ENDBRANCH  29  31
ENDBRANCH  28  29
ENDBRANCH  27  28
ENDBRANCH  26  27
ENDBRANCH  25  26
ENDBRANCH   1  25
TORSDOF 20
ENDMDL
MODEL 3
REMARK VINA RESULT:     -10.4      4.534      9.628
REMARK SMILES CC(C)[C@H](CO)Nc1ccc(C(F)(F)F)cc1C(=O)OCCOCCOC(=O)c1ccc(-c2c3nc(c(-c4c(F)c(F)c(F)c(F)c4F)c4ccc([nH]4)c(-c4c(F)c(F)c(F)c(F)c4F)c4nc(c(-c5c(F)c(F)c(F)c(F)c5F)c5ccc2[nH]5)C=C4)C=C3)cc1
REMARK SMILES IDX 22 1 21 2 20 3 18 4 19 5 17 6 8 7 9 8 10 9 16 10 11 11 7 12
REMARK SMILES IDX 4 14 2 15 1 16 3 17 5 18 6 19 12 21 13 22 14 23 15 24 23 25
REMARK SMILES IDX 24 26 25 27 26 28 27 29 28 30 29 31 30 32 91 33 31 34 90 35
REMARK SMILES IDX 32 36 33 37 34 38 84 39 35 40 89 41 83 42 85 43 36 44 88 45
REMARK SMILES IDX 82 46 81 47 37 49 69 50 49 51 68 52 50 53 53 54 67 55 86 56
REMARK SMILES IDX 51 57 52 58 66 60 87 61 54 62 38 63 39 64 47 65 40 66 41 67
REMARK SMILES IDX 45 68 48 69 42 70 43 71 46 72 44 73 70 74 71 75 79 76 72 77
REMARK SMILES IDX 73 78 77 79 80 80 74 81 75 82 78 83 76 84 55 85 56 86 64 87
REMARK SMILES IDX 57 88 58 89 62 90 65 91 59 92 60 93 63 94 61 95
REMARK H PARENT 7 13 6 20 85 48 53 59
REMARK Flexibility Score: inf
ROOT
ATOM      1  C   UNL A   1      33.481  28.831  25.380  1.00  0.00     0.202 C 
ENDROOT
BRANCH   1   2
ATOM      2  C   UNL A   1      33.960  27.904  24.254  1.00  0.00     0.261 C 
BRANCH   2   3
ATOM      3  O   UNL A   1      33.027  26.818  24.103  1.00  0.00    -0.460 OA
BRANCH   3   4
ATOM      4  C   UNL A   1      32.346  26.782  22.939  1.00  0.00     0.340 C 
ATOM      5  O   UNL A   1      32.788  26.426  21.858  1.00  0.00    -0.246 OA
BRANCH   4   6
ATOM      6  C   UNL A   1      30.898  26.946  23.206  1.00  0.00     0.083 A 
ATOM      7  C   UNL A   1      30.032  25.998  23.777  1.00  0.00     0.049 A 
ATOM      8  C   UNL A   1      28.683  26.407  23.929  1.00  0.00     0.027 A 
ATOM      9  C   UNL A   1      28.195  27.644  23.504  1.00  0.00     0.015 A 
ATOM     10  C   UNL A   1      30.396  28.197  22.755  1.00  0.00     0.031 A 
ATOM     11  C   UNL A   1      29.045  28.549  22.879  1.00  0.00     0.057 A 
BRANCH   7  12
ATOM     12  N   UNL A   1      30.276  24.725  24.237  1.00  0.00    -0.379 N 
ATOM     13  H   UNL A   1      29.727  24.046  23.782  1.00  0.00     0.160 HD
BRANCH  12  14
ATOM     14  C   UNL A   1      31.164  24.148  25.246  1.00  0.00     0.107 C 
BRANCH  14  15
ATOM     15  C   UNL A   1      32.092  23.078  24.583  1.00  0.00     0.007 C 
ATOM     16  C   UNL A   1      32.107  21.718  25.293  1.00  0.00     0.009 C 
ATOM     17  C   UNL A   1      31.736  22.879  23.120  1.00  0.00     0.009 C 
ENDBRANCH  14  15
BRANCH  14  18
ATOM     18  C   UNL A   1      30.266  23.507  26.346  1.00  0.00     0.181 C 
BRANCH  18  19
ATOM     19  O   UNL A   1      29.276  24.385  26.875  1.00  0.00    -0.394 OA
ATOM     20  H   UNL A   1      29.546  25.304  26.727  1.00  0.00     0.210 HD
ENDBRANCH  18  19
ENDBRANCH  14  18
ENDBRANCH  12  14
ENDBRANCH   7  12
BRANCH  11  21
ATOM     21  C   UNL A   1      28.512  29.870  22.389  1.00  0.00     0.416 C 
ATOM     22  F   UNL A   1      27.897  29.768  21.176  1.00  0.00    -0.166 F 
ATOM     23  F   UNL A   1      27.587  30.404  23.231  1.00  0.00    -0.166 F 
ATOM     24  F   UNL A   1      29.477  30.817  22.233  1.00  0.00    -0.166 F 
ENDBRANCH  11  21
ENDBRANCH   4   6
ENDBRANCH   3   4
ENDBRANCH   2   3
ENDBRANCH   1   2
BRANCH   1  25
ATOM     25  O   UNL A   1      32.545  29.814  24.932  1.00  0.00    -0.374 OA
BRANCH  25  26
ATOM     26  C   UNL A   1      31.533  30.187  25.870  1.00  0.00     0.202 C 
BRANCH  26  27
ATOM     27  C   UNL A   1      31.797  31.535  26.545  1.00  0.00     0.261 C 
BRANCH  27  28
ATOM     28  O   UNL A   1      32.802  31.419  27.571  1.00  0.00    -0.460 OA
BRANCH  28  29
ATOM     29  C   UNL A   1      33.735  32.399  27.611  1.00  0.00     0.338 C 
ATOM     30  O   UNL A   1      33.583  33.576  27.334  1.00  0.00    -0.246 OA
BRANCH  29  31
ATOM     31  C   UNL A   1      34.995  31.856  28.171  1.00  0.00     0.060 A 
ATOM     32  C   UNL A   1      35.037  30.498  28.509  1.00  0.00     0.016 A 
ATOM     33  C   UNL A   1      36.127  32.657  28.351  1.00  0.00     0.016 A 
ATOM     34  C   UNL A   1      36.209  29.938  29.027  1.00  0.00     0.010 A 
ATOM     35  C   UNL A   1      37.301  32.094  28.869  1.00  0.00     0.010 A 
ATOM     36  C   UNL A   1      37.346  30.735  29.224  1.00  0.00    -0.014 A 
BRANCH  36  37
ATOM     37  C   UNL A   1      38.525  30.189  29.945  1.00  0.00     0.031 A 
ATOM     38  C   UNL A   1      38.770  30.635  31.360  1.00  0.00     0.074 A 
ATOM     39  C   UNL A   1      39.363  29.310  29.367  1.00  0.00     0.049 A 
ATOM     40  N   UNL A   1      39.717  30.285  32.193  1.00  0.00    -0.248 NA
ATOM     41  C   UNL A   1      37.821  31.619  31.904  1.00  0.00     0.031 C 
ATOM     42  C   UNL A   1      39.249  28.794  28.005  1.00  0.00     0.029 A 
ATOM     43  N   UNL A   1      40.487  28.693  29.866  1.00  0.00    -0.354 N 
ATOM     44  C   UNL A   1      39.474  31.002  33.357  1.00  0.00     0.074 A 
ATOM     45  C   UNL A   1      38.327  31.845  33.107  1.00  0.00     0.031 C 
ATOM     46  C   UNL A   1      40.261  27.936  27.777  1.00  0.00     0.029 A 
ATOM     47  C   UNL A   1      41.100  27.850  28.971  1.00  0.00     0.049 A 
ATOM     48  H   UNL A   1      40.821  28.842  30.780  1.00  0.00     0.167 HD
ATOM     49  C   UNL A   1      40.131  30.946  34.540  1.00  0.00     0.037 A 
ATOM     50  C   UNL A   1      42.211  27.098  29.106  1.00  0.00     0.037 A 
ATOM     51  C   UNL A   1      41.272  30.111  34.800  1.00  0.00     0.049 A 
ATOM     52  C   UNL A   1      42.956  27.089  30.418  1.00  0.00     0.074 A 
ATOM     53  C   UNL A   1      41.985  29.967  35.977  1.00  0.00     0.029 A 
ATOM     54  N   UNL A   1      41.872  29.284  33.864  1.00  0.00    -0.354 N 
ATOM     55  N   UNL A   1      42.681  27.720  31.534  1.00  0.00    -0.248 NA
ATOM     56  C   UNL A   1      44.166  26.255  30.490  1.00  0.00     0.031 C 
ATOM     57  C   UNL A   1      43.045  29.085  35.740  1.00  0.00     0.029 A 
ATOM     58  C   UNL A   1      42.962  28.644  34.429  1.00  0.00     0.049 A 
ATOM     59  H   UNL A   1      41.567  29.168  32.934  1.00  0.00     0.167 HD
ATOM     60  C   UNL A   1      43.657  27.333  32.446  1.00  0.00     0.074 A 
ATOM     61  C   UNL A   1      44.529  26.406  31.756  1.00  0.00     0.031 C 
ATOM     62  C   UNL A   1      43.815  27.710  33.738  1.00  0.00     0.037 A 
BRANCH  49  63
ATOM     63  C   UNL A   1      39.625  31.830  35.640  1.00  0.00     0.064 A 
ATOM     64  C   UNL A   1      38.588  31.420  36.491  1.00  0.00     0.173 A 
ATOM     65  C   UNL A   1      40.184  33.100  35.847  1.00  0.00     0.173 A 
ATOM     66  F   UNL A   1      38.010  30.221  36.321  1.00  0.00    -0.203 F 
ATOM     67  C   UNL A   1      38.103  32.264  37.486  1.00  0.00     0.198 A 
ATOM     68  C   UNL A   1      39.716  33.929  36.863  1.00  0.00     0.198 A 
ATOM     69  F   UNL A   1      41.179  33.538  35.062  1.00  0.00    -0.203 F 
ATOM     70  F   UNL A   1      37.072  31.874  38.248  1.00  0.00    -0.200 F 
ATOM     71  C   UNL A   1      38.670  33.515  37.674  1.00  0.00     0.200 A 
ATOM     72  F   UNL A   1      40.271  35.134  37.049  1.00  0.00    -0.200 F 
ATOM     73  F   UNL A   1      38.201  34.327  38.631  1.00  0.00    -0.200 F 
ENDBRANCH  49  63
BRANCH  50  74
ATOM     74  C   UNL A   1      42.689  26.261  27.973  1.00  0.00     0.064 A 
ATOM     75  C   UNL A   1      43.585  26.777  27.024  1.00  0.00     0.173 A 
ATOM     76  C   UNL A   1      42.228  24.950  27.789  1.00  0.00     0.173 A 
ATOM     77  F   UNL A   1      44.029  28.037  27.140  1.00  0.00    -0.203 F 
ATOM     78  C   UNL A   1      43.983  26.021  25.923  1.00  0.00     0.198 A 
ATOM     79  C   UNL A   1      42.646  24.186  26.700  1.00  0.00     0.198 A 
ATOM     80  F   UNL A   1      41.365  24.413  28.664  1.00  0.00    -0.203 F 
ATOM     81  F   UNL A   1      44.796  26.557  25.004  1.00  0.00    -0.200 F 
ATOM     82  C   UNL A   1      43.516  24.725  25.764  1.00  0.00     0.200 A 
ATOM     83  F   UNL A   1      42.194  22.934  26.551  1.00  0.00    -0.200 F 
ATOM     84  F   UNL A   1      43.891  24.001  24.701  1.00  0.00    -0.200 F 
ENDBRANCH  50  74
BRANCH  62  85
ATOM     85  C   UNL A   1      44.946  27.097  34.513  1.00  0.00     0.064 A 
ATOM     86  C   UNL A   1      44.793  25.892  35.214  1.00  0.00     0.173 A 
ATOM     87  C   UNL A   1      46.217  27.693  34.503  1.00  0.00     0.173 A 
ATOM     88  F   UNL A   1      43.596  25.289  35.265  1.00  0.00    -0.203 F 
ATOM     89  C   UNL A   1      45.864  25.318  35.893  1.00  0.00     0.198 A 
ATOM     90  C   UNL A   1      47.293  27.101  35.159  1.00  0.00     0.198 A 
ATOM     91  F   UNL A   1      46.419  28.842  33.841  1.00  0.00    -0.203 F 
ATOM     92  F   UNL A   1      45.685  24.186  36.589  1.00  0.00    -0.200 F 
ATOM     93  C   UNL A   1      47.115  25.917  35.858  1.00  0.00     0.200 A 
ATOM     94  F   UNL A   1      48.503  27.674  35.112  1.00  0.00    -0.200 F 
ATOM     95  F   UNL A   1      48.147  25.356  36.501  1.00  0.00    -0.200 F 
ENDBRANCH  62  85
ENDBRANCH  36  37
ENDBRANCH  29  31
ENDBRANCH  28  29
ENDBRANCH  27  28
ENDBRANCH  26  27
ENDBRANCH  25  26
ENDBRANCH   1  25
TORSDOF 20
ENDMDL
