MODEL 1
REMARK VINA RESULT:     -10.4      0.000      0.000
REMARK SMILES CC[C@@](C)(Nc1c([N+](=O)[O-])c(C(C)C)nn1C)C(=O)OCCOCCOC(=O)c1ccc(-c2c3nc(c(-c4c(F)c(F)c(F)c(F)c4F)c4ccc([nH]4)c(-c4c(F)c(F)c(F)c(F)c4F)c4nc(c(-c5c(F)c(F)c(F)c(F)c5F)c5ccc2[nH]5)C=C4)C=C3)cc1
REMARK SMILES IDX 22 1 21 2 20 3 18 4 19 5 3 6 4 7 2 8 1 9 5 10 6 12 7 13
REMARK SMILES IDX 16 14 11 15 15 16 17 17 8 18 9 19 10 20 12 21 13 22 14 23
REMARK SMILES IDX 23 24 24 25 25 26 26 27 27 28 28 29 29 30 30 31 91 32 31 33
REMARK SMILES IDX 90 34 32 35 33 36 34 37 84 38 35 39 89 40 83 41 85 42 36 43
REMARK SMILES IDX 88 44 82 45 81 46 37 48 69 49 49 50 68 51 50 52 53 53 67 54
REMARK SMILES IDX 86 55 51 56 52 57 66 59 87 60 54 61 38 62 39 63 47 64 40 65
REMARK SMILES IDX 41 66 45 67 48 68 42 69 43 70 46 71 44 72 70 73 71 74 79 75
REMARK SMILES IDX 72 76 73 77 77 78 80 79 74 80 75 81 78 82 76 83 55 84 56 85
REMARK SMILES IDX 64 86 57 87 58 88 62 89 65 90 59 91 60 92 63 93 61 94
REMARK H PARENT 5 11 85 47 53 58
REMARK Flexibility Score: inf
ROOT
ATOM      1  C   UNL A   1      37.038  22.774  25.581  1.00  0.00     0.202 C 
ENDROOT
BRANCH   1   2
ATOM      2  C   UNL A   1      36.276  23.236  24.343  1.00  0.00     0.261 C 
BRANCH   2   3
ATOM      3  O   UNL A   1      34.850  23.203  24.560  1.00  0.00    -0.462 OA
BRANCH   3   4
ATOM      4  C   UNL A   1      34.131  22.941  23.442  1.00  0.00     0.331 C 
ATOM      5  O   UNL A   1      34.497  23.331  22.336  1.00  0.00    -0.249 OA
BRANCH   4   6
ATOM      6  C   UNL A   1      32.777  22.231  23.660  1.00  0.00     0.134 C 
ATOM      7  C   UNL A   1      32.289  21.851  22.247  1.00  0.00     0.047 C 
BRANCH   6   8
ATOM      8  C   UNL A   1      33.041  20.938  24.516  1.00  0.00     0.037 C 
ATOM      9  C   UNL A   1      32.608  19.586  23.941  1.00  0.00     0.007 C 
ENDBRANCH   6   8
BRANCH   6  10
ATOM     10  N   UNL A   1      31.590  22.904  24.302  1.00  0.00    -0.349 N 
ATOM     11  H   UNL A   1      30.743  22.428  24.147  1.00  0.00     0.163 HD
BRANCH  10  12
ATOM     12  C   UNL A   1      31.442  24.042  25.054  1.00  0.00     0.205 A 
ATOM     13  C   UNL A   1      31.306  25.377  24.654  1.00  0.00     0.334 A 
ATOM     14  N   UNL A   1      31.780  24.137  26.389  1.00  0.00    -0.246 N 
ATOM     15  C   UNL A   1      31.493  26.183  25.816  1.00  0.00     0.145 A 
ATOM     16  N   UNL A   1      31.830  25.408  26.852  1.00  0.00    -0.169 NA
ATOM     17  C   UNL A   1      32.226  23.102  27.291  1.00  0.00     0.176 C 
BRANCH  13  18
ATOM     18  N   UNL A   1      31.067  25.833  23.313  1.00  0.00     0.068 N 
ATOM     19  O   UNL A   1      30.247  26.745  23.160  1.00  0.00    -0.258 OA
ATOM     20  O   UNL A   1      31.702  25.282  22.403  1.00  0.00    -0.258 OA
ENDBRANCH  13  18
BRANCH  15  21
ATOM     21  C   UNL A   1      31.402  27.694  25.993  1.00  0.00     0.041 C 
ATOM     22  C   UNL A   1      31.425  28.108  27.471  1.00  0.00     0.014 C 
ATOM     23  C   UNL A   1      32.478  28.485  25.234  1.00  0.00     0.014 C 
ENDBRANCH  15  21
ENDBRANCH  10  12
ENDBRANCH   6  10
ENDBRANCH   4   6
ENDBRANCH   3   4
ENDBRANCH   2   3
ENDBRANCH   1   2
BRANCH   1  24
ATOM     24  O   UNL A   1      37.042  21.371  25.829  1.00  0.00    -0.374 OA
BRANCH  24  25
ATOM     25  C   UNL A   1      37.756  20.549  24.906  1.00  0.00     0.202 C 
BRANCH  25  26
ATOM     26  C   UNL A   1      38.795  19.602  25.514  1.00  0.00     0.261 C 
BRANCH  26  27
ATOM     27  O   UNL A   1      40.068  20.255  25.696  1.00  0.00    -0.460 OA
BRANCH  27  28
ATOM     28  C   UNL A   1      40.514  20.377  26.969  1.00  0.00     0.338 C 
ATOM     29  O   UNL A   1      40.783  19.468  27.741  1.00  0.00    -0.246 OA
BRANCH  28  30
ATOM     30  C   UNL A   1      40.846  21.792  27.259  1.00  0.00     0.060 A 
ATOM     31  C   UNL A   1      40.336  22.787  26.421  1.00  0.00     0.016 A 
ATOM     32  C   UNL A   1      41.670  22.152  28.322  1.00  0.00     0.016 A 
ATOM     33  C   UNL A   1      40.672  24.128  26.637  1.00  0.00     0.010 A 
ATOM     34  C   UNL A   1      41.979  23.492  28.565  1.00  0.00     0.010 A 
ATOM     35  C   UNL A   1      41.514  24.489  27.699  1.00  0.00    -0.014 A 
BRANCH  35  36
ATOM     36  C   UNL A   1      41.980  25.890  27.862  1.00  0.00     0.031 A 
ATOM     37  C   UNL A   1      43.322  26.299  27.314  1.00  0.00     0.074 A 
ATOM     38  C   UNL A   1      41.219  26.785  28.519  1.00  0.00     0.049 A 
ATOM     39  N   UNL A   1      43.910  27.469  27.349  1.00  0.00    -0.248 NA
ATOM     40  C   UNL A   1      44.115  25.252  26.648  1.00  0.00     0.031 C 
ATOM     41  C   UNL A   1      39.922  26.503  29.131  1.00  0.00     0.029 A 
ATOM     42  N   UNL A   1      41.436  28.114  28.794  1.00  0.00    -0.354 N 
ATOM     43  C   UNL A   1      45.135  27.297  26.716  1.00  0.00     0.074 A 
ATOM     44  C   UNL A   1      45.228  25.904  26.343  1.00  0.00     0.031 C 
ATOM     45  C   UNL A   1      39.459  27.622  29.712  1.00  0.00     0.029 A 
ATOM     46  C   UNL A   1      40.437  28.694  29.537  1.00  0.00     0.049 A 
ATOM     47  H   UNL A   1      42.233  28.603  28.488  1.00  0.00     0.167 HD
ATOM     48  C   UNL A   1      46.087  28.224  26.453  1.00  0.00     0.037 A 
ATOM     49  C   UNL A   1      40.332  29.943  30.032  1.00  0.00     0.037 A 
ATOM     50  C   UNL A   1      45.984  29.615  26.809  1.00  0.00     0.049 A 
ATOM     51  C   UNL A   1      41.423  30.945  29.748  1.00  0.00     0.074 A 
ATOM     52  C   UNL A   1      46.856  30.647  26.506  1.00  0.00     0.029 A 
ATOM     53  N   UNL A   1      44.959  30.165  27.560  1.00  0.00    -0.354 N 
ATOM     54  N   UNL A   1      42.522  30.798  29.048  1.00  0.00    -0.248 NA
ATOM     55  C   UNL A   1      41.254  32.290  30.318  1.00  0.00     0.031 C 
ATOM     56  C   UNL A   1      46.393  31.808  27.131  1.00  0.00     0.029 A 
ATOM     57  C   UNL A   1      45.201  31.513  27.771  1.00  0.00     0.049 A 
ATOM     58  H   UNL A   1      44.175  29.672  27.893  1.00  0.00     0.167 HD
ATOM     59  C   UNL A   1      43.161  32.031  29.077  1.00  0.00     0.074 A 
ATOM     60  C   UNL A   1      42.315  32.924  29.838  1.00  0.00     0.031 C 
ATOM     61  C   UNL A   1      44.348  32.391  28.530  1.00  0.00     0.037 A 
BRANCH  48  62
ATOM     62  C   UNL A   1      47.334  27.782  25.742  1.00  0.00     0.064 A 
ATOM     63  C   UNL A   1      47.417  27.769  24.342  1.00  0.00     0.173 A 
ATOM     64  C   UNL A   1      48.493  27.471  26.471  1.00  0.00     0.173 A 
ATOM     65  F   UNL A   1      46.336  28.053  23.599  1.00  0.00    -0.203 F 
ATOM     66  C   UNL A   1      48.610  27.452  23.698  1.00  0.00     0.198 A 
ATOM     67  C   UNL A   1      49.691  27.182  25.825  1.00  0.00     0.198 A 
ATOM     68  F   UNL A   1      48.469  27.477  27.813  1.00  0.00    -0.203 F 
ATOM     69  F   UNL A   1      48.661  27.425  22.359  1.00  0.00    -0.200 F 
ATOM     70  C   UNL A   1      49.749  27.172  24.440  1.00  0.00     0.200 A 
ATOM     71  F   UNL A   1      50.795  26.930  26.543  1.00  0.00    -0.200 F 
ATOM     72  F   UNL A   1      50.904  26.894  23.818  1.00  0.00    -0.200 F 
ENDBRANCH  48  62
BRANCH  49  73
ATOM     73  C   UNL A   1      39.159  30.324  30.866  1.00  0.00     0.064 A 
ATOM     74  C   UNL A   1      38.011  30.886  30.292  1.00  0.00     0.173 A 
ATOM     75  C   UNL A   1      39.183  30.176  32.261  1.00  0.00     0.173 A 
ATOM     76  F   UNL A   1      37.947  31.069  28.965  1.00  0.00    -0.203 F 
ATOM     77  C   UNL A   1      36.948  31.321  31.082  1.00  0.00     0.198 A 
ATOM     78  C   UNL A   1      38.106  30.578  33.047  1.00  0.00     0.198 A 
ATOM     79  F   UNL A   1      40.255  29.640  32.863  1.00  0.00    -0.203 F 
ATOM     80  F   UNL A   1      35.892  31.916  30.512  1.00  0.00    -0.200 F 
ATOM     81  C   UNL A   1      36.995  31.163  32.459  1.00  0.00     0.200 A 
ATOM     82  F   UNL A   1      38.148  30.407  34.376  1.00  0.00    -0.200 F 
ATOM     83  F   UNL A   1      35.976  31.584  33.220  1.00  0.00    -0.200 F 
ENDBRANCH  49  73
BRANCH  61  84
ATOM     84  C   UNL A   1      44.798  33.811  28.721  1.00  0.00     0.064 A 
ATOM     85  C   UNL A   1      44.411  34.828  27.834  1.00  0.00     0.173 A 
ATOM     86  C   UNL A   1      45.583  34.169  29.827  1.00  0.00     0.173 A 
ATOM     87  F   UNL A   1      43.672  34.535  26.754  1.00  0.00    -0.203 F 
ATOM     88  C   UNL A   1      44.815  36.145  28.035  1.00  0.00     0.198 A 
ATOM     89  C   UNL A   1      45.958  35.493  30.043  1.00  0.00     0.198 A 
ATOM     90  F   UNL A   1      45.973  33.238  30.710  1.00  0.00    -0.203 F 
ATOM     91  F   UNL A   1      44.476  37.090  27.147  1.00  0.00    -0.200 F 
ATOM     92  C   UNL A   1      45.580  36.478  29.142  1.00  0.00     0.200 A 
ATOM     93  F   UNL A   1      46.681  35.816  31.123  1.00  0.00    -0.200 F 
ATOM     94  F   UNL A   1      45.959  37.748  29.339  1.00  0.00    -0.200 F 
ENDBRANCH  61  84
ENDBRANCH  35  36
ENDBRANCH  28  30
ENDBRANCH  27  28
ENDBRANCH  26  27
ENDBRANCH  25  26
ENDBRANCH  24  25
ENDBRANCH   1  24
TORSDOF 19
ENDMDL
MODEL 2
REMARK VINA RESULT:     -10.3      4.306      9.978
REMARK SMILES CC[C@@](C)(Nc1c([N+](=O)[O-])c(C(C)C)nn1C)C(=O)OCCOCCOC(=O)c1ccc(-c2c3nc(c(-c4c(F)c(F)c(F)c(F)c4F)c4ccc([nH]4)c(-c4c(F)c(F)c(F)c(F)c4F)c4nc(c(-c5c(F)c(F)c(F)c(F)c5F)c5ccc2[nH]5)C=C4)C=C3)cc1
REMARK SMILES IDX 22 1 21 2 20 3 18 4 19 5 3 6 4 7 2 8 1 9 5 10 6 12 7 13
REMARK SMILES IDX 16 14 11 15 15 16 17 17 8 18 9 19 10 20 12 21 13 22 14 23
REMARK SMILES IDX 23 24 24 25 25 26 26 27 27 28 28 29 29 30 30 31 91 32 31 33
REMARK SMILES IDX 90 34 32 35 33 36 34 37 84 38 35 39 89 40 83 41 85 42 36 43
REMARK SMILES IDX 88 44 82 45 81 46 37 48 69 49 49 50 68 51 50 52 53 53 67 54
REMARK SMILES IDX 86 55 51 56 52 57 66 59 87 60 54 61 38 62 39 63 47 64 40 65
REMARK SMILES IDX 41 66 45 67 48 68 42 69 43 70 46 71 44 72 70 73 71 74 79 75
REMARK SMILES IDX 72 76 73 77 77 78 80 79 74 80 75 81 78 82 76 83 55 84 56 85
REMARK SMILES IDX 64 86 57 87 58 88 62 89 65 90 59 91 60 92 63 93 61 94
REMARK H PARENT 5 11 85 47 53 58
REMARK Flexibility Score: inf
ROOT
ATOM      1  C   UNL A   1      32.275  27.560  24.661  1.00  0.00     0.202 C 
ENDROOT
BRANCH   1   2
ATOM      2  C   UNL A   1      32.236  26.036  24.716  1.00  0.00     0.261 C 
BRANCH   2   3
ATOM      3  O   UNL A   1      33.562  25.482  24.852  1.00  0.00    -0.462 OA
BRANCH   3   4
ATOM      4  C   UNL A   1      33.592  24.284  25.485  1.00  0.00     0.331 C 
ATOM      5  O   UNL A   1      32.970  24.091  26.528  1.00  0.00    -0.249 OA
BRANCH   4   6
ATOM      6  C   UNL A   1      34.541  23.225  24.882  1.00  0.00     0.134 C 
ATOM      7  C   UNL A   1      33.937  22.879  23.505  1.00  0.00     0.047 C 
BRANCH   6   8
ATOM      8  C   UNL A   1      35.957  23.887  24.710  1.00  0.00     0.037 C 
ATOM      9  C   UNL A   1      36.857  24.010  25.943  1.00  0.00     0.007 C 
ENDBRANCH   6   8
BRANCH   6  10
ATOM     10  N   UNL A   1      34.797  21.888  25.529  1.00  0.00    -0.349 N 
ATOM     11  H   UNL A   1      34.879  21.939  26.509  1.00  0.00     0.163 HD
BRANCH  10  12
ATOM     12  C   UNL A   1      34.940  20.614  25.040  1.00  0.00     0.205 A 
ATOM     13  C   UNL A   1      34.018  19.562  24.980  1.00  0.00     0.334 A 
ATOM     14  N   UNL A   1      36.156  19.990  24.846  1.00  0.00    -0.246 N 
ATOM     15  C   UNL A   1      34.753  18.379  24.668  1.00  0.00     0.145 A 
ATOM     16  N   UNL A   1      36.060  18.656  24.640  1.00  0.00    -0.169 NA
ATOM     17  C   UNL A   1      37.488  20.530  24.985  1.00  0.00     0.176 C 
BRANCH  13  18
ATOM     18  N   UNL A   1      32.608  19.663  25.233  1.00  0.00     0.068 N 
ATOM     19  O   UNL A   1      32.158  20.782  25.504  1.00  0.00    -0.258 OA
ATOM     20  O   UNL A   1      31.940  18.622  25.157  1.00  0.00    -0.258 OA
ENDBRANCH  13  18
BRANCH  15  21
ATOM     21  C   UNL A   1      34.271  16.954  24.422  1.00  0.00     0.041 C 
ATOM     22  C   UNL A   1      34.180  16.621  22.927  1.00  0.00     0.014 C 
ATOM     23  C   UNL A   1      35.107  15.875  25.127  1.00  0.00     0.014 C 
ENDBRANCH  15  21
ENDBRANCH  10  12
ENDBRANCH   6  10
ENDBRANCH   4   6
ENDBRANCH   3   4
ENDBRANCH   2   3
ENDBRANCH   1   2
BRANCH   1  24
ATOM     24  O   UNL A   1      31.334  28.243  25.484  1.00  0.00    -0.374 OA
BRANCH  24  25
ATOM     25  C   UNL A   1      31.801  28.732  26.741  1.00  0.00     0.202 C 
BRANCH  25  26
ATOM     26  C   UNL A   1      31.891  30.255  26.878  1.00  0.00     0.261 C 
BRANCH  26  27
ATOM     27  O   UNL A   1      33.207  30.742  26.545  1.00  0.00    -0.460 OA
BRANCH  27  28
ATOM     28  C   UNL A   1      33.729  31.692  27.358  1.00  0.00     0.338 C 
ATOM     29  O   UNL A   1      33.182  32.721  27.728  1.00  0.00    -0.246 OA
BRANCH  28  30
ATOM     30  C   UNL A   1      35.012  31.222  27.932  1.00  0.00     0.060 A 
ATOM     31  C   UNL A   1      35.141  29.873  28.274  1.00  0.00     0.016 A 
ATOM     32  C   UNL A   1      36.076  32.090  28.166  1.00  0.00     0.016 A 
ATOM     33  C   UNL A   1      36.320  29.408  28.866  1.00  0.00     0.010 A 
ATOM     34  C   UNL A   1      37.269  31.623  28.723  1.00  0.00     0.010 A 
ATOM     35  C   UNL A   1      37.387  30.285  29.114  1.00  0.00    -0.014 A 
BRANCH  35  36
ATOM     36  C   UNL A   1      38.591  29.833  29.856  1.00  0.00     0.031 A 
ATOM     37  C   UNL A   1      38.872  30.381  31.231  1.00  0.00     0.074 A 
ATOM     38  C   UNL A   1      39.443  28.955  29.295  1.00  0.00     0.049 A 
ATOM     39  N   UNL A   1      39.864  30.115  32.043  1.00  0.00    -0.248 NA
ATOM     40  C   UNL A   1      37.917  31.370  31.759  1.00  0.00     0.031 C 
ATOM     41  C   UNL A   1      39.306  28.383  27.957  1.00  0.00     0.029 A 
ATOM     42  N   UNL A   1      40.605  28.401  29.776  1.00  0.00    -0.354 N 
ATOM     43  C   UNL A   1      39.654  30.901  33.170  1.00  0.00     0.074 A 
ATOM     44  C   UNL A   1      38.466  31.687  32.923  1.00  0.00     0.031 C 
ATOM     45  C   UNL A   1      40.343  27.561  27.723  1.00  0.00     0.029 A 
ATOM     46  C   UNL A   1      41.232  27.569  28.882  1.00  0.00     0.049 A 
ATOM     47  H   UNL A   1      40.956  28.585  30.678  1.00  0.00     0.167 HD
ATOM     48  C   UNL A   1      40.377  30.948  34.314  1.00  0.00     0.037 A 
ATOM     49  C   UNL A   1      42.399  26.901  28.982  1.00  0.00     0.037 A 
ATOM     50  C   UNL A   1      41.550  30.151  34.565  1.00  0.00     0.049 A 
ATOM     51  C   UNL A   1      43.197  26.997  30.258  1.00  0.00     0.074 A 
ATOM     52  C   UNL A   1      42.297  30.063  35.727  1.00  0.00     0.029 A 
ATOM     53  N   UNL A   1      42.154  29.320  33.636  1.00  0.00    -0.354 N 
ATOM     54  N   UNL A   1      42.926  27.655  31.358  1.00  0.00    -0.248 NA
ATOM     55  C   UNL A   1      44.464  26.250  30.306  1.00  0.00     0.031 C 
ATOM     56  C   UNL A   1      43.392  29.231  35.479  1.00  0.00     0.029 A 
ATOM     57  C   UNL A   1      43.293  28.752  34.184  1.00  0.00     0.049 A 
ATOM     58  H   UNL A   1      41.824  29.157  32.724  1.00  0.00     0.167 HD
ATOM     59  C   UNL A   1      43.972  27.386  32.233  1.00  0.00     0.074 A 
ATOM     60  C   UNL A   1      44.868  26.481  31.547  1.00  0.00     0.031 C 
ATOM     61  C   UNL A   1      44.177  27.852  33.490  1.00  0.00     0.037 A 
BRANCH  48  62
ATOM     62  C   UNL A   1      39.935  31.888  35.399  1.00  0.00     0.064 A 
ATOM     63  C   UNL A   1      40.426  33.199  35.482  1.00  0.00     0.173 A 
ATOM     64  C   UNL A   1      38.929  31.504  36.300  1.00  0.00     0.173 A 
ATOM     65  F   UNL A   1      41.391  33.613  34.648  1.00  0.00    -0.203 F 
ATOM     66  C   UNL A   1      39.932  34.089  36.433  1.00  0.00     0.198 A 
ATOM     67  C   UNL A   1      38.419  32.405  37.231  1.00  0.00     0.198 A 
ATOM     68  F   UNL A   1      38.420  30.264  36.257  1.00  0.00    -0.203 F 
ATOM     69  F   UNL A   1      40.431  35.330  36.508  1.00  0.00    -0.200 F 
ATOM     70  C   UNL A   1      38.921  33.695  37.298  1.00  0.00     0.200 A 
ATOM     71  F   UNL A   1      37.429  32.028  38.053  1.00  0.00    -0.200 F 
ATOM     72  F   UNL A   1      38.429  34.562  38.194  1.00  0.00    -0.200 F 
ENDBRANCH  48  62
BRANCH  49  73
ATOM     73  C   UNL A   1      42.902  26.093  27.838  1.00  0.00     0.064 A 
ATOM     74  C   UNL A   1      42.596  24.730  27.720  1.00  0.00     0.173 A 
ATOM     75  C   UNL A   1      43.740  26.657  26.864  1.00  0.00     0.173 A 
ATOM     76  F   UNL A   1      41.817  24.138  28.638  1.00  0.00    -0.203 F 
ATOM     77  C   UNL A   1      43.136  23.955  26.697  1.00  0.00     0.198 A 
ATOM     78  C   UNL A   1      44.251  25.889  25.820  1.00  0.00     0.198 A 
ATOM     79  F   UNL A   1      44.062  27.958  26.925  1.00  0.00    -0.203 F 
ATOM     80  F   UNL A   1      42.880  22.640  26.647  1.00  0.00    -0.200 F 
ATOM     81  C   UNL A   1      43.960  24.536  25.745  1.00  0.00     0.200 A 
ATOM     82  F   UNL A   1      45.033  26.460  24.893  1.00  0.00    -0.200 F 
ATOM     83  F   UNL A   1      44.484  23.790  24.763  1.00  0.00    -0.200 F 
ENDBRANCH  49  73
BRANCH  61  84
ATOM     84  C   UNL A   1      45.408  27.384  34.210  1.00  0.00     0.064 A 
ATOM     85  C   UNL A   1      45.412  26.201  34.965  1.00  0.00     0.173 A 
ATOM     86  C   UNL A   1      46.611  28.100  34.108  1.00  0.00     0.173 A 
ATOM     87  F   UNL A   1      44.285  25.488  35.106  1.00  0.00    -0.203 F 
ATOM     88  C   UNL A   1      46.566  25.766  35.610  1.00  0.00     0.198 A 
ATOM     89  C   UNL A   1      47.773  27.644  34.726  1.00  0.00     0.198 A 
ATOM     90  F   UNL A   1      46.665  29.233  33.392  1.00  0.00    -0.203 F 
ATOM     91  F   UNL A   1      46.532  24.660  36.366  1.00  0.00    -0.200 F 
ATOM     92  C   UNL A   1      47.747  26.483  35.483  1.00  0.00     0.200 A 
ATOM     93  F   UNL A   1      48.916  28.328  34.588  1.00  0.00    -0.200 F 
ATOM     94  F   UNL A   1      48.859  26.056  36.096  1.00  0.00    -0.200 F 
ENDBRANCH  61  84
ENDBRANCH  35  36
ENDBRANCH  28  30
ENDBRANCH  27  28
ENDBRANCH  26  27
ENDBRANCH  25  26
ENDBRANCH  24  25
ENDBRANCH   1  24
TORSDOF 19
ENDMDL
MODEL 3
REMARK VINA RESULT:     -10.3      1.746      7.504
REMARK SMILES CC[C@@](C)(Nc1c([N+](=O)[O-])c(C(C)C)nn1C)C(=O)OCCOCCOC(=O)c1ccc(-c2c3nc(c(-c4c(F)c(F)c(F)c(F)c4F)c4ccc([nH]4)c(-c4c(F)c(F)c(F)c(F)c4F)c4nc(c(-c5c(F)c(F)c(F)c(F)c5F)c5ccc2[nH]5)C=C4)C=C3)cc1
REMARK SMILES IDX 22 1 21 2 20 3 18 4 19 5 3 6 4 7 2 8 1 9 5 10 6 12 7 13
REMARK SMILES IDX 16 14 11 15 15 16 17 17 8 18 9 19 10 20 12 21 13 22 14 23
REMARK SMILES IDX 23 24 24 25 25 26 26 27 27 28 28 29 29 30 30 31 91 32 31 33
REMARK SMILES IDX 90 34 32 35 33 36 34 37 84 38 35 39 89 40 83 41 85 42 36 43
REMARK SMILES IDX 88 44 82 45 81 46 37 48 69 49 49 50 68 51 50 52 53 53 67 54
REMARK SMILES IDX 86 55 51 56 52 57 66 59 87 60 54 61 38 62 39 63 47 64 40 65
REMARK SMILES IDX 41 66 45 67 48 68 42 69 43 70 46 71 44 72 70 73 71 74 79 75
REMARK SMILES IDX 72 76 73 77 77 78 80 79 74 80 75 81 78 82 76 83 55 84 56 85
REMARK SMILES IDX 64 86 57 87 58 88 62 89 65 90 59 91 60 92 63 93 61 94
REMARK H PARENT 5 11 85 47 53 58
REMARK Flexibility Score: inf
ROOT
ATOM      1  C   UNL A   1      36.844  22.344  25.683  1.00  0.00     0.202 C 
ENDROOT
BRANCH   1   2
ATOM      2  C   UNL A   1      36.689  23.701  25.002  1.00  0.00     0.261 C 
BRANCH   2   3
ATOM      3  O   UNL A   1      35.300  24.079  24.895  1.00  0.00    -0.462 OA
BRANCH   3   4
ATOM      4  C   UNL A   1      34.648  23.482  23.869  1.00  0.00     0.331 C 
ATOM      5  O   UNL A   1      35.152  23.391  22.752  1.00  0.00    -0.249 OA
BRANCH   4   6
ATOM      6  C   UNL A   1      33.199  23.033  24.160  1.00  0.00     0.134 C 
ATOM      7  C   UNL A   1      32.852  22.037  23.034  1.00  0.00     0.047 C 
BRANCH   6   8
ATOM      8  C   UNL A   1      33.188  22.308  25.556  1.00  0.00     0.037 C 
ATOM      9  C   UNL A   1      32.643  23.072  26.767  1.00  0.00     0.007 C 
ENDBRANCH   6   8
BRANCH   6  10
ATOM     10  N   UNL A   1      32.033  23.988  24.192  1.00  0.00    -0.349 N 
ATOM     11  H   UNL A   1      31.175  23.548  24.389  1.00  0.00     0.163 HD
BRANCH  10  12
ATOM     12  C   UNL A   1      31.917  25.342  24.004  1.00  0.00     0.205 A 
ATOM     13  C   UNL A   1      31.285  26.311  24.794  1.00  0.00     0.334 A 
ATOM     14  N   UNL A   1      32.081  25.973  22.788  1.00  0.00    -0.246 N 
ATOM     15  C   UNL A   1      31.191  27.497  24.005  1.00  0.00     0.145 A 
ATOM     16  N   UNL A   1      31.638  27.251  22.770  1.00  0.00    -0.169 NA
ATOM     17  C   UNL A   1      32.508  25.417  21.525  1.00  0.00     0.176 C 
BRANCH  13  18
ATOM     18  N   UNL A   1      30.791  26.117  26.128  1.00  0.00     0.068 N 
ATOM     19  O   UNL A   1      29.900  25.275  26.288  1.00  0.00    -0.258 OA
ATOM     20  O   UNL A   1      31.294  26.806  27.027  1.00  0.00    -0.258 OA
ENDBRANCH  13  18
BRANCH  15  21
ATOM     21  C   UNL A   1      30.653  28.877  24.360  1.00  0.00     0.041 C 
ATOM     22  C   UNL A   1      31.706  29.750  25.057  1.00  0.00     0.014 C 
ATOM     23  C   UNL A   1      30.068  29.652  23.170  1.00  0.00     0.014 C 
ENDBRANCH  15  21
ENDBRANCH  10  12
ENDBRANCH   6  10
ENDBRANCH   4   6
ENDBRANCH   3   4
ENDBRANCH   2   3
ENDBRANCH   1   2
BRANCH   1  24
ATOM     24  O   UNL A   1      37.721  21.419  25.047  1.00  0.00    -0.374 OA
BRANCH  24  25
ATOM     25  C   UNL A   1      38.909  21.060  25.751  1.00  0.00     0.202 C 
BRANCH  25  26
ATOM     26  C   UNL A   1      39.531  19.711  25.376  1.00  0.00     0.261 C 
BRANCH  26  27
ATOM     27  O   UNL A   1      40.351  19.188  26.441  1.00  0.00    -0.460 OA
BRANCH  27  28
ATOM     28  C   UNL A   1      41.687  19.159  26.224  1.00  0.00     0.338 C 
ATOM     29  O   UNL A   1      42.332  18.235  25.747  1.00  0.00    -0.246 OA
BRANCH  28  30
ATOM     30  C   UNL A   1      42.270  20.503  26.448  1.00  0.00     0.060 A 
ATOM     31  C   UNL A   1      42.277  21.024  27.745  1.00  0.00     0.016 A 
ATOM     32  C   UNL A   1      42.782  21.267  25.403  1.00  0.00     0.016 A 
ATOM     33  C   UNL A   1      42.773  22.310  27.983  1.00  0.00     0.010 A 
ATOM     34  C   UNL A   1      43.312  22.538  25.640  1.00  0.00     0.010 A 
ATOM     35  C   UNL A   1      43.276  23.087  26.928  1.00  0.00    -0.014 A 
BRANCH  35  36
ATOM     36  C   UNL A   1      43.685  24.497  27.144  1.00  0.00     0.031 A 
ATOM     37  C   UNL A   1      42.668  25.508  27.608  1.00  0.00     0.074 A 
ATOM     38  C   UNL A   1      44.953  24.879  26.905  1.00  0.00     0.049 A 
ATOM     39  N   UNL A   1      42.823  26.784  27.857  1.00  0.00    -0.248 NA
ATOM     40  C   UNL A   1      41.292  25.023  27.805  1.00  0.00     0.031 C 
ATOM     41  C   UNL A   1      46.019  24.007  26.415  1.00  0.00     0.029 A 
ATOM     42  N   UNL A   1      45.557  26.108  27.028  1.00  0.00    -0.354 N 
ATOM     43  C   UNL A   1      41.570  27.251  28.237  1.00  0.00     0.074 A 
ATOM     44  C   UNL A   1      40.656  26.135  28.144  1.00  0.00     0.031 C 
ATOM     45  C   UNL A   1      47.145  24.727  26.277  1.00  0.00     0.029 A 
ATOM     46  C   UNL A   1      46.875  26.116  26.641  1.00  0.00     0.049 A 
ATOM     47  H   UNL A   1      45.088  26.906  27.360  1.00  0.00     0.167 HD
ATOM     48  C   UNL A   1      41.219  28.494  28.643  1.00  0.00     0.037 A 
ATOM     49  C   UNL A   1      47.758  27.131  26.575  1.00  0.00     0.037 A 
ATOM     50  C   UNL A   1      42.135  29.600  28.752  1.00  0.00     0.049 A 
ATOM     51  C   UNL A   1      47.330  28.512  27.007  1.00  0.00     0.074 A 
ATOM     52  C   UNL A   1      41.892  30.873  29.240  1.00  0.00     0.029 A 
ATOM     53  N   UNL A   1      43.461  29.570  28.352  1.00  0.00    -0.354 N 
ATOM     54  N   UNL A   1      46.172  28.913  27.473  1.00  0.00    -0.248 NA
ATOM     55  C   UNL A   1      48.335  29.581  26.908  1.00  0.00     0.031 C 
ATOM     56  C   UNL A   1      43.053  31.633  29.072  1.00  0.00     0.029 A 
ATOM     57  C   UNL A   1      44.036  30.817  28.538  1.00  0.00     0.049 A 
ATOM     58  H   UNL A   1      43.925  28.781  27.991  1.00  0.00     0.167 HD
ATOM     59  C   UNL A   1      46.316  30.268  27.741  1.00  0.00     0.074 A 
ATOM     60  C   UNL A   1      47.681  30.617  27.414  1.00  0.00     0.031 C 
ATOM     61  C   UNL A   1      45.398  31.150  28.209  1.00  0.00     0.037 A 
BRANCH  48  62
ATOM     62  C   UNL A   1      39.784  28.746  29.009  1.00  0.00     0.064 A 
ATOM     63  C   UNL A   1      39.325  28.599  30.326  1.00  0.00     0.173 A 
ATOM     64  C   UNL A   1      38.886  29.242  28.052  1.00  0.00     0.173 A 
ATOM     65  F   UNL A   1      40.142  28.123  31.278  1.00  0.00    -0.203 F 
ATOM     66  C   UNL A   1      38.017  28.931  30.670  1.00  0.00     0.198 A 
ATOM     67  C   UNL A   1      37.588  29.600  28.404  1.00  0.00     0.198 A 
ATOM     68  F   UNL A   1      39.278  29.409  26.779  1.00  0.00    -0.203 F 
ATOM     69  F   UNL A   1      37.593  28.763  31.929  1.00  0.00    -0.200 F 
ATOM     70  C   UNL A   1      37.153  29.443  29.711  1.00  0.00     0.200 A 
ATOM     71  F   UNL A   1      36.761  30.111  27.481  1.00  0.00    -0.200 F 
ATOM     72  F   UNL A   1      35.903  29.788  30.049  1.00  0.00    -0.200 F 
ENDBRANCH  48  62
BRANCH  49  73
ATOM     73  C   UNL A   1      49.137  26.897  26.064  1.00  0.00     0.064 A 
ATOM     74  C   UNL A   1      49.446  27.060  24.707  1.00  0.00     0.173 A 
ATOM     75  C   UNL A   1      50.161  26.458  26.916  1.00  0.00     0.173 A 
ATOM     76  F   UNL A   1      48.496  27.456  23.847  1.00  0.00    -0.203 F 
ATOM     77  C   UNL A   1      50.714  26.758  24.215  1.00  0.00     0.198 A 
ATOM     78  C   UNL A   1      51.438  26.191  26.430  1.00  0.00     0.198 A 
ATOM     79  F   UNL A   1      49.921  26.289  28.225  1.00  0.00    -0.203 F 
ATOM     80  F   UNL A   1      50.963  26.859  22.902  1.00  0.00    -0.200 F 
ATOM     81  C   UNL A   1      51.711  26.328  25.077  1.00  0.00     0.200 A 
ATOM     82  F   UNL A   1      52.403  25.792  27.271  1.00  0.00    -0.200 F 
ATOM     83  F   UNL A   1      52.929  26.033  24.605  1.00  0.00    -0.200 F 
ENDBRANCH  49  73
BRANCH  61  84
ATOM     84  C   UNL A   1      45.840  32.571  28.408  1.00  0.00     0.064 A 
ATOM     85  C   UNL A   1      45.676  33.537  27.404  1.00  0.00     0.173 A 
ATOM     86  C   UNL A   1      46.389  32.983  29.632  1.00  0.00     0.173 A 
ATOM     87  F   UNL A   1      45.169  33.191  26.211  1.00  0.00    -0.203 F 
ATOM     88  C   UNL A   1      46.068  34.857  27.609  1.00  0.00     0.198 A 
ATOM     89  C   UNL A   1      46.749  34.311  29.846  1.00  0.00     0.198 A 
ATOM     90  F   UNL A   1      46.559  32.102  30.628  1.00  0.00    -0.203 F 
ATOM     91  F   UNL A   1      45.949  35.751  26.618  1.00  0.00    -0.200 F 
ATOM     92  C   UNL A   1      46.597  35.245  28.832  1.00  0.00     0.200 A 
ATOM     93  F   UNL A   1      47.242  34.688  31.033  1.00  0.00    -0.200 F 
ATOM     94  F   UNL A   1      46.963  36.518  29.031  1.00  0.00    -0.200 F 
ENDBRANCH  61  84
ENDBRANCH  35  36
ENDBRANCH  28  30
ENDBRANCH  27  28
ENDBRANCH  26  27
ENDBRANCH  25  26
ENDBRANCH  24  25
ENDBRANCH   1  24
TORSDOF 19
ENDMDL
