MODEL 1
REMARK VINA RESULT:     -11.7      0.000      0.000
REMARK SMILES Cc1c(Cl)cccc1NC(=O)C[C@H](C(=O)OCCOCCOC(=O)c1ccc(-c2c3nc(c(-c4c(F)c(F)c(F)c(F)c4F)c4ccc([nH]4)c(-c4c(F)c(F)c(F)c(F)c4F)c4nc(c(-c5c(F)c(F)c(F)c(F)c5F)c5ccc2[nH]5)C=C4)C=C3)cc1)[C@H](C)c1ccccc1
REMARK SMILES IDX 18 1 17 2 16 3 14 4 15 5 13 6 12 7 10 8 9 9 11 11 8 12 1 13
REMARK SMILES IDX 2 14 3 15 4 16 5 17 7 18 6 19 88 20 89 21 90 22 91 23 95 24
REMARK SMILES IDX 92 25 94 26 93 27 19 28 20 29 21 30 22 31 23 32 24 33 25 34
REMARK SMILES IDX 26 35 87 36 27 37 86 38 28 39 29 40 30 41 80 42 31 43 85 44
REMARK SMILES IDX 79 45 81 46 32 47 84 48 78 49 77 50 33 52 65 53 45 54 64 55
REMARK SMILES IDX 46 56 49 57 63 58 82 59 47 60 48 61 62 63 83 64 50 65 34 66
REMARK SMILES IDX 35 67 43 68 36 69 37 70 41 71 44 72 38 73 39 74 42 75 40 76
REMARK SMILES IDX 66 77 67 78 75 79 68 80 69 81 73 82 76 83 70 84 71 85 74 86
REMARK SMILES IDX 72 87 51 88 52 89 60 90 53 91 54 92 58 93 61 94 55 95 56 96
REMARK SMILES IDX 59 97 57 98
REMARK H PARENT 9 10 81 51 49 62
REMARK Flexibility Score: inf
ROOT
ATOM      1  C   UNL A   1      36.622  22.149  25.144  1.00  0.00     0.202 C 
ENDROOT
BRANCH   1   2
ATOM      2  C   UNL A   1      35.609  21.356  25.985  1.00  0.00     0.261 C 
BRANCH   2   3
ATOM      3  O   UNL A   1      34.476  22.176  26.371  1.00  0.00    -0.463 OA
BRANCH   3   4
ATOM      4  C   UNL A   1      33.436  22.277  25.494  1.00  0.00     0.310 C 
ATOM      5  O   UNL A   1      32.996  21.341  24.841  1.00  0.00    -0.252 OA
BRANCH   4   6
ATOM      6  C   UNL A   1      32.823  23.689  25.476  1.00  0.00     0.116 C 
BRANCH   6   7
ATOM      7  C   UNL A   1      32.008  23.856  26.774  1.00  0.00     0.116 C 
BRANCH   7   8
ATOM      8  C   UNL A   1      30.515  24.042  26.824  1.00  0.00     0.225 C 
ATOM      9  N   UNL A   1      29.854  25.112  26.295  1.00  0.00    -0.326 N 
ATOM     10  H   UNL A   1      28.934  25.212  26.630  1.00  0.00     0.169 HD
ATOM     11  O   UNL A   1      29.825  23.198  27.409  1.00  0.00    -0.275 OA
BRANCH   9  12
ATOM     12  C   UNL A   1      30.228  26.100  25.359  1.00  0.00     0.045 A 
ATOM     13  C   UNL A   1      31.350  27.430  27.256  1.00  0.00     0.048 C 
ATOM     14  C   UNL A   1      30.933  27.242  25.816  1.00  0.00    -0.009 A 
ATOM     15  C   UNL A   1      31.111  28.327  24.925  1.00  0.00     0.046 A 
ATOM     16  Cl  UNL A   1      31.909  29.786  25.404  1.00  0.00    -0.084 Cl
ATOM     17  C   UNL A   1      30.592  28.296  23.633  1.00  0.00     0.021 A 
ATOM     18  C   UNL A   1      29.800  26.065  24.033  1.00  0.00     0.026 A 
ATOM     19  C   UNL A   1      29.944  27.160  23.183  1.00  0.00     0.004 A 
ENDBRANCH   9  12
ENDBRANCH   7   8
ENDBRANCH   6   7
BRANCH   6  20
ATOM     20  C   UNL A   1      33.901  24.675  24.940  1.00  0.00     0.031 C 
ATOM     21  C   UNL A   1      34.327  25.881  25.771  1.00  0.00     0.013 C 
BRANCH  20  22
ATOM     22  C   UNL A   1      33.465  25.225  23.579  1.00  0.00    -0.044 A 
ATOM     23  C   UNL A   1      32.831  24.391  22.650  1.00  0.00     0.004 A 
ATOM     24  C   UNL A   1      33.732  26.560  23.221  1.00  0.00     0.004 A 
ATOM     25  C   UNL A   1      32.533  24.865  21.372  1.00  0.00     0.000 A 
ATOM     26  C   UNL A   1      33.451  27.023  21.938  1.00  0.00     0.000 A 
ATOM     27  C   UNL A   1      32.861  26.171  21.010  1.00  0.00     0.000 A 
ENDBRANCH  20  22
ENDBRANCH   6  20
ENDBRANCH   4   6
ENDBRANCH   3   4
ENDBRANCH   2   3
ENDBRANCH   1   2
BRANCH   1  28
ATOM     28  O   UNL A   1      37.727  21.402  24.632  1.00  0.00    -0.374 OA
BRANCH  28  29
ATOM     29  C   UNL A   1      37.770  20.021  24.969  1.00  0.00     0.202 C 
BRANCH  29  30
ATOM     30  C   UNL A   1      39.087  19.522  25.585  1.00  0.00     0.261 C 
BRANCH  30  31
ATOM     31  O   UNL A   1      40.055  20.573  25.768  1.00  0.00    -0.460 OA
BRANCH  31  32
ATOM     32  C   UNL A   1      40.707  20.544  26.956  1.00  0.00     0.338 C 
ATOM     33  O   UNL A   1      41.174  19.558  27.513  1.00  0.00    -0.246 OA
BRANCH  32  34
ATOM     34  C   UNL A   1      40.952  21.910  27.460  1.00  0.00     0.060 A 
ATOM     35  C   UNL A   1      40.254  22.952  26.836  1.00  0.00     0.016 A 
ATOM     36  C   UNL A   1      41.882  22.194  28.464  1.00  0.00     0.016 A 
ATOM     37  C   UNL A   1      40.525  24.279  27.166  1.00  0.00     0.010 A 
ATOM     38  C   UNL A   1      42.140  23.531  28.808  1.00  0.00     0.010 A 
ATOM     39  C   UNL A   1      41.498  24.585  28.127  1.00  0.00    -0.014 A 
BRANCH  39  40
ATOM     40  C   UNL A   1      41.951  25.996  28.283  1.00  0.00     0.031 A 
ATOM     41  C   UNL A   1      43.277  26.407  27.698  1.00  0.00     0.074 A 
ATOM     42  C   UNL A   1      41.171  26.926  28.867  1.00  0.00     0.049 A 
ATOM     43  N   UNL A   1      43.862  27.579  27.695  1.00  0.00    -0.248 NA
ATOM     44  C   UNL A   1      44.048  25.353  27.019  1.00  0.00     0.031 C 
ATOM     45  C   UNL A   1      39.844  26.685  29.427  1.00  0.00     0.029 A 
ATOM     46  N   UNL A   1      41.386  28.267  29.081  1.00  0.00    -0.354 N 
ATOM     47  C   UNL A   1      45.066  27.401  27.023  1.00  0.00     0.074 A 
ATOM     48  C   UNL A   1      45.149  26.001  26.671  1.00  0.00     0.031 C 
ATOM     49  C   UNL A   1      39.365  27.835  29.931  1.00  0.00     0.029 A 
ATOM     50  C   UNL A   1      40.361  28.891  29.750  1.00  0.00     0.049 A 
ATOM     51  H   UNL A   1      42.198  28.736  28.784  1.00  0.00     0.167 HD
ATOM     52  C   UNL A   1      46.009  28.321  26.710  1.00  0.00     0.037 A 
ATOM     53  C   UNL A   1      40.242  30.165  30.178  1.00  0.00     0.037 A 
ATOM     54  C   UNL A   1      45.929  29.719  27.049  1.00  0.00     0.049 A 
ATOM     55  C   UNL A   1      41.344  31.153  29.890  1.00  0.00     0.074 A 
ATOM     56  C   UNL A   1      46.824  30.731  26.751  1.00  0.00     0.029 A 
ATOM     57  N   UNL A   1      44.897  30.300  27.770  1.00  0.00    -0.354 N 
ATOM     58  N   UNL A   1      42.460  30.981  29.225  1.00  0.00    -0.248 NA
ATOM     59  C   UNL A   1      41.163  32.518  30.407  1.00  0.00     0.031 C 
ATOM     60  C   UNL A   1      46.369  31.909  27.350  1.00  0.00     0.029 A 
ATOM     61  C   UNL A   1      45.153  31.649  27.960  1.00  0.00     0.049 A 
ATOM     62  H   UNL A   1      44.100  29.824  28.101  1.00  0.00     0.167 HD
ATOM     63  C   UNL A   1      43.096  32.218  29.217  1.00  0.00     0.074 A 
ATOM     64  C   UNL A   1      42.234  33.135  29.929  1.00  0.00     0.031 C 
ATOM     65  C   UNL A   1      44.287  32.560  28.666  1.00  0.00     0.037 A 
BRANCH  52  66
ATOM     66  C   UNL A   1      47.234  27.840  25.984  1.00  0.00     0.064 A 
ATOM     67  C   UNL A   1      48.397  27.450  26.665  1.00  0.00     0.173 A 
ATOM     68  C   UNL A   1      47.231  27.739  24.584  1.00  0.00     0.173 A 
ATOM     69  F   UNL A   1      48.457  27.537  28.003  1.00  0.00    -0.203 F 
ATOM     70  C   UNL A   1      49.522  27.010  25.971  1.00  0.00     0.198 A 
ATOM     71  C   UNL A   1      48.345  27.266  23.895  1.00  0.00     0.198 A 
ATOM     72  F   UNL A   1      46.145  28.092  23.881  1.00  0.00    -0.203 F 
ATOM     73  F   UNL A   1      50.640  26.698  26.641  1.00  0.00    -0.200 F 
ATOM     74  C   UNL A   1      49.493  26.911  24.588  1.00  0.00     0.200 A 
ATOM     75  F   UNL A   1      48.309  27.155  22.560  1.00  0.00    -0.200 F 
ATOM     76  F   UNL A   1      50.573  26.482  23.923  1.00  0.00    -0.200 F 
ENDBRANCH  52  66
BRANCH  53  77
ATOM     77  C   UNL A   1      39.031  30.585  30.935  1.00  0.00     0.064 A 
ATOM     78  C   UNL A   1      37.917  31.131  30.282  1.00  0.00     0.173 A 
ATOM     79  C   UNL A   1      38.977  30.475  32.333  1.00  0.00     0.173 A 
ATOM     80  F   UNL A   1      37.930  31.283  28.950  1.00  0.00    -0.203 F 
ATOM     81  C   UNL A   1      36.804  31.568  30.999  1.00  0.00     0.198 A 
ATOM     82  C   UNL A   1      37.851  30.882  33.046  1.00  0.00     0.198 A 
ATOM     83  F   UNL A   1      40.016  29.963  33.008  1.00  0.00    -0.203 F 
ATOM     84  F   UNL A   1      35.774  32.133  30.354  1.00  0.00    -0.200 F 
ATOM     85  C   UNL A   1      36.769  31.437  32.379  1.00  0.00     0.200 A 
ATOM     86  F   UNL A   1      37.816  30.740  34.378  1.00  0.00    -0.200 F 
ATOM     87  F   UNL A   1      35.697  31.853  33.067  1.00  0.00    -0.200 F 
ENDBRANCH  53  77
BRANCH  65  88
ATOM     88  C   UNL A   1      44.718  33.997  28.773  1.00  0.00     0.064 A 
ATOM     89  C   UNL A   1      45.538  34.449  29.817  1.00  0.00     0.173 A 
ATOM     90  C   UNL A   1      44.338  34.927  27.791  1.00  0.00     0.173 A 
ATOM     91  F   UNL A   1      45.921  33.607  30.789  1.00  0.00    -0.203 F 
ATOM     92  C   UNL A   1      45.936  35.783  29.892  1.00  0.00     0.198 A 
ATOM     93  C   UNL A   1      44.767  36.250  27.850  1.00  0.00     0.198 A 
ATOM     94  F   UNL A   1      43.562  34.548  26.765  1.00  0.00    -0.203 F 
ATOM     95  F   UNL A   1      46.675  36.202  30.929  1.00  0.00    -0.200 F 
ATOM     96  C   UNL A   1      45.557  36.680  28.904  1.00  0.00     0.200 A 
ATOM     97  F   UNL A   1      44.415  37.111  26.883  1.00  0.00    -0.200 F 
ATOM     98  F   UNL A   1      45.948  37.960  28.973  1.00  0.00    -0.200 F 
ENDBRANCH  65  88
ENDBRANCH  39  40
ENDBRANCH  32  34
ENDBRANCH  31  32
ENDBRANCH  30  31
ENDBRANCH  29  30
ENDBRANCH  28  29
ENDBRANCH   1  28
TORSDOF 19
ENDMDL
MODEL 2
REMARK VINA RESULT:     -11.4      0.425      7.013
REMARK SMILES Cc1c(Cl)cccc1NC(=O)C[C@H](C(=O)OCCOCCOC(=O)c1ccc(-c2c3nc(c(-c4c(F)c(F)c(F)c(F)c4F)c4ccc([nH]4)c(-c4c(F)c(F)c(F)c(F)c4F)c4nc(c(-c5c(F)c(F)c(F)c(F)c5F)c5ccc2[nH]5)C=C4)C=C3)cc1)[C@H](C)c1ccccc1
REMARK SMILES IDX 18 1 17 2 16 3 14 4 15 5 13 6 12 7 10 8 9 9 11 11 8 12 1 13
REMARK SMILES IDX 2 14 3 15 4 16 5 17 7 18 6 19 88 20 89 21 90 22 91 23 95 24
REMARK SMILES IDX 92 25 94 26 93 27 19 28 20 29 21 30 22 31 23 32 24 33 25 34
REMARK SMILES IDX 26 35 87 36 27 37 86 38 28 39 29 40 30 41 80 42 31 43 85 44
REMARK SMILES IDX 79 45 81 46 32 47 84 48 78 49 77 50 33 52 65 53 45 54 64 55
REMARK SMILES IDX 46 56 49 57 63 58 82 59 47 60 48 61 62 63 83 64 50 65 34 66
REMARK SMILES IDX 35 67 43 68 36 69 37 70 41 71 44 72 38 73 39 74 42 75 40 76
REMARK SMILES IDX 66 77 67 78 75 79 68 80 69 81 73 82 76 83 70 84 71 85 74 86
REMARK SMILES IDX 72 87 51 88 52 89 60 90 53 91 54 92 58 93 61 94 55 95 56 96
REMARK SMILES IDX 59 97 57 98
REMARK H PARENT 9 10 81 51 49 62
REMARK Flexibility Score: inf
ROOT
ATOM      1  C   UNL A   1      36.379  21.950  25.114  1.00  0.00     0.202 C 
ENDROOT
BRANCH   1   2
ATOM      2  C   UNL A   1      35.404  21.204  26.039  1.00  0.00     0.261 C 
BRANCH   2   3
ATOM      3  O   UNL A   1      34.247  22.016  26.365  1.00  0.00    -0.463 OA
BRANCH   3   4
ATOM      4  C   UNL A   1      33.340  22.257  25.375  1.00  0.00     0.310 C 
ATOM      5  O   UNL A   1      32.950  21.413  24.581  1.00  0.00    -0.252 OA
BRANCH   4   6
ATOM      6  C   UNL A   1      32.801  23.699  25.416  1.00  0.00     0.116 C 
BRANCH   6   7
ATOM      7  C   UNL A   1      32.002  23.856  26.726  1.00  0.00     0.116 C 
BRANCH   7   8
ATOM      8  C   UNL A   1      30.512  24.059  26.796  1.00  0.00     0.225 C 
ATOM      9  N   UNL A   1      29.858  25.141  26.282  1.00  0.00    -0.326 N 
ATOM     10  H   UNL A   1      28.943  25.250  26.629  1.00  0.00     0.169 HD
ATOM     11  O   UNL A   1      29.819  23.220  27.383  1.00  0.00    -0.275 OA
BRANCH   9  12
ATOM     12  C   UNL A   1      30.232  26.131  25.348  1.00  0.00     0.045 A 
ATOM     13  C   UNL A   1      31.390  27.436  27.241  1.00  0.00     0.048 C 
ATOM     14  C   UNL A   1      30.955  27.262  25.805  1.00  0.00    -0.009 A 
ATOM     15  C   UNL A   1      31.135  28.350  24.918  1.00  0.00     0.046 A 
ATOM     16  Cl  UNL A   1      31.955  29.797  25.397  1.00  0.00    -0.084 Cl
ATOM     17  C   UNL A   1      30.602  28.333  23.632  1.00  0.00     0.021 A 
ATOM     18  C   UNL A   1      29.789  26.109  24.026  1.00  0.00     0.026 A 
ATOM     19  C   UNL A   1      29.937  27.207  23.182  1.00  0.00     0.004 A 
ENDBRANCH   9  12
ENDBRANCH   7   8
ENDBRANCH   6   7
BRANCH   6  20
ATOM     20  C   UNL A   1      33.926  24.649  24.913  1.00  0.00     0.031 C 
ATOM     21  C   UNL A   1      34.330  25.871  25.731  1.00  0.00     0.013 C 
BRANCH  20  22
ATOM     22  C   UNL A   1      33.575  25.166  23.514  1.00  0.00    -0.044 A 
ATOM     23  C   UNL A   1      33.840  26.495  23.164  1.00  0.00     0.004 A 
ATOM     24  C   UNL A   1      32.940  24.330  22.575  1.00  0.00     0.004 A 
ATOM     25  C   UNL A   1      33.421  26.991  21.929  1.00  0.00     0.000 A 
ATOM     26  C   UNL A   1      32.507  24.835  21.352  1.00  0.00     0.000 A 
ATOM     27  C   UNL A   1      32.738  26.169  21.034  1.00  0.00     0.000 A 
ENDBRANCH  20  22
ENDBRANCH   6  20
ENDBRANCH   4   6
ENDBRANCH   3   4
ENDBRANCH   2   3
ENDBRANCH   1   2
BRANCH   1  28
ATOM     28  O   UNL A   1      37.338  21.138  24.434  1.00  0.00    -0.374 OA
BRANCH  28  29
ATOM     29  C   UNL A   1      37.497  19.808  24.914  1.00  0.00     0.202 C 
BRANCH  29  30
ATOM     30  C   UNL A   1      38.864  19.479  25.535  1.00  0.00     0.261 C 
BRANCH  30  31
ATOM     31  O   UNL A   1      39.670  20.649  25.773  1.00  0.00    -0.460 OA
BRANCH  31  32
ATOM     32  C   UNL A   1      40.366  20.633  26.935  1.00  0.00     0.338 C 
ATOM     33  O   UNL A   1      40.774  19.645  27.532  1.00  0.00    -0.246 OA
BRANCH  32  34
ATOM     34  C   UNL A   1      40.742  22.001  27.347  1.00  0.00     0.060 A 
ATOM     35  C   UNL A   1      40.167  23.059  26.634  1.00  0.00     0.016 A 
ATOM     36  C   UNL A   1      41.678  22.261  28.352  1.00  0.00     0.016 A 
ATOM     37  C   UNL A   1      40.568  24.373  26.876  1.00  0.00     0.010 A 
ATOM     38  C   UNL A   1      42.067  23.586  28.607  1.00  0.00     0.010 A 
ATOM     39  C   UNL A   1      41.550  24.647  27.837  1.00  0.00    -0.014 A 
BRANCH  39  40
ATOM     40  C   UNL A   1      42.143  26.013  27.903  1.00  0.00     0.031 A 
ATOM     41  C   UNL A   1      41.392  27.102  28.625  1.00  0.00     0.074 A 
ATOM     42  C   UNL A   1      43.364  26.277  27.399  1.00  0.00     0.049 A 
ATOM     43  N   UNL A   1      41.722  28.353  28.824  1.00  0.00    -0.248 NA
ATOM     44  C   UNL A   1      40.093  26.726  29.205  1.00  0.00     0.031 C 
ATOM     45  C   UNL A   1      44.227  25.310  26.725  1.00  0.00     0.029 A 
ATOM     46  N   UNL A   1      44.092  27.442  27.382  1.00  0.00    -0.354 N 
ATOM     47  C   UNL A   1      40.672  28.912  29.544  1.00  0.00     0.074 A 
ATOM     48  C   UNL A   1      39.676  27.878  29.709  1.00  0.00     0.031 C 
ATOM     49  C   UNL A   1      45.362  25.922  26.350  1.00  0.00     0.029 A 
ATOM     50  C   UNL A   1      45.300  27.331  26.738  1.00  0.00     0.049 A 
ATOM     51  H   UNL A   1      43.777  28.279  27.793  1.00  0.00     0.167 HD
ATOM     52  C   UNL A   1      40.554  30.167  30.040  1.00  0.00     0.037 A 
ATOM     53  C   UNL A   1      46.243  28.260  26.478  1.00  0.00     0.037 A 
ATOM     54  C   UNL A   1      41.547  31.200  29.888  1.00  0.00     0.049 A 
ATOM     55  C   UNL A   1      46.052  29.673  26.968  1.00  0.00     0.074 A 
ATOM     56  C   UNL A   1      41.526  32.494  30.378  1.00  0.00     0.029 A 
ATOM     57  N   UNL A   1      42.733  31.060  29.185  1.00  0.00    -0.354 N 
ATOM     58  N   UNL A   1      45.073  30.180  27.677  1.00  0.00    -0.248 NA
ATOM     59  C   UNL A   1      47.105  30.641  26.629  1.00  0.00     0.031 C 
ATOM     60  C   UNL A   1      42.666  33.157  29.914  1.00  0.00     0.029 A 
ATOM     61  C   UNL A   1      43.435  32.256  29.196  1.00  0.00     0.049 A 
ATOM     62  H   UNL A   1      43.034  30.233  28.741  1.00  0.00     0.167 HD
ATOM     63  C   UNL A   1      45.406  31.513  27.894  1.00  0.00     0.074 A 
ATOM     64  C   UNL A   1      46.686  31.731  27.256  1.00  0.00     0.031 C 
ATOM     65  C   UNL A   1      44.713  32.467  28.563  1.00  0.00     0.037 A 
BRANCH  52  66
ATOM     66  C   UNL A   1      39.288  30.507  30.774  1.00  0.00     0.064 A 
ATOM     67  C   UNL A   1      39.176  30.370  32.167  1.00  0.00     0.173 A 
ATOM     68  C   UNL A   1      38.177  31.006  30.075  1.00  0.00     0.173 A 
ATOM     69  F   UNL A   1      40.204  29.886  32.882  1.00  0.00    -0.203 F 
ATOM     70  C   UNL A   1      37.991  30.687  32.826  1.00  0.00     0.198 A 
ATOM     71  C   UNL A   1      37.006  31.355  30.743  1.00  0.00     0.198 A 
ATOM     72  F   UNL A   1      38.230  31.163  28.745  1.00  0.00    -0.203 F 
ATOM     73  F   UNL A   1      37.890  30.494  34.149  1.00  0.00    -0.200 F 
ATOM     74  C   UNL A   1      36.910  31.187  32.116  1.00  0.00     0.200 A 
ATOM     75  F   UNL A   1      35.969  31.853  30.056  1.00  0.00    -0.200 F 
ATOM     76  F   UNL A   1      35.774  31.497  32.753  1.00  0.00    -0.200 F 
ENDBRANCH  52  66
BRANCH  53  77
ATOM     77  C   UNL A   1      47.460  27.888  25.706  1.00  0.00     0.064 A 
ATOM     78  C   UNL A   1      47.441  27.823  24.305  1.00  0.00     0.173 A 
ATOM     79  C   UNL A   1      48.659  27.562  26.356  1.00  0.00     0.173 A 
ATOM     80  F   UNL A   1      46.312  28.099  23.637  1.00  0.00    -0.203 F 
ATOM     81  C   UNL A   1      48.569  27.428  23.587  1.00  0.00     0.198 A 
ATOM     82  C   UNL A   1      49.795  27.199  25.636  1.00  0.00     0.198 A 
ATOM     83  F   UNL A   1      48.732  27.604  27.694  1.00  0.00    -0.203 F 
ATOM     84  F   UNL A   1      48.508  27.326  22.252  1.00  0.00    -0.200 F 
ATOM     85  C   UNL A   1      49.747  27.123  24.252  1.00  0.00     0.200 A 
ATOM     86  F   UNL A   1      50.936  26.918  26.282  1.00  0.00    -0.200 F 
ATOM     87  F   UNL A   1      50.832  26.748  23.560  1.00  0.00    -0.200 F 
ENDBRANCH  53  77
BRANCH  65  88
ATOM     88  C   UNL A   1      45.336  33.830  28.680  1.00  0.00     0.064 A 
ATOM     89  C   UNL A   1      46.249  34.143  29.698  1.00  0.00     0.173 A 
ATOM     90  C   UNL A   1      45.046  34.827  27.734  1.00  0.00     0.173 A 
ATOM     91  F   UNL A   1      46.553  33.233  30.636  1.00  0.00    -0.203 F 
ATOM     92  C   UNL A   1      46.824  35.410  29.783  1.00  0.00     0.198 A 
ATOM     93  C   UNL A   1      45.651  36.080  27.801  1.00  0.00     0.198 A 
ATOM     94  F   UNL A   1      44.187  34.581  26.734  1.00  0.00    -0.203 F 
ATOM     95  F   UNL A   1      47.652  35.701  30.796  1.00  0.00    -0.200 F 
ATOM     96  C   UNL A   1      46.531  36.374  28.830  1.00  0.00     0.200 A 
ATOM     97  F   UNL A   1      45.379  37.003  26.867  1.00  0.00    -0.200 F 
ATOM     98  F   UNL A   1      47.092  37.588  28.908  1.00  0.00    -0.200 F 
ENDBRANCH  65  88
ENDBRANCH  39  40
ENDBRANCH  32  34
ENDBRANCH  31  32
ENDBRANCH  30  31
ENDBRANCH  29  30
ENDBRANCH  28  29
ENDBRANCH   1  28
TORSDOF 19
ENDMDL
MODEL 3
REMARK VINA RESULT:     -11.4      1.088      2.344
REMARK SMILES Cc1c(Cl)cccc1NC(=O)C[C@H](C(=O)OCCOCCOC(=O)c1ccc(-c2c3nc(c(-c4c(F)c(F)c(F)c(F)c4F)c4ccc([nH]4)c(-c4c(F)c(F)c(F)c(F)c4F)c4nc(c(-c5c(F)c(F)c(F)c(F)c5F)c5ccc2[nH]5)C=C4)C=C3)cc1)[C@H](C)c1ccccc1
REMARK SMILES IDX 18 1 17 2 16 3 14 4 15 5 13 6 12 7 10 8 9 9 11 11 8 12 1 13
REMARK SMILES IDX 2 14 3 15 4 16 5 17 7 18 6 19 88 20 89 21 90 22 91 23 95 24
REMARK SMILES IDX 92 25 94 26 93 27 19 28 20 29 21 30 22 31 23 32 24 33 25 34
REMARK SMILES IDX 26 35 87 36 27 37 86 38 28 39 29 40 30 41 80 42 31 43 85 44
REMARK SMILES IDX 79 45 81 46 32 47 84 48 78 49 77 50 33 52 65 53 45 54 64 55
REMARK SMILES IDX 46 56 49 57 63 58 82 59 47 60 48 61 62 63 83 64 50 65 34 66
REMARK SMILES IDX 35 67 43 68 36 69 37 70 41 71 44 72 38 73 39 74 42 75 40 76
REMARK SMILES IDX 66 77 67 78 75 79 68 80 69 81 73 82 76 83 70 84 71 85 74 86
REMARK SMILES IDX 72 87 51 88 52 89 60 90 53 91 54 92 58 93 61 94 55 95 56 96
REMARK SMILES IDX 59 97 57 98
REMARK H PARENT 9 10 81 51 49 62
REMARK Flexibility Score: inf
ROOT
ATOM      1  C   UNL A   1      34.422  21.128  26.121  1.00  0.00     0.202 C 
ENDROOT
BRANCH   1   2
ATOM      2  C   UNL A   1      34.045  21.935  27.374  1.00  0.00     0.261 C 
BRANCH   2   3
ATOM      3  O   UNL A   1      33.522  23.244  27.030  1.00  0.00    -0.463 OA
BRANCH   3   4
ATOM      4  C   UNL A   1      32.172  23.374  26.891  1.00  0.00     0.310 C 
ATOM      5  O   UNL A   1      31.352  22.836  27.622  1.00  0.00    -0.252 OA
BRANCH   4   6
ATOM      6  C   UNL A   1      31.793  24.337  25.752  1.00  0.00     0.116 C 
BRANCH   6   7
ATOM      7  C   UNL A   1      31.350  23.480  24.549  1.00  0.00     0.116 C 
BRANCH   7   8
ATOM      8  C   UNL A   1      32.099  23.390  23.246  1.00  0.00     0.225 C 
ATOM      9  N   UNL A   1      32.152  24.389  22.318  1.00  0.00    -0.326 N 
ATOM     10  H   UNL A   1      32.454  24.088  21.431  1.00  0.00     0.169 HD
ATOM     11  O   UNL A   1      32.683  22.338  22.962  1.00  0.00    -0.275 OA
BRANCH   9  12
ATOM     12  C   UNL A   1      31.863  25.770  22.381  1.00  0.00     0.045 A 
ATOM     13  C   UNL A   1      34.378  26.255  22.636  1.00  0.00     0.048 C 
ATOM     14  C   UNL A   1      32.932  26.684  22.559  1.00  0.00    -0.009 A 
ATOM     15  C   UNL A   1      32.624  28.036  22.842  1.00  0.00     0.046 A 
ATOM     16  Cl  UNL A   1      33.855  29.217  23.129  1.00  0.00    -0.084 Cl
ATOM     17  C   UNL A   1      31.306  28.467  22.966  1.00  0.00     0.021 A 
ATOM     18  C   UNL A   1      30.556  26.252  22.423  1.00  0.00     0.026 A 
ATOM     19  C   UNL A   1      30.270  27.577  22.747  1.00  0.00     0.004 A 
ENDBRANCH   9  12
ENDBRANCH   7   8
ENDBRANCH   6   7
BRANCH   6  20
ATOM     20  C   UNL A   1      30.998  25.524  26.369  1.00  0.00     0.031 C 
ATOM     21  C   UNL A   1      29.662  25.955  25.773  1.00  0.00     0.013 C 
BRANCH  20  22
ATOM     22  C   UNL A   1      31.880  26.777  26.393  1.00  0.00    -0.044 A 
ATOM     23  C   UNL A   1      33.252  26.680  26.134  1.00  0.00     0.004 A 
ATOM     24  C   UNL A   1      31.338  28.034  26.719  1.00  0.00     0.004 A 
ATOM     25  C   UNL A   1      34.070  27.803  26.263  1.00  0.00     0.000 A 
ATOM     26  C   UNL A   1      32.161  29.148  26.865  1.00  0.00     0.000 A 
ATOM     27  C   UNL A   1      33.529  29.029  26.648  1.00  0.00     0.000 A 
ENDBRANCH  20  22
ENDBRANCH   6  20
ENDBRANCH   4   6
ENDBRANCH   3   4
ENDBRANCH   2   3
ENDBRANCH   1   2
BRANCH   1  28
ATOM     28  O   UNL A   1      35.787  21.217  25.708  1.00  0.00    -0.374 OA
BRANCH  28  29
ATOM     29  C   UNL A   1      36.296  20.120  24.959  1.00  0.00     0.202 C 
BRANCH  29  30
ATOM     30  C   UNL A   1      37.820  19.929  25.002  1.00  0.00     0.261 C 
BRANCH  30  31
ATOM     31  O   UNL A   1      38.528  21.137  25.343  1.00  0.00    -0.460 OA
BRANCH  31  32
ATOM     32  C   UNL A   1      39.602  20.957  26.150  1.00  0.00     0.338 C 
ATOM     33  O   UNL A   1      40.271  19.938  26.264  1.00  0.00    -0.246 OA
BRANCH  32  34
ATOM     34  C   UNL A   1      40.001  22.226  26.792  1.00  0.00     0.060 A 
ATOM     35  C   UNL A   1      39.308  23.379  26.406  1.00  0.00     0.016 A 
ATOM     36  C   UNL A   1      41.064  22.318  27.695  1.00  0.00     0.016 A 
ATOM     37  C   UNL A   1      39.709  24.632  26.868  1.00  0.00     0.010 A 
ATOM     38  C   UNL A   1      41.455  23.579  28.174  1.00  0.00     0.010 A 
ATOM     39  C   UNL A   1      40.810  24.749  27.726  1.00  0.00    -0.014 A 
BRANCH  39  40
ATOM     40  C   UNL A   1      41.376  26.100  28.004  1.00  0.00     0.031 A 
ATOM     41  C   UNL A   1      42.760  26.430  27.505  1.00  0.00     0.074 A 
ATOM     42  C   UNL A   1      40.654  27.053  28.624  1.00  0.00     0.049 A 
ATOM     43  N   UNL A   1      43.443  27.542  27.613  1.00  0.00    -0.248 NA
ATOM     44  C   UNL A   1      43.466  25.361  26.781  1.00  0.00     0.031 C 
ATOM     45  C   UNL A   1      39.286  26.894  29.110  1.00  0.00     0.029 A 
ATOM     46  N   UNL A   1      40.974  28.350  28.946  1.00  0.00    -0.354 N 
ATOM     47  C   UNL A   1      44.657  27.304  26.979  1.00  0.00     0.074 A 
ATOM     48  C   UNL A   1      44.635  25.930  26.528  1.00  0.00     0.031 C 
ATOM     49  C   UNL A   1      38.886  28.044  29.679  1.00  0.00     0.029 A 
ATOM     50  C   UNL A   1      39.977  29.016  29.617  1.00  0.00     0.049 A 
ATOM     51  H   UNL A   1      41.837  28.764  28.717  1.00  0.00     0.167 HD
ATOM     52  C   UNL A   1      45.691  28.154  26.773  1.00  0.00     0.037 A 
ATOM     53  C   UNL A   1      39.950  30.262  30.133  1.00  0.00     0.037 A 
ATOM     54  C   UNL A   1      45.717  29.526  27.212  1.00  0.00     0.049 A 
ATOM     55  C   UNL A   1      41.146  31.164  29.965  1.00  0.00     0.074 A 
ATOM     56  C   UNL A   1      46.710  30.472  27.026  1.00  0.00     0.029 A 
ATOM     57  N   UNL A   1      44.706  30.145  27.932  1.00  0.00    -0.354 N 
ATOM     58  N   UNL A   1      42.273  30.940  29.334  1.00  0.00    -0.248 NA
ATOM     59  C   UNL A   1      41.060  32.500  30.574  1.00  0.00     0.031 C 
ATOM     60  C   UNL A   1      46.332  31.641  27.693  1.00  0.00     0.029 A 
ATOM     61  C   UNL A   1      45.070  31.450  28.232  1.00  0.00     0.049 A 
ATOM     62  H   UNL A   1      43.857  29.722  28.194  1.00  0.00     0.167 HD
ATOM     63  C   UNL A   1      43.014  32.112  29.443  1.00  0.00     0.074 A 
ATOM     64  C   UNL A   1      42.202  33.050  30.186  1.00  0.00     0.031 C 
ATOM     65  C   UNL A   1      44.255  32.383  28.968  1.00  0.00     0.037 A 
BRANCH  52  66
ATOM     66  C   UNL A   1      46.901  27.617  26.063  1.00  0.00     0.064 A 
ATOM     67  C   UNL A   1      47.035  27.684  24.668  1.00  0.00     0.173 A 
ATOM     68  C   UNL A   1      47.958  27.052  26.795  1.00  0.00     0.173 A 
ATOM     69  F   UNL A   1      46.050  28.203  23.919  1.00  0.00    -0.203 F 
ATOM     70  C   UNL A   1      48.164  27.176  24.030  1.00  0.00     0.198 A 
ATOM     71  C   UNL A   1      49.101  26.577  26.157  1.00  0.00     0.198 A 
ATOM     72  F   UNL A   1      47.886  26.968  28.131  1.00  0.00    -0.203 F 
ATOM     73  F   UNL A   1      48.244  27.199  22.692  1.00  0.00    -0.200 F 
ATOM     74  C   UNL A   1      49.199  26.630  24.775  1.00  0.00     0.200 A 
ATOM     75  F   UNL A   1      50.106  26.066  26.881  1.00  0.00    -0.200 F 
ATOM     76  F   UNL A   1      50.287  26.148  24.160  1.00  0.00    -0.200 F 
ENDBRANCH  52  66
BRANCH  53  77
ATOM     77  C   UNL A   1      38.747  30.735  30.870  1.00  0.00     0.064 A 
ATOM     78  C   UNL A   1      37.667  31.326  30.198  1.00  0.00     0.173 A 
ATOM     79  C   UNL A   1      38.665  30.631  32.267  1.00  0.00     0.173 A 
ATOM     80  F   UNL A   1      37.707  31.474  28.866  1.00  0.00    -0.203 F 
ATOM     81  C   UNL A   1      36.562  31.812  30.896  1.00  0.00     0.198 A 
ATOM     82  C   UNL A   1      37.546  31.088  32.961  1.00  0.00     0.198 A 
ATOM     83  F   UNL A   1      39.670  30.077  32.960  1.00  0.00    -0.203 F 
ATOM     84  F   UNL A   1      35.568  32.418  30.234  1.00  0.00    -0.200 F 
ATOM     85  C   UNL A   1      36.500  31.686  32.276  1.00  0.00     0.200 A 
ATOM     86  F   UNL A   1      37.484  30.951  34.292  1.00  0.00    -0.200 F 
ATOM     87  F   UNL A   1      35.435  32.149  32.946  1.00  0.00    -0.200 F 
ENDBRANCH  53  77
BRANCH  65  88
ATOM     88  C   UNL A   1      44.804  33.764  29.198  1.00  0.00     0.064 A 
ATOM     89  C   UNL A   1      45.557  34.082  30.339  1.00  0.00     0.173 A 
ATOM     90  C   UNL A   1      44.608  34.775  28.243  1.00  0.00     0.173 A 
ATOM     91  F   UNL A   1      45.765  33.159  31.290  1.00  0.00    -0.203 F 
ATOM     92  C   UNL A   1      46.066  35.365  30.529  1.00  0.00     0.198 A 
ATOM     93  C   UNL A   1      45.149  36.045  28.419  1.00  0.00     0.198 A 
ATOM     94  F   UNL A   1      43.903  34.525  27.129  1.00  0.00    -0.203 F 
ATOM     95  F   UNL A   1      46.736  35.658  31.652  1.00  0.00    -0.200 F 
ATOM     96  C   UNL A   1      45.869  36.343  29.565  1.00  0.00     0.200 A 
ATOM     97  F   UNL A   1      44.972  36.983  27.476  1.00  0.00    -0.200 F 
ATOM     98  F   UNL A   1      46.368  37.573  29.745  1.00  0.00    -0.200 F 
ENDBRANCH  65  88
ENDBRANCH  39  40
ENDBRANCH  32  34
ENDBRANCH  31  32
ENDBRANCH  30  31
ENDBRANCH  29  30
ENDBRANCH  28  29
ENDBRANCH   1  28
TORSDOF 19
ENDMDL
