MODEL 1
REMARK VINA RESULT:     -12.3      0.000      0.000
REMARK SMILES COc1ccc2c(c1)OC[C@]1(C(=O)OCCOCCOC(=O)c3ccc(-c4c5nc(c(-c6c(F)c(F)c(F)c(F)c6F)c6ccc([nH]6)c(-c6c(F)c(F)c(F)c(F)c6F)c6nc(c(-c7c(F)c(F)c(F)c(F)c7F)c7ccc4[nH]7)C=C6)C=C5)cc3)C[N@@H+](Cc3cc(C(C)(C)C)n[nH]3)C[C@H]21
REMARK SMILES IDX 16 1 15 2 14 3 12 4 13 5 11 6 3 7 4 8 8 9 5 10 7 11 6 12
REMARK SMILES IDX 9 13 99 14 10 15 98 16 86 17 87 18 2 20 1 21 88 22 89 23
REMARK SMILES IDX 90 24 97 25 91 26 96 27 92 29 93 30 94 31 95 32 17 33 18 34
REMARK SMILES IDX 19 35 20 36 21 37 22 38 23 39 24 40 85 41 25 42 84 43 26 44
REMARK SMILES IDX 27 45 28 46 78 47 29 48 83 49 77 50 79 51 30 52 82 53 76 54
REMARK SMILES IDX 75 55 31 57 63 58 43 59 62 60 44 61 47 62 61 63 80 64 45 65
REMARK SMILES IDX 46 66 60 68 81 69 48 70 32 71 33 72 41 73 34 74 35 75 39 76
REMARK SMILES IDX 42 77 36 78 37 79 40 80 38 81 64 82 65 83 73 84 66 85 67 86
REMARK SMILES IDX 71 87 74 88 68 89 69 90 72 91 70 92 49 93 50 94 58 95 51 96
REMARK SMILES IDX 52 97 56 98 59 99 53 100 54 101 57 102 55 103
REMARK H PARENT 87 19 97 28 79 56 47 67
REMARK Flexibility Score: inf
ROOT
ATOM      1  C   UNL A   1      37.262  22.069  24.779  1.00  0.00     0.202 C 
ENDROOT
BRANCH   1   2
ATOM      2  C   UNL A   1      36.861  23.313  25.620  1.00  0.00     0.261 C 
BRANCH   2   3
ATOM      3  O   UNL A   1      35.583  23.044  26.252  1.00  0.00    -0.463 OA
BRANCH   3   4
ATOM      4  C   UNL A   1      34.449  23.803  26.009  1.00  0.00     0.322 C 
ATOM      5  O   UNL A   1      34.449  24.957  25.624  1.00  0.00    -0.251 OA
BRANCH   4   6
ATOM      6  C   UNL A   1      33.252  22.833  26.110  1.00  0.00     0.162 C 
ATOM      7  C   UNL A   1      33.077  18.365  23.458  1.00  0.00     0.122 A 
ATOM      8  C   UNL A   1      32.271  19.241  22.724  1.00  0.00     0.047 A 
ATOM      9  C   UNL A   1      33.625  18.806  24.652  1.00  0.00     0.093 A 
ATOM     10  C   UNL A   1      32.079  20.570  23.142  1.00  0.00     0.012 A 
ATOM     11  C   UNL A   1      33.328  20.085  25.106  1.00  0.00     0.126 A 
ATOM     12  C   UNL A   1      32.653  21.025  24.333  1.00  0.00     0.005 A 
ATOM     13  O   UNL A   1      33.503  20.314  26.439  1.00  0.00    -0.492 OA
ATOM     14  C   UNL A   1      32.361  22.386  24.933  1.00  0.00     0.105 C 
ATOM     15  C   UNL A   1      33.999  21.614  26.653  1.00  0.00     0.255 C 
ATOM     16  C   UNL A   1      30.985  22.232  25.622  1.00  0.00     0.272 C 
ATOM     17  C   UNL A   1      32.265  23.548  27.065  1.00  0.00     0.286 C 
ATOM     18  N   UNL A   1      30.894  23.264  26.644  1.00  0.00    -0.328 N 
ATOM     19  H   UNL A   1      30.363  22.929  27.447  1.00  0.00     0.348 HD
BRANCH   7  20
ATOM     20  O   UNL A   1      33.211  17.097  22.956  1.00  0.00    -0.497 OA
ATOM     21  C   UNL A   1      34.190  16.275  23.590  1.00  0.00     0.278 C 
ENDBRANCH   7  20
BRANCH  18  22
ATOM     22  C   UNL A   1      30.063  24.420  26.289  1.00  0.00     0.319 C 
BRANCH  22  23
ATOM     23  C   UNL A   1      30.815  25.606  25.797  1.00  0.00     0.090 A 
ATOM     24  C   UNL A   1      31.088  26.826  26.379  1.00  0.00     0.055 A 
ATOM     25  N   UNL A   1      31.419  25.659  24.573  1.00  0.00    -0.277 N 
ATOM     26  C   UNL A   1      31.628  27.625  25.344  1.00  0.00     0.068 A 
ATOM     27  N   UNL A   1      31.891  26.877  24.263  1.00  0.00    -0.180 NA
ATOM     28  H   UNL A   1      31.502  24.880  23.976  1.00  0.00     0.190 HD
BRANCH  26  29
ATOM     29  C   UNL A   1      31.872  29.125  25.350  1.00  0.00     0.006 C 
ATOM     30  C   UNL A   1      30.803  29.835  24.504  1.00  0.00     0.017 C 
ATOM     31  C   UNL A   1      31.838  29.677  26.790  1.00  0.00     0.017 C 
ATOM     32  C   UNL A   1      33.263  29.469  24.770  1.00  0.00     0.017 C 
ENDBRANCH  26  29
ENDBRANCH  22  23
ENDBRANCH  18  22
ENDBRANCH   4   6
ENDBRANCH   3   4
ENDBRANCH   2   3
ENDBRANCH   1   2
BRANCH   1  33
ATOM     33  O   UNL A   1      37.010  20.760  25.311  1.00  0.00    -0.374 OA
BRANCH  33  34
ATOM     34  C   UNL A   1      37.808  19.673  24.856  1.00  0.00     0.202 C 
BRANCH  34  35
ATOM     35  C   UNL A   1      39.120  19.353  25.606  1.00  0.00     0.261 C 
BRANCH  35  36
ATOM     36  O   UNL A   1      39.935  20.504  25.844  1.00  0.00    -0.460 OA
BRANCH  36  37
ATOM     37  C   UNL A   1      40.531  20.502  27.058  1.00  0.00     0.338 C 
ATOM     38  O   UNL A   1      40.888  19.536  27.716  1.00  0.00    -0.246 OA
BRANCH  37  39
ATOM     39  C   UNL A   1      40.878  21.881  27.423  1.00  0.00     0.060 A 
ATOM     40  C   UNL A   1      41.755  22.168  28.470  1.00  0.00     0.016 A 
ATOM     41  C   UNL A   1      40.328  22.902  26.643  1.00  0.00     0.016 A 
ATOM     42  C   UNL A   1      42.108  23.499  28.713  1.00  0.00     0.010 A 
ATOM     43  C   UNL A   1      40.679  24.225  26.887  1.00  0.00     0.010 A 
ATOM     44  C   UNL A   1      41.590  24.532  27.908  1.00  0.00    -0.014 A 
BRANCH  44  45
ATOM     45  C   UNL A   1      42.103  25.917  28.029  1.00  0.00     0.031 A 
ATOM     46  C   UNL A   1      41.306  26.988  28.709  1.00  0.00     0.074 A 
ATOM     47  C   UNL A   1      43.287  26.207  27.457  1.00  0.00     0.049 A 
ATOM     48  N   UNL A   1      41.618  28.244  28.906  1.00  0.00    -0.248 NA
ATOM     49  C   UNL A   1      39.986  26.606  29.231  1.00  0.00     0.031 C 
ATOM     50  C   UNL A   1      44.121  25.249  26.728  1.00  0.00     0.029 A 
ATOM     51  N   UNL A   1      43.992  27.382  27.391  1.00  0.00    -0.354 N 
ATOM     52  C   UNL A   1      40.548  28.798  29.593  1.00  0.00     0.074 A 
ATOM     53  C   UNL A   1      39.553  27.755  29.735  1.00  0.00     0.031 C 
ATOM     54  C   UNL A   1      45.236  25.868  26.313  1.00  0.00     0.029 A 
ATOM     55  C   UNL A   1      45.181  27.270  26.713  1.00  0.00     0.049 A 
ATOM     56  H   UNL A   1      43.675  28.224  27.791  1.00  0.00     0.167 HD
ATOM     57  C   UNL A   1      40.424  30.058  30.076  1.00  0.00     0.037 A 
ATOM     58  C   UNL A   1      46.121  28.195  26.446  1.00  0.00     0.037 A 
ATOM     59  C   UNL A   1      41.415  31.092  29.909  1.00  0.00     0.049 A 
ATOM     60  C   UNL A   1      45.931  29.598  26.953  1.00  0.00     0.074 A 
ATOM     61  C   UNL A   1      41.390  32.392  30.384  1.00  0.00     0.029 A 
ATOM     62  N   UNL A   1      42.601  30.951  29.201  1.00  0.00    -0.354 N 
ATOM     63  N   UNL A   1      44.950  30.092  27.668  1.00  0.00    -0.248 NA
ATOM     64  C   UNL A   1      46.982  30.570  26.624  1.00  0.00     0.031 C 
ATOM     65  C   UNL A   1      42.531  33.052  29.921  1.00  0.00     0.029 A 
ATOM     66  C   UNL A   1      43.301  32.147  29.209  1.00  0.00     0.049 A 
ATOM     67  H   UNL A   1      42.899  30.123  28.760  1.00  0.00     0.167 HD
ATOM     68  C   UNL A   1      45.279  31.420  27.902  1.00  0.00     0.074 A 
ATOM     69  C   UNL A   1      46.559  31.651  27.266  1.00  0.00     0.031 C 
ATOM     70  C   UNL A   1      44.582  32.363  28.582  1.00  0.00     0.037 A 
BRANCH  57  71
ATOM     71  C   UNL A   1      39.187  30.399  30.855  1.00  0.00     0.064 A 
ATOM     72  C   UNL A   1      39.131  30.215  32.245  1.00  0.00     0.173 A 
ATOM     73  C   UNL A   1      38.095  31.023  30.233  1.00  0.00     0.173 A 
ATOM     74  F   UNL A   1      40.145  29.616  32.889  1.00  0.00    -0.203 F 
ATOM     75  C   UNL A   1      38.027  30.638  32.981  1.00  0.00     0.198 A 
ATOM     76  C   UNL A   1      37.004  31.470  30.976  1.00  0.00     0.198 A 
ATOM     77  F   UNL A   1      38.101  31.232  28.907  1.00  0.00    -0.203 F 
ATOM     78  F   UNL A   1      37.988  30.430  34.305  1.00  0.00    -0.200 F 
ATOM     79  C   UNL A   1      36.972  31.277  32.348  1.00  0.00     0.200 A 
ATOM     80  F   UNL A   1      35.993  32.102  30.365  1.00  0.00    -0.200 F 
ATOM     81  F   UNL A   1      35.923  31.708  33.062  1.00  0.00    -0.200 F 
ENDBRANCH  57  71
BRANCH  58  82
ATOM     82  C   UNL A   1      47.345  27.809  25.696  1.00  0.00     0.064 A 
ATOM     83  C   UNL A   1      47.346  27.769  24.295  1.00  0.00     0.173 A 
ATOM     84  C   UNL A   1      48.538  27.486  26.359  1.00  0.00     0.173 A 
ATOM     85  F   UNL A   1      46.225  28.054  23.617  1.00  0.00    -0.203 F 
ATOM     86  C   UNL A   1      48.488  27.404  23.586  1.00  0.00     0.198 A 
ATOM     87  C   UNL A   1      49.689  27.152  25.648  1.00  0.00     0.198 A 
ATOM     88  F   UNL A   1      48.592  27.514  27.698  1.00  0.00    -0.203 F 
ATOM     89  F   UNL A   1      48.448  27.332  22.249  1.00  0.00    -0.200 F 
ATOM     90  C   UNL A   1      49.661  27.104  24.262  1.00  0.00     0.200 A 
ATOM     91  F   UNL A   1      50.825  26.880  26.304  1.00  0.00    -0.200 F 
ATOM     92  F   UNL A   1      50.762  26.762  23.579  1.00  0.00    -0.200 F 
ENDBRANCH  58  82
BRANCH  70  93
ATOM     93  C   UNL A   1      45.196  33.728  28.708  1.00  0.00     0.064 A 
ATOM     94  C   UNL A   1      46.086  34.043  29.745  1.00  0.00     0.173 A 
ATOM     95  C   UNL A   1      44.943  34.712  27.739  1.00  0.00     0.173 A 
ATOM     96  F   UNL A   1      46.351  33.144  30.704  1.00  0.00    -0.203 F 
ATOM     97  C   UNL A   1      46.684  35.299  29.818  1.00  0.00     0.198 A 
ATOM     98  C   UNL A   1      45.569  35.953  27.795  1.00  0.00     0.198 A 
ATOM     99  F   UNL A   1      44.106  34.459  26.720  1.00  0.00    -0.203 F 
ATOM    100  F   UNL A   1      47.497  35.592  30.841  1.00  0.00    -0.200 F 
ATOM    101  C   UNL A   1      46.435  36.248  28.837  1.00  0.00     0.200 A 
ATOM    102  F   UNL A   1      45.342  36.861  26.836  1.00  0.00    -0.200 F 
ATOM    103  F   UNL A   1      47.026  37.448  28.900  1.00  0.00    -0.200 F 
ENDBRANCH  70  93
ENDBRANCH  44  45
ENDBRANCH  37  39
ENDBRANCH  36  37
ENDBRANCH  35  36
ENDBRANCH  34  35
ENDBRANCH  33  34
ENDBRANCH   1  33
TORSDOF 18
ENDMDL
MODEL 2
REMARK VINA RESULT:     -12.2      1.557      2.485
REMARK SMILES COc1ccc2c(c1)OC[C@]1(C(=O)OCCOCCOC(=O)c3ccc(-c4c5nc(c(-c6c(F)c(F)c(F)c(F)c6F)c6ccc([nH]6)c(-c6c(F)c(F)c(F)c(F)c6F)c6nc(c(-c7c(F)c(F)c(F)c(F)c7F)c7ccc4[nH]7)C=C6)C=C5)cc3)C[N@@H+](Cc3cc(C(C)(C)C)n[nH]3)C[C@H]21
REMARK SMILES IDX 16 1 15 2 14 3 12 4 13 5 11 6 3 7 4 8 8 9 5 10 7 11 6 12
REMARK SMILES IDX 9 13 99 14 10 15 98 16 86 17 87 18 2 20 1 21 88 22 89 23
REMARK SMILES IDX 90 24 97 25 91 26 96 27 92 29 93 30 94 31 95 32 17 33 18 34
REMARK SMILES IDX 19 35 20 36 21 37 22 38 23 39 24 40 85 41 25 42 84 43 26 44
REMARK SMILES IDX 27 45 28 46 78 47 29 48 83 49 77 50 79 51 30 52 82 53 76 54
REMARK SMILES IDX 75 55 31 57 63 58 43 59 62 60 44 61 47 62 61 63 80 64 45 65
REMARK SMILES IDX 46 66 60 68 81 69 48 70 32 71 33 72 41 73 34 74 35 75 39 76
REMARK SMILES IDX 42 77 36 78 37 79 40 80 38 81 64 82 65 83 73 84 66 85 67 86
REMARK SMILES IDX 71 87 74 88 68 89 69 90 72 91 70 92 49 93 50 94 58 95 51 96
REMARK SMILES IDX 52 97 56 98 59 99 53 100 54 101 57 102 55 103
REMARK H PARENT 87 19 97 28 79 56 47 67
REMARK Flexibility Score: inf
ROOT
ATOM      1  C   UNL A   1      38.149  23.395  26.096  1.00  0.00     0.202 C 
ENDROOT
BRANCH   1   2
ATOM      2  C   UNL A   1      37.272  23.643  24.837  1.00  0.00     0.261 C 
BRANCH   2   3
ATOM      3  O   UNL A   1      35.878  23.617  25.238  1.00  0.00    -0.463 OA
BRANCH   3   4
ATOM      4  C   UNL A   1      34.834  23.601  24.328  1.00  0.00     0.322 C 
ATOM      5  O   UNL A   1      34.876  24.072  23.206  1.00  0.00    -0.251 OA
BRANCH   4   6
ATOM      6  C   UNL A   1      33.742  22.698  24.940  1.00  0.00     0.162 C 
ATOM      7  C   UNL A   1      33.325  17.656  23.745  1.00  0.00     0.122 A 
ATOM      8  C   UNL A   1      32.338  18.282  22.977  1.00  0.00     0.047 A 
ATOM      9  C   UNL A   1      34.068  18.423  24.628  1.00  0.00     0.093 A 
ATOM     10  C   UNL A   1      32.151  19.674  23.035  1.00  0.00     0.012 A 
ATOM     11  C   UNL A   1      33.788  19.778  24.755  1.00  0.00     0.126 A 
ATOM     12  C   UNL A   1      32.918  20.454  23.906  1.00  0.00     0.005 A 
ATOM     13  O   UNL A   1      34.206  20.381  25.905  1.00  0.00    -0.492 OA
ATOM     14  C   UNL A   1      32.666  21.930  24.146  1.00  0.00     0.105 C 
ATOM     15  C   UNL A   1      34.654  21.689  25.639  1.00  0.00     0.255 C 
ATOM     16  C   UNL A   1      31.464  21.977  25.117  1.00  0.00     0.272 C 
ATOM     17  C   UNL A   1      32.919  23.656  25.838  1.00  0.00     0.286 C 
ATOM     18  N   UNL A   1      31.512  23.259  25.804  1.00  0.00    -0.328 N 
ATOM     19  H   UNL A   1      31.170  23.167  26.761  1.00  0.00     0.348 HD
BRANCH   7  20
ATOM     20  O   UNL A   1      33.435  16.298  23.604  1.00  0.00    -0.497 OA
ATOM     21  C   UNL A   1      33.371  15.538  24.809  1.00  0.00     0.278 C 
ENDBRANCH   7  20
BRANCH  18  22
ATOM     22  C   UNL A   1      30.558  24.262  25.317  1.00  0.00     0.319 C 
BRANCH  22  23
ATOM     23  C   UNL A   1      30.906  25.671  25.645  1.00  0.00     0.090 A 
ATOM     24  C   UNL A   1      31.451  26.683  24.883  1.00  0.00     0.055 A 
ATOM     25  N   UNL A   1      30.702  26.230  26.875  1.00  0.00    -0.277 N 
ATOM     26  C   UNL A   1      31.772  27.712  25.799  1.00  0.00     0.068 A 
ATOM     27  N   UNL A   1      31.243  27.451  27.003  1.00  0.00    -0.180 NA
ATOM     28  H   UNL A   1      30.205  25.781  27.597  1.00  0.00     0.190 HD
BRANCH  26  29
ATOM     29  C   UNL A   1      32.619  28.950  25.556  1.00  0.00     0.006 C 
ATOM     30  C   UNL A   1      31.835  30.211  25.952  1.00  0.00     0.017 C 
ATOM     31  C   UNL A   1      33.929  28.882  26.370  1.00  0.00     0.017 C 
ATOM     32  C   UNL A   1      33.022  29.072  24.068  1.00  0.00     0.017 C 
ENDBRANCH  26  29
ENDBRANCH  22  23
ENDBRANCH  18  22
ENDBRANCH   4   6
ENDBRANCH   3   4
ENDBRANCH   2   3
ENDBRANCH   1   2
BRANCH   1  33
ATOM     33  O   UNL A   1      38.818  22.133  26.238  1.00  0.00    -0.374 OA
BRANCH  33  34
ATOM     34  C   UNL A   1      38.390  21.038  25.438  1.00  0.00     0.202 C 
BRANCH  34  35
ATOM     35  C   UNL A   1      39.268  19.767  25.393  1.00  0.00     0.261 C 
BRANCH  35  36
ATOM     36  O   UNL A   1      40.109  19.614  26.540  1.00  0.00    -0.460 OA
BRANCH  36  37
ATOM     37  C   UNL A   1      41.418  19.472  26.234  1.00  0.00     0.338 C 
ATOM     38  O   UNL A   1      41.973  18.497  25.750  1.00  0.00    -0.246 OA
BRANCH  37  39
ATOM     39  C   UNL A   1      42.090  20.767  26.394  1.00  0.00     0.060 A 
ATOM     40  C   UNL A   1      42.448  21.553  25.297  1.00  0.00     0.016 A 
ATOM     41  C   UNL A   1      42.315  21.208  27.701  1.00  0.00     0.016 A 
ATOM     42  C   UNL A   1      43.010  22.813  25.522  1.00  0.00     0.010 A 
ATOM     43  C   UNL A   1      42.877  22.461  27.922  1.00  0.00     0.010 A 
ATOM     44  C   UNL A   1      43.206  23.283  26.834  1.00  0.00    -0.014 A 
BRANCH  44  45
ATOM     45  C   UNL A   1      43.618  24.685  27.085  1.00  0.00     0.031 A 
ATOM     46  C   UNL A   1      42.640  25.710  27.572  1.00  0.00     0.074 A 
ATOM     47  C   UNL A   1      44.889  25.032  26.807  1.00  0.00     0.049 A 
ATOM     48  N   UNL A   1      42.844  26.973  27.848  1.00  0.00    -0.248 NA
ATOM     49  C   UNL A   1      41.253  25.267  27.769  1.00  0.00     0.031 C 
ATOM     50  C   UNL A   1      45.909  24.122  26.283  1.00  0.00     0.029 A 
ATOM     51  N   UNL A   1      45.539  26.234  26.918  1.00  0.00    -0.354 N 
ATOM     52  C   UNL A   1      41.622  27.472  28.273  1.00  0.00     0.074 A 
ATOM     53  C   UNL A   1      40.666  26.387  28.169  1.00  0.00     0.031 C 
ATOM     54  C   UNL A   1      47.063  24.791  26.144  1.00  0.00     0.029 A 
ATOM     55  C   UNL A   1      46.857  26.182  26.534  1.00  0.00     0.049 A 
ATOM     56  H   UNL A   1      45.103  27.055  27.241  1.00  0.00     0.167 HD
ATOM     57  C   UNL A   1      41.336  28.716  28.726  1.00  0.00     0.037 A 
ATOM     58  C   UNL A   1      47.793  27.149  26.501  1.00  0.00     0.037 A 
ATOM     59  C   UNL A   1      42.294  29.791  28.804  1.00  0.00     0.049 A 
ATOM     60  C   UNL A   1      47.431  28.532  26.964  1.00  0.00     0.074 A 
ATOM     61  C   UNL A   1      42.103  31.080  29.273  1.00  0.00     0.029 A 
ATOM     62  N   UNL A   1      43.616  29.710  28.389  1.00  0.00    -0.354 N 
ATOM     63  N   UNL A   1      46.291  28.974  27.436  1.00  0.00    -0.248 NA
ATOM     64  C   UNL A   1      48.487  29.551  26.898  1.00  0.00     0.031 C 
ATOM     65  C   UNL A   1      43.292  31.793  29.094  1.00  0.00     0.029 A 
ATOM     66  C   UNL A   1      44.244  30.932  28.572  1.00  0.00     0.049 A 
ATOM     67  H   UNL A   1      44.044  28.903  28.022  1.00  0.00     0.167 HD
ATOM     68  C   UNL A   1      46.500  30.309  27.753  1.00  0.00     0.074 A 
ATOM     69  C   UNL A   1      47.882  30.602  27.434  1.00  0.00     0.031 C 
ATOM     70  C   UNL A   1      45.624  31.210  28.261  1.00  0.00     0.037 A 
BRANCH  57  71
ATOM     71  C   UNL A   1      39.939  28.994  29.199  1.00  0.00     0.064 A 
ATOM     72  C   UNL A   1      38.928  29.369  28.301  1.00  0.00     0.173 A 
ATOM     73  C   UNL A   1      39.576  28.772  30.537  1.00  0.00     0.173 A 
ATOM     74  F   UNL A   1      39.223  29.602  27.013  1.00  0.00    -0.203 F 
ATOM     75  C   UNL A   1      37.610  29.515  28.724  1.00  0.00     0.198 A 
ATOM     76  C   UNL A   1      38.251  28.892  30.951  1.00  0.00     0.198 A 
ATOM     77  F   UNL A   1      40.501  28.403  31.436  1.00  0.00    -0.203 F 
ATOM     78  F   UNL A   1      36.667  29.896  27.850  1.00  0.00    -0.200 F 
ATOM     79  C   UNL A   1      37.270  29.262  30.044  1.00  0.00     0.200 A 
ATOM     80  F   UNL A   1      37.921  28.631  32.223  1.00  0.00    -0.200 F 
ATOM     81  F   UNL A   1      35.996  29.377  30.442  1.00  0.00    -0.200 F 
ENDBRANCH  57  71
BRANCH  58  82
ATOM     82  C   UNL A   1      49.173  26.825  26.053  1.00  0.00     0.064 A 
ATOM     83  C   UNL A   1      49.556  27.012  24.718  1.00  0.00     0.173 A 
ATOM     84  C   UNL A   1      50.138  26.338  26.947  1.00  0.00     0.173 A 
ATOM     85  F   UNL A   1      48.665  27.460  23.823  1.00  0.00    -0.203 F 
ATOM     86  C   UNL A   1      50.846  26.707  24.290  1.00  0.00     0.198 A 
ATOM     87  C   UNL A   1      51.437  26.064  26.524  1.00  0.00     0.198 A 
ATOM     88  F   UNL A   1      49.824  26.147  28.237  1.00  0.00    -0.203 F 
ATOM     89  F   UNL A   1      51.172  26.854  22.998  1.00  0.00    -0.200 F 
ATOM     90  C   UNL A   1      51.788  26.241  25.194  1.00  0.00     0.200 A 
ATOM     91  F   UNL A   1      52.349  25.631  27.406  1.00  0.00    -0.200 F 
ATOM     92  F   UNL A   1      53.032  25.957  24.784  1.00  0.00    -0.200 F 
ENDBRANCH  58  82
BRANCH  70  93
ATOM     93  C   UNL A   1      46.134  32.596  28.540  1.00  0.00     0.064 A 
ATOM     94  C   UNL A   1      46.043  33.620  27.586  1.00  0.00     0.173 A 
ATOM     95  C   UNL A   1      46.657  32.919  29.802  1.00  0.00     0.173 A 
ATOM     96  F   UNL A   1      45.563  33.361  26.360  1.00  0.00    -0.203 F 
ATOM     97  C   UNL A   1      46.475  34.912  27.879  1.00  0.00     0.198 A 
ATOM     98  C   UNL A   1      47.056  34.218  30.103  1.00  0.00     0.198 A 
ATOM     99  F   UNL A   1      46.758  31.978  30.754  1.00  0.00    -0.203 F 
ATOM    100  F   UNL A   1      46.419  35.863  26.938  1.00  0.00    -0.200 F 
ATOM    101  C   UNL A   1      46.970  35.212  29.140  1.00  0.00     0.200 A 
ATOM    102  F   UNL A   1      47.514  34.510  31.328  1.00  0.00    -0.200 F 
ATOM    103  F   UNL A   1      47.368  36.459  29.425  1.00  0.00    -0.200 F 
ENDBRANCH  70  93
ENDBRANCH  44  45
ENDBRANCH  37  39
ENDBRANCH  36  37
ENDBRANCH  35  36
ENDBRANCH  34  35
ENDBRANCH  33  34
ENDBRANCH   1  33
TORSDOF 18
ENDMDL
MODEL 3
REMARK VINA RESULT:     -12.2      4.467      8.219
REMARK SMILES COc1ccc2c(c1)OC[C@]1(C(=O)OCCOCCOC(=O)c3ccc(-c4c5nc(c(-c6c(F)c(F)c(F)c(F)c6F)c6ccc([nH]6)c(-c6c(F)c(F)c(F)c(F)c6F)c6nc(c(-c7c(F)c(F)c(F)c(F)c7F)c7ccc4[nH]7)C=C6)C=C5)cc3)C[N@@H+](Cc3cc(C(C)(C)C)n[nH]3)C[C@H]21
REMARK SMILES IDX 16 1 15 2 14 3 12 4 13 5 11 6 3 7 4 8 8 9 5 10 7 11 6 12
REMARK SMILES IDX 9 13 99 14 10 15 98 16 86 17 87 18 2 20 1 21 88 22 89 23
REMARK SMILES IDX 90 24 97 25 91 26 96 27 92 29 93 30 94 31 95 32 17 33 18 34
REMARK SMILES IDX 19 35 20 36 21 37 22 38 23 39 24 40 85 41 25 42 84 43 26 44
REMARK SMILES IDX 27 45 28 46 78 47 29 48 83 49 77 50 79 51 30 52 82 53 76 54
REMARK SMILES IDX 75 55 31 57 63 58 43 59 62 60 44 61 47 62 61 63 80 64 45 65
REMARK SMILES IDX 46 66 60 68 81 69 48 70 32 71 33 72 41 73 34 74 35 75 39 76
REMARK SMILES IDX 42 77 36 78 37 79 40 80 38 81 64 82 65 83 73 84 66 85 67 86
REMARK SMILES IDX 71 87 74 88 68 89 69 90 72 91 70 92 49 93 50 94 58 95 51 96
REMARK SMILES IDX 52 97 56 98 59 99 53 100 54 101 57 102 55 103
REMARK H PARENT 87 19 97 28 79 56 47 67
REMARK Flexibility Score: inf
ROOT
ATOM      1  C   UNL A   1      32.655  28.837  27.409  1.00  0.00     0.202 C 
ENDROOT
BRANCH   1   2
ATOM      2  C   UNL A   1      31.723  27.599  27.287  1.00  0.00     0.261 C 
BRANCH   2   3
ATOM      3  O   UNL A   1      32.338  26.653  26.374  1.00  0.00    -0.463 OA
BRANCH   3   4
ATOM      4  C   UNL A   1      32.058  25.296  26.396  1.00  0.00     0.322 C 
ATOM      5  O   UNL A   1      31.396  24.732  27.247  1.00  0.00    -0.251 OA
BRANCH   4   6
ATOM      6  C   UNL A   1      32.556  24.731  25.048  1.00  0.00     0.162 C 
ATOM      7  C   UNL A   1      36.454  21.303  24.754  1.00  0.00     0.122 A 
ATOM      8  C   UNL A   1      37.039  22.530  24.426  1.00  0.00     0.047 A 
ATOM      9  C   UNL A   1      35.088  21.257  24.983  1.00  0.00     0.093 A 
ATOM     10  C   UNL A   1      36.278  23.712  24.403  1.00  0.00     0.012 A 
ATOM     11  C   UNL A   1      34.334  22.416  24.841  1.00  0.00     0.126 A 
ATOM     12  C   UNL A   1      34.904  23.672  24.661  1.00  0.00     0.005 A 
ATOM     13  O   UNL A   1      32.996  22.251  24.636  1.00  0.00    -0.492 OA
ATOM     14  C   UNL A   1      33.989  24.870  24.495  1.00  0.00     0.105 C 
ATOM     15  C   UNL A   1      32.269  23.252  25.308  1.00  0.00     0.255 C 
ATOM     16  C   UNL A   1      33.730  24.968  22.974  1.00  0.00     0.272 C 
ATOM     17  C   UNL A   1      31.684  25.452  23.990  1.00  0.00     0.286 C 
ATOM     18  N   UNL A   1      32.485  25.699  22.792  1.00  0.00    -0.328 N 
ATOM     19  H   UNL A   1      31.979  25.352  21.978  1.00  0.00     0.348 HD
BRANCH   7  20
ATOM     20  O   UNL A   1      37.286  20.215  24.762  1.00  0.00    -0.497 OA
ATOM     21  C   UNL A   1      38.558  20.407  25.378  1.00  0.00     0.278 C 
ENDBRANCH   7  20
BRANCH  18  22
ATOM     22  C   UNL A   1      32.639  27.100  22.383  1.00  0.00     0.319 C 
BRANCH  22  23
ATOM     23  C   UNL A   1      31.564  28.014  22.854  1.00  0.00     0.090 A 
ATOM     24  C   UNL A   1      30.298  28.268  22.368  1.00  0.00     0.055 A 
ATOM     25  N   UNL A   1      31.680  28.807  23.959  1.00  0.00    -0.277 N 
ATOM     26  C   UNL A   1      29.841  29.399  23.084  1.00  0.00     0.068 A 
ATOM     27  N   UNL A   1      30.667  29.674  24.104  1.00  0.00    -0.180 NA
ATOM     28  H   UNL A   1      32.434  28.747  24.590  1.00  0.00     0.190 HD
BRANCH  26  29
ATOM     29  C   UNL A   1      28.626  30.264  22.791  1.00  0.00     0.006 C 
ATOM     30  C   UNL A   1      28.678  31.547  23.634  1.00  0.00     0.017 C 
ATOM     31  C   UNL A   1      28.569  30.634  21.294  1.00  0.00     0.017 C 
ATOM     32  C   UNL A   1      27.313  29.516  23.118  1.00  0.00     0.017 C 
ENDBRANCH  26  29
ENDBRANCH  22  23
ENDBRANCH  18  22
ENDBRANCH   4   6
ENDBRANCH   3   4
ENDBRANCH   2   3
ENDBRANCH   1   2
BRANCH   1  33
ATOM     33  O   UNL A   1      32.153  30.125  27.022  1.00  0.00    -0.374 OA
BRANCH  33  34
ATOM     34  C   UNL A   1      32.958  31.273  27.262  1.00  0.00     0.202 C 
BRANCH  34  35
ATOM     35  C   UNL A   1      32.267  32.648  27.391  1.00  0.00     0.261 C 
BRANCH  35  36
ATOM     36  O   UNL A   1      33.171  33.752  27.285  1.00  0.00    -0.460 OA
BRANCH  36  37
ATOM     37  C   UNL A   1      33.255  34.490  28.416  1.00  0.00     0.338 C 
ATOM     38  O   UNL A   1      32.478  35.346  28.811  1.00  0.00    -0.246 OA
BRANCH  37  39
ATOM     39  C   UNL A   1      34.355  33.977  29.241  1.00  0.00     0.060 A 
ATOM     40  C   UNL A   1      34.125  33.199  30.377  1.00  0.00     0.016 A 
ATOM     41  C   UNL A   1      35.655  34.259  28.812  1.00  0.00     0.016 A 
ATOM     42  C   UNL A   1      35.219  32.674  31.071  1.00  0.00     0.010 A 
ATOM     43  C   UNL A   1      36.742  33.738  29.505  1.00  0.00     0.010 A 
ATOM     44  C   UNL A   1      36.531  32.921  30.626  1.00  0.00    -0.014 A 
BRANCH  44  45
ATOM     45  C   UNL A   1      37.684  32.215  31.234  1.00  0.00     0.031 A 
ATOM     46  C   UNL A   1      38.189  32.576  32.597  1.00  0.00     0.074 A 
ATOM     47  C   UNL A   1      38.308  31.272  30.503  1.00  0.00     0.049 A 
ATOM     48  N   UNL A   1      39.179  32.049  33.273  1.00  0.00    -0.248 NA
ATOM     49  C   UNL A   1      37.504  33.675  33.293  1.00  0.00     0.031 C 
ATOM     50  C   UNL A   1      37.927  30.878  29.145  1.00  0.00     0.029 A 
ATOM     51  N   UNL A   1      39.391  30.481  30.788  1.00  0.00    -0.354 N 
ATOM     52  C   UNL A   1      39.223  32.731  34.479  1.00  0.00     0.074 A 
ATOM     53  C   UNL A   1      38.192  33.748  34.425  1.00  0.00     0.031 C 
ATOM     54  C   UNL A   1      38.745  29.901  28.727  1.00  0.00     0.029 A 
ATOM     55  C   UNL A   1      39.728  29.625  29.769  1.00  0.00     0.049 A 
ATOM     56  H   UNL A   1      39.880  30.524  31.642  1.00  0.00     0.167 HD
ATOM     57  C   UNL A   1      40.037  32.509  35.539  1.00  0.00     0.037 A 
ATOM     58  C   UNL A   1      40.719  28.717  29.686  1.00  0.00     0.037 A 
ATOM     59  C   UNL A   1      41.073  31.506  35.570  1.00  0.00     0.049 A 
ATOM     60  C   UNL A   1      41.638  28.530  30.861  1.00  0.00     0.074 A 
ATOM     61  C   UNL A   1      41.932  31.189  36.609  1.00  0.00     0.029 A 
ATOM     62  N   UNL A   1      41.400  30.667  34.514  1.00  0.00    -0.354 N 
ATOM     63  N   UNL A   1      41.622  29.128  32.027  1.00  0.00    -0.248 NA
ATOM     64  C   UNL A   1      42.709  27.534  30.712  1.00  0.00     0.031 C 
ATOM     65  C   UNL A   1      42.812  30.199  36.165  1.00  0.00     0.029 A 
ATOM     66  C   UNL A   1      42.462  29.851  34.870  1.00  0.00     0.049 A 
ATOM     67  H   UNL A   1      40.943  30.653  33.642  1.00  0.00     0.167 HD
ATOM     68  C   UNL A   1      42.655  28.562  32.761  1.00  0.00     0.074 A 
ATOM     69  C   UNL A   1      43.269  27.560  31.914  1.00  0.00     0.031 C 
ATOM     70  C   UNL A   1      43.058  28.848  34.023  1.00  0.00     0.037 A 
BRANCH  57  71
ATOM     71  C   UNL A   1      39.840  33.344  36.771  1.00  0.00     0.064 A 
ATOM     72  C   UNL A   1      40.532  34.552  36.948  1.00  0.00     0.173 A 
ATOM     73  C   UNL A   1      38.871  32.998  37.726  1.00  0.00     0.173 A 
ATOM     74  F   UNL A   1      41.475  34.925  36.069  1.00  0.00    -0.203 F 
ATOM     75  C   UNL A   1      40.264  35.380  38.035  1.00  0.00     0.198 A 
ATOM     76  C   UNL A   1      38.586  33.842  38.797  1.00  0.00     0.198 A 
ATOM     77  F   UNL A   1      38.174  31.859  37.600  1.00  0.00    -0.203 F 
ATOM     78  F   UNL A   1      40.955  36.518  38.193  1.00  0.00    -0.200 F 
ATOM     79  C   UNL A   1      39.282  35.031  38.950  1.00  0.00     0.200 A 
ATOM     80  F   UNL A   1      37.626  33.513  39.671  1.00  0.00    -0.200 F 
ATOM     81  F   UNL A   1      39.007  35.843  39.980  1.00  0.00    -0.200 F 
ENDBRANCH  57  71
BRANCH  58  82
ATOM     82  C   UNL A   1      40.862  27.890  28.459  1.00  0.00     0.064 A 
ATOM     83  C   UNL A   1      41.661  28.322  27.392  1.00  0.00     0.173 A 
ATOM     84  C   UNL A   1      40.217  26.652  28.332  1.00  0.00     0.173 A 
ATOM     85  F   UNL A   1      42.285  29.507  27.459  1.00  0.00    -0.203 F 
ATOM     86  C   UNL A   1      41.796  27.554  26.237  1.00  0.00     0.198 A 
ATOM     87  C   UNL A   1      40.379  25.869  27.190  1.00  0.00     0.198 A 
ATOM     88  F   UNL A   1      39.446  26.190  29.327  1.00  0.00    -0.203 F 
ATOM     89  F   UNL A   1      42.532  28.011  25.214  1.00  0.00    -0.200 F 
ATOM     90  C   UNL A   1      41.162  26.325  26.140  1.00  0.00     0.200 A 
ATOM     91  F   UNL A   1      39.779  24.674  27.108  1.00  0.00    -0.200 F 
ATOM     92  F   UNL A   1      41.300  25.583  25.033  1.00  0.00    -0.200 F 
ENDBRANCH  58  82
BRANCH  70  93
ATOM     93  C   UNL A   1      44.198  28.049  34.588  1.00  0.00     0.064 A 
ATOM     94  C   UNL A   1      45.520  28.514  34.539  1.00  0.00     0.173 A 
ATOM     95  C   UNL A   1      43.954  26.834  35.248  1.00  0.00     0.173 A 
ATOM     96  F   UNL A   1      45.809  29.663  33.908  1.00  0.00    -0.203 F 
ATOM     97  C   UNL A   1      46.558  27.783  35.112  1.00  0.00     0.198 A 
ATOM     98  C   UNL A   1      44.988  26.124  35.850  1.00  0.00     0.198 A 
ATOM     99  F   UNL A   1      42.706  26.348  35.332  1.00  0.00    -0.203 F 
ATOM    100  F   UNL A   1      47.819  28.226  35.014  1.00  0.00    -0.200 F 
ATOM    101  C   UNL A   1      46.290  26.595  35.776  1.00  0.00     0.200 A 
ATOM    102  F   UNL A   1      44.724  24.987  36.508  1.00  0.00    -0.200 F 
ATOM    103  F   UNL A   1      47.288  25.904  36.343  1.00  0.00    -0.200 F 
ENDBRANCH  70  93
ENDBRANCH  44  45
ENDBRANCH  37  39
ENDBRANCH  36  37
ENDBRANCH  35  36
ENDBRANCH  34  35
ENDBRANCH  33  34
ENDBRANCH   1  33
TORSDOF 18
ENDMDL
