MODEL 1
REMARK VINA RESULT:     -12.4      0.000      0.000
REMARK SMILES O=C(OCCOCCOC(=O)c1ccc(-c2c3nc(c(-c4c(F)c(F)c(F)c(F)c4F)c4ccc([nH]4)c(-c4c(F)c(F)c(F)c(F)c4F)c4nc(c(-c5c(F)c(F)c(F)c(F)c5F)c5ccc2[nH]5)C=C4)C=C3)cc1)C1=Cc2cc(S(F)(F)(F)(F)F)ccc2O[C@H]1C(F)(F)F
REMARK SMILES IDX 7 1 6 2 5 3 4 4 3 5 2 6 1 7 75 8 76 9 90 10 77 11 89 12
REMARK SMILES IDX 78 13 88 14 79 15 87 16 86 17 91 18 92 19 93 20 94 21 80 22
REMARK SMILES IDX 81 23 82 24 83 25 84 26 85 27 8 28 9 29 10 30 11 31 12 32
REMARK SMILES IDX 13 33 74 34 14 35 73 36 15 37 16 38 17 39 67 40 18 41 72 42
REMARK SMILES IDX 66 43 68 44 19 45 71 46 65 47 64 48 20 50 52 51 32 52 51 53
REMARK SMILES IDX 33 54 36 55 50 56 69 57 34 58 35 59 49 61 70 62 37 63 21 64
REMARK SMILES IDX 22 65 30 66 23 67 24 68 28 69 31 70 25 71 26 72 29 73 27 74
REMARK SMILES IDX 53 75 54 76 62 77 55 78 56 79 60 80 63 81 57 82 58 83 61 84
REMARK SMILES IDX 59 85 38 86 39 87 47 88 40 89 41 90 45 91 48 92 42 93 43 94
REMARK SMILES IDX 46 95 44 96
REMARK H PARENT 68 49 36 60
REMARK Flexibility Score: inf
ROOT
ATOM      1  C   UNL A   1      31.688  30.801  25.838  1.00  0.00     0.202 C 
ENDROOT
BRANCH   1   2
ATOM      2  O   UNL A   1      32.244  29.701  26.543  1.00  0.00    -0.374 OA
BRANCH   2   3
ATOM      3  C   UNL A   1      33.371  29.206  25.836  1.00  0.00     0.202 C 
BRANCH   3   4
ATOM      4  C   UNL A   1      33.639  27.769  26.251  1.00  0.00     0.261 C 
BRANCH   4   5
ATOM      5  O   UNL A   1      32.435  27.021  26.171  1.00  0.00    -0.460 OA
BRANCH   5   6
ATOM      6  C   UNL A   1      32.337  25.925  25.273  1.00  0.00     0.338 C 
ATOM      7  O   UNL A   1      33.377  25.485  24.691  1.00  0.00    -0.246 OA
BRANCH   6   8
ATOM      8  C   UNL A   1      30.986  25.278  25.009  1.00  0.00     0.087 C 
ATOM      9  C   UNL A   1      30.083  25.895  24.202  1.00  0.00     0.027 C 
ATOM     10  C   UNL A   1      30.648  23.941  25.647  1.00  0.00     0.316 C 
ATOM     11  C   UNL A   1      30.422  27.232  23.563  1.00  0.00     0.019 A 
ATOM     12  O   UNL A   1      32.596  26.434  23.026  1.00  0.00    -0.475 OA
ATOM     13  C   UNL A   1      29.488  28.247  23.686  1.00  0.00     0.036 A 
ATOM     14  C   UNL A   1      31.602  27.448  22.992  1.00  0.00     0.128 A 
ATOM     15  C   UNL A   1      29.781  29.394  22.911  1.00  0.00     0.107 A 
ATOM     16  C   UNL A   1      31.870  28.643  22.370  1.00  0.00     0.048 A 
ATOM     17  C   UNL A   1      30.967  29.670  22.401  1.00  0.00     0.028 A 
BRANCH  10  18
ATOM     18  C   UNL A   1      31.819  23.472  26.495  1.00  0.00     0.430 C 
ATOM     19  F   UNL A   1      32.806  23.065  25.701  1.00  0.00    -0.167 F 
ATOM     20  F   UNL A   1      32.247  24.476  27.254  1.00  0.00    -0.167 F 
ATOM     21  F   UNL A   1      31.429  22.464  27.271  1.00  0.00    -0.167 F 
ENDBRANCH  10  18
BRANCH  15  22
ATOM     22  S   UNL A   1      28.437  30.565  22.596  1.00  0.00     0.310 S 
ATOM     23  F   UNL A   1      27.407  29.696  23.434  1.00  0.00    -0.094 F 
ATOM     24  F   UNL A   1      28.020  29.716  21.336  1.00  0.00    -0.094 F 
ATOM     25  F   UNL A   1      27.281  31.572  22.335  1.00  0.00    -0.094 F 
ATOM     26  F   UNL A   1      28.781  31.320  23.940  1.00  0.00    -0.094 F 
ATOM     27  F   UNL A   1      29.542  29.486  22.936  1.00  0.00    -0.094 F 
ENDBRANCH  15  22
ENDBRANCH   6   8
ENDBRANCH   5   6
ENDBRANCH   4   5
ENDBRANCH   3   4
ENDBRANCH   2   3
ENDBRANCH   1   2
BRANCH   1  28
ATOM     28  C   UNL A   1      31.384  31.927  26.812  1.00  0.00     0.261 C 
BRANCH  28  29
ATOM     29  O   UNL A   1      32.306  32.989  26.610  1.00  0.00    -0.460 OA
BRANCH  29  30
ATOM     30  C   UNL A   1      32.981  33.564  27.719  1.00  0.00     0.338 C 
ATOM     31  O   UNL A   1      32.533  34.628  28.251  1.00  0.00    -0.246 OA
BRANCH  30  32
ATOM     32  C   UNL A   1      34.237  32.909  28.267  1.00  0.00     0.060 A 
ATOM     33  C   UNL A   1      35.347  33.726  28.409  1.00  0.00     0.016 A 
ATOM     34  C   UNL A   1      34.243  31.656  28.706  1.00  0.00     0.016 A 
ATOM     35  C   UNL A   1      36.526  33.033  28.775  1.00  0.00     0.010 A 
ATOM     36  C   UNL A   1      35.401  31.085  29.177  1.00  0.00     0.010 A 
ATOM     37  C   UNL A   1      36.551  31.817  29.291  1.00  0.00    -0.014 A 
BRANCH  37  38
ATOM     38  C   UNL A   1      37.790  31.262  29.973  1.00  0.00     0.031 A 
ATOM     39  C   UNL A   1      38.580  30.316  29.315  1.00  0.00     0.074 A 
ATOM     40  C   UNL A   1      37.963  31.630  31.296  1.00  0.00     0.049 A 
ATOM     41  N   UNL A   1      39.624  29.646  29.806  1.00  0.00    -0.248 NA
ATOM     42  C   UNL A   1      38.376  29.899  27.920  1.00  0.00     0.031 C 
ATOM     43  C   UNL A   1      37.176  32.590  31.963  1.00  0.00     0.029 A 
ATOM     44  N   UNL A   1      38.897  31.155  32.189  1.00  0.00    -0.354 N 
ATOM     45  C   UNL A   1      40.136  28.843  28.871  1.00  0.00     0.074 A 
ATOM     46  C   UNL A   1      39.338  28.989  27.647  1.00  0.00     0.031 C 
ATOM     47  C   UNL A   1      37.622  32.682  33.243  1.00  0.00     0.029 A 
ATOM     48  C   UNL A   1      38.695  31.785  33.398  1.00  0.00     0.049 A 
ATOM     49  H   UNL A   1      39.590  30.482  31.998  1.00  0.00     0.167 HD
ATOM     50  C   UNL A   1      41.239  27.997  28.992  1.00  0.00     0.037 A 
ATOM     51  C   UNL A   1      39.393  31.597  34.580  1.00  0.00     0.037 A 
ATOM     52  C   UNL A   1      41.966  27.842  30.161  1.00  0.00     0.049 A 
ATOM     53  C   UNL A   1      40.461  30.707  34.716  1.00  0.00     0.074 A 
ATOM     54  C   UNL A   1      43.085  26.999  30.297  1.00  0.00     0.029 A 
ATOM     55  N   UNL A   1      41.748  28.452  31.377  1.00  0.00    -0.354 N 
ATOM     56  N   UNL A   1      40.998  29.933  33.771  1.00  0.00    -0.248 NA
ATOM     57  C   UNL A   1      41.188  30.477  35.972  1.00  0.00     0.031 C 
ATOM     58  C   UNL A   1      43.530  27.091  31.578  1.00  0.00     0.029 A 
ATOM     59  C   UNL A   1      42.696  27.995  32.264  1.00  0.00     0.049 A 
ATOM     60  H   UNL A   1      41.037  29.105  31.576  1.00  0.00     0.167 HD
ATOM     61  C   UNL A   1      42.016  29.232  34.274  1.00  0.00     0.074 A 
ATOM     62  C   UNL A   1      42.148  29.566  35.699  1.00  0.00     0.031 C 
ATOM     63  C   UNL A   1      42.842  28.331  33.602  1.00  0.00     0.037 A 
BRANCH  50  64
ATOM     64  C   UNL A   1      41.669  27.199  27.770  1.00  0.00     0.064 A 
ATOM     65  C   UNL A   1      42.603  27.642  26.849  1.00  0.00     0.173 A 
ATOM     66  C   UNL A   1      41.148  25.980  27.691  1.00  0.00     0.173 A 
ATOM     67  F   UNL A   1      43.332  28.741  27.026  1.00  0.00    -0.203 F 
ATOM     68  C   UNL A   1      42.712  26.821  25.703  1.00  0.00     0.198 A 
ATOM     69  C   UNL A   1      41.406  25.178  26.606  1.00  0.00     0.198 A 
ATOM     70  F   UNL A   1      40.370  25.532  28.671  1.00  0.00    -0.203 F 
ATOM     71  F   UNL A   1      43.296  27.337  24.625  1.00  0.00    -0.200 F 
ATOM     72  C   UNL A   1      42.274  25.577  25.628  1.00  0.00     0.200 A 
ATOM     73  F   UNL A   1      40.802  23.997  26.505  1.00  0.00    -0.200 F 
ATOM     74  F   UNL A   1      42.657  24.757  24.653  1.00  0.00    -0.200 F 
ENDBRANCH  50  64
BRANCH  51  75
ATOM     75  C   UNL A   1      38.975  32.407  35.797  1.00  0.00     0.064 A 
ATOM     76  C   UNL A   1      39.434  33.698  36.004  1.00  0.00     0.173 A 
ATOM     77  C   UNL A   1      38.257  31.775  36.717  1.00  0.00     0.173 A 
ATOM     78  F   UNL A   1      39.931  34.456  35.031  1.00  0.00    -0.203 F 
ATOM     79  C   UNL A   1      39.325  34.136  37.344  1.00  0.00     0.198 A 
ATOM     80  C   UNL A   1      38.078  32.325  37.963  1.00  0.00     0.198 A 
ATOM     81  F   UNL A   1      37.705  30.599  36.430  1.00  0.00    -0.203 F 
ATOM     82  F   UNL A   1      40.050  35.189  37.712  1.00  0.00    -0.200 F 
ATOM     83  C   UNL A   1      38.555  33.572  38.257  1.00  0.00     0.200 A 
ATOM     84  F   UNL A   1      37.431  31.634  38.898  1.00  0.00    -0.200 F 
ATOM     85  F   UNL A   1      38.259  34.184  39.400  1.00  0.00    -0.200 F 
ENDBRANCH  51  75
BRANCH  63  86
ATOM     86  C   UNL A   1      43.970  27.677  34.382  1.00  0.00     0.064 A 
ATOM     87  C   UNL A   1      43.679  26.456  34.968  1.00  0.00     0.173 A 
ATOM     88  C   UNL A   1      45.200  28.177  34.409  1.00  0.00     0.173 A 
ATOM     89  F   UNL A   1      42.541  25.802  34.753  1.00  0.00    -0.203 F 
ATOM     90  C   UNL A   1      44.702  25.967  35.814  1.00  0.00     0.198 A 
ATOM     91  C   UNL A   1      46.187  27.571  35.149  1.00  0.00     0.198 A 
ATOM     92  F   UNL A   1      45.481  29.274  33.711  1.00  0.00    -0.203 F 
ATOM     93  F   UNL A   1      44.383  25.014  36.684  1.00  0.00    -0.200 F 
ATOM     94  C   UNL A   1      45.952  26.393  35.802  1.00  0.00     0.200 A 
ATOM     95  F   UNL A   1      47.386  28.140  35.233  1.00  0.00    -0.200 F 
ATOM     96  F   UNL A   1      46.930  25.713  36.393  1.00  0.00    -0.200 F 
ENDBRANCH  63  86
ENDBRANCH  37  38
ENDBRANCH  30  32
ENDBRANCH  29  30
ENDBRANCH  28  29
ENDBRANCH   1  28
TORSDOF 16
ENDMDL
MODEL 2
REMARK VINA RESULT:     -12.4      1.691      3.741
REMARK SMILES O=C(OCCOCCOC(=O)c1ccc(-c2c3nc(c(-c4c(F)c(F)c(F)c(F)c4F)c4ccc([nH]4)c(-c4c(F)c(F)c(F)c(F)c4F)c4nc(c(-c5c(F)c(F)c(F)c(F)c5F)c5ccc2[nH]5)C=C4)C=C3)cc1)C1=Cc2cc(S(F)(F)(F)(F)F)ccc2O[C@H]1C(F)(F)F
REMARK SMILES IDX 7 1 6 2 5 3 4 4 3 5 2 6 1 7 75 8 76 9 90 10 77 11 89 12
REMARK SMILES IDX 78 13 88 14 79 15 87 16 86 17 91 18 92 19 93 20 94 21 80 22
REMARK SMILES IDX 81 23 82 24 83 25 84 26 85 27 8 28 9 29 10 30 11 31 12 32
REMARK SMILES IDX 13 33 74 34 14 35 73 36 15 37 16 38 17 39 67 40 18 41 72 42
REMARK SMILES IDX 66 43 68 44 19 45 71 46 65 47 64 48 20 50 52 51 32 52 51 53
REMARK SMILES IDX 33 54 36 55 50 56 69 57 34 58 35 59 49 61 70 62 37 63 21 64
REMARK SMILES IDX 22 65 30 66 23 67 24 68 28 69 31 70 25 71 26 72 29 73 27 74
REMARK SMILES IDX 53 75 54 76 62 77 55 78 56 79 60 80 63 81 57 82 58 83 61 84
REMARK SMILES IDX 59 85 38 86 39 87 47 88 40 89 41 90 45 91 48 92 42 93 43 94
REMARK SMILES IDX 46 95 44 96
REMARK H PARENT 68 49 36 60
REMARK Flexibility Score: inf
ROOT
ATOM      1  C   UNL A   1      31.791  30.850  26.142  1.00  0.00     0.202 C 
ENDROOT
BRANCH   1   2
ATOM      2  O   UNL A   1      32.118  29.801  27.042  1.00  0.00    -0.374 OA
BRANCH   2   3
ATOM      3  C   UNL A   1      33.303  29.154  26.604  1.00  0.00     0.202 C 
BRANCH   3   4
ATOM      4  C   UNL A   1      32.945  28.059  25.612  1.00  0.00     0.261 C 
BRANCH   4   5
ATOM      5  O   UNL A   1      31.946  27.221  26.174  1.00  0.00    -0.460 OA
BRANCH   5   6
ATOM      6  C   UNL A   1      31.106  26.450  25.325  1.00  0.00     0.338 C 
ATOM      7  O   UNL A   1      29.995  26.013  25.758  1.00  0.00    -0.246 OA
BRANCH   6   8
ATOM      8  C   UNL A   1      31.538  26.150  23.899  1.00  0.00     0.087 C 
ATOM      9  C   UNL A   1      32.507  25.225  23.661  1.00  0.00     0.027 C 
ATOM     10  C   UNL A   1      30.886  26.884  22.738  1.00  0.00     0.316 C 
ATOM     11  C   UNL A   1      33.157  24.491  24.823  1.00  0.00     0.019 A 
ATOM     12  O   UNL A   1      31.029  24.190  25.837  1.00  0.00    -0.475 OA
ATOM     13  C   UNL A   1      34.541  24.452  24.849  1.00  0.00     0.036 A 
ATOM     14  C   UNL A   1      32.436  23.990  25.819  1.00  0.00     0.128 A 
ATOM     15  C   UNL A   1      35.072  23.596  25.844  1.00  0.00     0.107 A 
ATOM     16  C   UNL A   1      33.035  23.281  26.830  1.00  0.00     0.048 A 
ATOM     17  C   UNL A   1      34.396  23.150  26.887  1.00  0.00     0.028 A 
BRANCH  10  18
ATOM     18  C   UNL A   1      29.846  27.854  23.271  1.00  0.00     0.430 C 
ATOM     19  F   UNL A   1      30.399  28.633  24.197  1.00  0.00    -0.167 F 
ATOM     20  F   UNL A   1      29.390  28.607  22.275  1.00  0.00    -0.167 F 
ATOM     21  F   UNL A   1      28.838  27.172  23.809  1.00  0.00    -0.167 F 
ENDBRANCH  10  18
BRANCH  15  22
ATOM     22  S   UNL A   1      36.798  23.077  25.676  1.00  0.00     0.310 S 
ATOM     23  F   UNL A   1      36.940  23.801  24.272  1.00  0.00    -0.094 F 
ATOM     24  F   UNL A   1      36.316  21.799  24.890  1.00  0.00    -0.094 F 
ATOM     25  F   UNL A   1      38.284  22.640  25.531  1.00  0.00    -0.094 F 
ATOM     26  F   UNL A   1      37.269  24.430  26.340  1.00  0.00    -0.094 F 
ATOM     27  F   UNL A   1      35.303  23.588  25.729  1.00  0.00    -0.094 F 
ENDBRANCH  15  22
ENDBRANCH   6   8
ENDBRANCH   5   6
ENDBRANCH   4   5
ENDBRANCH   3   4
ENDBRANCH   2   3
ENDBRANCH   1   2
BRANCH   1  28
ATOM     28  C   UNL A   1      31.390  32.087  26.929  1.00  0.00     0.261 C 
BRANCH  28  29
ATOM     29  O   UNL A   1      32.363  33.104  26.736  1.00  0.00    -0.460 OA
BRANCH  29  30
ATOM     30  C   UNL A   1      33.037  33.665  27.854  1.00  0.00     0.338 C 
ATOM     31  O   UNL A   1      32.586  34.719  28.402  1.00  0.00    -0.246 OA
BRANCH  30  32
ATOM     32  C   UNL A   1      34.293  33.004  28.394  1.00  0.00     0.060 A 
ATOM     33  C   UNL A   1      35.440  33.780  28.410  1.00  0.00     0.016 A 
ATOM     34  C   UNL A   1      34.273  31.792  28.938  1.00  0.00     0.016 A 
ATOM     35  C   UNL A   1      36.608  33.069  28.776  1.00  0.00     0.010 A 
ATOM     36  C   UNL A   1      35.431  31.213  29.399  1.00  0.00     0.010 A 
ATOM     37  C   UNL A   1      36.613  31.901  29.392  1.00  0.00    -0.014 A 
BRANCH  37  38
ATOM     38  C   UNL A   1      37.864  31.351  30.057  1.00  0.00     0.031 A 
ATOM     39  C   UNL A   1      38.636  30.392  29.399  1.00  0.00     0.074 A 
ATOM     40  C   UNL A   1      38.066  31.740  31.370  1.00  0.00     0.049 A 
ATOM     41  N   UNL A   1      39.687  29.724  29.879  1.00  0.00    -0.248 NA
ATOM     42  C   UNL A   1      38.401  29.952  28.015  1.00  0.00     0.031 C 
ATOM     43  C   UNL A   1      37.297  32.714  32.037  1.00  0.00     0.029 A 
ATOM     44  N   UNL A   1      39.017  31.275  32.252  1.00  0.00    -0.354 N 
ATOM     45  C   UNL A   1      40.176  28.904  28.947  1.00  0.00     0.074 A 
ATOM     46  C   UNL A   1      39.353  29.034  27.737  1.00  0.00     0.031 C 
ATOM     47  C   UNL A   1      37.770  32.826  33.307  1.00  0.00     0.029 A 
ATOM     48  C   UNL A   1      38.842  31.926  33.453  1.00  0.00     0.049 A 
ATOM     49  H   UNL A   1      39.702  30.596  32.057  1.00  0.00     0.167 HD
ATOM     50  C   UNL A   1      41.278  28.055  29.058  1.00  0.00     0.037 A 
ATOM     51  C   UNL A   1      39.564  31.755  34.624  1.00  0.00     0.037 A 
ATOM     52  C   UNL A   1      42.028  27.916  30.215  1.00  0.00     0.049 A 
ATOM     53  C   UNL A   1      40.631  30.861  34.753  1.00  0.00     0.074 A 
ATOM     54  C   UNL A   1      43.146  27.070  30.342  1.00  0.00     0.029 A 
ATOM     55  N   UNL A   1      41.838  28.547  31.424  1.00  0.00    -0.354 N 
ATOM     56  N   UNL A   1      41.145  30.070  33.809  1.00  0.00    -0.248 NA
ATOM     57  C   UNL A   1      41.383  30.649  35.996  1.00  0.00     0.031 C 
ATOM     58  C   UNL A   1      43.618  27.181  31.612  1.00  0.00     0.029 A 
ATOM     59  C   UNL A   1      42.802  28.100  32.300  1.00  0.00     0.049 A 
ATOM     60  H   UNL A   1      41.134  29.206  31.628  1.00  0.00     0.167 HD
ATOM     61  C   UNL A   1      42.170  29.373  34.303  1.00  0.00     0.074 A 
ATOM     62  C   UNL A   1      42.333  29.730  35.718  1.00  0.00     0.031 C 
ATOM     63  C   UNL A   1      42.978  28.457  33.628  1.00  0.00     0.037 A 
BRANCH  50  64
ATOM     64  C   UNL A   1      41.678  27.235  27.842  1.00  0.00     0.064 A 
ATOM     65  C   UNL A   1      42.620  27.644  26.913  1.00  0.00     0.173 A 
ATOM     66  C   UNL A   1      41.122  26.031  27.775  1.00  0.00     0.173 A 
ATOM     67  F   UNL A   1      43.381  28.722  27.077  1.00  0.00    -0.203 F 
ATOM     68  C   UNL A   1      42.701  26.810  25.772  1.00  0.00     0.198 A 
ATOM     69  C   UNL A   1      41.352  25.213  26.695  1.00  0.00     0.198 A 
ATOM     70  F   UNL A   1      40.336  25.613  28.762  1.00  0.00    -0.203 F 
ATOM     71  F   UNL A   1      43.293  27.301  24.688  1.00  0.00    -0.200 F 
ATOM     72  C   UNL A   1      42.226  25.579  25.710  1.00  0.00     0.200 A 
ATOM     73  F   UNL A   1      40.714  24.049  26.606  1.00  0.00    -0.200 F 
ATOM     74  F   UNL A   1      42.581  24.740  24.740  1.00  0.00    -0.200 F 
ENDBRANCH  50  64
BRANCH  51  75
ATOM     75  C   UNL A   1      39.174  32.587  35.835  1.00  0.00     0.064 A 
ATOM     76  C   UNL A   1      39.724  33.837  36.066  1.00  0.00     0.173 A 
ATOM     77  C   UNL A   1      38.386  32.005  36.731  1.00  0.00     0.173 A 
ATOM     78  F   UNL A   1      40.303  34.562  35.113  1.00  0.00    -0.203 F 
ATOM     79  C   UNL A   1      39.612  34.274  37.406  1.00  0.00     0.198 A 
ATOM     80  C   UNL A   1      38.214  32.559  37.976  1.00  0.00     0.198 A 
ATOM     81  F   UNL A   1      37.755  30.876  36.419  1.00  0.00    -0.203 F 
ATOM     82  F   UNL A   1      40.403  35.267  37.803  1.00  0.00    -0.200 F 
ATOM     83  C   UNL A   1      38.776  33.764  38.293  1.00  0.00     0.200 A 
ATOM     84  F   UNL A   1      37.491  31.913  38.887  1.00  0.00    -0.200 F 
ATOM     85  F   UNL A   1      38.496  34.390  39.433  1.00  0.00    -0.200 F 
ENDBRANCH  51  75
BRANCH  63  86
ATOM     86  C   UNL A   1      44.119  27.811  34.395  1.00  0.00     0.064 A 
ATOM     87  C   UNL A   1      43.838  26.597  35.000  1.00  0.00     0.173 A 
ATOM     88  C   UNL A   1      45.350  28.310  34.394  1.00  0.00     0.173 A 
ATOM     89  F   UNL A   1      42.695  25.942  34.813  1.00  0.00    -0.203 F 
ATOM     90  C   UNL A   1      44.875  26.116  35.834  1.00  0.00     0.198 A 
ATOM     91  C   UNL A   1      46.349  27.711  35.124  1.00  0.00     0.198 A 
ATOM     92  F   UNL A   1      45.619  29.399  33.679  1.00  0.00    -0.203 F 
ATOM     93  F   UNL A   1      44.570  25.173  36.720  1.00  0.00    -0.200 F 
ATOM     94  C   UNL A   1      46.125  26.541  35.795  1.00  0.00     0.200 A 
ATOM     95  F   UNL A   1      47.550  28.279  35.180  1.00  0.00    -0.200 F 
ATOM     96  F   UNL A   1      47.113  25.866  36.375  1.00  0.00    -0.200 F 
ENDBRANCH  63  86
ENDBRANCH  37  38
ENDBRANCH  30  32
ENDBRANCH  29  30
ENDBRANCH  28  29
ENDBRANCH   1  28
TORSDOF 16
ENDMDL
MODEL 3
REMARK VINA RESULT:     -12.3      5.061      9.916
REMARK SMILES O=C(OCCOCCOC(=O)c1ccc(-c2c3nc(c(-c4c(F)c(F)c(F)c(F)c4F)c4ccc([nH]4)c(-c4c(F)c(F)c(F)c(F)c4F)c4nc(c(-c5c(F)c(F)c(F)c(F)c5F)c5ccc2[nH]5)C=C4)C=C3)cc1)C1=Cc2cc(S(F)(F)(F)(F)F)ccc2O[C@H]1C(F)(F)F
REMARK SMILES IDX 7 1 6 2 5 3 4 4 3 5 2 6 1 7 75 8 76 9 90 10 77 11 89 12
REMARK SMILES IDX 78 13 88 14 79 15 87 16 86 17 91 18 92 19 93 20 94 21 80 22
REMARK SMILES IDX 81 23 82 24 83 25 84 26 85 27 8 28 9 29 10 30 11 31 12 32
REMARK SMILES IDX 13 33 74 34 14 35 73 36 15 37 16 38 17 39 67 40 18 41 72 42
REMARK SMILES IDX 66 43 68 44 19 45 71 46 65 47 64 48 20 50 52 51 32 52 51 53
REMARK SMILES IDX 33 54 36 55 50 56 69 57 34 58 35 59 49 61 70 62 37 63 21 64
REMARK SMILES IDX 22 65 30 66 23 67 24 68 28 69 31 70 25 71 26 72 29 73 27 74
REMARK SMILES IDX 53 75 54 76 62 77 55 78 56 79 60 80 63 81 57 82 58 83 61 84
REMARK SMILES IDX 59 85 38 86 39 87 47 88 40 89 41 90 45 91 48 92 42 93 43 94
REMARK SMILES IDX 46 95 44 96
REMARK H PARENT 68 49 36 60
REMARK Flexibility Score: inf
ROOT
ATOM      1  C   UNL A   1      38.059  20.085  24.872  1.00  0.00     0.202 C 
ENDROOT
BRANCH   1   2
ATOM      2  O   UNL A   1      37.035  20.982  25.274  1.00  0.00    -0.374 OA
BRANCH   2   3
ATOM      3  C   UNL A   1      37.306  22.275  24.752  1.00  0.00     0.202 C 
BRANCH   3   4
ATOM      4  C   UNL A   1      36.218  22.660  23.764  1.00  0.00     0.261 C 
BRANCH   4   5
ATOM      5  O   UNL A   1      35.047  23.040  24.473  1.00  0.00    -0.460 OA
BRANCH   5   6
ATOM      6  C   UNL A   1      33.766  22.817  23.901  1.00  0.00     0.338 C 
ATOM      7  O   UNL A   1      33.651  22.633  22.650  1.00  0.00    -0.246 OA
BRANCH   6   8
ATOM      8  C   UNL A   1      32.531  22.798  24.789  1.00  0.00     0.087 C 
ATOM      9  C   UNL A   1      32.003  23.965  25.245  1.00  0.00     0.027 C 
ATOM     10  C   UNL A   1      31.889  21.473  25.167  1.00  0.00     0.316 C 
ATOM     11  C   UNL A   1      32.646  25.290  24.866  1.00  0.00     0.019 A 
ATOM     12  O   UNL A   1      32.888  24.541  22.624  1.00  0.00    -0.475 OA
ATOM     13  C   UNL A   1      32.906  26.181  25.893  1.00  0.00     0.036 A 
ATOM     14  C   UNL A   1      33.027  25.544  23.620  1.00  0.00     0.128 A 
ATOM     15  C   UNL A   1      33.324  27.459  25.451  1.00  0.00     0.107 A 
ATOM     16  C   UNL A   1      33.553  26.768  23.285  1.00  0.00     0.048 A 
ATOM     17  C   UNL A   1      33.783  27.720  24.240  1.00  0.00     0.028 A 
BRANCH  10  18
ATOM     18  C   UNL A   1      32.668  20.332  24.533  1.00  0.00     0.430 C 
ATOM     19  F   UNL A   1      33.945  20.413  24.897  1.00  0.00    -0.167 F 
ATOM     20  F   UNL A   1      32.164  19.171  24.940  1.00  0.00    -0.167 F 
ATOM     21  F   UNL A   1      32.577  20.416  23.208  1.00  0.00    -0.167 F 
ENDBRANCH  10  18
BRANCH  15  22
ATOM     22  S   UNL A   1      33.223  28.833  26.626  1.00  0.00     0.310 S 
ATOM     23  F   UNL A   1      32.502  27.927  27.710  1.00  0.00    -0.094 F 
ATOM     24  F   UNL A   1      31.792  29.180  26.066  1.00  0.00    -0.094 F 
ATOM     25  F   UNL A   1      33.141  30.007  27.642  1.00  0.00    -0.094 F 
ATOM     26  F   UNL A   1      34.594  28.383  27.268  1.00  0.00    -0.094 F 
ATOM     27  F   UNL A   1      33.269  27.568  25.678  1.00  0.00    -0.094 F 
ENDBRANCH  15  22
ENDBRANCH   6   8
ENDBRANCH   5   6
ENDBRANCH   4   5
ENDBRANCH   3   4
ENDBRANCH   2   3
ENDBRANCH   1   2
BRANCH   1  28
ATOM     28  C   UNL A   1      39.203  20.141  25.871  1.00  0.00     0.261 C 
BRANCH  28  29
ATOM     29  O   UNL A   1      40.129  19.101  25.588  1.00  0.00    -0.460 OA
BRANCH  29  30
ATOM     30  C   UNL A   1      41.485  19.227  25.991  1.00  0.00     0.338 C 
ATOM     31  O   UNL A   1      42.264  18.226  25.914  1.00  0.00    -0.246 OA
BRANCH  30  32
ATOM     32  C   UNL A   1      42.002  20.556  26.513  1.00  0.00     0.060 A 
ATOM     33  C   UNL A   1      42.371  21.492  25.560  1.00  0.00     0.016 A 
ATOM     34  C   UNL A   1      41.987  20.859  27.806  1.00  0.00     0.016 A 
ATOM     35  C   UNL A   1      42.987  22.646  26.099  1.00  0.00     0.010 A 
ATOM     36  C   UNL A   1      42.482  22.062  28.249  1.00  0.00     0.010 A 
ATOM     37  C   UNL A   1      42.917  23.011  27.366  1.00  0.00    -0.014 A 
BRANCH  37  38
ATOM     38  C   UNL A   1      43.299  24.411  27.819  1.00  0.00     0.031 A 
ATOM     39  C   UNL A   1      42.303  25.354  28.078  1.00  0.00     0.074 A 
ATOM     40  C   UNL A   1      44.652  24.702  27.791  1.00  0.00     0.049 A 
ATOM     41  N   UNL A   1      42.461  26.647  28.367  1.00  0.00    -0.248 NA
ATOM     42  C   UNL A   1      40.863  25.054  28.073  1.00  0.00     0.031 C 
ATOM     43  C   UNL A   1      45.664  23.754  27.540  1.00  0.00     0.029 A 
ATOM     44  N   UNL A   1      45.258  25.922  27.994  1.00  0.00    -0.354 N 
ATOM     45  C   UNL A   1      41.275  27.222  28.570  1.00  0.00     0.074 A 
ATOM     46  C   UNL A   1      40.229  26.208  28.378  1.00  0.00     0.031 C 
ATOM     47  C   UNL A   1      46.861  24.396  27.578  1.00  0.00     0.029 A 
ATOM     48  C   UNL A   1      46.618  25.755  27.856  1.00  0.00     0.049 A 
ATOM     49  H   UNL A   1      44.799  26.768  28.202  1.00  0.00     0.167 HD
ATOM     50  C   UNL A   1      41.024  28.552  28.909  1.00  0.00     0.037 A 
ATOM     51  C   UNL A   1      47.607  26.720  27.959  1.00  0.00     0.037 A 
ATOM     52  C   UNL A   1      42.016  29.509  29.056  1.00  0.00     0.049 A 
ATOM     53  C   UNL A   1      47.351  28.064  28.242  1.00  0.00     0.074 A 
ATOM     54  C   UNL A   1      41.780  30.852  29.405  1.00  0.00     0.029 A 
ATOM     55  N   UNL A   1      43.374  29.347  28.894  1.00  0.00    -0.354 N 
ATOM     56  N   UNL A   1      46.168  28.631  28.483  1.00  0.00    -0.248 NA
ATOM     57  C   UNL A   1      48.388  29.102  28.322  1.00  0.00     0.031 C 
ATOM     58  C   UNL A   1      42.978  31.494  29.444  1.00  0.00     0.029 A 
ATOM     59  C   UNL A   1      43.982  30.562  29.119  1.00  0.00     0.049 A 
ATOM     60  H   UNL A   1      43.831  28.507  28.658  1.00  0.00     0.167 HD
ATOM     61  C   UNL A   1      46.325  29.933  28.732  1.00  0.00     0.074 A 
ATOM     62  C   UNL A   1      47.754  30.256  28.625  1.00  0.00     0.031 C 
ATOM     63  C   UNL A   1      45.334  30.863  29.048  1.00  0.00     0.037 A 
BRANCH  50  64
ATOM     64  C   UNL A   1      39.580  28.977  29.131  1.00  0.00     0.064 A 
ATOM     65  C   UNL A   1      38.981  29.051  30.377  1.00  0.00     0.173 A 
ATOM     66  C   UNL A   1      38.943  29.372  28.036  1.00  0.00     0.173 A 
ATOM     67  F   UNL A   1      39.654  28.909  31.516  1.00  0.00    -0.203 F 
ATOM     68  C   UNL A   1      37.588  29.291  30.330  1.00  0.00     0.198 A 
ATOM     69  C   UNL A   1      37.615  29.723  28.087  1.00  0.00     0.198 A 
ATOM     70  F   UNL A   1      39.595  29.429  26.879  1.00  0.00    -0.203 F 
ATOM     71  F   UNL A   1      36.877  29.023  31.422  1.00  0.00    -0.200 F 
ATOM     72  C   UNL A   1      36.944  29.761  29.277  1.00  0.00     0.200 A 
ATOM     73  F   UNL A   1      36.974  30.030  26.963  1.00  0.00    -0.200 F 
ATOM     74  F   UNL A   1      35.709  30.246  29.370  1.00  0.00    -0.200 F 
ENDBRANCH  50  64
BRANCH  51  75
ATOM     75  C   UNL A   1      49.052  26.292  27.754  1.00  0.00     0.064 A 
ATOM     76  C   UNL A   1      49.858  25.923  28.819  1.00  0.00     0.173 A 
ATOM     77  C   UNL A   1      49.543  26.417  26.527  1.00  0.00     0.173 A 
ATOM     78  F   UNL A   1      49.375  25.543  29.998  1.00  0.00    -0.203 F 
ATOM     79  C   UNL A   1      51.243  25.985  28.536  1.00  0.00     0.198 A 
ATOM     80  C   UNL A   1      50.896  26.331  26.304  1.00  0.00     0.198 A 
ATOM     81  F   UNL A   1      48.718  26.624  25.505  1.00  0.00    -0.203 F 
ATOM     82  F   UNL A   1      52.085  26.004  29.565  1.00  0.00    -0.200 F 
ATOM     83  C   UNL A   1      51.759  26.027  27.321  1.00  0.00     0.200 A 
ATOM     84  F   UNL A   1      51.374  26.547  25.082  1.00  0.00    -0.200 F 
ATOM     85  F   UNL A   1      53.048  25.787  27.097  1.00  0.00    -0.200 F 
ENDBRANCH  51  75
BRANCH  63  86
ATOM     86  C   UNL A   1      45.761  32.293  29.332  1.00  0.00     0.064 A 
ATOM     87  C   UNL A   1      45.756  33.158  28.249  1.00  0.00     0.173 A 
ATOM     88  C   UNL A   1      46.011  32.731  30.560  1.00  0.00     0.173 A 
ATOM     89  F   UNL A   1      45.271  32.822  27.057  1.00  0.00    -0.203 F 
ATOM     90  C   UNL A   1      46.314  34.428  28.526  1.00  0.00     0.198 A 
ATOM     91  C   UNL A   1      46.423  34.026  30.772  1.00  0.00     0.198 A 
ATOM     92  F   UNL A   1      45.861  31.910  31.596  1.00  0.00    -0.203 F 
ATOM     93  F   UNL A   1      46.682  35.181  27.493  1.00  0.00    -0.200 F 
ATOM     94  C   UNL A   1      46.498  34.918  29.738  1.00  0.00     0.200 A 
ATOM     95  F   UNL A   1      46.754  34.415  32.000  1.00  0.00    -0.200 F 
ATOM     96  F   UNL A   1      46.742  36.209  29.944  1.00  0.00    -0.200 F 
ENDBRANCH  63  86
ENDBRANCH  37  38
ENDBRANCH  30  32
ENDBRANCH  29  30
ENDBRANCH  28  29
ENDBRANCH   1  28
TORSDOF 16
ENDMDL
