MODEL 1
REMARK VINA RESULT:     -13.5      0.000      0.000
REMARK SMILES CC(C)[C@H](NC(=O)Cn1ccc2c(Br)cccc21)C(=O)OCCOCCOC(=O)c1ccc(-c2c3nc(c(-c4c(F)c(F)c(F)c(F)c4F)c4ccc([nH]4)c(-c4c(F)c(F)c(F)c(F)c4F)c4nc(c(-c5c(F)c(F)c(F)c(F)c5F)c5ccc2[nH]5)C=C4)C=C3)cc1
REMARK SMILES IDX 23 1 22 2 21 3 19 4 20 5 4 6 2 7 1 8 3 9 5 10 6 11 7 13 8 14
REMARK SMILES IDX 9 15 10 16 18 17 11 18 12 19 17 20 13 21 16 22 14 23 15 24
REMARK SMILES IDX 24 25 25 26 26 27 27 28 28 29 29 30 30 31 31 32 92 33 32 34
REMARK SMILES IDX 91 35 33 36 34 37 35 38 85 39 36 40 90 41 84 42 86 43 37 44
REMARK SMILES IDX 89 45 83 46 82 47 38 49 70 50 50 51 69 52 51 53 54 54 68 55
REMARK SMILES IDX 87 56 52 57 53 58 67 60 88 61 55 62 39 63 40 64 48 65 41 66
REMARK SMILES IDX 42 67 46 68 49 69 43 70 44 71 47 72 45 73 71 74 72 75 80 76
REMARK SMILES IDX 73 77 74 78 78 79 81 80 75 81 76 82 79 83 77 84 56 85 57 86
REMARK SMILES IDX 65 87 58 88 59 89 63 90 66 91 60 92 61 93 64 94 62 95
REMARK H PARENT 5 12 86 48 54 59
REMARK Flexibility Score: inf
ROOT
ATOM      1  C   UNL A   1      38.508  19.618  25.121  1.00  0.00     0.202 C 
ENDROOT
BRANCH   1   2
ATOM      2  C   UNL A   1      37.953  21.185  25.218  1.00  0.00     0.261 C 
BRANCH   2   3
ATOM      3  O   UNL A   1      36.602  21.454  25.787  1.00  0.00    -0.462 OA
BRANCH   3   4
ATOM      4  C   UNL A   1      35.405  21.167  25.203  1.00  0.00     0.328 C 
ATOM      5  O   UNL A   1      35.157  20.103  24.652  1.00  0.00    -0.250 OA
BRANCH   4   6
ATOM      6  C   UNL A   1      34.369  22.357  25.314  1.00  0.00     0.194 C 
BRANCH   6   7
ATOM      7  C   UNL A   1      34.884  23.534  24.450  1.00  0.00     0.017 C 
ATOM      8  C   UNL A   1      34.201  23.693  23.082  1.00  0.00     0.010 C 
ATOM      9  C   UNL A   1      34.783  24.852  25.216  1.00  0.00     0.010 C 
ENDBRANCH   6   7
BRANCH   6  10
ATOM     10  N   UNL A   1      33.774  22.854  26.572  1.00  0.00    -0.341 N 
ATOM     11  C   UNL A   1      32.561  22.694  27.130  1.00  0.00     0.240 C 
ATOM     12  H   UNL A   1      34.386  23.411  27.107  1.00  0.00     0.164 HD
ATOM     13  O   UNL A   1      32.521  22.584  28.360  1.00  0.00    -0.273 OA
BRANCH  11  14
ATOM     14  C   UNL A   1      31.305  22.761  26.311  1.00  0.00     0.222 C 
BRANCH  14  15
ATOM     15  N   UNL A   1      30.996  24.047  25.583  1.00  0.00    -0.338 N 
ATOM     16  C   UNL A   1      30.663  23.882  23.708  1.00  0.00     0.087 A 
ATOM     17  C   UNL A   1      31.041  25.953  25.928  1.00  0.00     0.050 A 
ATOM     18  C   UNL A   1      30.544  25.487  23.024  1.00  0.00     0.029 A 
ATOM     19  C   UNL A   1      30.743  26.783  24.385  1.00  0.00     0.014 A 
ATOM     20  C   UNL A   1      31.692  26.945  26.815  1.00  0.00     0.027 A 
ATOM     21  C   UNL A   1      30.960  28.168  24.266  1.00  0.00     0.027 A 
ATOM     22  C   UNL A   1      32.011  28.272  26.466  1.00  0.00     0.003 A 
ATOM     23  Br  UNL A   1      30.640  29.028  22.615  1.00  0.00    -0.050 Br
ATOM     24  C   UNL A   1      31.638  28.865  25.267  1.00  0.00     0.016 A 
ENDBRANCH  14  15
ENDBRANCH  11  14
ENDBRANCH   6  10
ENDBRANCH   4   6
ENDBRANCH   3   4
ENDBRANCH   2   3
ENDBRANCH   1   2
BRANCH   1  25
ATOM     25  O   UNL A   1      39.990  19.060  25.714  1.00  0.00    -0.374 OA
BRANCH  25  26
ATOM     26  C   UNL A   1      41.951  19.870  25.808  1.00  0.00     0.202 C 
BRANCH  26  27
ATOM     27  C   UNL A   1      42.252  21.542  26.558  1.00  0.00     0.261 C 
BRANCH  27  28
ATOM     28  O   UNL A   1      42.583  22.854  25.744  1.00  0.00    -0.460 OA
BRANCH  28  29
ATOM     29  C   UNL A   1      42.431  24.247  25.890  1.00  0.00     0.338 C 
ATOM     30  O   UNL A   1      42.827  25.231  25.280  1.00  0.00    -0.246 OA
BRANCH  29  31
ATOM     31  C   UNL A   1      41.503  24.600  26.914  1.00  0.00     0.060 A 
ATOM     32  C   UNL A   1      40.369  25.300  26.476  1.00  0.00     0.016 A 
ATOM     33  C   UNL A   1      42.020  24.666  28.169  1.00  0.00     0.016 A 
ATOM     34  C   UNL A   1      40.234  26.539  27.019  1.00  0.00     0.010 A 
ATOM     35  C   UNL A   1      41.627  25.765  28.813  1.00  0.00     0.010 A 
ATOM     36  C   UNL A   1      41.081  26.823  28.081  1.00  0.00    -0.014 A 
BRANCH  36  37
ATOM     37  C   UNL A   1      41.028  28.082  28.772  1.00  0.00     0.031 A 
ATOM     38  C   UNL A   1      42.249  28.818  28.346  1.00  0.00     0.074 A 
ATOM     39  C   UNL A   1      39.978  28.452  29.541  1.00  0.00     0.049 A 
ATOM     40  N   UNL A   1      43.404  28.696  28.924  1.00  0.00    -0.248 NA
ATOM     41  C   UNL A   1      42.374  29.298  26.944  1.00  0.00     0.031 C 
ATOM     42  C   UNL A   1      38.712  27.781  29.883  1.00  0.00     0.029 A 
ATOM     43  N   UNL A   1      39.842  29.635  30.210  1.00  0.00    -0.354 N 
ATOM     44  C   UNL A   1      44.272  29.386  28.094  1.00  0.00     0.074 A 
ATOM     45  C   UNL A   1      43.702  29.300  26.791  1.00  0.00     0.031 C 
ATOM     46  C   UNL A   1      37.846  28.676  30.436  1.00  0.00     0.029 A 
ATOM     47  C   UNL A   1      38.529  29.940  30.618  1.00  0.00     0.049 A 
ATOM     48  H   UNL A   1      40.605  30.230  30.394  1.00  0.00     0.167 HD
ATOM     49  C   UNL A   1      45.027  30.391  28.616  1.00  0.00     0.037 A 
ATOM     50  C   UNL A   1      38.132  31.177  31.047  1.00  0.00     0.037 A 
ATOM     51  C   UNL A   1      45.065  30.254  30.053  1.00  0.00     0.049 A 
ATOM     52  C   UNL A   1      39.392  31.879  31.453  1.00  0.00     0.074 A 
ATOM     53  C   UNL A   1      45.507  29.264  30.907  1.00  0.00     0.029 A 
ATOM     54  N   UNL A   1      44.125  30.982  30.741  1.00  0.00    -0.354 N 
ATOM     55  N   UNL A   1      40.128  31.456  32.451  1.00  0.00    -0.248 NA
ATOM     56  C   UNL A   1      40.101  32.577  30.382  1.00  0.00     0.031 C 
ATOM     57  C   UNL A   1      44.512  29.179  31.923  1.00  0.00     0.029 A 
ATOM     58  C   UNL A   1      43.596  30.215  31.745  1.00  0.00     0.049 A 
ATOM     59  H   UNL A   1      43.870  31.912  30.543  1.00  0.00     0.167 HD
ATOM     60  C   UNL A   1      41.415  31.418  31.933  1.00  0.00     0.074 A 
ATOM     61  C   UNL A   1      41.332  32.117  30.644  1.00  0.00     0.031 C 
ATOM     62  C   UNL A   1      42.341  30.525  32.394  1.00  0.00     0.037 A 
BRANCH  49  63
ATOM     63  C   UNL A   1      45.280  31.717  27.929  1.00  0.00     0.064 A 
ATOM     64  C   UNL A   1      44.167  32.532  27.655  1.00  0.00     0.173 A 
ATOM     65  C   UNL A   1      46.484  32.117  27.299  1.00  0.00     0.173 A 
ATOM     66  F   UNL A   1      42.966  32.240  28.176  1.00  0.00    -0.203 F 
ATOM     67  C   UNL A   1      44.242  33.617  26.778  1.00  0.00     0.198 A 
ATOM     68  C   UNL A   1      46.565  33.224  26.461  1.00  0.00     0.198 A 
ATOM     69  F   UNL A   1      47.619  31.419  27.366  1.00  0.00    -0.203 F 
ATOM     70  F   UNL A   1      43.130  34.295  26.468  1.00  0.00    -0.200 F 
ATOM     71  C   UNL A   1      45.440  33.962  26.180  1.00  0.00     0.200 A 
ATOM     72  F   UNL A   1      47.734  33.517  25.873  1.00  0.00    -0.200 F 
ATOM     73  F   UNL A   1      45.504  34.974  25.307  1.00  0.00    -0.200 F 
ENDBRANCH  49  63
BRANCH  50  74
ATOM     74  C   UNL A   1      36.886  31.941  30.734  1.00  0.00     0.064 A 
ATOM     75  C   UNL A   1      36.065  32.495  31.742  1.00  0.00     0.173 A 
ATOM     76  C   UNL A   1      36.651  32.413  29.431  1.00  0.00     0.173 A 
ATOM     77  F   UNL A   1      36.238  32.143  33.025  1.00  0.00    -0.203 F 
ATOM     78  C   UNL A   1      35.100  33.478  31.461  1.00  0.00     0.198 A 
ATOM     79  C   UNL A   1      35.697  33.399  29.153  1.00  0.00     0.198 A 
ATOM     80  F   UNL A   1      37.412  31.998  28.410  1.00  0.00    -0.203 F 
ATOM     81  F   UNL A   1      34.376  34.018  32.452  1.00  0.00    -0.200 F 
ATOM     82  C   UNL A   1      34.931  33.941  30.167  1.00  0.00     0.200 A 
ATOM     83  F   UNL A   1      35.574  33.866  27.903  1.00  0.00    -0.200 F 
ATOM     84  F   UNL A   1      34.066  34.932  29.903  1.00  0.00    -0.200 F 
ENDBRANCH  50  74
BRANCH  62  85
ATOM     85  C   UNL A   1      42.022  29.690  33.608  1.00  0.00     0.064 A 
ATOM     86  C   UNL A   1      41.552  28.363  33.573  1.00  0.00     0.173 A 
ATOM     87  C   UNL A   1      42.475  30.174  34.840  1.00  0.00     0.173 A 
ATOM     88  F   UNL A   1      41.185  27.791  32.419  1.00  0.00    -0.203 F 
ATOM     89  C   UNL A   1      41.538  27.568  34.723  1.00  0.00     0.198 A 
ATOM     90  C   UNL A   1      42.495  29.372  35.974  1.00  0.00     0.198 A 
ATOM     91  F   UNL A   1      42.994  31.410  34.914  1.00  0.00    -0.203 F 
ATOM     92  F   UNL A   1      41.111  26.297  34.663  1.00  0.00    -0.200 F 
ATOM     93  C   UNL A   1      42.024  28.070  35.920  1.00  0.00     0.200 A 
ATOM     94  F   UNL A   1      43.028  29.845  37.109  1.00  0.00    -0.200 F 
ATOM     95  F   UNL A   1      42.073  27.292  37.010  1.00  0.00    -0.200 F 
ENDBRANCH  62  85
ENDBRANCH  36  37
ENDBRANCH  29  31
ENDBRANCH  28  29
ENDBRANCH  27  28
ENDBRANCH  26  27
ENDBRANCH  25  26
ENDBRANCH   1  25
TORSDOF 18
ENDMDL
MODEL 2
REMARK VINA RESULT:     -13.4      2.828      4.431
REMARK SMILES CC(C)[C@H](NC(=O)Cn1ccc2c(Br)cccc21)C(=O)OCCOCCOC(=O)c1ccc(-c2c3nc(c(-c4c(F)c(F)c(F)c(F)c4F)c4ccc([nH]4)c(-c4c(F)c(F)c(F)c(F)c4F)c4nc(c(-c5c(F)c(F)c(F)c(F)c5F)c5ccc2[nH]5)C=C4)C=C3)cc1
REMARK SMILES IDX 23 1 22 2 21 3 19 4 20 5 4 6 2 7 1 8 3 9 5 10 6 11 7 13 8 14
REMARK SMILES IDX 9 15 10 16 18 17 11 18 12 19 17 20 13 21 16 22 14 23 15 24
REMARK SMILES IDX 24 25 25 26 26 27 27 28 28 29 29 30 30 31 31 32 92 33 32 34
REMARK SMILES IDX 91 35 33 36 34 37 35 38 85 39 36 40 90 41 84 42 86 43 37 44
REMARK SMILES IDX 89 45 83 46 82 47 38 49 70 50 50 51 69 52 51 53 54 54 68 55
REMARK SMILES IDX 87 56 52 57 53 58 67 60 88 61 55 62 39 63 40 64 48 65 41 66
REMARK SMILES IDX 42 67 46 68 49 69 43 70 44 71 47 72 45 73 71 74 72 75 80 76
REMARK SMILES IDX 73 77 74 78 78 79 81 80 75 81 76 82 79 83 77 84 56 85 57 86
REMARK SMILES IDX 65 87 58 88 59 89 63 90 66 91 60 92 61 93 64 94 62 95
REMARK H PARENT 5 12 86 48 54 59
REMARK Flexibility Score: inf
ROOT
ATOM      1  C   UNL A   1      38.513  22.723  25.656  1.00  0.00     0.202 C 
ENDROOT
BRANCH   1   2
ATOM      2  C   UNL A   1      37.194  23.620  26.132  1.00  0.00     0.261 C 
BRANCH   2   3
ATOM      3  O   UNL A   1      35.940  23.571  25.327  1.00  0.00    -0.462 OA
BRANCH   3   4
ATOM      4  C   UNL A   1      34.688  23.307  25.795  1.00  0.00     0.328 C 
ATOM      5  O   UNL A   1      34.419  23.185  26.983  1.00  0.00    -0.250 OA
BRANCH   4   6
ATOM      6  C   UNL A   1      33.618  23.177  24.638  1.00  0.00     0.194 C 
BRANCH   6   7
ATOM      7  C   UNL A   1      33.176  21.695  24.546  1.00  0.00     0.017 C 
ATOM      8  C   UNL A   1      32.426  21.311  23.262  1.00  0.00     0.010 C 
ATOM      9  C   UNL A   1      34.373  20.763  24.726  1.00  0.00     0.010 C 
ENDBRANCH   6   7
BRANCH   6  10
ATOM     10  N   UNL A   1      33.744  23.768  23.290  1.00  0.00    -0.341 N 
ATOM     11  C   UNL A   1      33.248  24.890  22.739  1.00  0.00     0.240 C 
ATOM     12  H   UNL A   1      34.300  23.237  22.674  1.00  0.00     0.164 HD
ATOM     13  O   UNL A   1      33.980  25.495  21.948  1.00  0.00    -0.273 OA
BRANCH  11  14
ATOM     14  C   UNL A   1      31.832  25.326  22.982  1.00  0.00     0.222 C 
BRANCH  14  15
ATOM     15  N   UNL A   1      31.601  26.591  23.774  1.00  0.00    -0.338 N 
ATOM     16  C   UNL A   1      30.454  27.883  22.958  1.00  0.00     0.087 A 
ATOM     17  C   UNL A   1      32.310  27.461  25.354  1.00  0.00     0.050 A 
ATOM     18  C   UNL A   1      30.492  29.343  23.923  1.00  0.00     0.029 A 
ATOM     19  C   UNL A   1      31.608  29.091  25.426  1.00  0.00     0.014 A 
ATOM     20  C   UNL A   1      33.526  27.491  26.200  1.00  0.00     0.027 A 
ATOM     21  C   UNL A   1      32.120  30.049  26.321  1.00  0.00     0.027 A 
ATOM     22  C   UNL A   1      34.009  28.616  26.899  1.00  0.00     0.003 A 
ATOM     23  Br  UNL A   1      31.361  31.778  26.377  1.00  0.00    -0.050 Br
ATOM     24  C   UNL A   1      33.328  29.823  26.982  1.00  0.00     0.016 A 
ENDBRANCH  14  15
ENDBRANCH  11  14
ENDBRANCH   6  10
ENDBRANCH   4   6
ENDBRANCH   3   4
ENDBRANCH   2   3
ENDBRANCH   1   2
BRANCH   1  25
ATOM     25  O   UNL A   1      39.261  21.512  26.568  1.00  0.00    -0.374 OA
BRANCH  25  26
ATOM     26  C   UNL A   1      41.254  21.150  27.207  1.00  0.00     0.202 C 
BRANCH  26  27
ATOM     27  C   UNL A   1      42.398  20.095  26.193  1.00  0.00     0.261 C 
BRANCH  27  28
ATOM     28  O   UNL A   1      43.320  20.622  25.025  1.00  0.00    -0.460 OA
BRANCH  28  29
ATOM     29  C   UNL A   1      44.682  20.913  24.812  1.00  0.00     0.338 C 
ATOM     30  O   UNL A   1      45.700  20.247  24.683  1.00  0.00    -0.246 OA
BRANCH  29  31
ATOM     31  C   UNL A   1      44.924  22.297  24.571  1.00  0.00     0.060 A 
ATOM     32  C   UNL A   1      46.114  22.800  25.118  1.00  0.00     0.016 A 
ATOM     33  C   UNL A   1      43.819  23.042  24.299  1.00  0.00     0.016 A 
ATOM     34  C   UNL A   1      45.935  23.797  26.024  1.00  0.00     0.010 A 
ATOM     35  C   UNL A   1      43.806  24.183  24.987  1.00  0.00     0.010 A 
ATOM     36  C   UNL A   1      44.652  24.322  26.090  1.00  0.00    -0.014 A 
BRANCH  36  37
ATOM     37  C   UNL A   1      44.324  25.403  26.979  1.00  0.00     0.031 A 
ATOM     38  C   UNL A   1      45.381  26.427  26.762  1.00  0.00     0.074 A 
ATOM     39  C   UNL A   1      43.199  25.418  27.730  1.00  0.00     0.049 A 
ATOM     40  N   UNL A   1      46.519  26.432  27.384  1.00  0.00    -0.248 NA
ATOM     41  C   UNL A   1      45.446  27.164  25.472  1.00  0.00     0.031 C 
ATOM     42  C   UNL A   1      42.086  24.463  27.873  1.00  0.00     0.029 A 
ATOM     43  N   UNL A   1      42.806  26.413  28.580  1.00  0.00    -0.354 N 
ATOM     44  C   UNL A   1      47.253  27.415  26.740  1.00  0.00     0.074 A 
ATOM     45  C   UNL A   1      46.750  27.452  25.407  1.00  0.00     0.031 C 
ATOM     46  C   UNL A   1      41.040  25.058  28.512  1.00  0.00     0.029 A 
ATOM     47  C   UNL A   1      41.446  26.378  28.948  1.00  0.00     0.049 A 
ATOM     48  H   UNL A   1      43.426  27.103  28.910  1.00  0.00     0.167 HD
ATOM     49  C   UNL A   1      47.772  28.438  27.471  1.00  0.00     0.037 A 
ATOM     50  C   UNL A   1      40.794  27.417  29.553  1.00  0.00     0.037 A 
ATOM     51  C   UNL A   1      47.796  28.058  28.864  1.00  0.00     0.049 A 
ATOM     52  C   UNL A   1      41.873  28.267  30.152  1.00  0.00     0.074 A 
ATOM     53  C   UNL A   1      48.405  27.037  29.566  1.00  0.00     0.029 A 
ATOM     54  N   UNL A   1      46.707  28.454  29.604  1.00  0.00    -0.354 N 
ATOM     55  N   UNL A   1      42.650  27.826  31.110  1.00  0.00    -0.248 NA
ATOM     56  C   UNL A   1      42.455  29.270  29.262  1.00  0.00     0.031 C 
ATOM     57  C   UNL A   1      47.419  26.579  30.486  1.00  0.00     0.029 A 
ATOM     58  C   UNL A   1      46.317  27.432  30.428  1.00  0.00     0.049 A 
ATOM     59  H   UNL A   1      46.275  29.336  29.550  1.00  0.00     0.167 HD
ATOM     60  C   UNL A   1      43.932  28.132  30.676  1.00  0.00     0.074 A 
ATOM     61  C   UNL A   1      43.746  29.020  29.521  1.00  0.00     0.031 C 
ATOM     62  C   UNL A   1      45.007  27.370  31.038  1.00  0.00     0.037 A 
BRANCH  49  63
ATOM     63  C   UNL A   1      47.769  29.889  27.035  1.00  0.00     0.064 A 
ATOM     64  C   UNL A   1      48.978  30.600  27.126  1.00  0.00     0.173 A 
ATOM     65  C   UNL A   1      46.624  30.685  26.787  1.00  0.00     0.173 A 
ATOM     66  F   UNL A   1      50.127  29.957  27.383  1.00  0.00    -0.203 F 
ATOM     67  C   UNL A   1      49.028  31.993  27.037  1.00  0.00     0.198 A 
ATOM     68  C   UNL A   1      46.683  32.069  26.653  1.00  0.00     0.198 A 
ATOM     69  F   UNL A   1      45.381  30.202  26.758  1.00  0.00    -0.203 F 
ATOM     70  F   UNL A   1      50.188  32.629  27.238  1.00  0.00    -0.200 F 
ATOM     71  C   UNL A   1      47.879  32.727  26.802  1.00  0.00     0.200 A 
ATOM     72  F   UNL A   1      45.548  32.757  26.455  1.00  0.00    -0.200 F 
ATOM     73  F   UNL A   1      47.917  34.064  26.759  1.00  0.00    -0.200 F 
ENDBRANCH  49  63
BRANCH  50  74
ATOM     74  C   UNL A   1      39.428  27.966  29.295  1.00  0.00     0.064 A 
ATOM     75  C   UNL A   1      38.483  28.162  30.328  1.00  0.00     0.173 A 
ATOM     76  C   UNL A   1      39.139  28.606  28.077  1.00  0.00     0.173 A 
ATOM     77  F   UNL A   1      38.689  27.630  31.542  1.00  0.00    -0.203 F 
ATOM     78  C   UNL A   1      37.348  28.972  30.155  1.00  0.00     0.198 A 
ATOM     79  C   UNL A   1      38.013  29.420  27.909  1.00  0.00     0.198 A 
ATOM     80  F   UNL A   1      39.997  28.535  27.052  1.00  0.00    -0.203 F 
ATOM     81  F   UNL A   1      36.501  29.176  31.175  1.00  0.00    -0.200 F 
ATOM     82  C   UNL A   1      37.124  29.614  28.949  1.00  0.00     0.200 A 
ATOM     83  F   UNL A   1      37.833  30.068  26.749  1.00  0.00    -0.200 F 
ATOM     84  F   UNL A   1      36.084  30.448  28.801  1.00  0.00    -0.200 F 
ENDBRANCH  50  74
BRANCH  62  85
ATOM     85  C   UNL A   1      44.830  26.285  32.071  1.00  0.00     0.064 A 
ATOM     86  C   UNL A   1      44.625  26.508  33.445  1.00  0.00     0.173 A 
ATOM     87  C   UNL A   1      44.589  24.994  31.589  1.00  0.00     0.173 A 
ATOM     88  F   UNL A   1      44.745  27.733  33.972  1.00  0.00    -0.203 F 
ATOM     89  C   UNL A   1      44.201  25.478  34.291  1.00  0.00     0.198 A 
ATOM     90  C   UNL A   1      44.132  23.981  32.423  1.00  0.00     0.198 A 
ATOM     91  F   UNL A   1      44.705  24.745  30.276  1.00  0.00    -0.203 F 
ATOM     92  F   UNL A   1      43.985  25.717  35.594  1.00  0.00    -0.200 F 
ATOM     93  C   UNL A   1      43.941  24.219  33.775  1.00  0.00     0.200 A 
ATOM     94  F   UNL A   1      43.820  22.787  31.902  1.00  0.00    -0.200 F 
ATOM     95  F   UNL A   1      43.472  23.246  34.568  1.00  0.00    -0.200 F 
ENDBRANCH  62  85
ENDBRANCH  36  37
ENDBRANCH  29  31
ENDBRANCH  28  29
ENDBRANCH  27  28
ENDBRANCH  26  27
ENDBRANCH  25  26
ENDBRANCH   1  25
TORSDOF 18
ENDMDL
MODEL 3
REMARK VINA RESULT:     -13.4      3.487      8.960
REMARK SMILES CC(C)[C@H](NC(=O)Cn1ccc2c(Br)cccc21)C(=O)OCCOCCOC(=O)c1ccc(-c2c3nc(c(-c4c(F)c(F)c(F)c(F)c4F)c4ccc([nH]4)c(-c4c(F)c(F)c(F)c(F)c4F)c4nc(c(-c5c(F)c(F)c(F)c(F)c5F)c5ccc2[nH]5)C=C4)C=C3)cc1
REMARK SMILES IDX 23 1 22 2 21 3 19 4 20 5 4 6 2 7 1 8 3 9 5 10 6 11 7 13 8 14
REMARK SMILES IDX 9 15 10 16 18 17 11 18 12 19 17 20 13 21 16 22 14 23 15 24
REMARK SMILES IDX 24 25 25 26 26 27 27 28 28 29 29 30 30 31 31 32 92 33 32 34
REMARK SMILES IDX 91 35 33 36 34 37 35 38 85 39 36 40 90 41 84 42 86 43 37 44
REMARK SMILES IDX 89 45 83 46 82 47 38 49 70 50 50 51 69 52 51 53 54 54 68 55
REMARK SMILES IDX 87 56 52 57 53 58 67 60 88 61 55 62 39 63 40 64 48 65 41 66
REMARK SMILES IDX 42 67 46 68 49 69 43 70 44 71 47 72 45 73 71 74 72 75 80 76
REMARK SMILES IDX 73 77 74 78 78 79 81 80 75 81 76 82 79 83 77 84 56 85 57 86
REMARK SMILES IDX 65 87 58 88 59 89 63 90 66 91 60 92 61 93 64 94 62 95
REMARK H PARENT 5 12 86 48 54 59
REMARK Flexibility Score: inf
ROOT
ATOM      1  C   UNL A   1      33.788  30.054  27.191  1.00  0.00     0.202 C 
ENDROOT
BRANCH   1   2
ATOM      2  C   UNL A   1      32.795  28.802  26.725  1.00  0.00     0.261 C 
BRANCH   2   3
ATOM      3  O   UNL A   1      33.392  27.554  26.171  1.00  0.00    -0.462 OA
BRANCH   3   4
ATOM      4  C   UNL A   1      33.259  27.089  24.897  1.00  0.00     0.328 C 
ATOM      5  O   UNL A   1      34.078  27.291  24.011  1.00  0.00    -0.250 OA
BRANCH   4   6
ATOM      6  C   UNL A   1      31.929  26.259  24.685  1.00  0.00     0.194 C 
BRANCH   6   7
ATOM      7  C   UNL A   1      30.938  27.125  23.870  1.00  0.00     0.017 C 
ATOM      8  C   UNL A   1      31.206  27.184  22.358  1.00  0.00     0.010 C 
ATOM      9  C   UNL A   1      29.500  26.667  24.106  1.00  0.00     0.010 C 
ENDBRANCH   6   7
BRANCH   6  10
ATOM     10  N   UNL A   1      31.219  25.504  25.739  1.00  0.00    -0.341 N 
ATOM     11  C   UNL A   1      31.283  24.222  26.138  1.00  0.00     0.240 C 
ATOM     12  H   UNL A   1      30.573  26.046  26.248  1.00  0.00     0.164 HD
ATOM     13  O   UNL A   1      31.173  24.007  27.350  1.00  0.00    -0.273 OA
BRANCH  11  14
ATOM     14  C   UNL A   1      31.368  23.094  25.151  1.00  0.00     0.222 C 
BRANCH  14  15
ATOM     15  N   UNL A   1      32.710  22.438  24.930  1.00  0.00    -0.338 N 
ATOM     16  C   UNL A   1      32.698  20.529  24.850  1.00  0.00     0.087 A 
ATOM     17  C   UNL A   1      34.581  22.939  24.912  1.00  0.00     0.050 A 
ATOM     18  C   UNL A   1      34.354  19.967  24.808  1.00  0.00     0.029 A 
ATOM     19  C   UNL A   1      35.534  21.443  24.814  1.00  0.00     0.014 A 
ATOM     20  C   UNL A   1      35.496  23.983  25.431  1.00  0.00     0.027 A 
ATOM     21  C   UNL A   1      36.924  21.467  25.032  1.00  0.00     0.027 A 
ATOM     22  C   UNL A   1      36.847  23.788  25.782  1.00  0.00     0.003 A 
ATOM     23  Br  UNL A   1      37.916  19.862  24.926  1.00  0.00    -0.050 Br
ATOM     24  C   UNL A   1      37.536  22.601  25.566  1.00  0.00     0.016 A 
ENDBRANCH  14  15
ENDBRANCH  11  14
ENDBRANCH   6  10
ENDBRANCH   4   6
ENDBRANCH   3   4
ENDBRANCH   2   3
ENDBRANCH   1   2
BRANCH   1  25
ATOM     25  O   UNL A   1      33.280  31.611  27.607  1.00  0.00    -0.374 OA
BRANCH  25  26
ATOM     26  C   UNL A   1      34.245  33.324  28.411  1.00  0.00     0.202 C 
BRANCH  26  27
ATOM     27  C   UNL A   1      34.406  33.547  30.248  1.00  0.00     0.261 C 
BRANCH  27  28
ATOM     28  O   UNL A   1      35.569  32.951  31.134  1.00  0.00    -0.460 OA
BRANCH  28  29
ATOM     29  C   UNL A   1      36.252  31.728  31.286  1.00  0.00     0.338 C 
ATOM     30  O   UNL A   1      36.327  30.882  32.168  1.00  0.00    -0.246 OA
BRANCH  29  31
ATOM     31  C   UNL A   1      36.917  31.311  30.097  1.00  0.00     0.060 A 
ATOM     32  C   UNL A   1      36.616  30.009  29.669  1.00  0.00     0.016 A 
ATOM     33  C   UNL A   1      38.067  31.975  29.810  1.00  0.00     0.016 A 
ATOM     34  C   UNL A   1      37.687  29.175  29.622  1.00  0.00     0.010 A 
ATOM     35  C   UNL A   1      39.050  31.143  29.465  1.00  0.00     0.010 A 
ATOM     36  C   UNL A   1      38.927  29.784  29.763  1.00  0.00    -0.014 A 
BRANCH  36  37
ATOM     37  C   UNL A   1      40.149  29.031  29.701  1.00  0.00     0.031 A 
ATOM     38  C   UNL A   1      40.632  28.947  31.106  1.00  0.00     0.074 A 
ATOM     39  C   UNL A   1      40.608  28.471  28.558  1.00  0.00     0.049 A 
ATOM     40  N   UNL A   1      41.370  29.852  31.670  1.00  0.00    -0.248 NA
ATOM     41  C   UNL A   1      39.881  28.139  32.103  1.00  0.00     0.031 C 
ATOM     42  C   UNL A   1      40.083  28.450  27.182  1.00  0.00     0.029 A 
ATOM     43  N   UNL A   1      41.744  27.725  28.421  1.00  0.00    -0.354 N 
ATOM     44  C   UNL A   1      41.409  29.475  33.003  1.00  0.00     0.074 A 
ATOM     45  C   UNL A   1      40.189  28.777  33.236  1.00  0.00     0.031 C 
ATOM     46  C   UNL A   1      40.734  27.503  26.449  1.00  0.00     0.029 A 
ATOM     47  C   UNL A   1      41.807  26.948  27.248  1.00  0.00     0.049 A 
ATOM     48  H   UNL A   1      42.464  27.730  29.093  1.00  0.00     0.167 HD
ATOM     49  C   UNL A   1      42.616  29.280  33.600  1.00  0.00     0.037 A 
ATOM     50  C   UNL A   1      42.708  25.938  27.050  1.00  0.00     0.037 A 
ATOM     51  C   UNL A   1      43.642  29.921  32.810  1.00  0.00     0.049 A 
ATOM     52  C   UNL A   1      43.817  26.200  28.024  1.00  0.00     0.074 A 
ATOM     53  C   UNL A   1      43.869  31.224  32.415  1.00  0.00     0.029 A 
ATOM     54  N   UNL A   1      44.278  29.113  31.898  1.00  0.00    -0.354 N 
ATOM     55  N   UNL A   1      44.570  27.269  27.944  1.00  0.00    -0.248 NA
ATOM     56  C   UNL A   1      43.627  25.647  29.364  1.00  0.00     0.031 C 
ATOM     57  C   UNL A   1      44.274  31.134  31.052  1.00  0.00     0.029 A 
ATOM     58  C   UNL A   1      44.436  29.789  30.718  1.00  0.00     0.049 A 
ATOM     59  H   UNL A   1      44.574  28.189  32.067  1.00  0.00     0.167 HD
ATOM     60  C   UNL A   1      44.565  27.786  29.232  1.00  0.00     0.074 A 
ATOM     61  C   UNL A   1      43.957  26.740  30.065  1.00  0.00     0.031 C 
ATOM     62  C   UNL A   1      44.703  29.126  29.461  1.00  0.00     0.037 A 
BRANCH  49  63
ATOM     63  C   UNL A   1      42.928  28.140  34.547  1.00  0.00     0.064 A 
ATOM     64  C   UNL A   1      43.307  28.469  35.861  1.00  0.00     0.173 A 
ATOM     65  C   UNL A   1      43.129  26.785  34.188  1.00  0.00     0.173 A 
ATOM     66  F   UNL A   1      43.186  29.728  36.308  1.00  0.00    -0.203 F 
ATOM     67  C   UNL A   1      43.894  27.535  36.718  1.00  0.00     0.198 A 
ATOM     68  C   UNL A   1      43.672  25.847  35.060  1.00  0.00     0.198 A 
ATOM     69  F   UNL A   1      42.915  26.307  32.961  1.00  0.00    -0.203 F 
ATOM     70  F   UNL A   1      44.335  27.926  37.920  1.00  0.00    -0.200 F 
ATOM     71  C   UNL A   1      44.078  26.225  36.317  1.00  0.00     0.200 A 
ATOM     72  F   UNL A   1      43.865  24.590  34.632  1.00  0.00    -0.200 F 
ATOM     73  F   UNL A   1      44.678  25.339  37.121  1.00  0.00    -0.200 F 
ENDBRANCH  49  63
BRANCH  50  74
ATOM     74  C   UNL A   1      42.507  24.584  26.451  1.00  0.00     0.064 A 
ATOM     75  C   UNL A   1      43.388  24.044  25.487  1.00  0.00     0.173 A 
ATOM     76  C   UNL A   1      41.625  23.667  27.049  1.00  0.00     0.173 A 
ATOM     77  F   UNL A   1      44.299  24.827  24.889  1.00  0.00    -0.203 F 
ATOM     78  C   UNL A   1      43.401  22.674  25.174  1.00  0.00     0.198 A 
ATOM     79  C   UNL A   1      41.646  22.301  26.744  1.00  0.00     0.198 A 
ATOM     80  F   UNL A   1      40.789  24.061  28.018  1.00  0.00    -0.203 F 
ATOM     81  F   UNL A   1      44.288  22.190  24.291  1.00  0.00    -0.200 F 
ATOM     82  C   UNL A   1      42.540  21.801  25.817  1.00  0.00     0.200 A 
ATOM     83  F   UNL A   1      40.835  21.464  27.406  1.00  0.00    -0.200 F 
ATOM     84  F   UNL A   1      42.599  20.482  25.580  1.00  0.00    -0.200 F 
ENDBRANCH  50  74
BRANCH  62  85
ATOM     85  C   UNL A   1      45.049  30.040  28.313  1.00  0.00     0.064 A 
ATOM     86  C   UNL A   1      44.115  30.773  27.556  1.00  0.00     0.173 A 
ATOM     87  C   UNL A   1      46.397  30.383  28.168  1.00  0.00     0.173 A 
ATOM     88  F   UNL A   1      42.799  30.571  27.701  1.00  0.00    -0.203 F 
ATOM     89  C   UNL A   1      44.522  31.797  26.696  1.00  0.00     0.198 A 
ATOM     90  C   UNL A   1      46.798  31.426  27.341  1.00  0.00     0.198 A 
ATOM     91  F   UNL A   1      47.323  29.761  28.915  1.00  0.00    -0.203 F 
ATOM     92  F   UNL A   1      43.613  32.502  26.003  1.00  0.00    -0.200 F 
ATOM     93  C   UNL A   1      45.863  32.132  26.601  1.00  0.00     0.200 A 
ATOM     94  F   UNL A   1      48.088  31.784  27.308  1.00  0.00    -0.200 F 
ATOM     95  F   UNL A   1      46.253  33.155  25.828  1.00  0.00    -0.200 F 
ENDBRANCH  62  85
ENDBRANCH  36  37
ENDBRANCH  29  31
ENDBRANCH  28  29
ENDBRANCH  27  28
ENDBRANCH  26  27
ENDBRANCH  25  26
ENDBRANCH   1  25
TORSDOF 18
ENDMDL
