MODEL 1
REMARK VINA RESULT:     -10.4      0.000      0.000
REMARK SMILES CC[C@](C)(NS(=O)(=O)c1ccc(C(=O)OC)cc1)C(=O)OCCOCCOC(=O)c1ccc(-c2c3nc(c(-c4c(F)c(F)c(F)c(F)c4F)c4ccc([nH]4)c(-c4c(F)c(F)c(F)c(F)c4F)c4nc(c(-c5c(F)c(F)c(F)c(F)c5F)c5ccc2[nH]5)C=C4)C=C3)cc1
REMARK SMILES IDX 22 1 21 2 19 3 20 4 3 5 4 6 2 7 1 8 5 9 6 11 7 12 8 13 9 14
REMARK SMILES IDX 10 15 18 16 11 17 17 18 12 19 13 20 14 21 15 22 16 23 23 24
REMARK SMILES IDX 24 25 25 26 26 27 27 28 28 29 29 30 30 31 31 32 92 33 32 34
REMARK SMILES IDX 91 35 33 36 34 37 35 38 85 39 36 40 90 41 84 42 86 43 37 44
REMARK SMILES IDX 89 45 83 46 82 47 38 49 70 50 50 51 69 52 51 53 54 54 68 55
REMARK SMILES IDX 87 56 52 57 53 58 67 60 88 61 55 62 39 63 40 64 48 65 41 66
REMARK SMILES IDX 42 67 46 68 49 69 43 70 44 71 47 72 45 73 71 74 72 75 80 76
REMARK SMILES IDX 73 77 74 78 78 79 81 80 75 81 76 82 79 83 77 84 56 85 57 86
REMARK SMILES IDX 65 87 58 88 59 89 63 90 66 91 60 92 61 93 64 94 62 95
REMARK H PARENT 5 10 86 48 54 59
REMARK Flexibility Score: inf
ROOT
ATOM      1  C   UNL A   1      36.648  23.344  25.213  1.00  0.00     0.261 C 
ENDROOT
BRANCH   1   2
ATOM      2  O   UNL A   1      35.250  23.593  24.948  1.00  0.00    -0.462 OA
BRANCH   2   3
ATOM      3  C   UNL A   1      34.859  23.676  23.652  1.00  0.00     0.327 C 
ATOM      4  O   UNL A   1      35.560  23.306  22.715  1.00  0.00    -0.250 OA
BRANCH   3   5
ATOM      5  C   UNL A   1      33.443  24.294  23.478  1.00  0.00     0.127 C 
ATOM      6  C   UNL A   1      32.706  23.315  22.524  1.00  0.00     0.042 C 
BRANCH   5   7
ATOM      7  C   UNL A   1      33.533  25.689  22.833  1.00  0.00     0.032 C 
ATOM      8  C   UNL A   1      32.708  25.894  21.566  1.00  0.00     0.006 C 
ENDBRANCH   5   7
BRANCH   5   9
ATOM      9  N   UNL A   1      32.605  24.278  24.726  1.00  0.00    -0.194 NA
ATOM     10  H   UNL A   1      33.042  23.564  25.310  1.00  0.00     0.142 HD
BRANCH   9  11
ATOM     11  S   UNL A   1      32.244  25.522  25.803  1.00  0.00     0.241 S 
ATOM     12  O   UNL A   1      31.516  24.991  26.932  1.00  0.00    -0.207 OA
ATOM     13  O   UNL A   1      33.491  26.233  25.973  1.00  0.00    -0.207 OA
BRANCH  11  14
ATOM     14  C   UNL A   1      31.185  26.620  24.904  1.00  0.00     0.082 A 
ATOM     15  C   UNL A   1      29.991  26.233  24.303  1.00  0.00     0.022 A 
ATOM     16  C   UNL A   1      31.599  27.929  24.793  1.00  0.00     0.022 A 
ATOM     17  C   UNL A   1      29.277  27.168  23.518  1.00  0.00     0.017 A 
ATOM     18  C   UNL A   1      30.923  28.837  23.998  1.00  0.00     0.017 A 
ATOM     19  C   UNL A   1      29.756  28.478  23.342  1.00  0.00     0.060 A 
BRANCH  19  20
ATOM     20  C   UNL A   1      29.071  29.513  22.503  1.00  0.00     0.337 C 
ATOM     21  O   UNL A   1      29.471  29.904  21.422  1.00  0.00    -0.246 OA
BRANCH  20  22
ATOM     22  O   UNL A   1      27.948  29.915  23.150  1.00  0.00    -0.465 OA
ATOM     23  C   UNL A   1      27.669  31.307  23.306  1.00  0.00     0.282 C 
ENDBRANCH  20  22
ENDBRANCH  19  20
ENDBRANCH  11  14
ENDBRANCH   9  11
ENDBRANCH   5   9
ENDBRANCH   3   5
ENDBRANCH   2   3
ENDBRANCH   1   2
BRANCH   1  24
ATOM     24  C   UNL A   1      36.915  21.862  25.538  1.00  0.00     0.202 C 
BRANCH  24  25
ATOM     25  O   UNL A   1      38.110  21.342  24.963  1.00  0.00    -0.374 OA
BRANCH  25  26
ATOM     26  C   UNL A   1      39.245  21.241  25.829  1.00  0.00     0.202 C 
BRANCH  26  27
ATOM     27  C   UNL A   1      39.705  19.807  26.172  1.00  0.00     0.261 C 
BRANCH  27  28
ATOM     28  O   UNL A   1      40.961  19.413  25.547  1.00  0.00    -0.460 OA
BRANCH  28  29
ATOM     29  C   UNL A   1      42.068  19.448  26.338  1.00  0.00     0.338 C 
ATOM     30  O   UNL A   1      42.608  18.465  26.825  1.00  0.00    -0.246 OA
BRANCH  29  31
ATOM     31  C   UNL A   1      42.656  20.817  26.521  1.00  0.00     0.060 A 
ATOM     32  C   UNL A   1      42.551  21.385  27.801  1.00  0.00     0.016 A 
ATOM     33  C   UNL A   1      43.249  21.577  25.505  1.00  0.00     0.016 A 
ATOM     34  C   UNL A   1      43.012  22.684  28.064  1.00  0.00     0.010 A 
ATOM     35  C   UNL A   1      43.708  22.893  25.771  1.00  0.00     0.010 A 
ATOM     36  C   UNL A   1      43.579  23.468  27.049  1.00  0.00    -0.014 A 
BRANCH  36  37
ATOM     37  C   UNL A   1      43.954  24.887  27.360  1.00  0.00     0.031 A 
ATOM     38  C   UNL A   1      42.888  25.905  27.641  1.00  0.00     0.074 A 
ATOM     39  C   UNL A   1      45.236  25.269  27.521  1.00  0.00     0.049 A 
ATOM     40  N   UNL A   1      43.010  27.110  28.142  1.00  0.00    -0.248 NA
ATOM     41  C   UNL A   1      41.507  25.509  27.342  1.00  0.00     0.031 C 
ATOM     42  C   UNL A   1      46.373  24.392  27.334  1.00  0.00     0.029 A 
ATOM     43  N   UNL A   1      45.809  26.465  27.894  1.00  0.00    -0.354 N 
ATOM     44  C   UNL A   1      41.720  27.592  28.281  1.00  0.00     0.074 A 
ATOM     45  C   UNL A   1      40.833  26.579  27.740  1.00  0.00     0.031 C 
ATOM     46  C   UNL A   1      47.512  25.055  27.580  1.00  0.00     0.029 A 
ATOM     47  C   UNL A   1      47.186  26.427  27.951  1.00  0.00     0.049 A 
ATOM     48  H   UNL A   1      45.284  27.272  28.101  1.00  0.00     0.167 HD
ATOM     49  C   UNL A   1      41.308  28.756  28.839  1.00  0.00     0.037 A 
ATOM     50  C   UNL A   1      48.088  27.371  28.283  1.00  0.00     0.037 A 
ATOM     51  C   UNL A   1      42.176  29.799  29.322  1.00  0.00     0.049 A 
ATOM     52  C   UNL A   1      47.607  28.705  28.786  1.00  0.00     0.074 A 
ATOM     53  C   UNL A   1      41.833  31.023  29.874  1.00  0.00     0.029 A 
ATOM     54  N   UNL A   1      43.563  29.755  29.293  1.00  0.00    -0.354 N 
ATOM     55  N   UNL A   1      46.379  29.114  28.986  1.00  0.00    -0.248 NA
ATOM     56  C   UNL A   1      48.634  29.694  29.144  1.00  0.00     0.031 C 
ATOM     57  C   UNL A   1      43.009  31.737  30.133  1.00  0.00     0.029 A 
ATOM     58  C   UNL A   1      44.089  30.942  29.787  1.00  0.00     0.049 A 
ATOM     59  H   UNL A   1      44.097  28.994  28.968  1.00  0.00     0.167 HD
ATOM     60  C   UNL A   1      46.486  30.388  29.525  1.00  0.00     0.074 A 
ATOM     61  C   UNL A   1      47.899  30.679  29.639  1.00  0.00     0.031 C 
ATOM     62  C   UNL A   1      45.495  31.236  29.895  1.00  0.00     0.037 A 
BRANCH  49  63
ATOM     63  C   UNL A   1      39.827  28.955  28.956  1.00  0.00     0.064 A 
ATOM     64  C   UNL A   1      39.169  28.768  30.182  1.00  0.00     0.173 A 
ATOM     65  C   UNL A   1      39.062  29.344  27.849  1.00  0.00     0.173 A 
ATOM     66  F   UNL A   1      39.859  28.382  31.266  1.00  0.00    -0.203 F 
ATOM     67  C   UNL A   1      37.793  28.941  30.287  1.00  0.00     0.198 A 
ATOM     68  C   UNL A   1      37.689  29.538  27.964  1.00  0.00     0.198 A 
ATOM     69  F   UNL A   1      39.647  29.536  26.657  1.00  0.00    -0.203 F 
ATOM     70  F   UNL A   1      37.178  28.715  31.457  1.00  0.00    -0.200 F 
ATOM     71  C   UNL A   1      37.054  29.329  29.180  1.00  0.00     0.200 A 
ATOM     72  F   UNL A   1      36.976  29.919  26.894  1.00  0.00    -0.200 F 
ATOM     73  F   UNL A   1      35.729  29.494  29.282  1.00  0.00    -0.200 F 
ENDBRANCH  49  63
BRANCH  50  74
ATOM     74  C   UNL A   1      49.547  27.090  28.171  1.00  0.00     0.064 A 
ATOM     75  C   UNL A   1      50.227  27.213  26.951  1.00  0.00     0.173 A 
ATOM     76  C   UNL A   1      50.278  26.638  29.280  1.00  0.00     0.173 A 
ATOM     77  F   UNL A   1      49.568  27.609  25.852  1.00  0.00    -0.203 F 
ATOM     78  C   UNL A   1      51.574  26.869  26.839  1.00  0.00     0.198 A 
ATOM     79  C   UNL A   1      51.632  26.322  29.173  1.00  0.00     0.198 A 
ATOM     80  F   UNL A   1      49.675  26.496  30.470  1.00  0.00    -0.203 F 
ATOM     81  F   UNL A   1      52.184  26.936  25.647  1.00  0.00    -0.200 F 
ATOM     82  C   UNL A   1      52.276  26.426  27.950  1.00  0.00     0.200 A 
ATOM     83  F   UNL A   1      52.306  25.897  30.251  1.00  0.00    -0.200 F 
ATOM     84  F   UNL A   1      53.567  26.085  27.839  1.00  0.00    -0.200 F 
ENDBRANCH  50  74
BRANCH  62  85
ATOM     85  C   UNL A   1      45.910  32.558  30.476  1.00  0.00     0.064 A 
ATOM     86  C   UNL A   1      46.048  33.702  29.676  1.00  0.00     0.173 A 
ATOM     87  C   UNL A   1      46.170  32.684  31.849  1.00  0.00     0.173 A 
ATOM     88  F   UNL A   1      45.828  33.631  28.354  1.00  0.00    -0.203 F 
ATOM     89  C   UNL A   1      46.467  34.913  30.221  1.00  0.00     0.198 A 
ATOM     90  C   UNL A   1      46.560  33.904  32.396  1.00  0.00     0.198 A 
ATOM     91  F   UNL A   1      46.051  31.623  32.661  1.00  0.00    -0.203 F 
ATOM     92  F   UNL A   1      46.650  35.977  29.425  1.00  0.00    -0.200 F 
ATOM     93  C   UNL A   1      46.717  35.015  31.581  1.00  0.00     0.200 A 
ATOM     94  F   UNL A   1      46.792  34.003  33.712  1.00  0.00    -0.200 F 
ATOM     95  F   UNL A   1      47.122  36.180  32.104  1.00  0.00    -0.200 F 
ENDBRANCH  62  85
ENDBRANCH  36  37
ENDBRANCH  29  31
ENDBRANCH  28  29
ENDBRANCH  27  28
ENDBRANCH  26  27
ENDBRANCH  25  26
ENDBRANCH  24  25
ENDBRANCH   1  24
TORSDOF 20
ENDMDL
MODEL 2
REMARK VINA RESULT:     -10.4      2.039      7.644
REMARK SMILES CC[C@](C)(NS(=O)(=O)c1ccc(C(=O)OC)cc1)C(=O)OCCOCCOC(=O)c1ccc(-c2c3nc(c(-c4c(F)c(F)c(F)c(F)c4F)c4ccc([nH]4)c(-c4c(F)c(F)c(F)c(F)c4F)c4nc(c(-c5c(F)c(F)c(F)c(F)c5F)c5ccc2[nH]5)C=C4)C=C3)cc1
REMARK SMILES IDX 22 1 21 2 19 3 20 4 3 5 4 6 2 7 1 8 5 9 6 11 7 12 8 13 9 14
REMARK SMILES IDX 10 15 18 16 11 17 17 18 12 19 13 20 14 21 15 22 16 23 23 24
REMARK SMILES IDX 24 25 25 26 26 27 27 28 28 29 29 30 30 31 31 32 92 33 32 34
REMARK SMILES IDX 91 35 33 36 34 37 35 38 85 39 36 40 90 41 84 42 86 43 37 44
REMARK SMILES IDX 89 45 83 46 82 47 38 49 70 50 50 51 69 52 51 53 54 54 68 55
REMARK SMILES IDX 87 56 52 57 53 58 67 60 88 61 55 62 39 63 40 64 48 65 41 66
REMARK SMILES IDX 42 67 46 68 49 69 43 70 44 71 47 72 45 73 71 74 72 75 80 76
REMARK SMILES IDX 73 77 74 78 78 79 81 80 75 81 76 82 79 83 77 84 56 85 57 86
REMARK SMILES IDX 65 87 58 88 59 89 63 90 66 91 60 92 61 93 64 94 62 95
REMARK H PARENT 5 10 86 48 54 59
REMARK Flexibility Score: inf
ROOT
ATOM      1  C   UNL A   1      39.797  21.729  26.104  1.00  0.00     0.261 C 
ENDROOT
BRANCH   1   2
ATOM      2  O   UNL A   1      38.519  21.645  25.436  1.00  0.00    -0.462 OA
BRANCH   2   3
ATOM      3  C   UNL A   1      37.617  22.629  25.677  1.00  0.00     0.327 C 
ATOM      4  O   UNL A   1      37.931  23.743  26.084  1.00  0.00    -0.250 OA
BRANCH   3   5
ATOM      5  C   UNL A   1      36.150  22.195  25.396  1.00  0.00     0.127 C 
ATOM      6  C   UNL A   1      36.227  20.655  25.217  1.00  0.00     0.042 C 
BRANCH   5   7
ATOM      7  C   UNL A   1      35.628  22.849  24.104  1.00  0.00     0.032 C 
ATOM      8  C   UNL A   1      36.619  22.929  22.947  1.00  0.00     0.006 C 
ENDBRANCH   5   7
BRANCH   5   9
ATOM      9  N   UNL A   1      35.219  22.376  26.562  1.00  0.00    -0.194 NA
ATOM     10  H   UNL A   1      35.455  23.299  26.928  1.00  0.00     0.142 HD
BRANCH   9  11
ATOM     11  S   UNL A   1      33.536  22.328  26.622  1.00  0.00     0.241 S 
ATOM     12  O   UNL A   1      33.046  21.302  25.732  1.00  0.00    -0.207 OA
ATOM     13  O   UNL A   1      33.221  22.320  28.033  1.00  0.00    -0.207 OA
BRANCH  11  14
ATOM     14  C   UNL A   1      33.007  23.908  26.023  1.00  0.00     0.082 A 
ATOM     15  C   UNL A   1      33.760  25.073  26.127  1.00  0.00     0.022 A 
ATOM     16  C   UNL A   1      31.762  23.964  25.436  1.00  0.00     0.022 A 
ATOM     17  C   UNL A   1      33.197  26.302  25.711  1.00  0.00     0.017 A 
ATOM     18  C   UNL A   1      31.192  25.167  25.061  1.00  0.00     0.017 A 
ATOM     19  C   UNL A   1      31.890  26.357  25.194  1.00  0.00     0.060 A 
BRANCH  19  20
ATOM     20  C   UNL A   1      31.216  27.623  24.761  1.00  0.00     0.337 C 
ATOM     21  O   UNL A   1      31.740  28.721  24.760  1.00  0.00    -0.246 OA
BRANCH  20  22
ATOM     22  O   UNL A   1      29.951  27.323  24.370  1.00  0.00    -0.465 OA
ATOM     23  C   UNL A   1      29.462  27.783  23.109  1.00  0.00     0.282 C 
ENDBRANCH  20  22
ENDBRANCH  19  20
ENDBRANCH  11  14
ENDBRANCH   9  11
ENDBRANCH   5   9
ENDBRANCH   3   5
ENDBRANCH   2   3
ENDBRANCH   1   2
BRANCH   1  24
ATOM     24  C   UNL A   1      40.426  20.339  26.316  1.00  0.00     0.202 C 
BRANCH  24  25
ATOM     25  O   UNL A   1      41.850  20.339  26.354  1.00  0.00    -0.374 OA
BRANCH  25  26
ATOM     26  C   UNL A   1      42.480  19.121  26.762  1.00  0.00     0.202 C 
BRANCH  26  27
ATOM     27  C   UNL A   1      43.339  18.415  25.691  1.00  0.00     0.261 C 
BRANCH  27  28
ATOM     28  O   UNL A   1      43.509  19.175  24.460  1.00  0.00    -0.460 OA
BRANCH  28  29
ATOM     29  C   UNL A   1      44.768  19.617  24.189  1.00  0.00     0.338 C 
ATOM     30  O   UNL A   1      45.620  18.973  23.594  1.00  0.00    -0.246 OA
BRANCH  29  31
ATOM     31  C   UNL A   1      45.033  21.032  24.617  1.00  0.00     0.060 A 
ATOM     32  C   UNL A   1      45.414  21.228  25.954  1.00  0.00     0.016 A 
ATOM     33  C   UNL A   1      44.881  22.158  23.800  1.00  0.00     0.016 A 
ATOM     34  C   UNL A   1      45.626  22.515  26.472  1.00  0.00     0.010 A 
ATOM     35  C   UNL A   1      45.088  23.459  24.327  1.00  0.00     0.010 A 
ATOM     36  C   UNL A   1      45.446  23.653  25.675  1.00  0.00    -0.014 A 
BRANCH  36  37
ATOM     37  C   UNL A   1      45.579  25.006  26.309  1.00  0.00     0.031 A 
ATOM     38  C   UNL A   1      46.906  25.707  26.321  1.00  0.00     0.074 A 
ATOM     39  C   UNL A   1      44.512  25.687  26.771  1.00  0.00     0.049 A 
ATOM     40  N   UNL A   1      47.176  26.955  26.615  1.00  0.00    -0.248 NA
ATOM     41  C   UNL A   1      48.073  24.908  25.931  1.00  0.00     0.031 C 
ATOM     42  C   UNL A   1      43.160  25.167  26.782  1.00  0.00     0.029 A 
ATOM     43  N   UNL A   1      44.374  26.954  27.295  1.00  0.00    -0.354 N 
ATOM     44  C   UNL A   1      48.532  27.111  26.382  1.00  0.00     0.074 A 
ATOM     45  C   UNL A   1      49.044  25.809  25.996  1.00  0.00     0.031 C 
ATOM     46  C   UNL A   1      42.318  26.081  27.287  1.00  0.00     0.029 A 
ATOM     47  C   UNL A   1      43.079  27.274  27.640  1.00  0.00     0.049 A 
ATOM     48  H   UNL A   1      45.131  27.573  27.412  1.00  0.00     0.167 HD
ATOM     49  C   UNL A   1      49.277  28.241  26.450  1.00  0.00     0.037 A 
ATOM     50  C   UNL A   1      42.549  28.400  28.158  1.00  0.00     0.037 A 
ATOM     51  C   UNL A   1      48.799  29.525  26.893  1.00  0.00     0.049 A 
ATOM     52  C   UNL A   1      43.426  29.609  28.340  1.00  0.00     0.074 A 
ATOM     53  C   UNL A   1      49.502  30.712  27.018  1.00  0.00     0.029 A 
ATOM     54  N   UNL A   1      47.501  29.791  27.305  1.00  0.00    -0.354 N 
ATOM     55  N   UNL A   1      44.691  29.761  28.038  1.00  0.00    -0.248 NA
ATOM     56  C   UNL A   1      42.794  30.814  28.900  1.00  0.00     0.031 C 
ATOM     57  C   UNL A   1      48.644  31.682  27.551  1.00  0.00     0.029 A 
ATOM     58  C   UNL A   1      47.391  31.114  27.714  1.00  0.00     0.049 A 
ATOM     59  H   UNL A   1      46.765  29.138  27.308  1.00  0.00     0.167 HD
ATOM     60  C   UNL A   1      44.997  31.082  28.335  1.00  0.00     0.074 A 
ATOM     61  C   UNL A   1      43.781  31.695  28.823  1.00  0.00     0.031 C 
ATOM     62  C   UNL A   1      46.183  31.725  28.207  1.00  0.00     0.037 A 
BRANCH  49  63
ATOM     63  C   UNL A   1      50.709  28.124  26.024  1.00  0.00     0.064 A 
ATOM     64  C   UNL A   1      51.737  28.020  26.974  1.00  0.00     0.173 A 
ATOM     65  C   UNL A   1      51.059  28.102  24.668  1.00  0.00     0.173 A 
ATOM     66  F   UNL A   1      51.451  28.050  28.285  1.00  0.00    -0.203 F 
ATOM     67  C   UNL A   1      53.068  27.923  26.579  1.00  0.00     0.198 A 
ATOM     68  C   UNL A   1      52.389  27.983  24.276  1.00  0.00     0.198 A 
ATOM     69  F   UNL A   1      50.111  28.198  23.724  1.00  0.00    -0.203 F 
ATOM     70  F   UNL A   1      54.037  27.868  27.503  1.00  0.00    -0.200 F 
ATOM     71  C   UNL A   1      53.392  27.901  25.231  1.00  0.00     0.200 A 
ATOM     72  F   UNL A   1      52.702  27.956  22.974  1.00  0.00    -0.200 F 
ATOM     73  F   UNL A   1      54.674  27.810  24.852  1.00  0.00    -0.200 F 
ENDBRANCH  49  63
BRANCH  50  74
ATOM     74  C   UNL A   1      41.107  28.452  28.528  1.00  0.00     0.064 A 
ATOM     75  C   UNL A   1      40.136  28.924  27.633  1.00  0.00     0.173 A 
ATOM     76  C   UNL A   1      40.681  28.080  29.812  1.00  0.00     0.173 A 
ATOM     77  F   UNL A   1      40.494  29.324  26.404  1.00  0.00    -0.203 F 
ATOM     78  C   UNL A   1      38.801  29.046  28.016  1.00  0.00     0.198 A 
ATOM     79  C   UNL A   1      39.341  28.176  30.184  1.00  0.00     0.198 A 
ATOM     80  F   UNL A   1      41.570  27.629  30.710  1.00  0.00    -0.203 F 
ATOM     81  F   UNL A   1      37.905  29.559  27.162  1.00  0.00    -0.200 F 
ATOM     82  C   UNL A   1      38.404  28.670  29.291  1.00  0.00     0.200 A 
ATOM     83  F   UNL A   1      38.962  27.808  31.416  1.00  0.00    -0.200 F 
ATOM     84  F   UNL A   1      37.123  28.799  29.662  1.00  0.00    -0.200 F 
ENDBRANCH  50  74
BRANCH  62  85
ATOM     85  C   UNL A   1      46.216  33.177  28.588  1.00  0.00     0.064 A 
ATOM     86  C   UNL A   1      46.526  33.588  29.894  1.00  0.00     0.173 A 
ATOM     87  C   UNL A   1      45.938  34.171  27.638  1.00  0.00     0.173 A 
ATOM     88  F   UNL A   1      46.783  32.677  30.845  1.00  0.00    -0.203 F 
ATOM     89  C   UNL A   1      46.519  34.936  30.242  1.00  0.00     0.198 A 
ATOM     90  C   UNL A   1      45.961  35.521  27.983  1.00  0.00     0.198 A 
ATOM     91  F   UNL A   1      45.638  33.835  26.375  1.00  0.00    -0.203 F 
ATOM     92  F   UNL A   1      46.760  35.300  31.511  1.00  0.00    -0.200 F 
ATOM     93  C   UNL A   1      46.243  35.902  29.286  1.00  0.00     0.200 A 
ATOM     94  F   UNL A   1      45.703  36.452  27.055  1.00  0.00    -0.200 F 
ATOM     95  F   UNL A   1      46.235  37.198  29.624  1.00  0.00    -0.200 F 
ENDBRANCH  62  85
ENDBRANCH  36  37
ENDBRANCH  29  31
ENDBRANCH  28  29
ENDBRANCH  27  28
ENDBRANCH  26  27
ENDBRANCH  25  26
ENDBRANCH  24  25
ENDBRANCH   1  24
TORSDOF 20
ENDMDL
MODEL 3
REMARK VINA RESULT:     -10.3      5.194      9.316
REMARK SMILES CC[C@](C)(NS(=O)(=O)c1ccc(C(=O)OC)cc1)C(=O)OCCOCCOC(=O)c1ccc(-c2c3nc(c(-c4c(F)c(F)c(F)c(F)c4F)c4ccc([nH]4)c(-c4c(F)c(F)c(F)c(F)c4F)c4nc(c(-c5c(F)c(F)c(F)c(F)c5F)c5ccc2[nH]5)C=C4)C=C3)cc1
REMARK SMILES IDX 22 1 21 2 19 3 20 4 3 5 4 6 2 7 1 8 5 9 6 11 7 12 8 13 9 14
REMARK SMILES IDX 10 15 18 16 11 17 17 18 12 19 13 20 14 21 15 22 16 23 23 24
REMARK SMILES IDX 24 25 25 26 26 27 27 28 28 29 29 30 30 31 31 32 92 33 32 34
REMARK SMILES IDX 91 35 33 36 34 37 35 38 85 39 36 40 90 41 84 42 86 43 37 44
REMARK SMILES IDX 89 45 83 46 82 47 38 49 70 50 50 51 69 52 51 53 54 54 68 55
REMARK SMILES IDX 87 56 52 57 53 58 67 60 88 61 55 62 39 63 40 64 48 65 41 66
REMARK SMILES IDX 42 67 46 68 49 69 43 70 44 71 47 72 45 73 71 74 72 75 80 76
REMARK SMILES IDX 73 77 74 78 78 79 81 80 75 81 76 82 79 83 77 84 56 85 57 86
REMARK SMILES IDX 65 87 58 88 59 89 63 90 66 91 60 92 61 93 64 94 62 95
REMARK H PARENT 5 10 86 48 54 59
REMARK Flexibility Score: inf
ROOT
ATOM      1  C   UNL A   1      34.528  28.713  26.119  1.00  0.00     0.261 C 
ENDROOT
BRANCH   1   2
ATOM      2  O   UNL A   1      34.096  27.386  25.748  1.00  0.00    -0.462 OA
BRANCH   2   3
ATOM      3  C   UNL A   1      33.706  27.186  24.464  1.00  0.00     0.327 C 
ATOM      4  O   UNL A   1      33.765  28.056  23.602  1.00  0.00    -0.250 OA
BRANCH   3   5
ATOM      5  C   UNL A   1      33.168  25.750  24.205  1.00  0.00     0.127 C 
ATOM      6  C   UNL A   1      34.442  24.868  24.111  1.00  0.00     0.042 C 
BRANCH   5   7
ATOM      7  C   UNL A   1      32.389  25.692  22.878  1.00  0.00     0.032 C 
ATOM      8  C   UNL A   1      33.085  24.973  21.726  1.00  0.00     0.006 C 
ENDBRANCH   5   7
BRANCH   5   9
ATOM      9  N   UNL A   1      32.406  25.159  25.358  1.00  0.00    -0.194 NA
ATOM     10  H   UNL A   1      33.109  25.047  26.089  1.00  0.00     0.142 HD
BRANCH   9  11
ATOM     11  S   UNL A   1      31.054  25.742  26.176  1.00  0.00     0.241 S 
ATOM     12  O   UNL A   1      30.148  24.653  26.457  1.00  0.00    -0.207 OA
ATOM     13  O   UNL A   1      31.593  26.570  27.231  1.00  0.00    -0.207 OA
BRANCH  11  14
ATOM     14  C   UNL A   1      30.273  26.857  25.044  1.00  0.00     0.082 A 
ATOM     15  C   UNL A   1      29.257  26.492  24.166  1.00  0.00     0.022 A 
ATOM     16  C   UNL A   1      30.729  28.157  25.039  1.00  0.00     0.022 A 
ATOM     17  C   UNL A   1      28.778  27.438  23.230  1.00  0.00     0.017 A 
ATOM     18  C   UNL A   1      30.291  29.075  24.102  1.00  0.00     0.017 A 
ATOM     19  C   UNL A   1      29.314  28.737  23.178  1.00  0.00     0.060 A 
BRANCH  19  20
ATOM     20  C   UNL A   1      28.880  29.782  22.196  1.00  0.00     0.337 C 
ATOM     21  O   UNL A   1      29.497  30.091  21.194  1.00  0.00    -0.246 OA
BRANCH  20  22
ATOM     22  O   UNL A   1      27.696  30.299  22.616  1.00  0.00    -0.465 OA
ATOM     23  C   UNL A   1      27.655  31.588  23.231  1.00  0.00     0.282 C 
ENDBRANCH  20  22
ENDBRANCH  19  20
ENDBRANCH  11  14
ENDBRANCH   9  11
ENDBRANCH   5   9
ENDBRANCH   3   5
ENDBRANCH   2   3
ENDBRANCH   1   2
BRANCH   1  24
ATOM     24  C   UNL A   1      33.501  29.420  27.022  1.00  0.00     0.202 C 
BRANCH  24  25
ATOM     25  O   UNL A   1      33.811  30.780  27.310  1.00  0.00    -0.374 OA
BRANCH  25  26
ATOM     26  C   UNL A   1      32.701  31.661  27.508  1.00  0.00     0.202 C 
BRANCH  26  27
ATOM     27  C   UNL A   1      32.958  33.150  27.187  1.00  0.00     0.261 C 
BRANCH  27  28
ATOM     28  O   UNL A   1      32.189  34.082  28.001  1.00  0.00    -0.460 OA
BRANCH  28  29
ATOM     29  C   UNL A   1      32.903  34.997  28.713  1.00  0.00     0.338 C 
ATOM     30  O   UNL A   1      32.608  36.178  28.823  1.00  0.00    -0.246 OA
BRANCH  29  31
ATOM     31  C   UNL A   1      34.081  34.427  29.448  1.00  0.00     0.060 A 
ATOM     32  C   UNL A   1      35.334  34.545  28.825  1.00  0.00     0.016 A 
ATOM     33  C   UNL A   1      34.012  33.750  30.673  1.00  0.00     0.016 A 
ATOM     34  C   UNL A   1      36.490  33.992  29.398  1.00  0.00     0.010 A 
ATOM     35  C   UNL A   1      35.180  33.186  31.247  1.00  0.00     0.010 A 
ATOM     36  C   UNL A   1      36.430  33.285  30.607  1.00  0.00    -0.014 A 
BRANCH  36  37
ATOM     37  C   UNL A   1      37.676  32.623  31.116  1.00  0.00     0.031 A 
ATOM     38  C   UNL A   1      38.235  32.998  32.457  1.00  0.00     0.074 A 
ATOM     39  C   UNL A   1      38.259  31.598  30.463  1.00  0.00     0.049 A 
ATOM     40  N   UNL A   1      39.159  32.393  33.163  1.00  0.00    -0.248 NA
ATOM     41  C   UNL A   1      37.667  34.191  33.094  1.00  0.00     0.031 C 
ATOM     42  C   UNL A   1      37.807  31.088  29.185  1.00  0.00     0.029 A 
ATOM     43  N   UNL A   1      39.327  30.786  30.775  1.00  0.00    -0.354 N 
ATOM     44  C   UNL A   1      39.237  33.091  34.356  1.00  0.00     0.074 A 
ATOM     45  C   UNL A   1      38.322  34.212  34.247  1.00  0.00     0.031 C 
ATOM     46  C   UNL A   1      38.577  30.061  28.800  1.00  0.00     0.029 A 
ATOM     47  C   UNL A   1      39.594  29.830  29.820  1.00  0.00     0.049 A 
ATOM     48  H   UNL A   1      39.852  30.881  31.603  1.00  0.00     0.167 HD
ATOM     49  C   UNL A   1      39.977  32.807  35.455  1.00  0.00     0.037 A 
ATOM     50  C   UNL A   1      40.530  28.860  29.769  1.00  0.00     0.037 A 
ATOM     51  C   UNL A   1      40.937  31.737  35.556  1.00  0.00     0.049 A 
ATOM     52  C   UNL A   1      41.426  28.641  30.958  1.00  0.00     0.074 A 
ATOM     53  C   UNL A   1      41.749  31.403  36.628  1.00  0.00     0.029 A 
ATOM     54  N   UNL A   1      41.233  30.837  34.542  1.00  0.00    -0.354 N 
ATOM     55  N   UNL A   1      41.431  29.262  32.110  1.00  0.00    -0.248 NA
ATOM     56  C   UNL A   1      42.422  27.563  30.852  1.00  0.00     0.031 C 
ATOM     57  C   UNL A   1      42.570  30.335  36.247  1.00  0.00     0.029 A 
ATOM     58  C   UNL A   1      42.237  29.969  34.952  1.00  0.00     0.049 A 
ATOM     59  H   UNL A   1      40.796  30.817  33.660  1.00  0.00     0.167 HD
ATOM     60  C   UNL A   1      42.399  28.630  32.879  1.00  0.00     0.074 A 
ATOM     61  C   UNL A   1      42.949  27.565  32.069  1.00  0.00     0.031 C 
ATOM     62  C   UNL A   1      42.790  28.912  34.146  1.00  0.00     0.037 A 
BRANCH  49  63
ATOM     63  C   UNL A   1      39.765  33.685  36.650  1.00  0.00     0.064 A 
ATOM     64  C   UNL A   1      38.882  33.309  37.674  1.00  0.00     0.173 A 
ATOM     65  C   UNL A   1      40.453  34.899  36.784  1.00  0.00     0.173 A 
ATOM     66  F   UNL A   1      38.191  32.162  37.582  1.00  0.00    -0.203 F 
ATOM     67  C   UNL A   1      38.676  34.131  38.778  1.00  0.00     0.198 A 
ATOM     68  C   UNL A   1      40.261  35.707  37.901  1.00  0.00     0.198 A 
ATOM     69  F   UNL A   1      41.308  35.299  35.832  1.00  0.00    -0.203 F 
ATOM     70  F   UNL A   1      37.795  33.773  39.723  1.00  0.00    -0.200 F 
ATOM     71  C   UNL A   1      39.368  35.327  38.892  1.00  0.00     0.200 A 
ATOM     72  F   UNL A   1      40.934  36.860  38.014  1.00  0.00    -0.200 F 
ATOM     73  F   UNL A   1      39.168  36.117  39.955  1.00  0.00    -0.200 F 
ENDBRANCH  49  63
BRANCH  50  74
ATOM     74  C   UNL A   1      40.661  28.003  28.558  1.00  0.00     0.064 A 
ATOM     75  C   UNL A   1      41.413  28.411  27.447  1.00  0.00     0.173 A 
ATOM     76  C   UNL A   1      39.986  26.776  28.470  1.00  0.00     0.173 A 
ATOM     77  F   UNL A   1      42.051  29.591  27.466  1.00  0.00    -0.203 F 
ATOM     78  C   UNL A   1      41.462  27.640  26.287  1.00  0.00     0.198 A 
ATOM     79  C   UNL A   1      40.060  25.992  27.320  1.00  0.00     0.198 A 
ATOM     80  F   UNL A   1      39.246  26.341  29.501  1.00  0.00    -0.203 F 
ATOM     81  F   UNL A   1      42.137  28.083  25.218  1.00  0.00    -0.200 F 
ATOM     82  C   UNL A   1      40.788  26.429  26.225  1.00  0.00     0.200 A 
ATOM     83  F   UNL A   1      39.408  24.822  27.267  1.00  0.00    -0.200 F 
ATOM     84  F   UNL A   1      40.827  25.693  25.106  1.00  0.00    -0.200 F 
ENDBRANCH  50  74
BRANCH  62  85
ATOM     85  C   UNL A   1      43.857  28.037  34.740  1.00  0.00     0.064 A 
ATOM     86  C   UNL A   1      45.215  28.385  34.673  1.00  0.00     0.173 A 
ATOM     87  C   UNL A   1      43.520  26.839  35.387  1.00  0.00     0.173 A 
ATOM     88  F   UNL A   1      45.593  29.512  34.050  1.00  0.00    -0.203 F 
ATOM     89  C   UNL A   1      46.197  27.548  35.198  1.00  0.00     0.198 A 
ATOM     90  C   UNL A   1      44.502  26.019  35.937  1.00  0.00     0.198 A 
ATOM     91  F   UNL A   1      42.237  26.459  35.483  1.00  0.00    -0.203 F 
ATOM     92  F   UNL A   1      47.491  27.873  35.067  1.00  0.00    -0.200 F 
ATOM     93  C   UNL A   1      45.840  26.370  35.834  1.00  0.00     0.200 A 
ATOM     94  F   UNL A   1      44.154  24.885  36.561  1.00  0.00    -0.200 F 
ATOM     95  F   UNL A   1      46.786  25.564  36.337  1.00  0.00    -0.200 F 
ENDBRANCH  62  85
ENDBRANCH  36  37
ENDBRANCH  29  31
ENDBRANCH  28  29
ENDBRANCH  27  28
ENDBRANCH  26  27
ENDBRANCH  25  26
ENDBRANCH  24  25
ENDBRANCH   1  24
TORSDOF 20
ENDMDL
