MODEL 1
REMARK VINA RESULT:     -10.0      0.000      0.000
REMARK SMILES CC(C)C[C@H](NC(=O)[C@@H](NC(=O)[C@H](C)NC(=O)CNC(=O)OCc1ccccc1)C(C)C)C(=O)OCCOCCOC(=O)c1ccc(-c2c3nc(c(-c4c(F)c(F)c(F)c(F)c4F)c4ccc([nH]4)c(-c4c(F)c(F)c(F)c(F)c4F)c4nc(c(-c5c(F)c(F)c(F)c(F)c5F)c5ccc2[nH]5)C=C4)C=C3)cc1
REMARK SMILES IDX 33 1 34 2 5 3 4 4 2 5 1 6 3 7 6 8 7 9 8 11 9 12 10 13 11 14
REMARK SMILES IDX 12 16 13 17 14 18 15 19 16 20 17 22 18 23 19 24 20 25 21 27
REMARK SMILES IDX 22 28 23 29 24 30 25 31 29 32 26 33 28 34 27 35 30 36 31 37
REMARK SMILES IDX 32 38 35 39 36 40 37 41 38 42 39 43 40 44 41 45 42 46 43 47
REMARK SMILES IDX 44 48 45 49 106 50 46 51 105 52 47 53 48 54 49 55 99 56
REMARK SMILES IDX 50 57 104 58 98 59 100 60 51 61 103 62 97 63 96 64 52 66
REMARK SMILES IDX 84 67 64 68 83 69 65 70 68 71 82 72 101 73 66 74 67 75 81 77
REMARK SMILES IDX 102 78 69 79 53 80 54 81 62 82 55 83 56 84 60 85 63 86 57 87
REMARK SMILES IDX 58 88 61 89 59 90 85 91 86 92 94 93 87 94 88 95 92 96 95 97
REMARK SMILES IDX 89 98 90 99 93 100 91 101 70 102 71 103 79 104 72 105 73 106
REMARK SMILES IDX 77 107 80 108 74 109 75 110 78 111 76 112
REMARK H PARENT 6 10 10 15 15 21 19 26 100 65 68 76
REMARK Flexibility Score: inf
ROOT
ATOM      1  C   UNL A   1      32.996  30.543  26.547  1.00  0.00     0.328 C 
ATOM      2  O   UNL A   1      34.108  30.607  27.045  1.00  0.00    -0.250 OA
ENDROOT
BRANCH   1   3
ATOM      3  C   UNL A   1      32.480  29.393  25.637  1.00  0.00     0.192 C 
BRANCH   3   4
ATOM      4  C   UNL A   1      32.072  29.619  24.144  1.00  0.00     0.040 C 
BRANCH   4   5
ATOM      5  C   UNL A   1      30.582  29.400  23.895  1.00  0.00    -0.015 C 
ATOM      6  C   UNL A   1      29.972  30.738  24.108  1.00  0.00     0.007 C 
ATOM      7  C   UNL A   1      30.100  28.906  22.538  1.00  0.00     0.007 C 
ENDBRANCH   4   5
ENDBRANCH   3   4
BRANCH   3   8
ATOM      8  N   UNL A   1      31.588  28.471  26.343  1.00  0.00    -0.341 N 
ATOM      9  C   UNL A   1      31.400  27.137  26.419  1.00  0.00     0.243 C 
ATOM     10  H   UNL A   1      30.952  28.957  26.917  1.00  0.00     0.164 HD
ATOM     11  O   UNL A   1      30.657  26.834  27.372  1.00  0.00    -0.273 OA
BRANCH   9  12
ATOM     12  C   UNL A   1      32.037  25.944  25.568  1.00  0.00     0.174 C 
BRANCH  12  13
ATOM     13  N   UNL A   1      32.783  24.755  26.167  1.00  0.00    -0.342 N 
ATOM     14  C   UNL A   1      33.893  23.977  26.244  1.00  0.00     0.242 C 
ATOM     15  H   UNL A   1      32.151  24.360  26.810  1.00  0.00     0.164 HD
ATOM     16  O   UNL A   1      33.829  23.261  27.264  1.00  0.00    -0.273 OA
BRANCH  14  17
ATOM     17  C   UNL A   1      35.154  23.785  25.277  1.00  0.00     0.168 C 
ATOM     18  C   UNL A   1      34.831  24.329  23.864  1.00  0.00     0.041 C 
BRANCH  17  19
ATOM     19  N   UNL A   1      35.652  22.409  25.113  1.00  0.00    -0.343 N 
ATOM     20  C   UNL A   1      35.055  21.176  25.105  1.00  0.00     0.240 C 
ATOM     21  H   UNL A   1      36.626  22.366  24.978  1.00  0.00     0.164 HD
ATOM     22  O   UNL A   1      35.835  20.222  24.965  1.00  0.00    -0.273 OA
BRANCH  20  23
ATOM     23  C   UNL A   1      33.525  20.891  25.052  1.00  0.00     0.219 C 
BRANCH  23  24
ATOM     24  N   UNL A   1      32.785  21.363  23.905  1.00  0.00    -0.312 N 
ATOM     25  C   UNL A   1      32.333  20.681  22.815  1.00  0.00     0.407 C 
ATOM     26  H   UNL A   1      32.574  22.325  23.912  1.00  0.00     0.167 HD
ATOM     27  O   UNL A   1      31.623  21.259  21.994  1.00  0.00    -0.225 OA
BRANCH  25  28
ATOM     28  O   UNL A   1      32.719  19.386  22.729  1.00  0.00    -0.445 OA
BRANCH  28  29
ATOM     29  C   UNL A   1      31.996  18.476  23.589  1.00  0.00     0.270 C 
BRANCH  29  30
ATOM     30  C   UNL A   1      32.857  17.390  24.183  1.00  0.00    -0.011 A 
ATOM     31  C   UNL A   1      34.245  17.403  24.027  1.00  0.00     0.007 A 
ATOM     32  C   UNL A   1      32.275  16.389  24.983  1.00  0.00     0.007 A 
ATOM     33  C   UNL A   1      35.034  16.417  24.621  1.00  0.00     0.000 A 
ATOM     34  C   UNL A   1      33.064  15.404  25.579  1.00  0.00     0.000 A 
ATOM     35  C   UNL A   1      34.444  15.417  25.391  1.00  0.00     0.000 A 
ENDBRANCH  29  30
ENDBRANCH  28  29
ENDBRANCH  25  28
ENDBRANCH  23  24
ENDBRANCH  20  23
ENDBRANCH  17  19
ENDBRANCH  14  17
ENDBRANCH  12  13
BRANCH  12  36
ATOM     36  C   UNL A   1      31.374  25.693  24.171  1.00  0.00     0.015 C 
ATOM     37  C   UNL A   1      32.247  26.073  22.962  1.00  0.00     0.010 C 
ATOM     38  C   UNL A   1      30.897  24.246  23.989  1.00  0.00     0.010 C 
ENDBRANCH  12  36
ENDBRANCH   9  12
ENDBRANCH   3   8
ENDBRANCH   1   3
BRANCH   1  39
ATOM     39  O   UNL A   1      31.976  31.395  26.872  1.00  0.00    -0.462 OA
BRANCH  39  40
ATOM     40  C   UNL A   1      32.267  32.806  26.934  1.00  0.00     0.261 C 
BRANCH  40  41
ATOM     41  C   UNL A   1      33.200  33.113  28.112  1.00  0.00     0.202 C 
BRANCH  41  42
ATOM     42  O   UNL A   1      33.537  34.482  28.325  1.00  0.00    -0.374 OA
BRANCH  42  43
ATOM     43  C   UNL A   1      33.271  35.046  29.604  1.00  0.00     0.202 C 
BRANCH  43  44
ATOM     44  C   UNL A   1      34.083  34.523  30.801  1.00  0.00     0.261 C 
BRANCH  44  45
ATOM     45  O   UNL A   1      34.656  33.213  30.614  1.00  0.00    -0.460 OA
BRANCH  45  46
ATOM     46  C   UNL A   1      35.363  32.733  31.666  1.00  0.00     0.338 C 
ATOM     47  O   UNL A   1      34.957  32.521  32.795  1.00  0.00    -0.246 OA
BRANCH  46  48
ATOM     48  C   UNL A   1      36.748  32.412  31.271  1.00  0.00     0.060 A 
ATOM     49  C   UNL A   1      37.116  32.491  29.924  1.00  0.00     0.016 A 
ATOM     50  C   UNL A   1      37.622  31.856  32.205  1.00  0.00     0.016 A 
ATOM     51  C   UNL A   1      38.355  31.990  29.506  1.00  0.00     0.010 A 
ATOM     52  C   UNL A   1      38.865  31.366  31.786  1.00  0.00     0.010 A 
ATOM     53  C   UNL A   1      39.230  31.401  30.430  1.00  0.00    -0.014 A 
BRANCH  53  54
ATOM     54  C   UNL A   1      40.502  30.770  29.987  1.00  0.00     0.031 A 
ATOM     55  C   UNL A   1      41.756  31.595  29.871  1.00  0.00     0.074 A 
ATOM     56  C   UNL A   1      40.530  29.465  29.654  1.00  0.00     0.049 A 
ATOM     57  N   UNL A   1      42.924  31.266  29.379  1.00  0.00    -0.248 NA
ATOM     58  C   UNL A   1      41.686  32.975  30.377  1.00  0.00     0.031 C 
ATOM     59  C   UNL A   1      39.402  28.544  29.761  1.00  0.00     0.029 A 
ATOM     60  N   UNL A   1      41.542  28.696  29.129  1.00  0.00    -0.354 N 
ATOM     61  C   UNL A   1      43.721  32.399  29.498  1.00  0.00     0.074 A 
ATOM     62  C   UNL A   1      42.902  33.430  30.099  1.00  0.00     0.031 C 
ATOM     63  C   UNL A   1      39.770  27.344  29.284  1.00  0.00     0.029 A 
ATOM     64  C   UNL A   1      41.145  27.424  28.795  1.00  0.00     0.049 A 
ATOM     65  H   UNL A   1      42.461  29.025  29.005  1.00  0.00     0.167 HD
ATOM     66  C   UNL A   1      45.018  32.559  29.136  1.00  0.00     0.037 A 
ATOM     67  C   UNL A   1      41.795  26.450  28.130  1.00  0.00     0.037 A 
ATOM     68  C   UNL A   1      45.838  31.526  28.556  1.00  0.00     0.049 A 
ATOM     69  C   UNL A   1      43.212  26.686  27.668  1.00  0.00     0.074 A 
ATOM     70  C   UNL A   1      47.179  31.581  28.217  1.00  0.00     0.029 A 
ATOM     71  N   UNL A   1      45.392  30.260  28.213  1.00  0.00    -0.354 N 
ATOM     72  N   UNL A   1      43.973  27.740  27.834  1.00  0.00    -0.248 NA
ATOM     73  C   UNL A   1      43.859  25.596  26.922  1.00  0.00     0.031 C 
ATOM     74  C   UNL A   1      47.527  30.375  27.602  1.00  0.00     0.029 A 
ATOM     75  C   UNL A   1      46.419  29.543  27.619  1.00  0.00     0.049 A 
ATOM     76  H   UNL A   1      44.481  29.919  28.369  1.00  0.00     0.167 HD
ATOM     77  C   UNL A   1      45.189  27.431  27.238  1.00  0.00     0.074 A 
ATOM     78  C   UNL A   1      45.076  26.082  26.728  1.00  0.00     0.031 C 
ATOM     79  C   UNL A   1      46.299  28.199  27.117  1.00  0.00     0.037 A 
BRANCH  66  80
ATOM     80  C   UNL A   1      45.650  33.908  29.325  1.00  0.00     0.064 A 
ATOM     81  C   UNL A   1      46.388  34.228  30.473  1.00  0.00     0.173 A 
ATOM     82  C   UNL A   1      45.610  34.853  28.286  1.00  0.00     0.173 A 
ATOM     83  F   UNL A   1      46.455  33.362  31.495  1.00  0.00    -0.203 F 
ATOM     84  C   UNL A   1      47.057  35.445  30.578  1.00  0.00     0.198 A 
ATOM     85  C   UNL A   1      46.303  36.056  28.383  1.00  0.00     0.198 A 
ATOM     86  F   UNL A   1      44.928  34.592  27.161  1.00  0.00    -0.203 F 
ATOM     87  F   UNL A   1      47.741  35.738  31.692  1.00  0.00    -0.200 F 
ATOM     88  C   UNL A   1      47.024  36.352  29.528  1.00  0.00     0.200 A 
ATOM     89  F   UNL A   1      46.285  36.923  27.360  1.00  0.00    -0.200 F 
ATOM     90  F   UNL A   1      47.693  37.511  29.621  1.00  0.00    -0.200 F 
ENDBRANCH  66  80
BRANCH  67  91
ATOM     91  C   UNL A   1      41.103  25.173  27.803  1.00  0.00     0.064 A 
ATOM     92  C   UNL A   1      41.500  23.960  28.384  1.00  0.00     0.173 A 
ATOM     93  C   UNL A   1      40.067  25.132  26.857  1.00  0.00     0.173 A 
ATOM     94  F   UNL A   1      42.501  23.942  29.275  1.00  0.00    -0.203 F 
ATOM     95  C   UNL A   1      40.917  22.754  28.002  1.00  0.00     0.198 A 
ATOM     96  C   UNL A   1      39.459  23.929  26.503  1.00  0.00     0.198 A 
ATOM     97  F   UNL A   1      39.644  26.262  26.270  1.00  0.00    -0.203 F 
ATOM     98  F   UNL A   1      41.368  21.603  28.519  1.00  0.00    -0.200 F 
ATOM     99  C   UNL A   1      39.895  22.739  27.065  1.00  0.00     0.200 A 
ATOM    100  F   UNL A   1      38.463  23.923  25.608  1.00  0.00    -0.200 F 
ATOM    101  F   UNL A   1      39.342  21.577  26.692  1.00  0.00    -0.200 F 
ENDBRANCH  67  91
BRANCH  79 102
ATOM    102  C   UNL A   1      47.491  27.597  26.426  1.00  0.00     0.064 A 
ATOM    103  C   UNL A   1      47.676  27.719  25.042  1.00  0.00     0.173 A 
ATOM    104  C   UNL A   1      48.484  26.933  27.163  1.00  0.00     0.173 A 
ATOM    105  F   UNL A   1      46.749  28.331  24.288  1.00  0.00    -0.203 F 
ATOM    106  C   UNL A   1      48.798  27.180  24.418  1.00  0.00     0.198 A 
ATOM    107  C   UNL A   1      49.622  26.425  26.542  1.00  0.00     0.198 A 
ATOM    108  F   UNL A   1      48.361  26.793  28.492  1.00  0.00    -0.203 F 
ATOM    109  F   UNL A   1      48.929  27.269  23.087  1.00  0.00    -0.200 F 
ATOM    110  C   UNL A   1      49.774  26.543  25.169  1.00  0.00     0.200 A 
ATOM    111  F   UNL A   1      50.571  25.824  27.271  1.00  0.00    -0.200 F 
ATOM    112  F   UNL A   1      50.859  26.036  24.567  1.00  0.00    -0.200 F 
ENDBRANCH  79 102
ENDBRANCH  53  54
ENDBRANCH  46  48
ENDBRANCH  45  46
ENDBRANCH  44  45
ENDBRANCH  43  44
ENDBRANCH  42  43
ENDBRANCH  41  42
ENDBRANCH  40  41
ENDBRANCH  39  40
ENDBRANCH   1  39
TORSDOF 27
ENDMDL
MODEL 2
REMARK VINA RESULT:     -10.0      2.957      8.055
REMARK SMILES CC(C)C[C@H](NC(=O)[C@@H](NC(=O)[C@H](C)NC(=O)CNC(=O)OCc1ccccc1)C(C)C)C(=O)OCCOCCOC(=O)c1ccc(-c2c3nc(c(-c4c(F)c(F)c(F)c(F)c4F)c4ccc([nH]4)c(-c4c(F)c(F)c(F)c(F)c4F)c4nc(c(-c5c(F)c(F)c(F)c(F)c5F)c5ccc2[nH]5)C=C4)C=C3)cc1
REMARK SMILES IDX 33 1 34 2 5 3 4 4 2 5 1 6 3 7 6 8 7 9 8 11 9 12 10 13 11 14
REMARK SMILES IDX 12 16 13 17 14 18 15 19 16 20 17 22 18 23 19 24 20 25 21 27
REMARK SMILES IDX 22 28 23 29 24 30 25 31 29 32 26 33 28 34 27 35 30 36 31 37
REMARK SMILES IDX 32 38 35 39 36 40 37 41 38 42 39 43 40 44 41 45 42 46 43 47
REMARK SMILES IDX 44 48 45 49 106 50 46 51 105 52 47 53 48 54 49 55 99 56
REMARK SMILES IDX 50 57 104 58 98 59 100 60 51 61 103 62 97 63 96 64 52 66
REMARK SMILES IDX 84 67 64 68 83 69 65 70 68 71 82 72 101 73 66 74 67 75 81 77
REMARK SMILES IDX 102 78 69 79 53 80 54 81 62 82 55 83 56 84 60 85 63 86 57 87
REMARK SMILES IDX 58 88 61 89 59 90 85 91 86 92 94 93 87 94 88 95 92 96 95 97
REMARK SMILES IDX 89 98 90 99 93 100 91 101 70 102 71 103 79 104 72 105 73 106
REMARK SMILES IDX 77 107 80 108 74 109 75 110 78 111 76 112
REMARK H PARENT 6 10 10 15 15 21 19 26 100 65 68 76
REMARK Flexibility Score: inf
ROOT
ATOM      1  C   UNL A   1      32.817  29.322  25.266  1.00  0.00     0.328 C 
ATOM      2  O   UNL A   1      33.908  29.322  24.719  1.00  0.00    -0.250 OA
ENDROOT
BRANCH   1   3
ATOM      3  C   UNL A   1      31.510  28.725  24.674  1.00  0.00     0.192 C 
BRANCH   3   4
ATOM      4  C   UNL A   1      30.326  29.617  24.174  1.00  0.00     0.040 C 
BRANCH   4   5
ATOM      5  C   UNL A   1      29.806  29.201  22.801  1.00  0.00    -0.015 C 
ATOM      6  C   UNL A   1      28.846  28.103  23.087  1.00  0.00     0.007 C 
ATOM      7  C   UNL A   1      29.076  30.210  21.924  1.00  0.00     0.007 C 
ENDBRANCH   4   5
ENDBRANCH   3   4
BRANCH   3   8
ATOM      8  N   UNL A   1      31.065  27.525  25.386  1.00  0.00    -0.341 N 
ATOM      9  C   UNL A   1      31.439  26.232  25.479  1.00  0.00     0.243 C 
ATOM     10  H   UNL A   1      30.278  27.714  25.948  1.00  0.00     0.164 HD
ATOM     11  O   UNL A   1      30.873  25.661  26.430  1.00  0.00    -0.273 OA
BRANCH   9  12
ATOM     12  C   UNL A   1      32.519  25.396  24.650  1.00  0.00     0.174 C 
BRANCH  12  13
ATOM     13  N   UNL A   1      33.792  24.799  25.241  1.00  0.00    -0.342 N 
ATOM     14  C   UNL A   1      34.518  23.720  25.632  1.00  0.00     0.242 C 
ATOM     15  H   UNL A   1      34.368  25.574  25.434  1.00  0.00     0.164 HD
ATOM     16  O   UNL A   1      35.707  24.057  25.805  1.00  0.00    -0.273 OA
BRANCH  14  17
ATOM     17  C   UNL A   1      34.121  22.203  25.952  1.00  0.00     0.168 C 
ATOM     18  C   UNL A   1      34.067  21.976  27.483  1.00  0.00     0.041 C 
BRANCH  17  19
ATOM     19  N   UNL A   1      34.995  21.161  25.387  1.00  0.00    -0.343 N 
ATOM     20  C   UNL A   1      36.351  21.022  25.263  1.00  0.00     0.240 C 
ATOM     21  H   UNL A   1      34.494  20.398  25.017  1.00  0.00     0.164 HD
ATOM     22  O   UNL A   1      36.718  19.988  24.685  1.00  0.00    -0.273 OA
BRANCH  20  23
ATOM     23  C   UNL A   1      37.436  21.911  25.940  1.00  0.00     0.219 C 
BRANCH  23  24
ATOM     24  N   UNL A   1      38.821  21.531  25.785  1.00  0.00    -0.312 N 
ATOM     25  C   UNL A   1      39.944  22.073  26.336  1.00  0.00     0.407 C 
ATOM     26  H   UNL A   1      38.979  20.763  25.189  1.00  0.00     0.167 HD
ATOM     27  O   UNL A   1      41.029  21.526  26.154  1.00  0.00    -0.225 OA
BRANCH  25  28
ATOM     28  O   UNL A   1      39.758  23.204  27.058  1.00  0.00    -0.445 OA
BRANCH  28  29
ATOM     29  C   UNL A   1      40.968  23.917  27.397  1.00  0.00     0.270 C 
BRANCH  29  30
ATOM     30  C   UNL A   1      40.899  25.397  27.118  1.00  0.00    -0.011 A 
ATOM     31  C   UNL A   1      40.259  26.269  28.002  1.00  0.00     0.007 A 
ATOM     32  C   UNL A   1      41.559  25.934  25.996  1.00  0.00     0.007 A 
ATOM     33  C   UNL A   1      40.243  27.642  27.754  1.00  0.00     0.000 A 
ATOM     34  C   UNL A   1      41.544  27.307  25.749  1.00  0.00     0.000 A 
ATOM     35  C   UNL A   1      40.879  28.159  26.627  1.00  0.00     0.000 A 
ENDBRANCH  29  30
ENDBRANCH  28  29
ENDBRANCH  25  28
ENDBRANCH  23  24
ENDBRANCH  20  23
ENDBRANCH  17  19
ENDBRANCH  14  17
ENDBRANCH  12  13
BRANCH  12  36
ATOM     36  C   UNL A   1      31.970  24.684  23.367  1.00  0.00     0.015 C 
ATOM     37  C   UNL A   1      30.579  24.045  23.525  1.00  0.00     0.010 C 
ATOM     38  C   UNL A   1      31.943  25.605  22.140  1.00  0.00     0.010 C 
ENDBRANCH  12  36
ENDBRANCH   9  12
ENDBRANCH   3   8
ENDBRANCH   1   3
BRANCH   1  39
ATOM     39  O   UNL A   1      32.630  29.693  26.569  1.00  0.00    -0.462 OA
BRANCH  39  40
ATOM     40  C   UNL A   1      32.785  31.087  26.906  1.00  0.00     0.261 C 
BRANCH  40  41
ATOM     41  C   UNL A   1      34.104  31.317  27.654  1.00  0.00     0.202 C 
BRANCH  41  42
ATOM     42  O   UNL A   1      34.591  32.657  27.701  1.00  0.00    -0.374 OA
BRANCH  42  43
ATOM     43  C   UNL A   1      33.856  33.609  28.463  1.00  0.00     0.202 C 
BRANCH  43  44
ATOM     44  C   UNL A   1      34.221  33.774  29.948  1.00  0.00     0.261 C 
BRANCH  44  45
ATOM     45  O   UNL A   1      34.257  32.545  30.700  1.00  0.00    -0.460 OA
BRANCH  45  46
ATOM     46  C   UNL A   1      35.010  32.576  31.826  1.00  0.00     0.338 C 
ATOM     47  O   UNL A   1      34.627  32.776  32.967  1.00  0.00    -0.246 OA
BRANCH  46  48
ATOM     48  C   UNL A   1      36.421  32.261  31.530  1.00  0.00     0.060 A 
ATOM     49  C   UNL A   1      37.415  32.637  32.440  1.00  0.00     0.016 A 
ATOM     50  C   UNL A   1      36.771  31.766  30.275  1.00  0.00     0.016 A 
ATOM     51  C   UNL A   1      38.765  32.538  32.083  1.00  0.00     0.010 A 
ATOM     52  C   UNL A   1      38.122  31.657  29.923  1.00  0.00     0.010 A 
ATOM     53  C   UNL A   1      39.129  32.070  30.812  1.00  0.00    -0.014 A 
BRANCH  53  54
ATOM     54  C   UNL A   1      40.552  32.059  30.377  1.00  0.00     0.031 A 
ATOM     55  C   UNL A   1      41.362  30.793  30.475  1.00  0.00     0.074 A 
ATOM     56  C   UNL A   1      41.132  33.188  29.928  1.00  0.00     0.049 A 
ATOM     57  N   UNL A   1      42.644  30.610  30.275  1.00  0.00    -0.248 NA
ATOM     58  C   UNL A   1      40.633  29.570  30.845  1.00  0.00     0.031 C 
ATOM     59  C   UNL A   1      40.452  34.468  29.743  1.00  0.00     0.029 A 
ATOM     60  N   UNL A   1      42.435  33.446  29.573  1.00  0.00    -0.354 N 
ATOM     61  C   UNL A   1      42.878  29.261  30.513  1.00  0.00     0.074 A 
ATOM     62  C   UNL A   1      41.609  28.671  30.882  1.00  0.00     0.031 C 
ATOM     63  C   UNL A   1      41.348  35.385  29.343  1.00  0.00     0.029 A 
ATOM     64  C   UNL A   1      42.672  34.770  29.288  1.00  0.00     0.049 A 
ATOM     65  H   UNL A   1      43.130  32.751  29.527  1.00  0.00     0.167 HD
ATOM     66  C   UNL A   1      44.048  28.582  30.430  1.00  0.00     0.037 A 
ATOM     67  C   UNL A   1      43.827  35.422  29.057  1.00  0.00     0.037 A 
ATOM     68  C   UNL A   1      45.307  29.167  30.043  1.00  0.00     0.049 A 
ATOM     69  C   UNL A   1      45.125  34.652  29.051  1.00  0.00     0.074 A 
ATOM     70  C   UNL A   1      46.529  28.540  29.871  1.00  0.00     0.029 A 
ATOM     71  N   UNL A   1      45.509  30.513  29.786  1.00  0.00    -0.354 N 
ATOM     72  N   UNL A   1      45.329  33.369  29.223  1.00  0.00    -0.248 NA
ATOM     73  C   UNL A   1      46.356  35.424  28.821  1.00  0.00     0.031 C 
ATOM     74  C   UNL A   1      47.487  29.517  29.581  1.00  0.00     0.029 A 
ATOM     75  C   UNL A   1      46.848  30.743  29.507  1.00  0.00     0.049 A 
ATOM     76  H   UNL A   1      44.807  31.203  29.798  1.00  0.00     0.167 HD
ATOM     77  C   UNL A   1      46.699  33.179  29.098  1.00  0.00     0.074 A 
ATOM     78  C   UNL A   1      47.278  34.472  28.810  1.00  0.00     0.031 C 
ATOM     79  C   UNL A   1      47.415  32.034  29.217  1.00  0.00     0.037 A 
BRANCH  66  80
ATOM     80  C   UNL A   1      44.053  27.123  30.786  1.00  0.00     0.064 A 
ATOM     81  C   UNL A   1      43.940  26.121  29.813  1.00  0.00     0.173 A 
ATOM     82  C   UNL A   1      44.289  26.726  32.113  1.00  0.00     0.173 A 
ATOM     83  F   UNL A   1      43.712  26.446  28.532  1.00  0.00    -0.203 F 
ATOM     84  C   UNL A   1      44.058  24.775  30.154  1.00  0.00     0.198 A 
ATOM     85  C   UNL A   1      44.433  25.381  32.445  1.00  0.00     0.198 A 
ATOM     86  F   UNL A   1      44.416  27.645  33.082  1.00  0.00    -0.203 F 
ATOM     87  F   UNL A   1      43.929  23.832  29.210  1.00  0.00    -0.200 F 
ATOM     88  C   UNL A   1      44.317  24.408  31.467  1.00  0.00     0.200 A 
ATOM     89  F   UNL A   1      44.702  25.031  33.711  1.00  0.00    -0.200 F 
ATOM     90  F   UNL A   1      44.457  23.113  31.787  1.00  0.00    -0.200 F 
ENDBRANCH  66  80
BRANCH  67  91
ATOM     91  C   UNL A   1      43.831  36.898  28.867  1.00  0.00     0.064 A 
ATOM     92  C   UNL A   1      43.983  37.771  29.954  1.00  0.00     0.173 A 
ATOM     93  C   UNL A   1      43.623  37.467  27.601  1.00  0.00     0.173 A 
ATOM     94  F   UNL A   1      44.160  37.279  31.188  1.00  0.00    -0.203 F 
ATOM     95  C   UNL A   1      43.887  39.152  29.787  1.00  0.00     0.198 A 
ATOM     96  C   UNL A   1      43.564  38.848  27.430  1.00  0.00     0.198 A 
ATOM     97  F   UNL A   1      43.472  36.679  26.525  1.00  0.00    -0.203 F 
ATOM     98  F   UNL A   1      43.963  39.958  30.855  1.00  0.00    -0.200 F 
ATOM     99  C   UNL A   1      43.681  39.689  28.526  1.00  0.00     0.200 A 
ATOM    100  F   UNL A   1      43.379  39.361  26.206  1.00  0.00    -0.200 F 
ATOM    101  F   UNL A   1      43.579  41.016  28.369  1.00  0.00    -0.200 F 
ENDBRANCH  67  91
BRANCH  79 102
ATOM    102  C   UNL A   1      48.903  32.120  29.018  1.00  0.00     0.064 A 
ATOM    103  C   UNL A   1      49.781  32.269  30.101  1.00  0.00     0.173 A 
ATOM    104  C   UNL A   1      49.459  32.003  27.735  1.00  0.00     0.173 A 
ATOM    105  F   UNL A   1      49.301  32.401  31.347  1.00  0.00    -0.203 F 
ATOM    106  C   UNL A   1      51.159  32.319  29.905  1.00  0.00     0.198 A 
ATOM    107  C   UNL A   1      50.839  32.020  27.545  1.00  0.00     0.198 A 
ATOM    108  F   UNL A   1      48.665  31.853  26.664  1.00  0.00    -0.203 F 
ATOM    109  F   UNL A   1      51.976  32.509  30.950  1.00  0.00    -0.200 F 
ATOM    110  C   UNL A   1      51.686  32.186  28.629  1.00  0.00     0.200 A 
ATOM    111  F   UNL A   1      51.346  31.874  26.314  1.00  0.00    -0.200 F 
ATOM    112  F   UNL A   1      53.014  32.222  28.445  1.00  0.00    -0.200 F 
ENDBRANCH  79 102
ENDBRANCH  53  54
ENDBRANCH  46  48
ENDBRANCH  45  46
ENDBRANCH  44  45
ENDBRANCH  43  44
ENDBRANCH  42  43
ENDBRANCH  41  42
ENDBRANCH  40  41
ENDBRANCH  39  40
ENDBRANCH   1  39
TORSDOF 27
ENDMDL
MODEL 3
REMARK VINA RESULT:      -9.9      5.043      9.486
REMARK SMILES CC(C)C[C@H](NC(=O)[C@@H](NC(=O)[C@H](C)NC(=O)CNC(=O)OCc1ccccc1)C(C)C)C(=O)OCCOCCOC(=O)c1ccc(-c2c3nc(c(-c4c(F)c(F)c(F)c(F)c4F)c4ccc([nH]4)c(-c4c(F)c(F)c(F)c(F)c4F)c4nc(c(-c5c(F)c(F)c(F)c(F)c5F)c5ccc2[nH]5)C=C4)C=C3)cc1
REMARK SMILES IDX 33 1 34 2 5 3 4 4 2 5 1 6 3 7 6 8 7 9 8 11 9 12 10 13 11 14
REMARK SMILES IDX 12 16 13 17 14 18 15 19 16 20 17 22 18 23 19 24 20 25 21 27
REMARK SMILES IDX 22 28 23 29 24 30 25 31 29 32 26 33 28 34 27 35 30 36 31 37
REMARK SMILES IDX 32 38 35 39 36 40 37 41 38 42 39 43 40 44 41 45 42 46 43 47
REMARK SMILES IDX 44 48 45 49 106 50 46 51 105 52 47 53 48 54 49 55 99 56
REMARK SMILES IDX 50 57 104 58 98 59 100 60 51 61 103 62 97 63 96 64 52 66
REMARK SMILES IDX 84 67 64 68 83 69 65 70 68 71 82 72 101 73 66 74 67 75 81 77
REMARK SMILES IDX 102 78 69 79 53 80 54 81 62 82 55 83 56 84 60 85 63 86 57 87
REMARK SMILES IDX 58 88 61 89 59 90 85 91 86 92 94 93 87 94 88 95 92 96 95 97
REMARK SMILES IDX 89 98 90 99 93 100 91 101 70 102 71 103 79 104 72 105 73 106
REMARK SMILES IDX 77 107 80 108 74 109 75 110 78 111 76 112
REMARK H PARENT 6 10 10 15 15 21 19 26 100 65 68 76
REMARK Flexibility Score: inf
ROOT
ATOM      1  C   UNL A   1      32.585  28.866  23.749  1.00  0.00     0.328 C 
ATOM      2  O   UNL A   1      33.591  29.324  23.233  1.00  0.00    -0.250 OA
ENDROOT
BRANCH   1   3
ATOM      3  C   UNL A   1      32.060  27.414  23.570  1.00  0.00     0.192 C 
BRANCH   3   4
ATOM      4  C   UNL A   1      30.720  27.087  22.832  1.00  0.00     0.040 C 
BRANCH   4   5
ATOM      5  C   UNL A   1      29.487  27.534  23.613  1.00  0.00    -0.015 C 
ATOM      6  C   UNL A   1      28.932  28.657  22.814  1.00  0.00     0.007 C 
ATOM      7  C   UNL A   1      28.344  26.557  23.857  1.00  0.00     0.007 C 
ENDBRANCH   4   5
ENDBRANCH   3   4
BRANCH   3   8
ATOM      8  N   UNL A   1      32.279  26.584  24.757  1.00  0.00    -0.341 N 
ATOM      9  C   UNL A   1      32.759  25.352  25.030  1.00  0.00     0.243 C 
ATOM     10  H   UNL A   1      32.000  27.052  25.577  1.00  0.00     0.164 HD
ATOM     11  O   UNL A   1      32.970  25.205  26.248  1.00  0.00    -0.273 OA
BRANCH   9  12
ATOM     12  C   UNL A   1      33.166  24.152  24.056  1.00  0.00     0.174 C 
BRANCH  12  13
ATOM     13  N   UNL A   1      34.593  23.661  23.836  1.00  0.00    -0.342 N 
ATOM     14  C   UNL A   1      35.559  22.723  24.014  1.00  0.00     0.242 C 
ATOM     15  H   UNL A   1      35.024  24.371  23.306  1.00  0.00     0.164 HD
ATOM     16  O   UNL A   1      36.505  22.945  23.230  1.00  0.00    -0.273 OA
BRANCH  14  17
ATOM     17  C   UNL A   1      35.710  21.502  25.038  1.00  0.00     0.168 C 
ATOM     18  C   UNL A   1      35.313  21.950  26.465  1.00  0.00     0.041 C 
BRANCH  17  19
ATOM     19  N   UNL A   1      37.044  20.883  25.129  1.00  0.00    -0.343 N 
ATOM     20  C   UNL A   1      38.278  21.335  25.515  1.00  0.00     0.240 C 
ATOM     21  H   UNL A   1      37.049  19.938  24.852  1.00  0.00     0.164 HD
ATOM     22  O   UNL A   1      39.190  20.500  25.422  1.00  0.00    -0.273 OA
BRANCH  20  23
ATOM     23  C   UNL A   1      38.585  22.686  26.226  1.00  0.00     0.219 C 
BRANCH  23  24
ATOM     24  N   UNL A   1      39.780  22.773  27.033  1.00  0.00    -0.312 N 
ATOM     25  C   UNL A   1      40.309  23.837  27.701  1.00  0.00     0.407 C 
ATOM     26  H   UNL A   1      40.291  21.935  27.114  1.00  0.00     0.167 HD
ATOM     27  O   UNL A   1      41.288  23.669  28.425  1.00  0.00    -0.225 OA
BRANCH  25  28
ATOM     28  O   UNL A   1      39.688  25.025  27.501  1.00  0.00    -0.445 OA
BRANCH  28  29
ATOM     29  C   UNL A   1      40.331  26.161  28.121  1.00  0.00     0.270 C 
BRANCH  29  30
ATOM     30  C   UNL A   1      39.366  27.145  28.732  1.00  0.00    -0.011 A 
ATOM     31  C   UNL A   1      39.118  27.152  30.107  1.00  0.00     0.007 A 
ATOM     32  C   UNL A   1      38.763  28.132  27.930  1.00  0.00     0.007 A 
ATOM     33  C   UNL A   1      38.258  28.098  30.666  1.00  0.00     0.000 A 
ATOM     34  C   UNL A   1      37.903  29.078  28.489  1.00  0.00     0.000 A 
ATOM     35  C   UNL A   1      37.647  29.056  29.858  1.00  0.00     0.000 A 
ENDBRANCH  29  30
ENDBRANCH  28  29
ENDBRANCH  25  28
ENDBRANCH  23  24
ENDBRANCH  20  23
ENDBRANCH  17  19
ENDBRANCH  14  17
ENDBRANCH  12  13
BRANCH  12  36
ATOM     36  C   UNL A   1      32.038  23.096  23.793  1.00  0.00     0.015 C 
ATOM     37  C   UNL A   1      30.697  23.684  23.320  1.00  0.00     0.010 C 
ATOM     38  C   UNL A   1      32.465  22.004  22.803  1.00  0.00     0.010 C 
ENDBRANCH  12  36
ENDBRANCH   9  12
ENDBRANCH   3   8
ENDBRANCH   1   3
BRANCH   1  39
ATOM     39  O   UNL A   1      31.868  29.522  24.711  1.00  0.00    -0.462 OA
BRANCH  39  40
ATOM     40  C   UNL A   1      32.596  30.263  25.711  1.00  0.00     0.261 C 
BRANCH  40  41
ATOM     41  C   UNL A   1      32.735  29.439  26.998  1.00  0.00     0.202 C 
BRANCH  41  42
ATOM     42  O   UNL A   1      33.812  29.782  27.868  1.00  0.00    -0.374 OA
BRANCH  42  43
ATOM     43  C   UNL A   1      34.880  30.557  27.336  1.00  0.00     0.202 C 
BRANCH  43  44
ATOM     44  C   UNL A   1      35.022  32.010  27.820  1.00  0.00     0.261 C 
BRANCH  44  45
ATOM     45  O   UNL A   1      33.949  32.470  28.665  1.00  0.00    -0.460 OA
BRANCH  45  46
ATOM     46  C   UNL A   1      34.305  33.362  29.621  1.00  0.00     0.338 C 
ATOM     47  O   UNL A   1      33.637  34.283  30.059  1.00  0.00    -0.246 OA
BRANCH  46  48
ATOM     48  C   UNL A   1      35.643  33.054  30.162  1.00  0.00     0.060 A 
ATOM     49  C   UNL A   1      35.782  32.046  31.122  1.00  0.00     0.016 A 
ATOM     50  C   UNL A   1      36.721  33.886  29.858  1.00  0.00     0.016 A 
ATOM     51  C   UNL A   1      36.998  31.884  31.796  1.00  0.00     0.010 A 
ATOM     52  C   UNL A   1      37.940  33.715  30.525  1.00  0.00     0.010 A 
ATOM     53  C   UNL A   1      38.080  32.733  31.521  1.00  0.00    -0.014 A 
BRANCH  53  54
ATOM     54  C   UNL A   1      39.344  32.644  32.301  1.00  0.00     0.031 A 
ATOM     55  C   UNL A   1      40.472  31.774  31.816  1.00  0.00     0.074 A 
ATOM     56  C   UNL A   1      39.470  33.313  33.464  1.00  0.00     0.049 A 
ATOM     57  N   UNL A   1      41.594  31.458  32.415  1.00  0.00    -0.248 NA
ATOM     58  C   UNL A   1      40.320  31.180  30.478  1.00  0.00     0.031 C 
ATOM     59  C   UNL A   1      38.473  34.221  34.025  1.00  0.00     0.029 A 
ATOM     60  N   UNL A   1      40.481  33.307  34.395  1.00  0.00    -0.354 N 
ATOM     61  C   UNL A   1      42.271  30.618  31.539  1.00  0.00     0.074 A 
ATOM     62  C   UNL A   1      41.431  30.462  30.370  1.00  0.00     0.031 C 
ATOM     63  C   UNL A   1      38.904  34.659  35.219  1.00  0.00     0.029 A 
ATOM     64  C   UNL A   1      40.184  34.026  35.528  1.00  0.00     0.049 A 
ATOM     65  H   UNL A   1      41.334  32.834  34.264  1.00  0.00     0.167 HD
ATOM     66  C   UNL A   1      43.482  30.031  31.700  1.00  0.00     0.037 A 
ATOM     67  C   UNL A   1      40.842  34.127  36.699  1.00  0.00     0.037 A 
ATOM     68  C   UNL A   1      44.325  30.203  32.856  1.00  0.00     0.049 A 
ATOM     69  C   UNL A   1      42.151  33.396  36.879  1.00  0.00     0.074 A 
ATOM     70  C   UNL A   1      45.596  29.698  33.077  1.00  0.00     0.029 A 
ATOM     71  N   UNL A   1      43.979  30.920  33.990  1.00  0.00    -0.354 N 
ATOM     72  N   UNL A   1      42.808  32.649  36.025  1.00  0.00    -0.248 NA
ATOM     73  C   UNL A   1      42.808  33.521  38.189  1.00  0.00     0.031 C 
ATOM     74  C   UNL A   1      45.988  30.047  34.372  1.00  0.00     0.029 A 
ATOM     75  C   UNL A   1      44.991  30.826  34.934  1.00  0.00     0.049 A 
ATOM     76  H   UNL A   1      43.141  31.422  34.108  1.00  0.00     0.167 HD
ATOM     77  C   UNL A   1      43.960  32.239  36.684  1.00  0.00     0.074 A 
ATOM     78  C   UNL A   1      43.928  32.839  37.999  1.00  0.00     0.031 C 
ATOM     79  C   UNL A   1      44.953  31.430  36.240  1.00  0.00     0.037 A 
BRANCH  66  80
ATOM     80  C   UNL A   1      43.982  29.117  30.619  1.00  0.00     0.064 A 
ATOM     81  C   UNL A   1      43.553  27.787  30.514  1.00  0.00     0.173 A 
ATOM     82  C   UNL A   1      44.818  29.620  29.607  1.00  0.00     0.173 A 
ATOM     83  F   UNL A   1      42.757  27.258  31.455  1.00  0.00    -0.203 F 
ATOM     84  C   UNL A   1      43.945  26.991  29.440  1.00  0.00     0.198 A 
ATOM     85  C   UNL A   1      45.184  28.830  28.521  1.00  0.00     0.198 A 
ATOM     86  F   UNL A   1      45.248  30.889  29.654  1.00  0.00    -0.203 F 
ATOM     87  F   UNL A   1      43.537  25.717  29.368  1.00  0.00    -0.200 F 
ATOM     88  C   UNL A   1      44.749  27.517  28.438  1.00  0.00     0.200 A 
ATOM     89  F   UNL A   1      45.946  29.346  27.546  1.00  0.00    -0.200 F 
ATOM     90  F   UNL A   1      45.102  26.757  27.391  1.00  0.00    -0.200 F 
ENDBRANCH  66  80
BRANCH  67  91
ATOM     91  C   UNL A   1      40.257  34.904  37.825  1.00  0.00     0.064 A 
ATOM     92  C   UNL A   1      40.573  36.256  38.018  1.00  0.00     0.173 A 
ATOM     93  C   UNL A   1      39.415  34.293  38.767  1.00  0.00     0.173 A 
ATOM     94  F   UNL A   1      41.394  36.880  37.160  1.00  0.00    -0.203 F 
ATOM     95  C   UNL A   1      40.103  36.955  39.128  1.00  0.00     0.198 A 
ATOM     96  C   UNL A   1      38.915  35.003  39.857  1.00  0.00     0.198 A 
ATOM     97  F   UNL A   1      39.077  33.001  38.632  1.00  0.00    -0.203 F 
ATOM     98  F   UNL A   1      40.482  38.225  39.326  1.00  0.00    -0.200 F 
ATOM     99  C   UNL A   1      39.271  36.329  40.044  1.00  0.00     0.200 A 
ATOM    100  F   UNL A   1      38.101  34.396  40.731  1.00  0.00    -0.200 F 
ATOM    101  F   UNL A   1      38.828  36.999  41.117  1.00  0.00    -0.200 F 
ENDBRANCH  67  91
BRANCH  79 102
ATOM    102  C   UNL A   1      46.100  31.161  37.173  1.00  0.00     0.064 A 
ATOM    103  C   UNL A   1      46.125  30.028  37.999  1.00  0.00     0.173 A 
ATOM    104  C   UNL A   1      47.210  32.019  37.205  1.00  0.00     0.173 A 
ATOM    105  F   UNL A   1      45.082  29.184  38.018  1.00  0.00    -0.203 F 
ATOM    106  C   UNL A   1      47.207  29.777  38.839  1.00  0.00     0.198 A 
ATOM    107  C   UNL A   1      48.306  31.747  38.022  1.00  0.00     0.198 A 
ATOM    108  F   UNL A   1      47.243  33.115  36.431  1.00  0.00    -0.203 F 
ATOM    109  F   UNL A   1      47.186  28.713  39.654  1.00  0.00    -0.200 F 
ATOM    110  C   UNL A   1      48.299  30.630  38.842  1.00  0.00     0.200 A 
ATOM    111  F   UNL A   1      49.367  32.564  38.010  1.00  0.00    -0.200 F 
ATOM    112  F   UNL A   1      49.345  30.379  39.642  1.00  0.00    -0.200 F 
ENDBRANCH  79 102
ENDBRANCH  53  54
ENDBRANCH  46  48
ENDBRANCH  45  46
ENDBRANCH  44  45
ENDBRANCH  43  44
ENDBRANCH  42  43
ENDBRANCH  41  42
ENDBRANCH  40  41
ENDBRANCH  39  40
ENDBRANCH   1  39
TORSDOF 27
ENDMDL
