MODEL 1
REMARK VINA RESULT:     -12.2      0.000      0.000
REMARK SMILES CC[C@@H](C(=O)Nc1ccc(OC(C)=O)cc1C(=O)OCCOCCOC(=O)c1ccc(-c2c3nc(c(-c4c(F)c(F)c(F)c(F)c4F)c4ccc([nH]4)c(-c4c(F)c(F)c(F)c(F)c4F)c4nc(c(-c5c(F)c(F)c(F)c(F)c5F)c5ccc2[nH]5)C=C4)C=C3)cc1)c1ccccc1
REMARK SMILES IDX 21 1 20 2 19 3 17 4 18 5 16 6 7 7 8 8 9 9 15 10 10 11 6 12
REMARK SMILES IDX 4 13 5 14 3 16 2 17 1 18 91 19 92 20 96 21 93 22 95 23 94 24
REMARK SMILES IDX 11 25 12 26 13 27 14 28 22 29 23 30 24 31 25 32 26 33 27 34
REMARK SMILES IDX 28 35 29 36 90 37 30 38 89 39 31 40 32 41 33 42 83 43 34 44
REMARK SMILES IDX 88 45 82 46 84 47 35 48 87 49 81 50 80 51 36 53 68 54 48 55
REMARK SMILES IDX 67 56 49 57 52 58 66 59 85 60 50 61 51 62 65 64 86 65 53 66
REMARK SMILES IDX 37 67 38 68 46 69 39 70 40 71 44 72 47 73 41 74 42 75 45 76
REMARK SMILES IDX 43 77 69 78 70 79 78 80 71 81 72 82 76 83 79 84 73 85 74 86
REMARK SMILES IDX 77 87 75 88 54 89 55 90 63 91 56 92 57 93 61 94 64 95 58 96
REMARK SMILES IDX 59 97 62 98 60 99
REMARK H PARENT 6 15 84 52 52 63
REMARK Flexibility Score: inf
ROOT
ATOM      1  C   UNL A   1      33.680  31.929  27.822  1.00  0.00     0.202 C 
ENDROOT
BRANCH   1   2
ATOM      2  C   UNL A   1      33.702  30.529  27.188  1.00  0.00     0.261 C 
BRANCH   2   3
ATOM      3  O   UNL A   1      32.642  30.196  26.281  1.00  0.00    -0.460 OA
BRANCH   3   4
ATOM      4  C   UNL A   1      32.048  29.023  26.598  1.00  0.00     0.340 C 
ATOM      5  O   UNL A   1      32.098  28.464  27.687  1.00  0.00    -0.246 OA
BRANCH   4   6
ATOM      6  C   UNL A   1      31.243  28.433  25.519  1.00  0.00     0.087 A 
ATOM      7  C   UNL A   1      30.755  27.124  25.425  1.00  0.00     0.056 A 
ATOM      8  C   UNL A   1      29.956  26.787  24.310  1.00  0.00     0.031 A 
ATOM      9  C   UNL A   1      29.517  27.761  23.410  1.00  0.00     0.049 A 
ATOM     10  C   UNL A   1      30.885  29.378  24.539  1.00  0.00     0.065 A 
ATOM     11  C   UNL A   1      29.953  29.067  23.566  1.00  0.00     0.131 A 
BRANCH   7  12
ATOM     12  N   UNL A   1      31.002  26.049  26.283  1.00  0.00    -0.325 N 
ATOM     13  C   UNL A   1      31.759  24.930  26.311  1.00  0.00     0.231 C 
ATOM     14  O   UNL A   1      31.522  24.237  27.321  1.00  0.00    -0.274 OA
ATOM     15  H   UNL A   1      30.470  26.132  27.108  1.00  0.00     0.169 HD
BRANCH  13  16
ATOM     16  C   UNL A   1      32.969  24.536  25.417  1.00  0.00     0.108 C 
BRANCH  16  17
ATOM     17  C   UNL A   1      33.222  25.113  24.017  1.00  0.00     0.015 C 
ATOM     18  C   UNL A   1      33.905  26.468  23.950  1.00  0.00     0.005 C 
ENDBRANCH  16  17
BRANCH  16  19
ATOM     19  C   UNL A   1      33.113  22.998  25.306  1.00  0.00    -0.036 A 
ATOM     20  C   UNL A   1      34.395  22.422  25.377  1.00  0.00     0.004 A 
ATOM     21  C   UNL A   1      32.022  22.142  25.086  1.00  0.00     0.004 A 
ATOM     22  C   UNL A   1      34.580  21.051  25.193  1.00  0.00     0.000 A 
ATOM     23  C   UNL A   1      32.205  20.766  24.923  1.00  0.00     0.000 A 
ATOM     24  C   UNL A   1      33.486  20.224  24.964  1.00  0.00     0.000 A 
ENDBRANCH  16  19
ENDBRANCH  13  16
ENDBRANCH   7  12
BRANCH  11  25
ATOM     25  O   UNL A   1      29.416  30.041  22.696  1.00  0.00    -0.427 OA
BRANCH  25  26
ATOM     26  C   UNL A   1      28.405  30.967  22.984  1.00  0.00     0.308 C 
ATOM     27  C   UNL A   1      28.677  32.412  22.677  1.00  0.00     0.139 C 
ATOM     28  O   UNL A   1      27.323  30.591  23.430  1.00  0.00    -0.252 OA
ENDBRANCH  25  26
ENDBRANCH  11  25
ENDBRANCH   4   6
ENDBRANCH   3   4
ENDBRANCH   2   3
ENDBRANCH   1   2
BRANCH   1  29
ATOM     29  O   UNL A   1      34.762  32.817  27.607  1.00  0.00    -0.374 OA
BRANCH  29  30
ATOM     30  C   UNL A   1      35.168  33.694  28.654  1.00  0.00     0.202 C 
BRANCH  30  31
ATOM     31  C   UNL A   1      34.411  33.664  29.984  1.00  0.00     0.261 C 
BRANCH  31  32
ATOM     32  O   UNL A   1      34.334  32.343  30.553  1.00  0.00    -0.460 OA
BRANCH  32  33
ATOM     33  C   UNL A   1      35.160  32.128  31.599  1.00  0.00     0.338 C 
ATOM     34  O   UNL A   1      35.012  32.516  32.757  1.00  0.00    -0.246 OA
BRANCH  33  35
ATOM     35  C   UNL A   1      36.243  31.209  31.234  1.00  0.00     0.060 A 
ATOM     36  C   UNL A   1      37.316  31.061  32.124  1.00  0.00     0.016 A 
ATOM     37  C   UNL A   1      36.284  30.635  29.963  1.00  0.00     0.016 A 
ATOM     38  C   UNL A   1      38.465  30.385  31.722  1.00  0.00     0.010 A 
ATOM     39  C   UNL A   1      37.445  29.973  29.555  1.00  0.00     0.010 A 
ATOM     40  C   UNL A   1      38.553  29.886  30.416  1.00  0.00    -0.014 A 
BRANCH  40  41
ATOM     41  C   UNL A   1      39.859  29.433  29.884  1.00  0.00     0.031 A 
ATOM     42  C   UNL A   1      40.986  30.424  29.793  1.00  0.00     0.074 A 
ATOM     43  C   UNL A   1      40.033  28.165  29.479  1.00  0.00     0.049 A 
ATOM     44  N   UNL A   1      42.177  30.283  29.269  1.00  0.00    -0.248 NA
ATOM     45  C   UNL A   1      40.737  31.753  30.372  1.00  0.00     0.031 C 
ATOM     46  C   UNL A   1      39.029  27.108  29.561  1.00  0.00     0.029 A 
ATOM     47  N   UNL A   1      41.118  27.561  28.897  1.00  0.00    -0.354 N 
ATOM     48  C   UNL A   1      42.815  31.503  29.448  1.00  0.00     0.074 A 
ATOM     49  C   UNL A   1      41.876  32.380  30.116  1.00  0.00     0.031 C 
ATOM     50  C   UNL A   1      39.537  25.985  29.026  1.00  0.00     0.029 A 
ATOM     51  C   UNL A   1      40.885  26.260  28.527  1.00  0.00     0.049 A 
ATOM     52  H   UNL A   1      41.980  28.016  28.758  1.00  0.00     0.167 HD
ATOM     53  C   UNL A   1      44.069  31.859  29.087  1.00  0.00     0.037 A 
ATOM     54  C   UNL A   1      41.658  25.408  27.830  1.00  0.00     0.037 A 
ATOM     55  C   UNL A   1      44.996  30.988  28.414  1.00  0.00     0.049 A 
ATOM     56  C   UNL A   1      43.014  25.859  27.350  1.00  0.00     0.074 A 
ATOM     57  C   UNL A   1      46.298  31.246  28.025  1.00  0.00     0.029 A 
ATOM     58  N   UNL A   1      44.708  29.690  28.019  1.00  0.00    -0.354 N 
ATOM     59  N   UNL A   1      43.621  27.006  27.539  1.00  0.00    -0.248 NA
ATOM     60  C   UNL A   1      43.788  24.898  26.551  1.00  0.00     0.031 C 
ATOM     61  C   UNL A   1      46.783  30.120  27.350  1.00  0.00     0.029 A 
ATOM     62  C   UNL A   1      45.797  29.145  27.360  1.00  0.00     0.049 A 
ATOM     63  H   UNL A   1      43.856  29.225  28.183  1.00  0.00     0.167 HD
ATOM     64  C   UNL A   1      44.849  26.900  26.900  1.00  0.00     0.074 A 
ATOM     65  C   UNL A   1      44.909  25.571  26.328  1.00  0.00     0.031 C 
ATOM     66  C   UNL A   1      45.839  27.820  26.797  1.00  0.00     0.037 A 
BRANCH  53  67
ATOM     67  C   UNL A   1      44.505  33.262  29.387  1.00  0.00     0.064 A 
ATOM     68  C   UNL A   1      44.320  34.302  28.465  1.00  0.00     0.173 A 
ATOM     69  C   UNL A   1      45.082  33.575  30.626  1.00  0.00     0.173 A 
ATOM     70  F   UNL A   1      43.785  34.050  27.261  1.00  0.00    -0.203 F 
ATOM     71  C   UNL A   1      44.715  35.603  28.767  1.00  0.00     0.198 A 
ATOM     72  C   UNL A   1      45.456  34.880  30.933  1.00  0.00     0.198 A 
ATOM     73  F   UNL A   1      45.278  32.614  31.543  1.00  0.00    -0.203 F 
ATOM     74  F   UNL A   1      44.564  36.576  27.857  1.00  0.00    -0.200 F 
ATOM     75  C   UNL A   1      45.277  35.892  30.002  1.00  0.00     0.200 A 
ATOM     76  F   UNL A   1      45.989  35.160  32.130  1.00  0.00    -0.200 F 
ATOM     77  F   UNL A   1      45.652  37.145  30.293  1.00  0.00    -0.200 F 
ENDBRANCH  53  67
BRANCH  54  78
ATOM     78  C   UNL A   1      41.153  24.049  27.507  1.00  0.00     0.064 A 
ATOM     79  C   UNL A   1      40.078  23.870  26.626  1.00  0.00     0.173 A 
ATOM     80  C   UNL A   1      41.724  22.906  28.085  1.00  0.00     0.173 A 
ATOM     81  F   UNL A   1      39.479  24.936  26.075  1.00  0.00    -0.203 F 
ATOM     82  C   UNL A   1      39.587  22.598  26.342  1.00  0.00     0.198 A 
ATOM     83  C   UNL A   1      41.249  21.632  27.780  1.00  0.00     0.198 A 
ATOM     84  F   UNL A   1      42.745  23.027  28.944  1.00  0.00    -0.203 F 
ATOM     85  F   UNL A   1      38.530  22.456  25.531  1.00  0.00    -0.200 F 
ATOM     86  C   UNL A   1      40.177  21.480  26.914  1.00  0.00     0.200 A 
ATOM     87  F   UNL A   1      41.823  20.556  28.333  1.00  0.00    -0.200 F 
ATOM     88  F   UNL A   1      39.704  20.256  26.641  1.00  0.00    -0.200 F 
ENDBRANCH  54  78
BRANCH  66  89
ATOM     89  C   UNL A   1      47.080  27.422  26.056  1.00  0.00     0.064 A 
ATOM     90  C   UNL A   1      48.139  26.768  26.701  1.00  0.00     0.173 A 
ATOM     91  C   UNL A   1      47.185  27.640  24.673  1.00  0.00     0.173 A 
ATOM     92  F   UNL A   1      48.093  26.550  28.024  1.00  0.00    -0.203 F 
ATOM     93  C   UNL A   1      49.266  26.359  25.991  1.00  0.00     0.198 A 
ATOM     94  C   UNL A   1      48.301  27.207  23.963  1.00  0.00     0.198 A 
ATOM     95  F   UNL A   1      46.195  28.255  24.009  1.00  0.00    -0.203 F 
ATOM     96  F   UNL A   1      50.281  25.764  26.633  1.00  0.00    -0.200 F 
ATOM     97  C   UNL A   1      49.342  26.570  24.623  1.00  0.00     0.200 A 
ATOM     98  F   UNL A   1      48.366  27.401  22.638  1.00  0.00    -0.200 F 
ATOM     99  F   UNL A   1      50.420  26.165  23.939  1.00  0.00    -0.200 F 
ENDBRANCH  66  89
ENDBRANCH  40  41
ENDBRANCH  33  35
ENDBRANCH  32  33
ENDBRANCH  31  32
ENDBRANCH  30  31
ENDBRANCH  29  30
ENDBRANCH   1  29
TORSDOF 20
ENDMDL
MODEL 2
REMARK VINA RESULT:     -11.7      3.025      8.422
REMARK SMILES CC[C@@H](C(=O)Nc1ccc(OC(C)=O)cc1C(=O)OCCOCCOC(=O)c1ccc(-c2c3nc(c(-c4c(F)c(F)c(F)c(F)c4F)c4ccc([nH]4)c(-c4c(F)c(F)c(F)c(F)c4F)c4nc(c(-c5c(F)c(F)c(F)c(F)c5F)c5ccc2[nH]5)C=C4)C=C3)cc1)c1ccccc1
REMARK SMILES IDX 21 1 20 2 19 3 17 4 18 5 16 6 7 7 8 8 9 9 15 10 10 11 6 12
REMARK SMILES IDX 4 13 5 14 3 16 2 17 1 18 91 19 92 20 96 21 93 22 95 23 94 24
REMARK SMILES IDX 11 25 12 26 13 27 14 28 22 29 23 30 24 31 25 32 26 33 27 34
REMARK SMILES IDX 28 35 29 36 90 37 30 38 89 39 31 40 32 41 33 42 83 43 34 44
REMARK SMILES IDX 88 45 82 46 84 47 35 48 87 49 81 50 80 51 36 53 68 54 48 55
REMARK SMILES IDX 67 56 49 57 52 58 66 59 85 60 50 61 51 62 65 64 86 65 53 66
REMARK SMILES IDX 37 67 38 68 46 69 39 70 40 71 44 72 47 73 41 74 42 75 45 76
REMARK SMILES IDX 43 77 69 78 70 79 78 80 71 81 72 82 76 83 79 84 73 85 74 86
REMARK SMILES IDX 77 87 75 88 54 89 55 90 63 91 56 92 57 93 61 94 64 95 58 96
REMARK SMILES IDX 59 97 62 98 60 99
REMARK H PARENT 6 15 84 52 52 63
REMARK Flexibility Score: inf
ROOT
ATOM      1  C   UNL A   1      38.386  23.613  26.310  1.00  0.00     0.202 C 
ENDROOT
BRANCH   1   2
ATOM      2  C   UNL A   1      37.270  24.102  25.374  1.00  0.00     0.261 C 
BRANCH   2   3
ATOM      3  O   UNL A   1      35.914  23.853  25.772  1.00  0.00    -0.460 OA
BRANCH   3   4
ATOM      4  C   UNL A   1      35.027  24.231  24.824  1.00  0.00     0.340 C 
ATOM      5  O   UNL A   1      35.237  24.269  23.617  1.00  0.00    -0.246 OA
BRANCH   4   6
ATOM      6  C   UNL A   1      33.691  24.568  25.337  1.00  0.00     0.087 A 
ATOM      7  C   UNL A   1      32.849  23.780  26.131  1.00  0.00     0.056 A 
ATOM      8  C   UNL A   1      31.617  24.331  26.549  1.00  0.00     0.031 A 
ATOM      9  C   UNL A   1      31.310  25.676  26.327  1.00  0.00     0.049 A 
ATOM     10  C   UNL A   1      33.314  25.888  25.024  1.00  0.00     0.065 A 
ATOM     11  C   UNL A   1      32.194  26.458  25.601  1.00  0.00     0.131 A 
BRANCH   7  12
ATOM     12  N   UNL A   1      33.039  22.458  26.539  1.00  0.00    -0.325 N 
ATOM     13  C   UNL A   1      33.106  21.227  25.984  1.00  0.00     0.231 C 
ATOM     14  O   UNL A   1      33.205  20.334  26.849  1.00  0.00    -0.274 OA
ATOM     15  H   UNL A   1      33.160  22.407  27.515  1.00  0.00     0.169 HD
BRANCH  13  16
ATOM     16  C   UNL A   1      33.292  20.828  24.492  1.00  0.00     0.108 C 
BRANCH  16  17
ATOM     17  C   UNL A   1      32.334  21.249  23.368  1.00  0.00     0.015 C 
ATOM     18  C   UNL A   1      32.734  22.464  22.549  1.00  0.00     0.005 C 
ENDBRANCH  16  17
BRANCH  16  19
ATOM     19  C   UNL A   1      33.528  19.306  24.339  1.00  0.00    -0.036 A 
ATOM     20  C   UNL A   1      34.807  18.779  24.600  1.00  0.00     0.004 A 
ATOM     21  C   UNL A   1      32.533  18.418  23.901  1.00  0.00     0.004 A 
ATOM     22  C   UNL A   1      35.088  17.429  24.390  1.00  0.00     0.000 A 
ATOM     23  C   UNL A   1      32.808  17.061  23.711  1.00  0.00     0.000 A 
ATOM     24  C   UNL A   1      34.089  16.570  23.944  1.00  0.00     0.000 A 
ENDBRANCH  16  19
ENDBRANCH  13  16
ENDBRANCH   7  12
BRANCH  11  25
ATOM     25  O   UNL A   1      31.897  27.832  25.477  1.00  0.00    -0.427 OA
BRANCH  25  26
ATOM     26  C   UNL A   1      32.656  28.908  25.954  1.00  0.00     0.308 C 
ATOM     27  C   UNL A   1      32.978  28.935  27.422  1.00  0.00     0.139 C 
ATOM     28  O   UNL A   1      33.074  29.768  25.183  1.00  0.00    -0.252 OA
ENDBRANCH  25  26
ENDBRANCH  11  25
ENDBRANCH   4   6
ENDBRANCH   3   4
ENDBRANCH   2   3
ENDBRANCH   1   2
BRANCH   1  29
ATOM     29  O   UNL A   1      38.583  22.224  26.508  1.00  0.00    -0.374 OA
BRANCH  29  30
ATOM     30  C   UNL A   1      38.468  21.335  25.401  1.00  0.00     0.202 C 
BRANCH  30  31
ATOM     31  C   UNL A   1      39.218  20.001  25.437  1.00  0.00     0.261 C 
BRANCH  31  32
ATOM     32  O   UNL A   1      40.136  19.908  26.543  1.00  0.00    -0.460 OA
BRANCH  32  33
ATOM     33  C   UNL A   1      41.412  19.633  26.198  1.00  0.00     0.338 C 
ATOM     34  O   UNL A   1      41.818  18.670  25.551  1.00  0.00    -0.246 OA
BRANCH  33  35
ATOM     35  C   UNL A   1      42.305  20.736  26.568  1.00  0.00     0.060 A 
ATOM     36  C   UNL A   1      42.338  21.143  27.910  1.00  0.00     0.016 A 
ATOM     37  C   UNL A   1      42.970  21.468  25.583  1.00  0.00     0.016 A 
ATOM     38  C   UNL A   1      42.989  22.322  28.264  1.00  0.00     0.010 A 
ATOM     39  C   UNL A   1      43.606  22.660  25.938  1.00  0.00     0.010 A 
ATOM     40  C   UNL A   1      43.578  23.112  27.269  1.00  0.00    -0.014 A 
BRANCH  40  41
ATOM     41  C   UNL A   1      44.008  24.494  27.582  1.00  0.00     0.031 A 
ATOM     42  C   UNL A   1      42.962  25.518  27.925  1.00  0.00     0.074 A 
ATOM     43  C   UNL A   1      45.307  24.833  27.549  1.00  0.00     0.049 A 
ATOM     44  N   UNL A   1      43.093  26.804  28.131  1.00  0.00    -0.248 NA
ATOM     45  C   UNL A   1      41.582  25.025  28.053  1.00  0.00     0.031 C 
ATOM     46  C   UNL A   1      46.411  23.917  27.275  1.00  0.00     0.029 A 
ATOM     47  N   UNL A   1      45.911  26.051  27.731  1.00  0.00    -0.354 N 
ATOM     48  C   UNL A   1      41.815  27.273  28.406  1.00  0.00     0.074 A 
ATOM     49  C   UNL A   1      40.919  26.139  28.326  1.00  0.00     0.031 C 
ATOM     50  C   UNL A   1      47.562  24.611  27.283  1.00  0.00     0.029 A 
ATOM     51  C   UNL A   1      47.267  26.024  27.522  1.00  0.00     0.049 A 
ATOM     52  H   UNL A   1      45.419  26.865  27.988  1.00  0.00     0.167 HD
ATOM     53  C   UNL A   1      41.427  28.536  28.698  1.00  0.00     0.037 A 
ATOM     54  C   UNL A   1      48.156  27.033  27.486  1.00  0.00     0.037 A 
ATOM     55  C   UNL A   1      42.320  29.663  28.766  1.00  0.00     0.049 A 
ATOM     56  C   UNL A   1      47.684  28.447  27.716  1.00  0.00     0.074 A 
ATOM     57  C   UNL A   1      42.028  30.979  29.075  1.00  0.00     0.029 A 
ATOM     58  N   UNL A   1      43.680  29.603  28.506  1.00  0.00    -0.354 N 
ATOM     59  N   UNL A   1      46.480  28.883  27.994  1.00  0.00    -0.248 NA
ATOM     60  C   UNL A   1      48.696  29.508  27.614  1.00  0.00     0.031 C 
ATOM     61  C   UNL A   1      43.205  31.726  28.956  1.00  0.00     0.029 A 
ATOM     62  C   UNL A   1      44.237  30.866  28.615  1.00  0.00     0.049 A 
ATOM     63  H   UNL A   1      44.177  28.784  28.278  1.00  0.00     0.167 HD
ATOM     64  C   UNL A   1      46.591  30.262  28.119  1.00  0.00     0.074 A 
ATOM     65  C   UNL A   1      47.984  30.590  27.898  1.00  0.00     0.031 C 
ATOM     66  C   UNL A   1      45.626  31.174  28.391  1.00  0.00     0.037 A 
BRANCH  53  67
ATOM     67  C   UNL A   1      39.966  28.774  28.937  1.00  0.00     0.064 A 
ATOM     68  C   UNL A   1      39.111  29.190  27.907  1.00  0.00     0.173 A 
ATOM     69  C   UNL A   1      39.410  28.548  30.204  1.00  0.00     0.173 A 
ATOM     70  F   UNL A   1      39.598  29.432  26.681  1.00  0.00    -0.203 F 
ATOM     71  C   UNL A   1      37.752  29.389  28.143  1.00  0.00     0.198 A 
ATOM     72  C   UNL A   1      38.049  28.727  30.431  1.00  0.00     0.198 A 
ATOM     73  F   UNL A   1      40.187  28.147  31.223  1.00  0.00    -0.203 F 
ATOM     74  F   UNL A   1      36.958  29.823  27.154  1.00  0.00    -0.200 F 
ATOM     75  C   UNL A   1      37.221  29.152  29.402  1.00  0.00     0.200 A 
ATOM     76  F   UNL A   1      37.535  28.489  31.646  1.00  0.00    -0.200 F 
ATOM     77  F   UNL A   1      35.914  29.340  29.627  1.00  0.00    -0.200 F 
ENDBRANCH  53  67
BRANCH  54  78
ATOM     78  C   UNL A   1      49.582  26.750  27.184  1.00  0.00     0.064 A 
ATOM     79  C   UNL A   1      50.500  26.493  28.210  1.00  0.00     0.173 A 
ATOM     80  C   UNL A   1      50.057  26.745  25.864  1.00  0.00     0.173 A 
ATOM     81  F   UNL A   1      50.099  26.520  29.490  1.00  0.00    -0.203 F 
ATOM     82  C   UNL A   1      51.843  26.252  27.929  1.00  0.00     0.198 A 
ATOM     83  C   UNL A   1      51.395  26.478  25.582  1.00  0.00     0.198 A 
ATOM     84  F   UNL A   1      49.220  26.999  24.848  1.00  0.00    -0.203 F 
ATOM     85  F   UNL A   1      52.710  26.053  28.931  1.00  0.00    -0.200 F 
ATOM     86  C   UNL A   1      52.287  26.237  26.615  1.00  0.00     0.200 A 
ATOM     87  F   UNL A   1      51.820  26.463  24.312  1.00  0.00    -0.200 F 
ATOM     88  F   UNL A   1      53.580  26.006  26.345  1.00  0.00    -0.200 F 
ENDBRANCH  54  78
BRANCH  66  89
ATOM     89  C   UNL A   1      46.041  32.612  28.487  1.00  0.00     0.064 A 
ATOM     90  C   UNL A   1      45.968  33.469  27.379  1.00  0.00     0.173 A 
ATOM     91  C   UNL A   1      46.456  33.154  29.713  1.00  0.00     0.173 A 
ATOM     92  F   UNL A   1      45.591  32.995  26.182  1.00  0.00    -0.203 F 
ATOM     93  C   UNL A   1      46.309  34.815  27.494  1.00  0.00     0.198 A 
ATOM     94  C   UNL A   1      46.771  34.505  29.829  1.00  0.00     0.198 A 
ATOM     95  F   UNL A   1      46.536  32.376  30.803  1.00  0.00    -0.203 F 
ATOM     96  F   UNL A   1      46.262  35.610  26.415  1.00  0.00    -0.200 F 
ATOM     97  C   UNL A   1      46.701  35.333  28.719  1.00  0.00     0.200 A 
ATOM     98  F   UNL A   1      47.139  35.005  31.016  1.00  0.00    -0.200 F 
ATOM     99  F   UNL A   1      47.017  36.631  28.830  1.00  0.00    -0.200 F 
ENDBRANCH  66  89
ENDBRANCH  40  41
ENDBRANCH  33  35
ENDBRANCH  32  33
ENDBRANCH  31  32
ENDBRANCH  30  31
ENDBRANCH  29  30
ENDBRANCH   1  29
TORSDOF 20
ENDMDL
MODEL 3
REMARK VINA RESULT:     -11.7      2.934      8.163
REMARK SMILES CC[C@@H](C(=O)Nc1ccc(OC(C)=O)cc1C(=O)OCCOCCOC(=O)c1ccc(-c2c3nc(c(-c4c(F)c(F)c(F)c(F)c4F)c4ccc([nH]4)c(-c4c(F)c(F)c(F)c(F)c4F)c4nc(c(-c5c(F)c(F)c(F)c(F)c5F)c5ccc2[nH]5)C=C4)C=C3)cc1)c1ccccc1
REMARK SMILES IDX 21 1 20 2 19 3 17 4 18 5 16 6 7 7 8 8 9 9 15 10 10 11 6 12
REMARK SMILES IDX 4 13 5 14 3 16 2 17 1 18 91 19 92 20 96 21 93 22 95 23 94 24
REMARK SMILES IDX 11 25 12 26 13 27 14 28 22 29 23 30 24 31 25 32 26 33 27 34
REMARK SMILES IDX 28 35 29 36 90 37 30 38 89 39 31 40 32 41 33 42 83 43 34 44
REMARK SMILES IDX 88 45 82 46 84 47 35 48 87 49 81 50 80 51 36 53 68 54 48 55
REMARK SMILES IDX 67 56 49 57 52 58 66 59 85 60 50 61 51 62 65 64 86 65 53 66
REMARK SMILES IDX 37 67 38 68 46 69 39 70 40 71 44 72 47 73 41 74 42 75 45 76
REMARK SMILES IDX 43 77 69 78 70 79 78 80 71 81 72 82 76 83 79 84 73 85 74 86
REMARK SMILES IDX 77 87 75 88 54 89 55 90 63 91 56 92 57 93 61 94 64 95 58 96
REMARK SMILES IDX 59 97 62 98 60 99
REMARK H PARENT 6 15 84 52 52 63
REMARK Flexibility Score: inf
ROOT
ATOM      1  C   UNL A   1      38.423  23.284  26.362  1.00  0.00     0.202 C 
ENDROOT
BRANCH   1   2
ATOM      2  C   UNL A   1      37.352  23.880  25.435  1.00  0.00     0.261 C 
BRANCH   2   3
ATOM      3  O   UNL A   1      35.978  23.691  25.802  1.00  0.00    -0.460 OA
BRANCH   3   4
ATOM      4  C   UNL A   1      35.130  24.173  24.867  1.00  0.00     0.340 C 
ATOM      5  O   UNL A   1      35.372  24.298  23.672  1.00  0.00    -0.246 OA
BRANCH   4   6
ATOM      6  C   UNL A   1      33.793  24.517  25.373  1.00  0.00     0.087 A 
ATOM      7  C   UNL A   1      32.976  23.766  26.228  1.00  0.00     0.056 A 
ATOM      8  C   UNL A   1      31.737  24.320  26.624  1.00  0.00     0.031 A 
ATOM      9  C   UNL A   1      31.401  25.640  26.319  1.00  0.00     0.049 A 
ATOM     10  C   UNL A   1      33.386  25.806  24.979  1.00  0.00     0.065 A 
ATOM     11  C   UNL A   1      32.261  26.390  25.532  1.00  0.00     0.131 A 
BRANCH   7  12
ATOM     12  N   UNL A   1      33.197  22.478  26.718  1.00  0.00    -0.325 N 
ATOM     13  C   UNL A   1      33.229  21.209  26.253  1.00  0.00     0.231 C 
ATOM     14  O   UNL A   1      33.390  20.383  27.173  1.00  0.00    -0.274 OA
ATOM     15  H   UNL A   1      33.386  22.499  27.685  1.00  0.00     0.169 HD
BRANCH  13  16
ATOM     16  C   UNL A   1      33.312  20.700  24.786  1.00  0.00     0.108 C 
BRANCH  16  17
ATOM     17  C   UNL A   1      32.299  21.070  23.693  1.00  0.00     0.015 C 
ATOM     18  C   UNL A   1      32.653  22.252  22.806  1.00  0.00     0.005 C 
ENDBRANCH  16  17
BRANCH  16  19
ATOM     19  C   UNL A   1      33.495  19.163  24.731  1.00  0.00    -0.036 A 
ATOM     20  C   UNL A   1      34.779  18.633  24.506  1.00  0.00     0.004 A 
ATOM     21  C   UNL A   1      32.425  18.261  24.845  1.00  0.00     0.004 A 
ATOM     22  C   UNL A   1      34.976  17.259  24.360  1.00  0.00     0.000 A 
ATOM     23  C   UNL A   1      32.626  16.883  24.720  1.00  0.00     0.000 A 
ATOM     24  C   UNL A   1      33.900  16.384  24.466  1.00  0.00     0.000 A 
ENDBRANCH  16  19
ENDBRANCH  13  16
ENDBRANCH   7  12
BRANCH  11  25
ATOM     25  O   UNL A   1      31.934  27.747  25.322  1.00  0.00    -0.427 OA
BRANCH  25  26
ATOM     26  C   UNL A   1      32.681  28.867  25.712  1.00  0.00     0.308 C 
ATOM     27  C   UNL A   1      33.062  28.978  27.161  1.00  0.00     0.139 C 
ATOM     28  O   UNL A   1      33.041  29.697  24.882  1.00  0.00    -0.252 OA
ENDBRANCH  25  26
ENDBRANCH  11  25
ENDBRANCH   4   6
ENDBRANCH   3   4
ENDBRANCH   2   3
ENDBRANCH   1   2
BRANCH   1  29
ATOM     29  O   UNL A   1      38.543  21.878  26.489  1.00  0.00    -0.374 OA
BRANCH  29  30
ATOM     30  C   UNL A   1      38.561  21.067  25.317  1.00  0.00     0.202 C 
BRANCH  30  31
ATOM     31  C   UNL A   1      39.316  19.736  25.345  1.00  0.00     0.261 C 
BRANCH  31  32
ATOM     32  O   UNL A   1      40.168  19.602  26.498  1.00  0.00    -0.460 OA
BRANCH  32  33
ATOM     33  C   UNL A   1      41.476  19.421  26.218  1.00  0.00     0.338 C 
ATOM     34  O   UNL A   1      41.998  18.431  25.708  1.00  0.00    -0.246 OA
BRANCH  33  35
ATOM     35  C   UNL A   1      42.241  20.649  26.462  1.00  0.00     0.060 A 
ATOM     36  C   UNL A   1      42.316  21.134  27.775  1.00  0.00     0.016 A 
ATOM     37  C   UNL A   1      42.730  21.401  25.393  1.00  0.00     0.016 A 
ATOM     38  C   UNL A   1      42.830  22.405  28.019  1.00  0.00     0.010 A 
ATOM     39  C   UNL A   1      43.228  22.683  25.638  1.00  0.00     0.010 A 
ATOM     40  C   UNL A   1      43.237  23.205  26.943  1.00  0.00    -0.014 A 
BRANCH  40  41
ATOM     41  C   UNL A   1      43.503  24.646  27.153  1.00  0.00     0.031 A 
ATOM     42  C   UNL A   1      44.896  25.165  26.929  1.00  0.00     0.074 A 
ATOM     43  C   UNL A   1      42.524  25.475  27.549  1.00  0.00     0.049 A 
ATOM     44  N   UNL A   1      45.384  26.360  27.149  1.00  0.00    -0.248 NA
ATOM     45  C   UNL A   1      45.871  24.208  26.381  1.00  0.00     0.031 C 
ATOM     46  C   UNL A   1      41.129  25.094  27.754  1.00  0.00     0.029 A 
ATOM     47  N   UNL A   1      42.565  26.808  27.868  1.00  0.00    -0.354 N 
ATOM     48  C   UNL A   1      46.720  26.296  26.774  1.00  0.00     0.074 A 
ATOM     49  C   UNL A   1      46.972  24.942  26.327  1.00  0.00     0.031 C 
ATOM     50  C   UNL A   1      40.447  26.168  28.188  1.00  0.00     0.029 A 
ATOM     51  C   UNL A   1      41.368  27.295  28.329  1.00  0.00     0.049 A 
ATOM     52  H   UNL A   1      43.374  27.362  27.773  1.00  0.00     0.167 HD
ATOM     53  C   UNL A   1      47.650  27.278  26.803  1.00  0.00     0.037 A 
ATOM     54  C   UNL A   1      41.067  28.501  28.846  1.00  0.00     0.037 A 
ATOM     55  C   UNL A   1      47.398  28.619  27.258  1.00  0.00     0.049 A 
ATOM     56  C   UNL A   1      42.145  29.549  28.960  1.00  0.00     0.074 A 
ATOM     57  C   UNL A   1      48.269  29.693  27.306  1.00  0.00     0.029 A 
ATOM     58  N   UNL A   1      46.184  29.063  27.759  1.00  0.00    -0.354 N 
ATOM     59  N   UNL A   1      43.400  29.491  28.588  1.00  0.00    -0.248 NA
ATOM     60  C   UNL A   1      41.763  30.827  29.579  1.00  0.00     0.031 C 
ATOM     61  C   UNL A   1      47.593  30.776  27.880  1.00  0.00     0.029 A 
ATOM     62  C   UNL A   1      46.290  30.388  28.149  1.00  0.00     0.049 A 
ATOM     63  H   UNL A   1      45.367  28.518  27.826  1.00  0.00     0.167 HD
ATOM     64  C   UNL A   1      43.952  30.724  28.908  1.00  0.00     0.074 A 
ATOM     65  C   UNL A   1      42.893  31.517  29.495  1.00  0.00     0.031 C 
ATOM     66  C   UNL A   1      45.224  31.161  28.731  1.00  0.00     0.037 A 
BRANCH  53  67
ATOM     67  C   UNL A   1      49.039  26.930  26.355  1.00  0.00     0.064 A 
ATOM     68  C   UNL A   1      49.991  26.415  27.245  1.00  0.00     0.173 A 
ATOM     69  C   UNL A   1      49.408  27.083  25.011  1.00  0.00     0.173 A 
ATOM     70  F   UNL A   1      49.689  26.264  28.543  1.00  0.00    -0.203 F 
ATOM     71  C   UNL A   1      51.271  26.081  26.808  1.00  0.00     0.198 A 
ATOM     72  C   UNL A   1      50.680  26.728  24.573  1.00  0.00     0.198 A 
ATOM     73  F   UNL A   1      48.531  27.570  24.119  1.00  0.00    -0.203 F 
ATOM     74  F   UNL A   1      52.178  25.625  27.683  1.00  0.00    -0.200 F 
ATOM     75  C   UNL A   1      51.613  26.232  25.473  1.00  0.00     0.200 A 
ATOM     76  F   UNL A   1      51.006  26.865  23.280  1.00  0.00    -0.200 F 
ATOM     77  F   UNL A   1      52.842  25.906  25.052  1.00  0.00    -0.200 F 
ENDBRANCH  53  67
BRANCH  54  78
ATOM     78  C   UNL A   1      39.691  28.773  29.332  1.00  0.00     0.064 A 
ATOM     79  C   UNL A   1      38.733  29.360  28.495  1.00  0.00     0.173 A 
ATOM     80  C   UNL A   1      39.312  28.465  30.647  1.00  0.00     0.173 A 
ATOM     81  F   UNL A   1      39.060  29.702  27.240  1.00  0.00    -0.203 F 
ATOM     82  C   UNL A   1      37.449  29.638  28.958  1.00  0.00     0.198 A 
ATOM     83  C   UNL A   1      38.019  28.719  31.101  1.00  0.00     0.198 A 
ATOM     84  F   UNL A   1      40.196  27.915  31.490  1.00  0.00    -0.203 F 
ATOM     85  F   UNL A   1      36.564  30.240  28.152  1.00  0.00    -0.200 F 
ATOM     86  C   UNL A   1      37.091  29.311  30.258  1.00  0.00     0.200 A 
ATOM     87  F   UNL A   1      37.677  28.401  32.356  1.00  0.00    -0.200 F 
ATOM     88  F   UNL A   1      35.856  29.579  30.702  1.00  0.00    -0.200 F 
ENDBRANCH  54  78
BRANCH  66  89
ATOM     89  C   UNL A   1      45.539  32.564  29.158  1.00  0.00     0.064 A 
ATOM     90  C   UNL A   1      46.064  32.841  30.428  1.00  0.00     0.173 A 
ATOM     91  C   UNL A   1      45.373  33.634  28.266  1.00  0.00     0.173 A 
ATOM     92  F   UNL A   1      46.228  31.854  31.322  1.00  0.00    -0.203 F 
ATOM     93  C   UNL A   1      46.399  34.143  30.794  1.00  0.00     0.198 A 
ATOM     94  C   UNL A   1      45.733  34.929  28.627  1.00  0.00     0.198 A 
ATOM     95  F   UNL A   1      44.880  33.419  27.037  1.00  0.00    -0.203 F 
ATOM     96  F   UNL A   1      46.871  34.390  32.025  1.00  0.00    -0.200 F 
ATOM     97  C   UNL A   1      46.242  35.183  29.891  1.00  0.00     0.200 A 
ATOM     98  F   UNL A   1      45.591  35.931  27.748  1.00  0.00    -0.200 F 
ATOM     99  F   UNL A   1      46.577  36.433  30.241  1.00  0.00    -0.200 F 
ENDBRANCH  66  89
ENDBRANCH  40  41
ENDBRANCH  33  35
ENDBRANCH  32  33
ENDBRANCH  31  32
ENDBRANCH  30  31
ENDBRANCH  29  30
ENDBRANCH   1  29
TORSDOF 20
ENDMDL
