MODEL 1
REMARK VINA RESULT:     -11.1      0.000      0.000
REMARK SMILES Cc1cc(C[N@H+]2CCN(C)C(=O)C2(C)C)oc1C(=O)OCCOCCOC(=O)c1ccc(-c2c3nc(c(-c4c(F)c(F)c(F)c(F)c4F)c4ccc([nH]4)c(-c4c(F)c(F)c(F)c(F)c4F)c4nc(c(-c5c(F)c(F)c(F)c(F)c5F)c5ccc2[nH]5)C=C4)C=C3)cc1
REMARK SMILES IDX 23 1 22 2 21 3 20 4 18 5 19 6 17 7 1 8 2 9 3 10 4 11 16 12
REMARK SMILES IDX 5 13 6 14 7 15 13 16 8 18 11 19 14 20 15 21 9 22 12 23 10 24
REMARK SMILES IDX 24 25 25 26 26 27 27 28 28 29 29 30 30 31 91 32 31 33 90 34
REMARK SMILES IDX 32 35 33 36 34 37 84 38 35 39 89 40 83 41 85 42 36 43 88 44
REMARK SMILES IDX 82 45 81 46 37 48 69 49 49 50 68 51 50 52 53 53 67 54 86 55
REMARK SMILES IDX 51 56 52 57 66 59 87 60 54 61 38 62 39 63 47 64 40 65 41 66
REMARK SMILES IDX 45 67 48 68 42 69 43 70 46 71 44 72 70 73 71 74 79 75 72 76
REMARK SMILES IDX 73 77 77 78 80 79 74 80 75 81 78 82 76 83 55 84 56 85 64 86
REMARK SMILES IDX 57 87 58 88 62 89 65 90 59 91 60 92 63 93 61 94
REMARK H PARENT 6 17 85 47 53 58
REMARK Flexibility Score: inf
ROOT
ATOM      1  O   UNL A   1      44.878  21.760  25.883  1.00  0.00    -0.374 OA
ENDROOT
BRANCH   1   2
ATOM      2  C   UNL A   1      43.606  21.131  25.724  1.00  0.00     0.202 C 
BRANCH   2   3
ATOM      3  C   UNL A   1      42.437  22.119  25.703  1.00  0.00     0.261 C 
BRANCH   3   4
ATOM      4  O   UNL A   1      41.198  21.404  25.830  1.00  0.00    -0.457 OA
BRANCH   4   5
ATOM      5  C   UNL A   1      40.455  21.672  26.940  1.00  0.00     0.374 C 
ATOM      6  O   UNL A   1      40.770  21.347  28.079  1.00  0.00    -0.242 OA
BRANCH   5   7
ATOM      7  C   UNL A   1      39.310  22.484  26.583  1.00  0.00     0.215 A 
ATOM      8  C   UNL A   1      39.630  24.895  27.545  1.00  0.00     0.049 C 
ATOM      9  C   UNL A   1      38.943  23.808  26.803  1.00  0.00     0.003 A 
ATOM     10  C   UNL A   1      37.699  23.977  26.132  1.00  0.00     0.056 A 
ATOM     11  C   UNL A   1      37.288  22.737  25.701  1.00  0.00     0.159 A 
ATOM     12  O   UNL A   1      38.284  21.838  25.936  1.00  0.00    -0.448 OA
BRANCH  11  13
ATOM     13  C   UNL A   1      36.066  22.207  25.023  1.00  0.00     0.339 C 
BRANCH  13  14
ATOM     14  N   UNL A   1      34.822  22.992  25.132  1.00  0.00    -0.315 N 
ATOM     15  C   UNL A   1      34.504  23.762  23.926  1.00  0.00     0.285 C 
ATOM     16  C   UNL A   1      33.619  22.332  25.713  1.00  0.00     0.172 C 
ATOM     17  H   UNL A   1      35.086  23.646  25.869  1.00  0.00     0.349 HD
ATOM     18  C   UNL A   1      33.749  22.973  22.853  1.00  0.00     0.180 C 
ATOM     19  C   UNL A   1      32.812  21.517  24.653  1.00  0.00     0.283 C 
ATOM     20  C   UNL A   1      33.968  21.461  26.941  1.00  0.00     0.090 C 
ATOM     21  C   UNL A   1      32.631  23.407  26.232  1.00  0.00     0.090 C 
ATOM     22  N   UNL A   1      32.756  22.031  23.358  1.00  0.00    -0.335 N 
ATOM     23  O   UNL A   1      32.165  20.518  24.979  1.00  0.00    -0.268 OA
ATOM     24  C   UNL A   1      31.882  21.419  22.374  1.00  0.00     0.147 C 
ENDBRANCH  13  14
ENDBRANCH  11  13
ENDBRANCH   5   7
ENDBRANCH   4   5
ENDBRANCH   3   4
ENDBRANCH   2   3
ENDBRANCH   1   2
BRANCH   1  25
ATOM     25  C   UNL A   1      45.716  21.778  24.726  1.00  0.00     0.202 C 
BRANCH  25  26
ATOM     26  C   UNL A   1      46.076  23.188  24.252  1.00  0.00     0.261 C 
BRANCH  26  27
ATOM     27  O   UNL A   1      45.089  24.133  24.707  1.00  0.00    -0.460 OA
BRANCH  27  28
ATOM     28  C   UNL A   1      45.567  25.365  24.999  1.00  0.00     0.338 C 
ATOM     29  O   UNL A   1      46.514  25.932  24.481  1.00  0.00    -0.246 OA
BRANCH  28  30
ATOM     30  C   UNL A   1      44.669  26.034  25.961  1.00  0.00     0.060 A 
ATOM     31  C   UNL A   1      44.740  27.430  26.043  1.00  0.00     0.016 A 
ATOM     32  C   UNL A   1      43.808  25.320  26.802  1.00  0.00     0.016 A 
ATOM     33  C   UNL A   1      43.991  28.115  26.998  1.00  0.00     0.010 A 
ATOM     34  C   UNL A   1      43.060  26.008  27.763  1.00  0.00     0.010 A 
ATOM     35  C   UNL A   1      43.174  27.404  27.887  1.00  0.00    -0.014 A 
BRANCH  35  36
ATOM     36  C   UNL A   1      42.555  28.112  29.033  1.00  0.00     0.031 A 
ATOM     37  C   UNL A   1      43.289  28.159  30.344  1.00  0.00     0.074 A 
ATOM     38  C   UNL A   1      41.371  28.734  28.900  1.00  0.00     0.049 A 
ATOM     39  N   UNL A   1      42.933  28.708  31.478  1.00  0.00    -0.248 NA
ATOM     40  C   UNL A   1      44.602  27.496  30.383  1.00  0.00     0.031 C 
ATOM     41  C   UNL A   1      40.580  28.788  27.674  1.00  0.00     0.029 A 
ATOM     42  N   UNL A   1      40.627  29.436  29.815  1.00  0.00    -0.354 N 
ATOM     43  C   UNL A   1      43.974  28.458  32.362  1.00  0.00     0.074 A 
ATOM     44  C   UNL A   1      44.962  27.682  31.645  1.00  0.00     0.031 C 
ATOM     45  C   UNL A   1      39.452  29.479  27.914  1.00  0.00     0.029 A 
ATOM     46  C   UNL A   1      39.433  29.893  29.315  1.00  0.00     0.049 A 
ATOM     47  H   UNL A   1      40.921  29.597  30.740  1.00  0.00     0.167 HD
ATOM     48  C   UNL A   1      44.099  28.851  33.651  1.00  0.00     0.037 A 
ATOM     49  C   UNL A   1      38.432  30.556  29.928  1.00  0.00     0.037 A 
ATOM     50  C   UNL A   1      43.118  29.624  34.366  1.00  0.00     0.049 A 
ATOM     51  C   UNL A   1      38.568  30.926  31.382  1.00  0.00     0.074 A 
ATOM     52  C   UNL A   1      43.165  30.086  35.669  1.00  0.00     0.029 A 
ATOM     53  N   UNL A   1      41.907  30.044  33.835  1.00  0.00    -0.354 N 
ATOM     54  N   UNL A   1      39.568  30.710  32.202  1.00  0.00    -0.248 NA
ATOM     55  C   UNL A   1      37.435  31.633  31.995  1.00  0.00     0.031 C 
ATOM     56  C   UNL A   1      41.963  30.750  35.941  1.00  0.00     0.029 A 
ATOM     57  C   UNL A   1      41.188  30.740  34.793  1.00  0.00     0.049 A 
ATOM     58  H   UNL A   1      41.605  29.873  32.914  1.00  0.00     0.167 HD
ATOM     59  C   UNL A   1      39.198  31.277  33.415  1.00  0.00     0.074 A 
ATOM     60  C   UNL A   1      37.885  31.855  33.222  1.00  0.00     0.031 C 
ATOM     61  C   UNL A   1      39.885  31.315  34.583  1.00  0.00     0.037 A 
BRANCH  48  62
ATOM     62  C   UNL A   1      45.340  28.431  34.383  1.00  0.00     0.064 A 
ATOM     63  C   UNL A   1      46.478  29.249  34.425  1.00  0.00     0.173 A 
ATOM     64  C   UNL A   1      45.377  27.213  35.077  1.00  0.00     0.173 A 
ATOM     65  F   UNL A   1      46.496  30.416  33.764  1.00  0.00    -0.203 F 
ATOM     66  C   UNL A   1      47.619  28.851  35.119  1.00  0.00     0.198 A 
ATOM     67  C   UNL A   1      46.510  26.830  35.789  1.00  0.00     0.198 A 
ATOM     68  F   UNL A   1      44.313  26.397  35.068  1.00  0.00    -0.203 F 
ATOM     69  F   UNL A   1      48.711  29.628  35.112  1.00  0.00    -0.200 F 
ATOM     70  C   UNL A   1      47.632  27.646  35.805  1.00  0.00     0.200 A 
ATOM     71  F   UNL A   1      46.517  25.669  36.458  1.00  0.00    -0.200 F 
ATOM     72  F   UNL A   1      48.728  27.267  36.475  1.00  0.00    -0.200 F 
ENDBRANCH  48  62
BRANCH  49  73
ATOM     73  C   UNL A   1      37.204  30.906  29.170  1.00  0.00     0.064 A 
ATOM     74  C   UNL A   1      36.245  29.933  28.856  1.00  0.00     0.173 A 
ATOM     75  C   UNL A   1      36.974  32.217  28.729  1.00  0.00     0.173 A 
ATOM     76  F   UNL A   1      36.435  28.660  29.233  1.00  0.00    -0.203 F 
ATOM     77  C   UNL A   1      35.110  30.256  28.116  1.00  0.00     0.198 A 
ATOM     78  C   UNL A   1      35.825  32.544  28.013  1.00  0.00     0.198 A 
ATOM     79  F   UNL A   1      37.863  33.183  29.002  1.00  0.00    -0.203 F 
ATOM     80  F   UNL A   1      34.228  29.299  27.793  1.00  0.00    -0.200 F 
ATOM     81  C   UNL A   1      34.897  31.563  27.700  1.00  0.00     0.200 A 
ATOM     82  F   UNL A   1      35.620  33.809  27.620  1.00  0.00    -0.200 F 
ATOM     83  F   UNL A   1      33.803  31.872  26.991  1.00  0.00    -0.200 F 
ENDBRANCH  49  73
BRANCH  61  84
ATOM     84  C   UNL A   1      39.246  32.032  35.736  1.00  0.00     0.064 A 
ATOM     85  C   UNL A   1      38.402  31.367  36.638  1.00  0.00     0.173 A 
ATOM     86  C   UNL A   1      39.516  33.389  35.966  1.00  0.00     0.173 A 
ATOM     87  F   UNL A   1      38.102  30.073  36.451  1.00  0.00    -0.203 F 
ATOM     88  C   UNL A   1      37.836  32.041  37.717  1.00  0.00     0.198 A 
ATOM     89  C   UNL A   1      38.970  34.053  37.060  1.00  0.00     0.198 A 
ATOM     90  F   UNL A   1      40.323  34.068  35.135  1.00  0.00    -0.203 F 
ATOM     91  F   UNL A   1      37.000  31.397  38.542  1.00  0.00    -0.200 F 
ATOM     92  C   UNL A   1      38.125  33.380  37.931  1.00  0.00     0.200 A 
ATOM     93  F   UNL A   1      39.260  35.344  37.272  1.00  0.00    -0.200 F 
ATOM     94  F   UNL A   1      37.585  34.026  38.974  1.00  0.00    -0.200 F 
ENDBRANCH  61  84
ENDBRANCH  35  36
ENDBRANCH  28  30
ENDBRANCH  27  28
ENDBRANCH  26  27
ENDBRANCH  25  26
ENDBRANCH   1  25
TORSDOF 16
ENDMDL
MODEL 2
REMARK VINA RESULT:     -11.1      3.607      8.900
REMARK SMILES Cc1cc(C[N@H+]2CCN(C)C(=O)C2(C)C)oc1C(=O)OCCOCCOC(=O)c1ccc(-c2c3nc(c(-c4c(F)c(F)c(F)c(F)c4F)c4ccc([nH]4)c(-c4c(F)c(F)c(F)c(F)c4F)c4nc(c(-c5c(F)c(F)c(F)c(F)c5F)c5ccc2[nH]5)C=C4)C=C3)cc1
REMARK SMILES IDX 23 1 22 2 21 3 20 4 18 5 19 6 17 7 1 8 2 9 3 10 4 11 16 12
REMARK SMILES IDX 5 13 6 14 7 15 13 16 8 18 11 19 14 20 15 21 9 22 12 23 10 24
REMARK SMILES IDX 24 25 25 26 26 27 27 28 28 29 29 30 30 31 91 32 31 33 90 34
REMARK SMILES IDX 32 35 33 36 34 37 84 38 35 39 89 40 83 41 85 42 36 43 88 44
REMARK SMILES IDX 82 45 81 46 37 48 69 49 49 50 68 51 50 52 53 53 67 54 86 55
REMARK SMILES IDX 51 56 52 57 66 59 87 60 54 61 38 62 39 63 47 64 40 65 41 66
REMARK SMILES IDX 45 67 48 68 42 69 43 70 46 71 44 72 70 73 71 74 79 75 72 76
REMARK SMILES IDX 73 77 77 78 80 79 74 80 75 81 78 82 76 83 55 84 56 85 64 86
REMARK SMILES IDX 57 87 58 88 62 89 65 90 59 91 60 92 63 93 61 94
REMARK H PARENT 6 17 85 47 53 58
REMARK Flexibility Score: inf
ROOT
ATOM      1  O   UNL A   1      32.483  30.660  27.167  1.00  0.00    -0.374 OA
ENDROOT
BRANCH   1   2
ATOM      2  C   UNL A   1      31.932  29.343  27.111  1.00  0.00     0.202 C 
BRANCH   2   3
ATOM      3  C   UNL A   1      31.899  28.758  25.697  1.00  0.00     0.261 C 
BRANCH   3   4
ATOM      4  O   UNL A   1      33.117  28.040  25.443  1.00  0.00    -0.457 OA
BRANCH   4   5
ATOM      5  C   UNL A   1      33.461  27.875  24.136  1.00  0.00     0.374 C 
ATOM      6  O   UNL A   1      34.238  28.601  23.527  1.00  0.00    -0.242 OA
BRANCH   5   7
ATOM      7  C   UNL A   1      32.862  26.663  23.617  1.00  0.00     0.215 A 
ATOM      8  C   UNL A   1      30.513  27.223  22.613  1.00  0.00     0.049 C 
ATOM      9  C   UNL A   1      31.664  26.359  22.978  1.00  0.00     0.003 A 
ATOM     10  C   UNL A   1      31.726  24.967  22.689  1.00  0.00     0.056 A 
ATOM     11  C   UNL A   1      32.846  24.463  23.310  1.00  0.00     0.159 A 
ATOM     12  O   UNL A   1      33.558  25.498  23.836  1.00  0.00    -0.448 OA
BRANCH  11  13
ATOM     13  C   UNL A   1      33.436  23.101  23.477  1.00  0.00     0.339 C 
BRANCH  13  14
ATOM     14  N   UNL A   1      33.268  22.432  24.781  1.00  0.00    -0.315 N 
ATOM     15  C   UNL A   1      32.171  21.459  24.807  1.00  0.00     0.285 C 
ATOM     16  C   UNL A   1      34.484  21.927  25.478  1.00  0.00     0.172 C 
ATOM     17  H   UNL A   1      33.002  23.228  25.359  1.00  0.00     0.349 HD
ATOM     18  C   UNL A   1      32.549  20.067  24.295  1.00  0.00     0.180 C 
ATOM     19  C   UNL A   1      34.907  20.504  24.993  1.00  0.00     0.283 C 
ATOM     20  C   UNL A   1      35.663  22.923  25.386  1.00  0.00     0.090 C 
ATOM     21  C   UNL A   1      34.192  21.767  26.991  1.00  0.00     0.090 C 
ATOM     22  N   UNL A   1      33.888  19.614  24.658  1.00  0.00    -0.335 N 
ATOM     23  O   UNL A   1      36.090  20.154  25.008  1.00  0.00    -0.268 OA
ATOM     24  C   UNL A   1      34.205  18.227  24.371  1.00  0.00     0.147 C 
ENDBRANCH  13  14
ENDBRANCH  11  13
ENDBRANCH   5   7
ENDBRANCH   4   5
ENDBRANCH   3   4
ENDBRANCH   2   3
ENDBRANCH   1   2
BRANCH   1  25
ATOM     25  C   UNL A   1      31.739  31.678  26.495  1.00  0.00     0.202 C 
BRANCH  25  26
ATOM     26  C   UNL A   1      32.015  33.087  27.024  1.00  0.00     0.261 C 
BRANCH  26  27
ATOM     27  O   UNL A   1      32.968  33.037  28.103  1.00  0.00    -0.460 OA
BRANCH  27  28
ATOM     28  C   UNL A   1      34.079  33.788  27.921  1.00  0.00     0.338 C 
ATOM     29  O   UNL A   1      34.133  34.958  27.585  1.00  0.00    -0.246 OA
BRANCH  28  30
ATOM     30  C   UNL A   1      35.271  33.027  28.348  1.00  0.00     0.060 A 
ATOM     31  C   UNL A   1      35.074  31.704  28.760  1.00  0.00     0.016 A 
ATOM     32  C   UNL A   1      36.547  33.599  28.393  1.00  0.00     0.016 A 
ATOM     33  C   UNL A   1      36.140  30.963  29.267  1.00  0.00     0.010 A 
ATOM     34  C   UNL A   1      37.615  32.856  28.906  1.00  0.00     0.010 A 
ATOM     35  C   UNL A   1      37.409  31.548  29.376  1.00  0.00    -0.014 A 
BRANCH  35  36
ATOM     36  C   UNL A   1      38.479  30.834  30.114  1.00  0.00     0.031 A 
ATOM     37  C   UNL A   1      38.704  31.156  31.565  1.00  0.00     0.074 A 
ATOM     38  C   UNL A   1      39.218  29.888  29.509  1.00  0.00     0.049 A 
ATOM     39  N   UNL A   1      39.588  30.667  32.397  1.00  0.00    -0.248 NA
ATOM     40  C   UNL A   1      37.813  32.166  32.157  1.00  0.00     0.031 C 
ATOM     41  C   UNL A   1      39.073  29.464  28.119  1.00  0.00     0.029 A 
ATOM     42  N   UNL A   1      40.245  29.117  29.993  1.00  0.00    -0.354 N 
ATOM     43  C   UNL A   1      39.361  31.308  33.608  1.00  0.00     0.074 A 
ATOM     44  C   UNL A   1      38.277  32.243  33.396  1.00  0.00     0.031 C 
ATOM     45  C   UNL A   1      39.986  28.513  27.857  1.00  0.00     0.029 A 
ATOM     46  C   UNL A   1      40.794  28.281  29.053  1.00  0.00     0.049 A 
ATOM     47  H   UNL A   1      40.557  29.158  30.926  1.00  0.00     0.167 HD
ATOM     48  C   UNL A   1      39.990  31.124  34.792  1.00  0.00     0.037 A 
ATOM     49  C   UNL A   1      41.841  27.438  29.146  1.00  0.00     0.037 A 
ATOM     50  C   UNL A   1      41.068  30.194  35.005  1.00  0.00     0.049 A 
ATOM     51  C   UNL A   1      42.567  27.299  30.459  1.00  0.00     0.074 A 
ATOM     52  C   UNL A   1      41.756  29.923  36.174  1.00  0.00     0.029 A 
ATOM     53  N   UNL A   1      41.616  29.385  34.020  1.00  0.00    -0.354 N 
ATOM     54  N   UNL A   1      42.327  27.888  31.605  1.00  0.00    -0.248 NA
ATOM     55  C   UNL A   1      43.710  26.375  30.490  1.00  0.00     0.031 C 
ATOM     56  C   UNL A   1      42.750  28.981  35.888  1.00  0.00     0.029 A 
ATOM     57  C   UNL A   1      42.651  28.632  34.551  1.00  0.00     0.049 A 
ATOM     58  H   UNL A   1      41.314  29.351  33.084  1.00  0.00     0.167 HD
ATOM     59  C   UNL A   1      43.267  27.387  32.497  1.00  0.00     0.074 A 
ATOM     60  C   UNL A   1      44.077  26.440  31.762  1.00  0.00     0.031 C 
ATOM     61  C   UNL A   1      43.443  27.687  33.808  1.00  0.00     0.037 A 
BRANCH  48  62
ATOM     62  C   UNL A   1      39.542  31.965  35.950  1.00  0.00     0.064 A 
ATOM     63  C   UNL A   1      38.479  31.569  36.775  1.00  0.00     0.173 A 
ATOM     64  C   UNL A   1      40.204  33.163  36.257  1.00  0.00     0.173 A 
ATOM     65  F   UNL A   1      37.805  30.440  36.513  1.00  0.00    -0.203 F 
ATOM     66  C   UNL A   1      38.081  32.355  37.855  1.00  0.00     0.198 A 
ATOM     67  C   UNL A   1      39.819  33.933  37.350  1.00  0.00     0.198 A 
ATOM     68  F   UNL A   1      41.228  33.583  35.499  1.00  0.00    -0.203 F 
ATOM     69  F   UNL A   1      37.037  31.980  38.606  1.00  0.00    -0.200 F 
ATOM     70  C   UNL A   1      38.755  33.532  38.145  1.00  0.00     0.200 A 
ATOM     71  F   UNL A   1      40.477  35.065  37.635  1.00  0.00    -0.200 F 
ATOM     72  F   UNL A   1      38.374  34.285  39.186  1.00  0.00    -0.200 F 
ENDBRANCH  48  62
BRANCH  49  73
ATOM     73  C   UNL A   1      42.275  26.663  27.955  1.00  0.00     0.064 A 
ATOM     74  C   UNL A   1      43.277  27.147  27.103  1.00  0.00     0.173 A 
ATOM     75  C   UNL A   1      41.684  25.433  27.638  1.00  0.00     0.173 A 
ATOM     76  F   UNL A   1      43.853  28.332  27.352  1.00  0.00    -0.203 F 
ATOM     77  C   UNL A   1      43.660  26.435  25.969  1.00  0.00     0.198 A 
ATOM     78  C   UNL A   1      42.086  24.709  26.518  1.00  0.00     0.198 A 
ATOM     79  F   UNL A   1      40.719  24.929  28.420  1.00  0.00    -0.203 F 
ATOM     80  F   UNL A   1      44.591  26.939  25.147  1.00  0.00    -0.200 F 
ATOM     81  C   UNL A   1      43.069  25.214  25.680  1.00  0.00     0.200 A 
ATOM     82  F   UNL A   1      41.518  23.526  26.247  1.00  0.00    -0.200 F 
ATOM     83  F   UNL A   1      43.440  24.529  24.590  1.00  0.00    -0.200 F 
ENDBRANCH  49  73
BRANCH  61  84
ATOM     84  C   UNL A   1      44.532  26.961  34.541  1.00  0.00     0.064 A 
ATOM     85  C   UNL A   1      45.823  27.495  34.657  1.00  0.00     0.173 A 
ATOM     86  C   UNL A   1      44.267  25.736  35.173  1.00  0.00     0.173 A 
ATOM     87  F   UNL A   1      46.129  28.656  34.057  1.00  0.00    -0.203 F 
ATOM     88  C   UNL A   1      46.816  26.819  35.362  1.00  0.00     0.198 A 
ATOM     89  C   UNL A   1      45.255  25.076  35.899  1.00  0.00     0.198 A 
ATOM     90  F   UNL A   1      43.045  25.186  35.097  1.00  0.00    -0.203 F 
ATOM     91  F   UNL A   1      48.054  27.328  35.424  1.00  0.00    -0.200 F 
ATOM     92  C   UNL A   1      46.530  25.616  35.987  1.00  0.00     0.200 A 
ATOM     93  F   UNL A   1      44.973  23.919  36.513  1.00  0.00    -0.200 F 
ATOM     94  F   UNL A   1      47.485  24.970  36.671  1.00  0.00    -0.200 F 
ENDBRANCH  61  84
ENDBRANCH  35  36
ENDBRANCH  28  30
ENDBRANCH  27  28
ENDBRANCH  26  27
ENDBRANCH  25  26
ENDBRANCH   1  25
TORSDOF 16
ENDMDL
MODEL 3
REMARK VINA RESULT:     -11.1      5.901     10.848
REMARK SMILES Cc1cc(C[N@H+]2CCN(C)C(=O)C2(C)C)oc1C(=O)OCCOCCOC(=O)c1ccc(-c2c3nc(c(-c4c(F)c(F)c(F)c(F)c4F)c4ccc([nH]4)c(-c4c(F)c(F)c(F)c(F)c4F)c4nc(c(-c5c(F)c(F)c(F)c(F)c5F)c5ccc2[nH]5)C=C4)C=C3)cc1
REMARK SMILES IDX 23 1 22 2 21 3 20 4 18 5 19 6 17 7 1 8 2 9 3 10 4 11 16 12
REMARK SMILES IDX 5 13 6 14 7 15 13 16 8 18 11 19 14 20 15 21 9 22 12 23 10 24
REMARK SMILES IDX 24 25 25 26 26 27 27 28 28 29 29 30 30 31 91 32 31 33 90 34
REMARK SMILES IDX 32 35 33 36 34 37 84 38 35 39 89 40 83 41 85 42 36 43 88 44
REMARK SMILES IDX 82 45 81 46 37 48 69 49 49 50 68 51 50 52 53 53 67 54 86 55
REMARK SMILES IDX 51 56 52 57 66 59 87 60 54 61 38 62 39 63 47 64 40 65 41 66
REMARK SMILES IDX 45 67 48 68 42 69 43 70 46 71 44 72 70 73 71 74 79 75 72 76
REMARK SMILES IDX 73 77 77 78 80 79 74 80 75 81 78 82 76 83 55 84 56 85 64 86
REMARK SMILES IDX 57 87 58 88 62 89 65 90 59 91 60 92 63 93 61 94
REMARK H PARENT 6 17 85 47 53 58
REMARK Flexibility Score: inf
ROOT
ATOM      1  O   UNL A   1      34.391  35.094  30.909  1.00  0.00    -0.374 OA
ENDROOT
BRANCH   1   2
ATOM      2  C   UNL A   1      33.319  34.940  29.978  1.00  0.00     0.202 C 
BRANCH   2   3
ATOM      3  C   UNL A   1      33.781  34.492  28.589  1.00  0.00     0.261 C 
BRANCH   3   4
ATOM      4  O   UNL A   1      33.856  33.058  28.545  1.00  0.00    -0.457 OA
BRANCH   4   5
ATOM      5  C   UNL A   1      34.982  32.527  27.992  1.00  0.00     0.374 C 
ATOM      6  O   UNL A   1      36.054  33.114  27.905  1.00  0.00    -0.242 OA
BRANCH   5   7
ATOM      7  C   UNL A   1      34.749  31.145  27.629  1.00  0.00     0.215 A 
ATOM      8  C   UNL A   1      36.703  29.670  28.550  1.00  0.00     0.049 C 
ATOM      9  C   UNL A   1      35.424  29.948  27.849  1.00  0.00     0.003 A 
ATOM     10  C   UNL A   1      34.616  28.938  27.255  1.00  0.00     0.056 A 
ATOM     11  C   UNL A   1      33.607  29.567  26.561  1.00  0.00     0.159 A 
ATOM     12  O   UNL A   1      33.662  30.903  26.823  1.00  0.00    -0.448 OA
BRANCH  11  13
ATOM     13  C   UNL A   1      32.497  29.113  25.670  1.00  0.00     0.339 C 
BRANCH  13  14
ATOM     14  N   UNL A   1      32.642  27.807  25.000  1.00  0.00    -0.315 N 
ATOM     15  C   UNL A   1      32.066  26.690  25.754  1.00  0.00     0.285 C 
ATOM     16  C   UNL A   1      32.333  27.722  23.545  1.00  0.00     0.172 C 
ATOM     17  H   UNL A   1      33.657  27.710  25.010  1.00  0.00     0.349 HD
ATOM     18  C   UNL A   1      30.565  26.484  25.531  1.00  0.00     0.180 C 
ATOM     19  C   UNL A   1      30.811  27.506  23.266  1.00  0.00     0.283 C 
ATOM     20  C   UNL A   1      32.878  28.938  22.761  1.00  0.00     0.090 C 
ATOM     21  C   UNL A   1      33.034  26.484  22.931  1.00  0.00     0.090 C 
ATOM     22  N   UNL A   1      30.103  26.712  24.166  1.00  0.00    -0.335 N 
ATOM     23  O   UNL A   1      30.288  27.936  22.234  1.00  0.00    -0.268 OA
ATOM     24  C   UNL A   1      28.734  26.329  23.871  1.00  0.00     0.147 C 
ENDBRANCH  13  14
ENDBRANCH  11  13
ENDBRANCH   5   7
ENDBRANCH   4   5
ENDBRANCH   3   4
ENDBRANCH   2   3
ENDBRANCH   1   2
BRANCH   1  25
ATOM     25  C   UNL A   1      34.139  34.625  32.236  1.00  0.00     0.202 C 
BRANCH  25  26
ATOM     26  C   UNL A   1      34.138  33.100  32.356  1.00  0.00     0.261 C 
BRANCH  26  27
ATOM     27  O   UNL A   1      35.381  32.561  31.868  1.00  0.00    -0.460 OA
BRANCH  27  28
ATOM     28  C   UNL A   1      36.331  32.364  32.812  1.00  0.00     0.338 C 
ATOM     29  O   UNL A   1      36.173  32.313  34.019  1.00  0.00    -0.246 OA
BRANCH  28  30
ATOM     30  C   UNL A   1      37.621  32.051  32.165  1.00  0.00     0.060 A 
ATOM     31  C   UNL A   1      37.764  32.399  30.816  1.00  0.00     0.016 A 
ATOM     32  C   UNL A   1      38.655  31.391  32.838  1.00  0.00     0.016 A 
ATOM     33  C   UNL A   1      38.918  32.044  30.120  1.00  0.00     0.010 A 
ATOM     34  C   UNL A   1      39.811  31.031  32.137  1.00  0.00     0.010 A 
ATOM     35  C   UNL A   1      39.932  31.326  30.768  1.00  0.00    -0.014 A 
BRANCH  35  36
ATOM     36  C   UNL A   1      41.050  30.765  29.972  1.00  0.00     0.031 A 
ATOM     37  C   UNL A   1      42.236  31.635  29.664  1.00  0.00     0.074 A 
ATOM     38  C   UNL A   1      41.025  29.486  29.557  1.00  0.00     0.049 A 
ATOM     39  N   UNL A   1      43.315  31.358  28.977  1.00  0.00    -0.248 NA
ATOM     40  C   UNL A   1      42.200  33.003  30.204  1.00  0.00     0.031 C 
ATOM     41  C   UNL A   1      39.948  28.534  29.820  1.00  0.00     0.029 A 
ATOM     42  N   UNL A   1      41.935  28.772  28.819  1.00  0.00    -0.354 N 
ATOM     43  C   UNL A   1      44.085  32.513  29.001  1.00  0.00     0.074 A 
ATOM     44  C   UNL A   1      43.337  33.505  29.744  1.00  0.00     0.031 C 
ATOM     45  C   UNL A   1      40.255  27.360  29.243  1.00  0.00     0.029 A 
ATOM     46  C   UNL A   1      41.536  27.487  28.550  1.00  0.00     0.049 A 
ATOM     47  H   UNL A   1      42.793  29.146  28.513  1.00  0.00     0.167 HD
ATOM     48  C   UNL A   1      45.308  32.723  28.463  1.00  0.00     0.037 A 
ATOM     49  C   UNL A   1      42.132  26.529  27.813  1.00  0.00     0.037 A 
ATOM     50  C   UNL A   1      46.053  31.739  27.724  1.00  0.00     0.049 A 
ATOM     51  C   UNL A   1      43.466  26.809  27.170  1.00  0.00     0.074 A 
ATOM     52  C   UNL A   1      47.310  31.852  27.157  1.00  0.00     0.029 A 
ATOM     53  N   UNL A   1      45.603  30.456  27.448  1.00  0.00    -0.354 N 
ATOM     54  N   UNL A   1      44.199  27.895  27.223  1.00  0.00    -0.248 NA
ATOM     55  C   UNL A   1      44.055  25.729  26.367  1.00  0.00     0.031 C 
ATOM     56  C   UNL A   1      47.603  30.652  26.500  1.00  0.00     0.029 A 
ATOM     57  C   UNL A   1      46.548  29.776  26.696  1.00  0.00     0.049 A 
ATOM     58  H   UNL A   1      44.741  30.084  27.742  1.00  0.00     0.167 HD
ATOM     59  C   UNL A   1      45.343  27.619  26.485  1.00  0.00     0.074 A 
ATOM     60  C   UNL A   1      45.213  26.261  26.003  1.00  0.00     0.031 C 
ATOM     61  C   UNL A   1      46.407  28.421  26.230  1.00  0.00     0.037 A 
BRANCH  48  62
ATOM     62  C   UNL A   1      45.913  34.085  28.636  1.00  0.00     0.064 A 
ATOM     63  C   UNL A   1      45.690  35.110  27.704  1.00  0.00     0.173 A 
ATOM     64  C   UNL A   1      46.695  34.378  29.762  1.00  0.00     0.173 A 
ATOM     65  F   UNL A   1      44.962  34.874  26.602  1.00  0.00    -0.203 F 
ATOM     66  C   UNL A   1      46.249  36.373  27.884  1.00  0.00     0.198 A 
ATOM     67  C   UNL A   1      47.231  35.649  29.951  1.00  0.00     0.198 A 
ATOM     68  F   UNL A   1      46.935  33.432  30.683  1.00  0.00    -0.203 F 
ATOM     69  F   UNL A   1      46.058  37.326  26.961  1.00  0.00    -0.200 F 
ATOM     70  C   UNL A   1      47.012  36.644  29.009  1.00  0.00     0.200 A 
ATOM     71  F   UNL A   1      47.961  35.910  31.044  1.00  0.00    -0.200 F 
ATOM     72  F   UNL A   1      47.544  37.861  29.184  1.00  0.00    -0.200 F 
ENDBRANCH  48  62
BRANCH  49  73
ATOM     73  C   UNL A   1      41.468  25.212  27.634  1.00  0.00     0.064 A 
ATOM     74  C   UNL A   1      41.930  24.072  28.305  1.00  0.00     0.173 A 
ATOM     75  C   UNL A   1      40.370  25.066  26.776  1.00  0.00     0.173 A 
ATOM     76  F   UNL A   1      42.994  24.158  29.117  1.00  0.00    -0.203 F 
ATOM     77  C   UNL A   1      41.327  22.831  28.112  1.00  0.00     0.198 A 
ATOM     78  C   UNL A   1      39.751  23.831  26.603  1.00  0.00     0.198 A 
ATOM     79  F   UNL A   1      39.892  26.127  26.109  1.00  0.00    -0.203 F 
ATOM     80  F   UNL A   1      41.813  21.747  28.733  1.00  0.00    -0.200 F 
ATOM     81  C   UNL A   1      40.234  22.712  27.265  1.00  0.00     0.200 A 
ATOM     82  F   UNL A   1      38.690  23.722  25.792  1.00  0.00    -0.200 F 
ATOM     83  F   UNL A   1      39.653  21.519  27.082  1.00  0.00    -0.200 F 
ENDBRANCH  49  73
BRANCH  61  84
ATOM     84  C   UNL A   1      47.529  27.842  25.421  1.00  0.00     0.064 A 
ATOM     85  C   UNL A   1      47.489  27.820  24.019  1.00  0.00     0.173 A 
ATOM     86  C   UNL A   1      48.677  27.342  26.054  1.00  0.00     0.173 A 
ATOM     87  F   UNL A   1      46.407  28.273  23.368  1.00  0.00    -0.203 F 
ATOM     88  C   UNL A   1      48.550  27.301  23.282  1.00  0.00     0.198 A 
ATOM     89  C   UNL A   1      49.746  26.848  25.313  1.00  0.00     0.198 A 
ATOM     90  F   UNL A   1      48.766  27.346  27.393  1.00  0.00    -0.203 F 
ATOM     91  F   UNL A   1      48.473  27.253  21.944  1.00  0.00    -0.200 F 
ATOM     92  C   UNL A   1      49.679  26.822  23.928  1.00  0.00     0.200 A 
ATOM     93  F   UNL A   1      50.842  26.396  25.939  1.00  0.00    -0.200 F 
ATOM     94  F   UNL A   1      50.703  26.328  23.216  1.00  0.00    -0.200 F 
ENDBRANCH  61  84
ENDBRANCH  35  36
ENDBRANCH  28  30
ENDBRANCH  27  28
ENDBRANCH  26  27
ENDBRANCH  25  26
ENDBRANCH   1  25
TORSDOF 16
ENDMDL
