MODEL 1
REMARK VINA RESULT:     -12.4      0.000      0.000
REMARK SMILES O=C(CSc1ccc(NC(=O)c2cccc3ccccc23)cc1)OCCOCCOC(=O)c1ccc(-c2c3nc(c(-c4c(F)c(F)c(F)c(F)c4F)c4ccc([nH]4)c(-c4c(F)c(F)c(F)c(F)c4F)c4nc(c(-c5c(F)c(F)c(F)c(F)c5F)c5ccc2[nH]5)C=C4)C=C3)cc1
REMARK SMILES IDX 26 1 25 2 24 3 2 4 1 5 3 6 4 7 5 8 6 9 23 10 7 11 22 12 8 13
REMARK SMILES IDX 9 14 10 15 11 17 12 18 13 19 21 20 14 21 16 22 20 23 15 24
REMARK SMILES IDX 17 25 19 26 18 27 27 28 28 29 29 30 30 31 31 32 32 33 33 34
REMARK SMILES IDX 34 35 95 36 35 37 94 38 36 39 37 40 38 41 88 42 39 43 93 44
REMARK SMILES IDX 87 45 89 46 40 47 92 48 86 49 85 50 41 52 73 53 53 54 72 55
REMARK SMILES IDX 54 56 57 57 71 58 90 59 55 60 56 61 70 63 91 64 58 65 42 66
REMARK SMILES IDX 43 67 51 68 44 69 45 70 49 71 52 72 46 73 47 74 50 75 48 76
REMARK SMILES IDX 74 77 75 78 83 79 76 80 77 81 81 82 84 83 78 84 79 85 82 86
REMARK SMILES IDX 80 87 59 88 60 89 68 90 61 91 62 92 66 93 69 94 63 95 64 96
REMARK SMILES IDX 67 97 65 98
REMARK H PARENT 9 16 89 51 57 62
REMARK Flexibility Score: inf
ROOT
ATOM      1  C   UNL A   1      42.370  19.637  26.130  1.00  0.00     0.202 C 
ENDROOT
BRANCH   1   2
ATOM      2  C   UNL A   1      40.890  19.927  25.894  1.00  0.00     0.261 C 
BRANCH   2   3
ATOM      3  O   UNL A   1      40.487  21.235  26.313  1.00  0.00    -0.463 OA
BRANCH   3   4
ATOM      4  C   UNL A   1      39.254  21.743  26.103  1.00  0.00     0.316 C 
ATOM      5  O   UNL A   1      39.007  22.876  26.528  1.00  0.00    -0.251 OA
BRANCH   4   6
ATOM      6  C   UNL A   1      38.176  20.962  25.383  1.00  0.00     0.197 C 
BRANCH   6   7
ATOM      7  S   UNL A   1      36.966  21.905  24.418  1.00  0.00    -0.114 SA
BRANCH   7   8
ATOM      8  C   UNL A   1      35.559  21.971  25.496  1.00  0.00     0.008 A 
ATOM      9  C   UNL A   1      35.388  22.937  26.481  1.00  0.00     0.017 A 
ATOM     10  C   UNL A   1      34.542  21.035  25.309  1.00  0.00     0.017 A 
ATOM     11  C   UNL A   1      34.233  23.014  27.231  1.00  0.00     0.027 A 
ATOM     12  C   UNL A   1      33.341  21.155  26.016  1.00  0.00     0.027 A 
ATOM     13  C   UNL A   1      33.158  22.222  26.902  1.00  0.00     0.041 A 
BRANCH  13  14
ATOM     14  N   UNL A   1      31.865  22.522  27.323  1.00  0.00    -0.322 N 
ATOM     15  C   UNL A   1      30.905  23.360  26.798  1.00  0.00     0.256 C 
ATOM     16  H   UNL A   1      31.587  22.052  28.142  1.00  0.00     0.170 HD
ATOM     17  O   UNL A   1      29.829  23.437  27.397  1.00  0.00    -0.269 OA
BRANCH  15  18
ATOM     18  C   UNL A   1      31.062  24.217  25.587  1.00  0.00     0.048 A 
ATOM     19  C   UNL A   1      30.979  23.488  24.386  1.00  0.00     0.014 A 
ATOM     20  C   UNL A   1      31.373  25.616  25.560  1.00  0.00    -0.006 A 
ATOM     21  C   UNL A   1      31.263  24.088  23.166  1.00  0.00     0.001 A 
ATOM     22  C   UNL A   1      31.697  26.193  24.300  1.00  0.00    -0.018 A 
ATOM     23  C   UNL A   1      31.343  26.507  26.667  1.00  0.00     0.009 A 
ATOM     24  C   UNL A   1      31.663  25.418  23.132  1.00  0.00     0.009 A 
ATOM     25  C   UNL A   1      32.024  27.554  24.189  1.00  0.00     0.009 A 
ATOM     26  C   UNL A   1      31.547  27.887  26.515  1.00  0.00     0.001 A 
ATOM     27  C   UNL A   1      31.916  28.405  25.282  1.00  0.00     0.001 A 
ENDBRANCH  15  18
ENDBRANCH  13  14
ENDBRANCH   7   8
ENDBRANCH   6   7
ENDBRANCH   4   6
ENDBRANCH   3   4
ENDBRANCH   2   3
ENDBRANCH   1   2
BRANCH   1  28
ATOM     28  O   UNL A   1      43.290  20.107  25.149  1.00  0.00    -0.374 OA
BRANCH  28  29
ATOM     29  C   UNL A   1      44.605  20.449  25.613  1.00  0.00     0.202 C 
BRANCH  29  30
ATOM     30  C   UNL A   1      44.938  21.936  25.708  1.00  0.00     0.261 C 
BRANCH  30  31
ATOM     31  O   UNL A   1      43.829  22.666  26.251  1.00  0.00    -0.460 OA
BRANCH  31  32
ATOM     32  C   UNL A   1      43.255  23.548  25.400  1.00  0.00     0.338 C 
ATOM     33  O   UNL A   1      43.095  23.431  24.203  1.00  0.00    -0.246 OA
BRANCH  32  34
ATOM     34  C   UNL A   1      42.628  24.614  26.205  1.00  0.00     0.060 A 
ATOM     35  C   UNL A   1      42.906  25.948  25.864  1.00  0.00     0.016 A 
ATOM     36  C   UNL A   1      41.793  24.306  27.279  1.00  0.00     0.016 A 
ATOM     37  C   UNL A   1      42.405  26.982  26.646  1.00  0.00     0.010 A 
ATOM     38  C   UNL A   1      41.302  25.339  28.067  1.00  0.00     0.010 A 
ATOM     39  C   UNL A   1      41.650  26.672  27.781  1.00  0.00    -0.014 A 
BRANCH  39  40
ATOM     40  C   UNL A   1      41.396  27.691  28.816  1.00  0.00     0.031 A 
ATOM     41  C   UNL A   1      42.219  27.631  30.068  1.00  0.00     0.074 A 
ATOM     42  C   UNL A   1      40.409  28.587  28.673  1.00  0.00     0.049 A 
ATOM     43  N   UNL A   1      42.056  28.251  31.205  1.00  0.00    -0.248 NA
ATOM     44  C   UNL A   1      43.371  26.713  30.037  1.00  0.00     0.031 C 
ATOM     45  C   UNL A   1      39.580  28.743  27.481  1.00  0.00     0.029 A 
ATOM     46  N   UNL A   1      39.910  29.499  29.564  1.00  0.00    -0.354 N 
ATOM     47  C   UNL A   1      43.059  27.773  32.036  1.00  0.00     0.074 A 
ATOM     48  C   UNL A   1      43.811  26.795  31.282  1.00  0.00     0.031 C 
ATOM     49  C   UNL A   1      38.640  29.670  27.730  1.00  0.00     0.029 A 
ATOM     50  C   UNL A   1      38.778  30.128  29.112  1.00  0.00     0.049 A 
ATOM     51  H   UNL A   1      40.321  29.685  30.438  1.00  0.00     0.167 HD
ATOM     52  C   UNL A   1      43.322  28.123  33.317  1.00  0.00     0.037 A 
ATOM     53  C   UNL A   1      37.924  30.938  29.765  1.00  0.00     0.037 A 
ATOM     54  C   UNL A   1      42.551  29.096  34.045  1.00  0.00     0.049 A 
ATOM     55  C   UNL A   1      38.200  31.281  31.205  1.00  0.00     0.074 A 
ATOM     56  C   UNL A   1      42.745  29.565  35.330  1.00  0.00     0.029 A 
ATOM     57  N   UNL A   1      41.424  29.738  33.547  1.00  0.00    -0.354 N 
ATOM     58  N   UNL A   1      39.166  30.858  31.987  1.00  0.00    -0.248 NA
ATOM     59  C   UNL A   1      37.272  32.216  31.854  1.00  0.00     0.031 C 
ATOM     60  C   UNL A   1      41.694  30.435  35.635  1.00  0.00     0.029 A 
ATOM     61  C   UNL A   1      40.890  30.572  34.513  1.00  0.00     0.049 A 
ATOM     62  H   UNL A   1      41.059  29.615  32.641  1.00  0.00     0.167 HD
ATOM     63  C   UNL A   1      38.984  31.497  33.206  1.00  0.00     0.074 A 
ATOM     64  C   UNL A   1      37.811  32.337  33.059  1.00  0.00     0.031 C 
ATOM     65  C   UNL A   1      39.724  31.406  34.340  1.00  0.00     0.037 A 
BRANCH  52  66
ATOM     66  C   UNL A   1      44.444  27.406  34.012  1.00  0.00     0.064 A 
ATOM     67  C   UNL A   1      45.781  27.818  33.895  1.00  0.00     0.173 A 
ATOM     68  C   UNL A   1      44.178  26.272  34.795  1.00  0.00     0.173 A 
ATOM     69  F   UNL A   1      46.096  28.886  33.146  1.00  0.00    -0.203 F 
ATOM     70  C   UNL A   1      46.811  27.092  34.490  1.00  0.00     0.198 A 
ATOM     71  C   UNL A   1      45.206  25.574  35.422  1.00  0.00     0.198 A 
ATOM     72  F   UNL A   1      42.919  25.833  34.946  1.00  0.00    -0.203 F 
ATOM     73  F   UNL A   1      48.086  27.460  34.297  1.00  0.00    -0.200 F 
ATOM     74  C   UNL A   1      46.522  25.974  35.257  1.00  0.00     0.200 A 
ATOM     75  F   UNL A   1      44.923  24.501  36.174  1.00  0.00    -0.200 F 
ATOM     76  F   UNL A   1      47.515  25.275  35.825  1.00  0.00    -0.200 F 
ENDBRANCH  52  66
BRANCH  53  77
ATOM     77  C   UNL A   1      36.730  31.457  29.052  1.00  0.00     0.064 A 
ATOM     78  C   UNL A   1      35.629  30.631  28.794  1.00  0.00     0.173 A 
ATOM     79  C   UNL A   1      36.641  32.804  28.667  1.00  0.00     0.173 A 
ATOM     80  F   UNL A   1      35.674  29.333  29.129  1.00  0.00    -0.203 F 
ATOM     81  C   UNL A   1      34.485  31.130  28.175  1.00  0.00     0.198 A 
ATOM     82  C   UNL A   1      35.488  33.308  28.074  1.00  0.00     0.198 A 
ATOM     83  F   UNL A   1      37.665  33.637  28.900  1.00  0.00    -0.203 F 
ATOM     84  F   UNL A   1      33.455  30.313  27.918  1.00  0.00    -0.200 F 
ATOM     85  C   UNL A   1      34.411  32.470  27.824  1.00  0.00     0.200 A 
ATOM     86  F   UNL A   1      35.413  34.608  27.755  1.00  0.00    -0.200 F 
ATOM     87  F   UNL A   1      33.302  32.954  27.249  1.00  0.00    -0.200 F 
ENDBRANCH  53  77
BRANCH  65  88
ATOM     88  C   UNL A   1      39.330  32.275  35.500  1.00  0.00     0.064 A 
ATOM     89  C   UNL A   1      38.478  31.818  36.514  1.00  0.00     0.173 A 
ATOM     90  C   UNL A   1      39.880  33.559  35.632  1.00  0.00     0.173 A 
ATOM     91  F   UNL A   1      37.915  30.603  36.429  1.00  0.00    -0.203 F 
ATOM     92  C   UNL A   1      38.179  32.622  37.612  1.00  0.00     0.198 A 
ATOM     93  C   UNL A   1      39.608  34.346  36.747  1.00  0.00     0.198 A 
ATOM     94  F   UNL A   1      40.708  34.041  34.692  1.00  0.00    -0.203 F 
ATOM     95  F   UNL A   1      37.332  32.179  38.553  1.00  0.00    -0.200 F 
ATOM     96  C   UNL A   1      38.753  33.878  37.734  1.00  0.00     0.200 A 
ATOM     97  F   UNL A   1      40.178  35.552  36.870  1.00  0.00    -0.200 F 
ATOM     98  F   UNL A   1      38.481  34.641  38.801  1.00  0.00    -0.200 F 
ENDBRANCH  65  88
ENDBRANCH  39  40
ENDBRANCH  32  34
ENDBRANCH  31  32
ENDBRANCH  30  31
ENDBRANCH  29  30
ENDBRANCH  28  29
ENDBRANCH   1  28
TORSDOF 18
ENDMDL
MODEL 2
REMARK VINA RESULT:     -12.1      1.158      2.035
REMARK SMILES O=C(CSc1ccc(NC(=O)c2cccc3ccccc23)cc1)OCCOCCOC(=O)c1ccc(-c2c3nc(c(-c4c(F)c(F)c(F)c(F)c4F)c4ccc([nH]4)c(-c4c(F)c(F)c(F)c(F)c4F)c4nc(c(-c5c(F)c(F)c(F)c(F)c5F)c5ccc2[nH]5)C=C4)C=C3)cc1
REMARK SMILES IDX 26 1 25 2 24 3 2 4 1 5 3 6 4 7 5 8 6 9 23 10 7 11 22 12 8 13
REMARK SMILES IDX 9 14 10 15 11 17 12 18 13 19 21 20 14 21 16 22 20 23 15 24
REMARK SMILES IDX 17 25 19 26 18 27 27 28 28 29 29 30 30 31 31 32 32 33 33 34
REMARK SMILES IDX 34 35 95 36 35 37 94 38 36 39 37 40 38 41 88 42 39 43 93 44
REMARK SMILES IDX 87 45 89 46 40 47 92 48 86 49 85 50 41 52 73 53 53 54 72 55
REMARK SMILES IDX 54 56 57 57 71 58 90 59 55 60 56 61 70 63 91 64 58 65 42 66
REMARK SMILES IDX 43 67 51 68 44 69 45 70 49 71 52 72 46 73 47 74 50 75 48 76
REMARK SMILES IDX 74 77 75 78 83 79 76 80 77 81 81 82 84 83 78 84 79 85 82 86
REMARK SMILES IDX 80 87 59 88 60 89 68 90 61 91 62 92 66 93 69 94 63 95 64 96
REMARK SMILES IDX 67 97 65 98
REMARK H PARENT 9 16 89 51 57 62
REMARK Flexibility Score: inf
ROOT
ATOM      1  C   UNL A   1      40.791  20.603  27.110  1.00  0.00     0.202 C 
ENDROOT
BRANCH   1   2
ATOM      2  C   UNL A   1      40.071  21.949  27.148  1.00  0.00     0.261 C 
BRANCH   2   3
ATOM      3  O   UNL A   1      38.931  22.015  26.287  1.00  0.00    -0.463 OA
BRANCH   3   4
ATOM      4  C   UNL A   1      38.214  23.138  26.076  1.00  0.00     0.316 C 
ATOM      5  O   UNL A   1      38.666  24.210  26.493  1.00  0.00    -0.251 OA
BRANCH   4   6
ATOM      6  C   UNL A   1      36.879  23.117  25.364  1.00  0.00     0.197 C 
BRANCH   6   7
ATOM      7  S   UNL A   1      36.140  21.497  25.022  1.00  0.00    -0.114 SA
BRANCH   7   8
ATOM      8  C   UNL A   1      34.591  21.916  24.266  1.00  0.00     0.008 A 
ATOM      9  C   UNL A   1      33.386  21.305  24.589  1.00  0.00     0.017 A 
ATOM     10  C   UNL A   1      34.574  22.954  23.333  1.00  0.00     0.017 A 
ATOM     11  C   UNL A   1      32.188  21.729  24.051  1.00  0.00     0.027 A 
ATOM     12  C   UNL A   1      33.355  23.434  22.843  1.00  0.00     0.027 A 
ATOM     13  C   UNL A   1      32.154  22.879  23.296  1.00  0.00     0.041 A 
BRANCH  13  14
ATOM     14  N   UNL A   1      30.971  23.580  23.074  1.00  0.00    -0.322 N 
ATOM     15  C   UNL A   1      30.568  24.838  23.468  1.00  0.00     0.256 C 
ATOM     16  H   UNL A   1      30.304  23.090  22.542  1.00  0.00     0.170 HD
ATOM     17  O   UNL A   1      29.441  25.206  23.126  1.00  0.00    -0.269 OA
BRANCH  15  18
ATOM     18  C   UNL A   1      31.359  25.786  24.306  1.00  0.00     0.048 A 
ATOM     19  C   UNL A   1      31.104  25.642  25.683  1.00  0.00     0.014 A 
ATOM     20  C   UNL A   1      32.222  26.829  23.837  1.00  0.00    -0.006 A 
ATOM     21  C   UNL A   1      31.625  26.544  26.602  1.00  0.00     0.001 A 
ATOM     22  C   UNL A   1      32.708  27.761  24.799  1.00  0.00    -0.018 A 
ATOM     23  C   UNL A   1      32.689  27.004  22.506  1.00  0.00     0.009 A 
ATOM     24  C   UNL A   1      32.382  27.620  26.154  1.00  0.00     0.009 A 
ATOM     25  C   UNL A   1      33.550  28.819  24.420  1.00  0.00     0.009 A 
ATOM     26  C   UNL A   1      33.630  27.988  22.172  1.00  0.00     0.001 A 
ATOM     27  C   UNL A   1      34.038  28.914  23.122  1.00  0.00     0.001 A 
ENDBRANCH  15  18
ENDBRANCH  13  14
ENDBRANCH   7   8
ENDBRANCH   6   7
ENDBRANCH   4   6
ENDBRANCH   3   4
ENDBRANCH   2   3
ENDBRANCH   1   2
BRANCH   1  28
ATOM     28  O   UNL A   1      42.210  20.621  27.237  1.00  0.00    -0.374 OA
BRANCH  28  29
ATOM     29  C   UNL A   1      42.966  20.347  26.048  1.00  0.00     0.202 C 
BRANCH  29  30
ATOM     30  C   UNL A   1      43.657  21.533  25.381  1.00  0.00     0.261 C 
BRANCH  30  31
ATOM     31  O   UNL A   1      43.632  22.679  26.244  1.00  0.00    -0.460 OA
BRANCH  31  32
ATOM     32  C   UNL A   1      43.767  23.871  25.615  1.00  0.00     0.338 C 
ATOM     33  O   UNL A   1      44.212  24.080  24.506  1.00  0.00    -0.246 OA
BRANCH  32  34
ATOM     34  C   UNL A   1      43.062  24.890  26.416  1.00  0.00     0.060 A 
ATOM     35  C   UNL A   1      43.362  26.240  26.177  1.00  0.00     0.016 A 
ATOM     36  C   UNL A   1      42.132  24.522  27.388  1.00  0.00     0.016 A 
ATOM     37  C   UNL A   1      42.785  27.230  26.964  1.00  0.00     0.010 A 
ATOM     38  C   UNL A   1      41.564  25.510  28.183  1.00  0.00     0.010 A 
ATOM     39  C   UNL A   1      41.930  26.857  28.005  1.00  0.00    -0.014 A 
BRANCH  39  40
ATOM     40  C   UNL A   1      41.575  27.817  29.066  1.00  0.00     0.031 A 
ATOM     41  C   UNL A   1      42.324  27.729  30.362  1.00  0.00     0.074 A 
ATOM     42  C   UNL A   1      40.562  28.681  28.902  1.00  0.00     0.049 A 
ATOM     43  N   UNL A   1      42.069  28.290  31.513  1.00  0.00    -0.248 NA
ATOM     44  C   UNL A   1      43.512  26.858  30.360  1.00  0.00     0.031 C 
ATOM     45  C   UNL A   1      39.800  28.861  27.670  1.00  0.00     0.029 A 
ATOM     46  N   UNL A   1      39.976  29.532  29.801  1.00  0.00    -0.354 N 
ATOM     47  C   UNL A   1      43.040  27.813  32.381  1.00  0.00     0.074 A 
ATOM     48  C   UNL A   1      43.873  26.899  31.633  1.00  0.00     0.031 C 
ATOM     49  C   UNL A   1      38.810  29.740  27.902  1.00  0.00     0.029 A 
ATOM     50  C   UNL A   1      38.848  30.138  29.309  1.00  0.00     0.049 A 
ATOM     51  H   UNL A   1      40.327  29.693  30.706  1.00  0.00     0.167 HD
ATOM     52  C   UNL A   1      43.213  28.113  33.690  1.00  0.00     0.037 A 
ATOM     53  C   UNL A   1      37.926  30.885  29.944  1.00  0.00     0.037 A 
ATOM     54  C   UNL A   1      42.362  29.021  34.412  1.00  0.00     0.049 A 
ATOM     55  C   UNL A   1      38.102  31.171  31.411  1.00  0.00     0.074 A 
ATOM     56  C   UNL A   1      42.461  29.437  35.726  1.00  0.00     0.029 A 
ATOM     57  N   UNL A   1      41.242  29.643  33.875  1.00  0.00    -0.354 N 
ATOM     58  N   UNL A   1      39.036  30.749  32.231  1.00  0.00    -0.248 NA
ATOM     59  C   UNL A   1      37.101  32.040  32.043  1.00  0.00     0.031 C 
ATOM     60  C   UNL A   1      41.360  30.253  36.004  1.00  0.00     0.029 A 
ATOM     61  C   UNL A   1      40.618  30.412  34.842  1.00  0.00     0.049 A 
ATOM     62  H   UNL A   1      40.936  29.548  32.944  1.00  0.00     0.167 HD
ATOM     63  C   UNL A   1      38.758  31.324  33.463  1.00  0.00     0.074 A 
ATOM     64  C   UNL A   1      37.563  32.126  33.283  1.00  0.00     0.031 C 
ATOM     65  C   UNL A   1      39.432  31.208  34.635  1.00  0.00     0.037 A 
BRANCH  52  66
ATOM     66  C   UNL A   1      44.319  27.407  34.420  1.00  0.00     0.064 A 
ATOM     67  C   UNL A   1      44.134  26.156  35.031  1.00  0.00     0.173 A 
ATOM     68  C   UNL A   1      45.586  28.003  34.528  1.00  0.00     0.173 A 
ATOM     69  F   UNL A   1      42.940  25.546  34.974  1.00  0.00    -0.203 F 
ATOM     70  C   UNL A   1      45.157  25.556  35.764  1.00  0.00     0.198 A 
ATOM     71  C   UNL A   1      46.617  27.380  35.226  1.00  0.00     0.198 A 
ATOM     72  F   UNL A   1      45.823  29.196  33.961  1.00  0.00    -0.203 F 
ATOM     73  F   UNL A   1      44.930  24.400  36.404  1.00  0.00    -0.200 F 
ATOM     74  C   UNL A   1      46.398  26.166  35.856  1.00  0.00     0.200 A 
ATOM     75  F   UNL A   1      47.820  27.966  35.302  1.00  0.00    -0.200 F 
ATOM     76  F   UNL A   1      47.379  25.590  36.566  1.00  0.00    -0.200 F 
ENDBRANCH  52  66
BRANCH  53  77
ATOM     77  C   UNL A   1      36.756  31.392  29.183  1.00  0.00     0.064 A 
ATOM     78  C   UNL A   1      35.688  30.547  28.857  1.00  0.00     0.173 A 
ATOM     79  C   UNL A   1      36.656  32.743  28.818  1.00  0.00     0.173 A 
ATOM     80  F   UNL A   1      35.745  29.244  29.171  1.00  0.00    -0.203 F 
ATOM     81  C   UNL A   1      34.564  31.033  28.192  1.00  0.00     0.198 A 
ATOM     82  C   UNL A   1      35.521  33.233  28.178  1.00  0.00     0.198 A 
ATOM     83  F   UNL A   1      37.649  33.594  29.116  1.00  0.00    -0.203 F 
ATOM     84  F   UNL A   1      33.566  30.199  27.871  1.00  0.00    -0.200 F 
ATOM     85  C   UNL A   1      34.477  32.378  27.862  1.00  0.00     0.200 A 
ATOM     86  F   UNL A   1      35.433  34.537  27.880  1.00  0.00    -0.200 F 
ATOM     87  F   UNL A   1      33.386  32.848  27.242  1.00  0.00    -0.200 F 
ENDBRANCH  53  77
BRANCH  65  88
ATOM     88  C   UNL A   1      38.936  32.007  35.806  1.00  0.00     0.064 A 
ATOM     89  C   UNL A   1      38.161  31.433  36.822  1.00  0.00     0.173 A 
ATOM     90  C   UNL A   1      39.312  33.352  35.947  1.00  0.00     0.173 A 
ATOM     91  F   UNL A   1      37.764  30.155  36.730  1.00  0.00    -0.203 F 
ATOM     92  C   UNL A   1      37.767  32.181  37.930  1.00  0.00     0.198 A 
ATOM     93  C   UNL A   1      38.947  34.087  37.071  1.00  0.00     0.198 A 
ATOM     94  F   UNL A   1      40.061  33.948  35.005  1.00  0.00    -0.203 F 
ATOM     95  F   UNL A   1      36.994  31.622  38.872  1.00  0.00    -0.200 F 
ATOM     96  C   UNL A   1      38.170  33.501  38.060  1.00  0.00     0.200 A 
ATOM     97  F   UNL A   1      39.354  35.357  37.201  1.00  0.00    -0.200 F 
ATOM     98  F   UNL A   1      37.808  34.212  39.135  1.00  0.00    -0.200 F 
ENDBRANCH  65  88
ENDBRANCH  39  40
ENDBRANCH  32  34
ENDBRANCH  31  32
ENDBRANCH  30  31
ENDBRANCH  29  30
ENDBRANCH  28  29
ENDBRANCH   1  28
TORSDOF 18
ENDMDL
MODEL 3
REMARK VINA RESULT:     -12.0      3.637      9.067
REMARK SMILES O=C(CSc1ccc(NC(=O)c2cccc3ccccc23)cc1)OCCOCCOC(=O)c1ccc(-c2c3nc(c(-c4c(F)c(F)c(F)c(F)c4F)c4ccc([nH]4)c(-c4c(F)c(F)c(F)c(F)c4F)c4nc(c(-c5c(F)c(F)c(F)c(F)c5F)c5ccc2[nH]5)C=C4)C=C3)cc1
REMARK SMILES IDX 26 1 25 2 24 3 2 4 1 5 3 6 4 7 5 8 6 9 23 10 7 11 22 12 8 13
REMARK SMILES IDX 9 14 10 15 11 17 12 18 13 19 21 20 14 21 16 22 20 23 15 24
REMARK SMILES IDX 17 25 19 26 18 27 27 28 28 29 29 30 30 31 31 32 32 33 33 34
REMARK SMILES IDX 34 35 95 36 35 37 94 38 36 39 37 40 38 41 88 42 39 43 93 44
REMARK SMILES IDX 87 45 89 46 40 47 92 48 86 49 85 50 41 52 73 53 53 54 72 55
REMARK SMILES IDX 54 56 57 57 71 58 90 59 55 60 56 61 70 63 91 64 58 65 42 66
REMARK SMILES IDX 43 67 51 68 44 69 45 70 49 71 52 72 46 73 47 74 50 75 48 76
REMARK SMILES IDX 74 77 75 78 83 79 76 80 77 81 81 82 84 83 78 84 79 85 82 86
REMARK SMILES IDX 80 87 59 88 60 89 68 90 61 91 62 92 66 93 69 94 63 95 64 96
REMARK SMILES IDX 67 97 65 98
REMARK H PARENT 9 16 89 51 57 62
REMARK Flexibility Score: inf
ROOT
ATOM      1  C   UNL A   1      32.489  29.652  25.125  1.00  0.00     0.202 C 
ENDROOT
BRANCH   1   2
ATOM      2  C   UNL A   1      31.076  29.094  24.984  1.00  0.00     0.261 C 
BRANCH   2   3
ATOM      3  O   UNL A   1      30.381  29.575  23.829  1.00  0.00    -0.463 OA
BRANCH   3   4
ATOM      4  C   UNL A   1      30.274  28.883  22.676  1.00  0.00     0.316 C 
ATOM      5  O   UNL A   1      29.921  29.489  21.659  1.00  0.00    -0.251 OA
BRANCH   4   6
ATOM      6  C   UNL A   1      30.559  27.399  22.600  1.00  0.00     0.197 C 
BRANCH   6   7
ATOM      7  S   UNL A   1      32.293  26.885  22.479  1.00  0.00    -0.114 SA
BRANCH   7   8
ATOM      8  C   UNL A   1      32.185  25.115  22.457  1.00  0.00     0.008 A 
ATOM      9  C   UNL A   1      33.092  24.295  21.797  1.00  0.00     0.017 A 
ATOM     10  C   UNL A   1      31.163  24.509  23.188  1.00  0.00     0.017 A 
ATOM     11  C   UNL A   1      33.031  22.920  21.888  1.00  0.00     0.027 A 
ATOM     12  C   UNL A   1      31.141  23.119  23.343  1.00  0.00     0.027 A 
ATOM     13  C   UNL A   1      32.152  22.339  22.772  1.00  0.00     0.041 A 
BRANCH  13  14
ATOM     14  N   UNL A   1      32.312  21.028  23.216  1.00  0.00    -0.322 N 
ATOM     15  C   UNL A   1      32.937  20.511  24.329  1.00  0.00     0.256 C 
ATOM     16  H   UNL A   1      31.905  20.351  22.630  1.00  0.00     0.170 HD
ATOM     17  O   UNL A   1      32.928  19.285  24.468  1.00  0.00    -0.269 OA
BRANCH  15  18
ATOM     18  C   UNL A   1      33.661  21.299  25.369  1.00  0.00     0.048 A 
ATOM     19  C   UNL A   1      32.987  21.328  26.603  1.00  0.00     0.014 A 
ATOM     20  C   UNL A   1      34.861  22.062  25.185  1.00  0.00    -0.006 A 
ATOM     21  C   UNL A   1      33.426  22.144  27.637  1.00  0.00     0.001 A 
ATOM     22  C   UNL A   1      35.264  22.919  26.249  1.00  0.00    -0.018 A 
ATOM     23  C   UNL A   1      35.726  22.016  24.059  1.00  0.00     0.009 A 
ATOM     24  C   UNL A   1      34.529  22.966  27.442  1.00  0.00     0.009 A 
ATOM     25  C   UNL A   1      36.421  23.708  26.145  1.00  0.00     0.009 A 
ATOM     26  C   UNL A   1      36.942  22.713  24.027  1.00  0.00     0.001 A 
ATOM     27  C   UNL A   1      37.276  23.582  25.057  1.00  0.00     0.001 A 
ENDBRANCH  15  18
ENDBRANCH  13  14
ENDBRANCH   7   8
ENDBRANCH   6   7
ENDBRANCH   4   6
ENDBRANCH   3   4
ENDBRANCH   2   3
ENDBRANCH   1   2
BRANCH   1  28
ATOM     28  O   UNL A   1      32.788  30.373  26.318  1.00  0.00    -0.374 OA
BRANCH  28  29
ATOM     29  C   UNL A   1      31.732  31.176  26.866  1.00  0.00     0.202 C 
BRANCH  29  30
ATOM     30  C   UNL A   1      31.970  32.682  26.928  1.00  0.00     0.261 C 
BRANCH  30  31
ATOM     31  O   UNL A   1      33.264  32.963  27.481  1.00  0.00    -0.460 OA
BRANCH  31  32
ATOM     32  C   UNL A   1      33.301  34.000  28.350  1.00  0.00     0.338 C 
ATOM     33  O   UNL A   1      32.450  34.845  28.536  1.00  0.00    -0.246 OA
BRANCH  32  34
ATOM     34  C   UNL A   1      34.471  33.815  29.229  1.00  0.00     0.060 A 
ATOM     35  C   UNL A   1      35.703  34.343  28.807  1.00  0.00     0.016 A 
ATOM     36  C   UNL A   1      34.361  33.128  30.438  1.00  0.00     0.016 A 
ATOM     37  C   UNL A   1      36.848  34.120  29.562  1.00  0.00     0.010 A 
ATOM     38  C   UNL A   1      35.507  32.895  31.187  1.00  0.00     0.010 A 
ATOM     39  C   UNL A   1      36.757  33.346  30.723  1.00  0.00    -0.014 A 
BRANCH  39  40
ATOM     40  C   UNL A   1      37.970  32.797  31.357  1.00  0.00     0.031 A 
ATOM     41  C   UNL A   1      38.639  31.635  30.688  1.00  0.00     0.074 A 
ATOM     42  C   UNL A   1      38.407  33.273  32.532  1.00  0.00     0.049 A 
ATOM     43  N   UNL A   1      39.569  30.835  31.136  1.00  0.00    -0.248 NA
ATOM     44  C   UNL A   1      38.165  31.314  29.331  1.00  0.00     0.031 C 
ATOM     45  C   UNL A   1      37.843  34.418  33.240  1.00  0.00     0.029 A 
ATOM     46  N   UNL A   1      39.400  32.810  33.356  1.00  0.00    -0.354 N 
ATOM     47  C   UNL A   1      39.765  29.896  30.134  1.00  0.00     0.074 A 
ATOM     48  C   UNL A   1      38.843  30.208  29.066  1.00  0.00     0.031 C 
ATOM     49  C   UNL A   1      38.472  34.546  34.421  1.00  0.00     0.029 A 
ATOM     50  C   UNL A   1      39.442  33.461  34.562  1.00  0.00     0.049 A 
ATOM     51  H   UNL A   1      40.018  32.087  33.107  1.00  0.00     0.167 HD
ATOM     52  C   UNL A   1      40.639  28.862  30.117  1.00  0.00     0.037 A 
ATOM     53  C   UNL A   1      40.149  33.173  35.671  1.00  0.00     0.037 A 
ATOM     54  C   UNL A   1      41.541  28.570  31.199  1.00  0.00     0.049 A 
ATOM     55  C   UNL A   1      41.081  31.990  35.656  1.00  0.00     0.074 A 
ATOM     56  C   UNL A   1      42.500  27.579  31.280  1.00  0.00     0.029 A 
ATOM     57  N   UNL A   1      41.579  29.268  32.400  1.00  0.00    -0.354 N 
ATOM     58  N   UNL A   1      41.295  31.117  34.700  1.00  0.00    -0.248 NA
ATOM     59  C   UNL A   1      41.874  31.754  36.870  1.00  0.00     0.031 C 
ATOM     60  C   UNL A   1      43.068  27.632  32.557  1.00  0.00     0.029 A 
ATOM     61  C   UNL A   1      42.521  28.706  33.243  1.00  0.00     0.049 A 
ATOM     62  H   UNL A   1      41.017  30.047  32.618  1.00  0.00     0.167 HD
ATOM     63  C   UNL A   1      42.267  30.249  35.180  1.00  0.00     0.074 A 
ATOM     64  C   UNL A   1      42.600  30.703  36.516  1.00  0.00     0.031 C 
ATOM     65  C   UNL A   1      42.840  29.181  34.569  1.00  0.00     0.037 A 
BRANCH  52  66
ATOM     66  C   UNL A   1      40.609  27.953  28.921  1.00  0.00     0.064 A 
ATOM     67  C   UNL A   1      41.332  28.233  27.750  1.00  0.00     0.173 A 
ATOM     68  C   UNL A   1      39.825  26.789  28.939  1.00  0.00     0.173 A 
ATOM     69  F   UNL A   1      42.085  29.340  27.669  1.00  0.00    -0.203 F 
ATOM     70  C   UNL A   1      41.229  27.412  26.629  1.00  0.00     0.198 A 
ATOM     71  C   UNL A   1      39.757  25.949  27.831  1.00  0.00     0.198 A 
ATOM     72  F   UNL A   1      39.115  26.468  30.032  1.00  0.00    -0.203 F 
ATOM     73  F   UNL A   1      41.866  27.744  25.497  1.00  0.00    -0.200 F 
ATOM     74  C   UNL A   1      40.446  26.268  26.672  1.00  0.00     0.200 A 
ATOM     75  F   UNL A   1      39.011  24.837  27.880  1.00  0.00    -0.200 F 
ATOM     76  F   UNL A   1      40.345  25.482  25.591  1.00  0.00    -0.200 F 
ENDBRANCH  52  66
BRANCH  53  77
ATOM     77  C   UNL A   1      39.977  34.018  36.879  1.00  0.00     0.064 A 
ATOM     78  C   UNL A   1      40.671  35.227  37.017  1.00  0.00     0.173 A 
ATOM     79  C   UNL A   1      39.073  33.663  37.892  1.00  0.00     0.173 A 
ATOM     80  F   UNL A   1      41.558  35.600  36.082  1.00  0.00    -0.203 F 
ATOM     81  C   UNL A   1      40.469  36.049  38.124  1.00  0.00     0.198 A 
ATOM     82  C   UNL A   1      38.852  34.498  38.984  1.00  0.00     0.198 A 
ATOM     83  F   UNL A   1      38.379  32.520  37.801  1.00  0.00    -0.203 F 
ATOM     84  F   UNL A   1      41.163  37.188  38.244  1.00  0.00    -0.200 F 
ATOM     85  C   UNL A   1      39.553  35.689  39.101  1.00  0.00     0.200 A 
ATOM     86  F   UNL A   1      37.951  34.156  39.915  1.00  0.00    -0.200 F 
ATOM     87  F   UNL A   1      39.344  36.490  40.155  1.00  0.00    -0.200 F 
ENDBRANCH  53  77
BRANCH  65  88
ATOM     88  C   UNL A   1      43.927  28.457  35.309  1.00  0.00     0.064 A 
ATOM     89  C   UNL A   1      45.278  28.807  35.175  1.00  0.00     0.173 A 
ATOM     90  C   UNL A   1      43.599  27.446  36.225  1.00  0.00     0.173 A 
ATOM     91  F   UNL A   1      45.647  29.758  34.303  1.00  0.00    -0.203 F 
ATOM     92  C   UNL A   1      46.261  28.161  35.921  1.00  0.00     0.198 A 
ATOM     93  C   UNL A   1      44.579  26.826  36.995  1.00  0.00     0.198 A 
ATOM     94  F   UNL A   1      42.319  27.078  36.397  1.00  0.00    -0.203 F 
ATOM     95  F   UNL A   1      47.550  28.486  35.750  1.00  0.00    -0.200 F 
ATOM     96  C   UNL A   1      45.910  27.181  36.838  1.00  0.00     0.200 A 
ATOM     97  F   UNL A   1      44.234  25.894  37.892  1.00  0.00    -0.200 F 
ATOM     98  F   UNL A   1      46.855  26.576  37.569  1.00  0.00    -0.200 F 
ENDBRANCH  65  88
ENDBRANCH  39  40
ENDBRANCH  32  34
ENDBRANCH  31  32
ENDBRANCH  30  31
ENDBRANCH  29  30
ENDBRANCH  28  29
ENDBRANCH   1  28
TORSDOF 18
ENDMDL
