MODEL 1
REMARK VINA RESULT:     -10.7      0.000      0.000
REMARK SMILES O=C(OCCOCCOC(=O)[C@H]1CC1(c1ccccc1)c1ccccc1)c1ccc(-c2c3nc(c(-c4c(F)c(F)c(F)c(F)c4F)c4ccc([nH]4)c(-c4c(F)c(F)c(F)c(F)c4F)c4nc(c(-c5c(F)c(F)c(F)c(F)c5F)c5ccc2[nH]5)C=C4)C=C3)cc1
REMARK SMILES IDX 5 1 4 2 3 3 2 4 1 5 27 6 28 7 89 8 29 9 88 10 30 11 31 12
REMARK SMILES IDX 32 13 82 14 33 15 87 16 81 17 83 18 34 19 86 20 80 21 79 22
REMARK SMILES IDX 35 24 67 25 47 26 66 27 48 28 51 29 65 30 84 31 49 32 50 33
REMARK SMILES IDX 64 35 85 36 52 37 36 38 37 39 45 40 38 41 39 42 43 43 46 44
REMARK SMILES IDX 40 45 41 46 44 47 42 48 68 49 69 50 77 51 70 52 71 53 75 54
REMARK SMILES IDX 78 55 72 56 73 57 76 58 74 59 53 60 54 61 62 62 55 63 56 64
REMARK SMILES IDX 60 65 63 66 57 67 58 68 61 69 59 70 6 71 7 72 8 73 9 74
REMARK SMILES IDX 10 75 11 76 12 77 13 78 14 79 15 80 16 81 20 82 17 83 19 84
REMARK SMILES IDX 18 85 21 86 22 87 26 88 23 89 25 90 24 91
REMARK H PARENT 83 23 51 34
REMARK Flexibility Score: inf
ROOT
ATOM      1  C   UNL A   1      41.314  19.800  26.526  1.00  0.00     0.202 C 
ENDROOT
BRANCH   1   2
ATOM      2  C   UNL A   1      39.940  20.346  26.126  1.00  0.00     0.261 C 
BRANCH   2   3
ATOM      3  O   UNL A   1      40.022  21.746  25.817  1.00  0.00    -0.460 OA
BRANCH   3   4
ATOM      4  C   UNL A   1      39.151  22.735  26.118  1.00  0.00     0.338 C 
ATOM      5  O   UNL A   1      37.951  22.517  25.944  1.00  0.00    -0.246 OA
BRANCH   4   6
ATOM      6  C   UNL A   1      39.531  24.072  26.684  1.00  0.00     0.060 A 
ATOM      7  C   UNL A   1      40.134  25.123  25.988  1.00  0.00     0.016 A 
ATOM      8  C   UNL A   1      39.170  24.305  28.025  1.00  0.00     0.016 A 
ATOM      9  C   UNL A   1      40.401  26.344  26.596  1.00  0.00     0.010 A 
ATOM     10  C   UNL A   1      39.420  25.535  28.644  1.00  0.00     0.010 A 
ATOM     11  C   UNL A   1      40.052  26.552  27.927  1.00  0.00    -0.014 A 
BRANCH  11  12
ATOM     12  C   UNL A   1      40.489  27.807  28.558  1.00  0.00     0.031 A 
ATOM     13  C   UNL A   1      41.953  28.008  28.789  1.00  0.00     0.074 A 
ATOM     14  C   UNL A   1      39.595  28.788  28.772  1.00  0.00     0.049 A 
ATOM     15  N   UNL A   1      42.580  29.037  29.294  1.00  0.00    -0.248 NA
ATOM     16  C   UNL A   1      42.836  26.907  28.370  1.00  0.00     0.031 C 
ATOM     17  C   UNL A   1      38.167  28.706  28.459  1.00  0.00     0.029 A 
ATOM     18  N   UNL A   1      39.760  30.054  29.265  1.00  0.00    -0.354 N 
ATOM     19  C   UNL A   1      43.925  28.702  29.265  1.00  0.00     0.074 A 
ATOM     20  C   UNL A   1      44.029  27.375  28.702  1.00  0.00     0.031 C 
ATOM     21  C   UNL A   1      37.589  29.882  28.751  1.00  0.00     0.029 A 
ATOM     22  C   UNL A   1      38.594  30.777  29.316  1.00  0.00     0.049 A 
ATOM     23  H   UNL A   1      40.629  30.412  29.554  1.00  0.00     0.167 HD
ATOM     24  C   UNL A   1      44.977  29.444  29.679  1.00  0.00     0.037 A 
ATOM     25  C   UNL A   1      38.373  32.017  29.791  1.00  0.00     0.037 A 
ATOM     26  C   UNL A   1      44.841  30.756  30.250  1.00  0.00     0.049 A 
ATOM     27  C   UNL A   1      39.550  32.783  30.335  1.00  0.00     0.074 A 
ATOM     28  C   UNL A   1      45.816  31.579  30.778  1.00  0.00     0.029 A 
ATOM     29  N   UNL A   1      43.633  31.435  30.365  1.00  0.00    -0.354 N 
ATOM     30  N   UNL A   1      40.818  32.443  30.364  1.00  0.00    -0.248 NA
ATOM     31  C   UNL A   1      39.268  34.098  30.926  1.00  0.00     0.031 C 
ATOM     32  C   UNL A   1      45.192  32.740  31.250  1.00  0.00     0.029 A 
ATOM     33  C   UNL A   1      43.835  32.661  30.973  1.00  0.00     0.049 A 
ATOM     34  H   UNL A   1      42.762  31.093  30.058  1.00  0.00     0.167 HD
ATOM     35  C   UNL A   1      41.487  33.502  30.958  1.00  0.00     0.074 A 
ATOM     36  C   UNL A   1      40.485  34.508  31.256  1.00  0.00     0.031 C 
ATOM     37  C   UNL A   1      42.807  33.634  31.243  1.00  0.00     0.037 A 
BRANCH  24  38
ATOM     38  C   UNL A   1      46.333  28.811  29.592  1.00  0.00     0.064 A 
ATOM     39  C   UNL A   1      47.170  29.000  28.482  1.00  0.00     0.173 A 
ATOM     40  C   UNL A   1      46.781  27.964  30.616  1.00  0.00     0.173 A 
ATOM     41  F   UNL A   1      46.774  29.774  27.461  1.00  0.00    -0.203 F 
ATOM     42  C   UNL A   1      48.394  28.339  28.388  1.00  0.00     0.198 A 
ATOM     43  C   UNL A   1      48.015  27.326  30.531  1.00  0.00     0.198 A 
ATOM     44  F   UNL A   1      46.014  27.742  31.694  1.00  0.00    -0.203 F 
ATOM     45  F   UNL A   1      49.150  28.485  27.291  1.00  0.00    -0.200 F 
ATOM     46  C   UNL A   1      48.816  27.505  29.413  1.00  0.00     0.200 A 
ATOM     47  F   UNL A   1      48.422  26.520  31.522  1.00  0.00    -0.200 F 
ATOM     48  F   UNL A   1      49.987  26.862  29.316  1.00  0.00    -0.200 F 
ENDBRANCH  24  38
BRANCH  25  49
ATOM     49  C   UNL A   1      36.999  32.584  29.805  1.00  0.00     0.064 A 
ATOM     50  C   UNL A   1      36.491  33.300  28.712  1.00  0.00     0.173 A 
ATOM     51  C   UNL A   1      36.164  32.432  30.925  1.00  0.00     0.173 A 
ATOM     52  F   UNL A   1      37.255  33.496  27.627  1.00  0.00    -0.203 F 
ATOM     53  C   UNL A   1      35.211  33.853  28.743  1.00  0.00     0.198 A 
ATOM     54  C   UNL A   1      34.874  32.959  30.942  1.00  0.00     0.198 A 
ATOM     55  F   UNL A   1      36.599  31.761  32.001  1.00  0.00    -0.203 F 
ATOM     56  F   UNL A   1      34.769  34.572  27.703  1.00  0.00    -0.200 F 
ATOM     57  C   UNL A   1      34.401  33.677  29.855  1.00  0.00     0.200 A 
ATOM     58  F   UNL A   1      34.092  32.775  32.015  1.00  0.00    -0.200 F 
ATOM     59  F   UNL A   1      33.171  34.207  29.884  1.00  0.00    -0.200 F 
ENDBRANCH  25  49
BRANCH  37  60
ATOM     60  C   UNL A   1      43.234  34.919  31.884  1.00  0.00     0.064 A 
ATOM     61  C   UNL A   1      43.627  36.024  31.116  1.00  0.00     0.173 A 
ATOM     62  C   UNL A   1      43.202  35.058  33.280  1.00  0.00     0.173 A 
ATOM     63  F   UNL A   1      43.687  35.931  29.780  1.00  0.00    -0.203 F 
ATOM     64  C   UNL A   1      43.995  37.219  31.727  1.00  0.00     0.198 A 
ATOM     65  C   UNL A   1      43.542  36.263  33.884  1.00  0.00     0.198 A 
ATOM     66  F   UNL A   1      42.825  34.029  34.053  1.00  0.00    -0.203 F 
ATOM     67  F   UNL A   1      44.409  38.251  30.978  1.00  0.00    -0.200 F 
ATOM     68  C   UNL A   1      43.944  37.340  33.108  1.00  0.00     0.200 A 
ATOM     69  F   UNL A   1      43.480  36.384  35.217  1.00  0.00    -0.200 F 
ATOM     70  F   UNL A   1      44.291  38.495  33.692  1.00  0.00    -0.200 F 
ENDBRANCH  37  60
ENDBRANCH  11  12
ENDBRANCH   4   6
ENDBRANCH   3   4
ENDBRANCH   2   3
ENDBRANCH   1   2
BRANCH   1  71
ATOM     71  O   UNL A   1      41.996  19.178  25.436  1.00  0.00    -0.374 OA
BRANCH  71  72
ATOM     72  C   UNL A   1      43.269  18.600  25.751  1.00  0.00     0.202 C 
BRANCH  72  73
ATOM     73  C   UNL A   1      44.326  19.139  24.790  1.00  0.00     0.261 C 
BRANCH  73  74
ATOM     74  O   UNL A   1      44.153  20.558  24.699  1.00  0.00    -0.463 OA
BRANCH  74  75
ATOM     75  C   UNL A   1      45.215  21.293  25.127  1.00  0.00     0.310 C 
ATOM     76  O   UNL A   1      46.191  20.883  25.740  1.00  0.00    -0.252 OA
BRANCH  75  77
ATOM     77  C   UNL A   1      45.158  22.678  24.609  1.00  0.00     0.115 C 
ATOM     78  C   UNL A   1      43.834  23.342  24.347  1.00  0.00     0.034 C 
ATOM     79  C   UNL A   1      44.733  23.864  25.474  1.00  0.00     0.034 C 
BRANCH  79  80
ATOM     80  C   UNL A   1      44.266  23.559  26.910  1.00  0.00    -0.037 A 
ATOM     81  C   UNL A   1      45.138  23.668  28.005  1.00  0.00     0.004 A 
ATOM     82  C   UNL A   1      42.947  23.141  27.176  1.00  0.00     0.004 A 
ATOM     83  C   UNL A   1      44.712  23.374  29.303  1.00  0.00     0.000 A 
ATOM     84  C   UNL A   1      42.517  22.841  28.468  1.00  0.00     0.000 A 
ATOM     85  C   UNL A   1      43.403  22.956  29.533  1.00  0.00     0.000 A 
ENDBRANCH  79  80
BRANCH  79  86
ATOM     86  C   UNL A   1      45.513  25.192  25.263  1.00  0.00    -0.037 A 
ATOM     87  C   UNL A   1      46.883  25.190  24.930  1.00  0.00     0.004 A 
ATOM     88  C   UNL A   1      44.916  26.466  25.372  1.00  0.00     0.004 A 
ATOM     89  C   UNL A   1      47.614  26.367  24.744  1.00  0.00     0.000 A 
ATOM     90  C   UNL A   1      45.638  27.650  25.178  1.00  0.00     0.000 A 
ATOM     91  C   UNL A   1      46.990  27.600  24.869  1.00  0.00     0.000 A 
ENDBRANCH  79  86
ENDBRANCH  75  77
ENDBRANCH  74  75
ENDBRANCH  73  74
ENDBRANCH  72  73
ENDBRANCH  71  72
ENDBRANCH   1  71
TORSDOF 16
ENDMDL
MODEL 2
REMARK VINA RESULT:     -10.6      0.502      2.133
REMARK SMILES O=C(OCCOCCOC(=O)[C@H]1CC1(c1ccccc1)c1ccccc1)c1ccc(-c2c3nc(c(-c4c(F)c(F)c(F)c(F)c4F)c4ccc([nH]4)c(-c4c(F)c(F)c(F)c(F)c4F)c4nc(c(-c5c(F)c(F)c(F)c(F)c5F)c5ccc2[nH]5)C=C4)C=C3)cc1
REMARK SMILES IDX 5 1 4 2 3 3 2 4 1 5 27 6 28 7 89 8 29 9 88 10 30 11 31 12
REMARK SMILES IDX 32 13 82 14 33 15 87 16 81 17 83 18 34 19 86 20 80 21 79 22
REMARK SMILES IDX 35 24 67 25 47 26 66 27 48 28 51 29 65 30 84 31 49 32 50 33
REMARK SMILES IDX 64 35 85 36 52 37 36 38 37 39 45 40 38 41 39 42 43 43 46 44
REMARK SMILES IDX 40 45 41 46 44 47 42 48 68 49 69 50 77 51 70 52 71 53 75 54
REMARK SMILES IDX 78 55 72 56 73 57 76 58 74 59 53 60 54 61 62 62 55 63 56 64
REMARK SMILES IDX 60 65 63 66 57 67 58 68 61 69 59 70 6 71 7 72 8 73 9 74
REMARK SMILES IDX 10 75 11 76 12 77 13 78 14 79 15 80 16 81 20 82 17 83 19 84
REMARK SMILES IDX 18 85 21 86 22 87 26 88 23 89 25 90 24 91
REMARK H PARENT 83 23 51 34
REMARK Flexibility Score: inf
ROOT
ATOM      1  C   UNL A   1      41.146  19.899  26.552  1.00  0.00     0.202 C 
ENDROOT
BRANCH   1   2
ATOM      2  C   UNL A   1      39.765  20.406  26.125  1.00  0.00     0.261 C 
BRANCH   2   3
ATOM      3  O   UNL A   1      39.826  21.793  25.758  1.00  0.00    -0.460 OA
BRANCH   3   4
ATOM      4  C   UNL A   1      39.009  22.806  26.126  1.00  0.00     0.338 C 
ATOM      5  O   UNL A   1      37.796  22.647  25.986  1.00  0.00    -0.246 OA
BRANCH   4   6
ATOM      6  C   UNL A   1      39.466  24.103  26.728  1.00  0.00     0.060 A 
ATOM      7  C   UNL A   1      40.142  25.129  26.064  1.00  0.00     0.016 A 
ATOM      8  C   UNL A   1      39.105  24.327  28.071  1.00  0.00     0.016 A 
ATOM      9  C   UNL A   1      40.478  26.316  26.703  1.00  0.00     0.010 A 
ATOM     10  C   UNL A   1      39.424  25.524  28.721  1.00  0.00     0.010 A 
ATOM     11  C   UNL A   1      40.128  26.515  28.035  1.00  0.00    -0.014 A 
BRANCH  11  12
ATOM     12  C   UNL A   1      40.635  27.725  28.701  1.00  0.00     0.031 A 
ATOM     13  C   UNL A   1      42.113  27.861  28.886  1.00  0.00     0.074 A 
ATOM     14  C   UNL A   1      39.789  28.729  28.988  1.00  0.00     0.049 A 
ATOM     15  N   UNL A   1      42.797  28.843  29.409  1.00  0.00    -0.248 NA
ATOM     16  C   UNL A   1      42.938  26.746  28.390  1.00  0.00     0.031 C 
ATOM     17  C   UNL A   1      38.348  28.714  28.724  1.00  0.00     0.029 A 
ATOM     18  N   UNL A   1      40.020  29.966  29.525  1.00  0.00    -0.354 N 
ATOM     19  C   UNL A   1      44.127  28.459  29.317  1.00  0.00     0.074 A 
ATOM     20  C   UNL A   1      44.158  27.154  28.696  1.00  0.00     0.031 C 
ATOM     21  C   UNL A   1      37.827  29.898  29.085  1.00  0.00     0.029 A 
ATOM     22  C   UNL A   1      38.885  30.729  29.649  1.00  0.00     0.049 A 
ATOM     23  H   UNL A   1      40.912  30.278  29.797  1.00  0.00     0.167 HD
ATOM     24  C   UNL A   1      45.220  29.143  29.722  1.00  0.00     0.037 A 
ATOM     25  C   UNL A   1      38.730  31.955  30.183  1.00  0.00     0.037 A 
ATOM     26  C   UNL A   1      45.156  30.434  30.351  1.00  0.00     0.049 A 
ATOM     27  C   UNL A   1      39.954  32.653  30.714  1.00  0.00     0.074 A 
ATOM     28  C   UNL A   1      46.181  31.197  30.876  1.00  0.00     0.029 A 
ATOM     29  N   UNL A   1      43.980  31.152  30.538  1.00  0.00    -0.354 N 
ATOM     30  N   UNL A   1      41.208  32.264  30.682  1.00  0.00    -0.248 NA
ATOM     31  C   UNL A   1      39.745  33.951  31.368  1.00  0.00     0.031 C 
ATOM     32  C   UNL A   1      45.619  32.359  31.418  1.00  0.00     0.029 A 
ATOM     33  C   UNL A   1      44.251  32.343  31.188  1.00  0.00     0.049 A 
ATOM     34  H   UNL A   1      43.086  30.856  30.250  1.00  0.00     0.167 HD
ATOM     35  C   UNL A   1      41.939  33.271  31.295  1.00  0.00     0.074 A 
ATOM     36  C   UNL A   1      40.988  34.301  31.670  1.00  0.00     0.031 C 
ATOM     37  C   UNL A   1      43.272  33.342  31.536  1.00  0.00     0.037 A 
BRANCH  24  38
ATOM     38  C   UNL A   1      46.547  28.464  29.559  1.00  0.00     0.064 A 
ATOM     39  C   UNL A   1      47.080  27.629  30.552  1.00  0.00     0.173 A 
ATOM     40  C   UNL A   1      47.317  28.690  28.408  1.00  0.00     0.173 A 
ATOM     41  F   UNL A   1      46.398  27.406  31.686  1.00  0.00    -0.203 F 
ATOM     42  C   UNL A   1      48.349  27.069  30.412  1.00  0.00     0.198 A 
ATOM     43  C   UNL A   1      48.573  28.110  28.260  1.00  0.00     0.198 A 
ATOM     44  F   UNL A   1      46.856  29.488  27.433  1.00  0.00    -0.203 F 
ATOM     45  F   UNL A   1      48.865  26.325  31.400  1.00  0.00    -0.200 F 
ATOM     46  C   UNL A   1      49.093  27.308  29.266  1.00  0.00     0.200 A 
ATOM     47  F   UNL A   1      49.291  28.341  27.152  1.00  0.00    -0.200 F 
ATOM     48  F   UNL A   1      50.317  26.780  29.137  1.00  0.00    -0.200 F 
ENDBRANCH  24  38
BRANCH  25  49
ATOM     49  C   UNL A   1      37.381  32.572  30.271  1.00  0.00     0.064 A 
ATOM     50  C   UNL A   1      36.515  32.290  31.337  1.00  0.00     0.173 A 
ATOM     51  C   UNL A   1      36.920  33.453  29.278  1.00  0.00     0.173 A 
ATOM     52  F   UNL A   1      36.894  31.437  32.299  1.00  0.00    -0.203 F 
ATOM     53  C   UNL A   1      35.240  32.851  31.400  1.00  0.00     0.198 A 
ATOM     54  C   UNL A   1      35.657  34.036  29.357  1.00  0.00     0.198 A 
ATOM     55  F   UNL A   1      37.703  33.755  28.232  1.00  0.00    -0.203 F 
ATOM     56  F   UNL A   1      34.416  32.527  32.405  1.00  0.00    -0.200 F 
ATOM     57  C   UNL A   1      34.814  33.728  30.413  1.00  0.00     0.200 A 
ATOM     58  F   UNL A   1      35.256  34.893  28.407  1.00  0.00    -0.200 F 
ATOM     59  F   UNL A   1      33.590  34.268  30.475  1.00  0.00    -0.200 F 
ENDBRANCH  25  49
BRANCH  37  60
ATOM     60  C   UNL A   1      43.771  34.581  32.212  1.00  0.00     0.064 A 
ATOM     61  C   UNL A   1      43.946  34.637  33.602  1.00  0.00     0.173 A 
ATOM     62  C   UNL A   1      44.124  35.707  31.453  1.00  0.00     0.173 A 
ATOM     63  F   UNL A   1      43.607  33.589  34.368  1.00  0.00    -0.203 F 
ATOM     64  C   UNL A   1      44.437  35.788  34.212  1.00  0.00     0.198 A 
ATOM     65  C   UNL A   1      44.642  36.844  32.064  1.00  0.00     0.198 A 
ATOM     66  F   UNL A   1      43.982  35.696  30.120  1.00  0.00    -0.203 F 
ATOM     67  F   UNL A   1      44.556  35.837  35.546  1.00  0.00    -0.200 F 
ATOM     68  C   UNL A   1      44.793  36.886  33.442  1.00  0.00     0.200 A 
ATOM     69  F   UNL A   1      44.998  37.900  31.319  1.00  0.00    -0.200 F 
ATOM     70  F   UNL A   1      45.273  37.989  34.032  1.00  0.00    -0.200 F 
ENDBRANCH  37  60
ENDBRANCH  11  12
ENDBRANCH   4   6
ENDBRANCH   3   4
ENDBRANCH   2   3
ENDBRANCH   1   2
BRANCH   1  71
ATOM     71  O   UNL A   1      41.943  19.478  25.444  1.00  0.00    -0.374 OA
BRANCH  71  72
ATOM     72  C   UNL A   1      43.032  18.603  25.762  1.00  0.00     0.202 C 
BRANCH  72  73
ATOM     73  C   UNL A   1      44.266  19.014  24.962  1.00  0.00     0.261 C 
BRANCH  73  74
ATOM     74  O   UNL A   1      44.177  20.421  24.709  1.00  0.00    -0.463 OA
BRANCH  74  75
ATOM     75  C   UNL A   1      45.274  21.139  25.075  1.00  0.00     0.310 C 
ATOM     76  O   UNL A   1      46.268  20.716  25.647  1.00  0.00    -0.252 OA
BRANCH  75  77
ATOM     77  C   UNL A   1      45.221  22.517  24.539  1.00  0.00     0.115 C 
ATOM     78  C   UNL A   1      43.899  23.175  24.251  1.00  0.00     0.034 C 
ATOM     79  C   UNL A   1      44.781  23.713  25.384  1.00  0.00     0.034 C 
BRANCH  79  80
ATOM     80  C   UNL A   1      44.295  23.425  26.816  1.00  0.00    -0.037 A 
ATOM     81  C   UNL A   1      42.960  23.085  27.086  1.00  0.00     0.004 A 
ATOM     82  C   UNL A   1      45.173  23.510  27.917  1.00  0.00     0.004 A 
ATOM     83  C   UNL A   1      42.523  22.841  28.391  1.00  0.00     0.000 A 
ATOM     84  C   UNL A   1      44.741  23.273  29.221  1.00  0.00     0.000 A 
ATOM     85  C   UNL A   1      43.413  22.940  29.458  1.00  0.00     0.000 A 
ENDBRANCH  79  80
BRANCH  79  86
ATOM     86  C   UNL A   1      45.561  25.040  25.167  1.00  0.00    -0.037 A 
ATOM     87  C   UNL A   1      44.914  26.290  25.253  1.00  0.00     0.004 A 
ATOM     88  C   UNL A   1      46.944  25.089  24.892  1.00  0.00     0.004 A 
ATOM     89  C   UNL A   1      45.585  27.500  25.054  1.00  0.00     0.000 A 
ATOM     90  C   UNL A   1      47.627  26.296  24.700  1.00  0.00     0.000 A 
ATOM     91  C   UNL A   1      46.945  27.503  24.775  1.00  0.00     0.000 A 
ENDBRANCH  79  86
ENDBRANCH  75  77
ENDBRANCH  74  75
ENDBRANCH  73  74
ENDBRANCH  72  73
ENDBRANCH  71  72
ENDBRANCH   1  71
TORSDOF 16
ENDMDL
MODEL 3
REMARK VINA RESULT:     -10.5      4.309     11.558
REMARK SMILES O=C(OCCOCCOC(=O)[C@H]1CC1(c1ccccc1)c1ccccc1)c1ccc(-c2c3nc(c(-c4c(F)c(F)c(F)c(F)c4F)c4ccc([nH]4)c(-c4c(F)c(F)c(F)c(F)c4F)c4nc(c(-c5c(F)c(F)c(F)c(F)c5F)c5ccc2[nH]5)C=C4)C=C3)cc1
REMARK SMILES IDX 5 1 4 2 3 3 2 4 1 5 27 6 28 7 89 8 29 9 88 10 30 11 31 12
REMARK SMILES IDX 32 13 82 14 33 15 87 16 81 17 83 18 34 19 86 20 80 21 79 22
REMARK SMILES IDX 35 24 67 25 47 26 66 27 48 28 51 29 65 30 84 31 49 32 50 33
REMARK SMILES IDX 64 35 85 36 52 37 36 38 37 39 45 40 38 41 39 42 43 43 46 44
REMARK SMILES IDX 40 45 41 46 44 47 42 48 68 49 69 50 77 51 70 52 71 53 75 54
REMARK SMILES IDX 78 55 72 56 73 57 76 58 74 59 53 60 54 61 62 62 55 63 56 64
REMARK SMILES IDX 60 65 63 66 57 67 58 68 61 69 59 70 6 71 7 72 8 73 9 74
REMARK SMILES IDX 10 75 11 76 12 77 13 78 14 79 15 80 16 81 20 82 17 83 19 84
REMARK SMILES IDX 18 85 21 86 22 87 26 88 23 89 25 90 24 91
REMARK H PARENT 83 23 51 34
REMARK Flexibility Score: inf
ROOT
ATOM      1  C   UNL A   1      33.853  34.280  28.086  1.00  0.00     0.202 C 
ENDROOT
BRANCH   1   2
ATOM      2  C   UNL A   1      33.249  32.964  27.587  1.00  0.00     0.261 C 
BRANCH   2   3
ATOM      3  O   UNL A   1      33.771  31.853  28.332  1.00  0.00    -0.460 OA
BRANCH   3   4
ATOM      4  C   UNL A   1      34.383  30.736  27.876  1.00  0.00     0.338 C 
ATOM      5  O   UNL A   1      33.805  30.076  27.011  1.00  0.00    -0.246 OA
BRANCH   4   6
ATOM      6  C   UNL A   1      35.734  30.255  28.318  1.00  0.00     0.060 A 
ATOM      7  C   UNL A   1      36.038  29.657  29.543  1.00  0.00     0.016 A 
ATOM      8  C   UNL A   1      36.770  30.350  27.368  1.00  0.00     0.016 A 
ATOM      9  C   UNL A   1      37.317  29.200  29.836  1.00  0.00     0.010 A 
ATOM     10  C   UNL A   1      38.058  29.880  27.645  1.00  0.00     0.010 A 
ATOM     11  C   UNL A   1      38.333  29.317  28.892  1.00  0.00    -0.014 A 
BRANCH  11  12
ATOM     12  C   UNL A   1      39.696  28.951  29.308  1.00  0.00     0.031 A 
ATOM     13  C   UNL A   1      40.363  29.788  30.352  1.00  0.00     0.074 A 
ATOM     14  C   UNL A   1      40.243  27.808  28.859  1.00  0.00     0.049 A 
ATOM     15  N   UNL A   1      41.539  29.647  30.903  1.00  0.00    -0.248 NA
ATOM     16  C   UNL A   1      39.587  30.930  30.866  1.00  0.00     0.031 C 
ATOM     17  C   UNL A   1      39.599  26.878  27.929  1.00  0.00     0.029 A 
ATOM     18  N   UNL A   1      41.442  27.216  29.151  1.00  0.00    -0.354 N 
ATOM     19  C   UNL A   1      41.649  30.686  31.815  1.00  0.00     0.074 A 
ATOM     20  C   UNL A   1      40.427  31.455  31.743  1.00  0.00     0.031 C 
ATOM     21  C   UNL A   1      40.405  25.821  27.741  1.00  0.00     0.029 A 
ATOM     22  C   UNL A   1      41.637  26.025  28.496  1.00  0.00     0.049 A 
ATOM     23  H   UNL A   1      42.099  27.606  29.769  1.00  0.00     0.167 HD
ATOM     24  C   UNL A   1      42.686  30.966  32.636  1.00  0.00     0.037 A 
ATOM     25  C   UNL A   1      42.709  25.211  28.499  1.00  0.00     0.037 A 
ATOM     26  C   UNL A   1      43.895  30.190  32.674  1.00  0.00     0.049 A 
ATOM     27  C   UNL A   1      43.889  25.601  29.349  1.00  0.00     0.074 A 
ATOM     28  C   UNL A   1      45.048  30.413  33.402  1.00  0.00     0.029 A 
ATOM     29  N   UNL A   1      44.099  29.029  31.938  1.00  0.00    -0.354 N 
ATOM     30  N   UNL A   1      44.018  26.619  30.170  1.00  0.00    -0.248 NA
ATOM     31  C   UNL A   1      45.077  24.743  29.268  1.00  0.00     0.031 C 
ATOM     32  C   UNL A   1      45.965  29.408  33.074  1.00  0.00     0.029 A 
ATOM     33  C   UNL A   1      45.368  28.532  32.180  1.00  0.00     0.049 A 
ATOM     34  H   UNL A   1      43.438  28.621  31.332  1.00  0.00     0.167 HD
ATOM     35  C   UNL A   1      45.289  26.517  30.712  1.00  0.00     0.074 A 
ATOM     36  C   UNL A   1      45.886  25.323  30.144  1.00  0.00     0.031 C 
ATOM     37  C   UNL A   1      45.917  27.335  31.594  1.00  0.00     0.037 A 
BRANCH  24  38
ATOM     38  C   UNL A   1      42.568  32.197  33.485  1.00  0.00     0.064 A 
ATOM     39  C   UNL A   1      42.093  32.145  34.804  1.00  0.00     0.173 A 
ATOM     40  C   UNL A   1      42.891  33.453  32.952  1.00  0.00     0.173 A 
ATOM     41  F   UNL A   1      41.739  30.972  35.350  1.00  0.00    -0.203 F 
ATOM     42  C   UNL A   1      41.919  33.311  35.548  1.00  0.00     0.198 A 
ATOM     43  C   UNL A   1      42.740  34.613  33.706  1.00  0.00     0.198 A 
ATOM     44  F   UNL A   1      43.340  33.558  31.692  1.00  0.00    -0.203 F 
ATOM     45  F   UNL A   1      41.405  33.245  36.785  1.00  0.00    -0.200 F 
ATOM     46  C   UNL A   1      42.245  34.543  34.999  1.00  0.00     0.200 A 
ATOM     47  F   UNL A   1      43.056  35.803  33.175  1.00  0.00    -0.200 F 
ATOM     48  F   UNL A   1      42.065  35.663  35.711  1.00  0.00    -0.200 F 
ENDBRANCH  24  38
BRANCH  25  49
ATOM     49  C   UNL A   1      42.727  23.988  27.654  1.00  0.00     0.064 A 
ATOM     50  C   UNL A   1      42.402  22.730  28.180  1.00  0.00     0.173 A 
ATOM     51  C   UNL A   1      43.086  24.050  26.297  1.00  0.00     0.173 A 
ATOM     52  F   UNL A   1      42.076  22.610  29.475  1.00  0.00    -0.203 F 
ATOM     53  C   UNL A   1      42.447  21.583  27.388  1.00  0.00     0.198 A 
ATOM     54  C   UNL A   1      43.102  22.908  25.500  1.00  0.00     0.198 A 
ATOM     55  F   UNL A   1      43.413  25.226  25.741  1.00  0.00    -0.203 F 
ATOM     56  F   UNL A   1      42.176  20.387  27.928  1.00  0.00    -0.200 F 
ATOM     57  C   UNL A   1      42.792  21.673  26.048  1.00  0.00     0.200 A 
ATOM     58  F   UNL A   1      43.424  23.003  24.202  1.00  0.00    -0.200 F 
ATOM     59  F   UNL A   1      42.834  20.571  25.287  1.00  0.00    -0.200 F 
ENDBRANCH  25  49
BRANCH  37  60
ATOM     60  C   UNL A   1      47.303  26.947  32.008  1.00  0.00     0.064 A 
ATOM     61  C   UNL A   1      47.527  26.043  33.056  1.00  0.00     0.173 A 
ATOM     62  C   UNL A   1      48.414  27.449  31.315  1.00  0.00     0.173 A 
ATOM     63  F   UNL A   1      46.495  25.550  33.756  1.00  0.00    -0.203 F 
ATOM     64  C   UNL A   1      48.822  25.672  33.410  1.00  0.00     0.198 A 
ATOM     65  C   UNL A   1      49.703  27.052  31.653  1.00  0.00     0.198 A 
ATOM     66  F   UNL A   1      48.247  28.310  30.301  1.00  0.00    -0.203 F 
ATOM     67  F   UNL A   1      49.017  24.840  34.443  1.00  0.00    -0.200 F 
ATOM     68  C   UNL A   1      49.907  26.169  32.704  1.00  0.00     0.200 A 
ATOM     69  F   UNL A   1      50.751  27.523  30.962  1.00  0.00    -0.200 F 
ATOM     70  F   UNL A   1      51.150  25.803  33.042  1.00  0.00    -0.200 F 
ENDBRANCH  37  60
ENDBRANCH  11  12
ENDBRANCH   4   6
ENDBRANCH   3   4
ENDBRANCH   2   3
ENDBRANCH   1   2
BRANCH   1  71
ATOM     71  O   UNL A   1      33.532  34.548  29.452  1.00  0.00    -0.374 OA
BRANCH  71  72
ATOM     72  C   UNL A   1      32.892  35.806  29.702  1.00  0.00     0.202 C 
BRANCH  72  73
ATOM     73  C   UNL A   1      32.967  36.129  31.192  1.00  0.00     0.261 C 
BRANCH  73  74
ATOM     74  O   UNL A   1      33.483  34.975  31.866  1.00  0.00    -0.463 OA
BRANCH  74  75
ATOM     75  C   UNL A   1      34.530  35.219  32.701  1.00  0.00     0.310 C 
ATOM     76  O   UNL A   1      35.026  36.308  32.954  1.00  0.00    -0.252 OA
BRANCH  75  77
ATOM     77  C   UNL A   1      34.926  34.001  33.441  1.00  0.00     0.115 C 
ATOM     78  C   UNL A   1      34.712  32.638  32.842  1.00  0.00     0.034 C 
ATOM     79  C   UNL A   1      36.139  33.158  33.051  1.00  0.00     0.034 C 
BRANCH  79  80
ATOM     80  C   UNL A   1      36.904  33.568  31.779  1.00  0.00    -0.037 A 
ATOM     81  C   UNL A   1      36.505  33.130  30.506  1.00  0.00     0.004 A 
ATOM     82  C   UNL A   1      38.049  34.387  31.848  1.00  0.00     0.004 A 
ATOM     83  C   UNL A   1      37.214  33.492  29.358  1.00  0.00     0.000 A 
ATOM     84  C   UNL A   1      38.764  34.748  30.706  1.00  0.00     0.000 A 
ATOM     85  C   UNL A   1      38.346  34.298  29.460  1.00  0.00     0.000 A 
ENDBRANCH  79  80
BRANCH  79  86
ATOM     86  C   UNL A   1      36.988  32.581  34.218  1.00  0.00    -0.037 A 
ATOM     87  C   UNL A   1      37.689  31.365  34.080  1.00  0.00     0.004 A 
ATOM     88  C   UNL A   1      37.129  33.225  35.465  1.00  0.00     0.004 A 
ATOM     89  C   UNL A   1      38.453  30.815  35.114  1.00  0.00     0.000 A 
ATOM     90  C   UNL A   1      37.899  32.688  36.504  1.00  0.00     0.000 A 
ATOM     91  C   UNL A   1      38.557  31.477  36.329  1.00  0.00     0.000 A 
ENDBRANCH  79  86
ENDBRANCH  75  77
ENDBRANCH  74  75
ENDBRANCH  73  74
ENDBRANCH  72  73
ENDBRANCH  71  72
ENDBRANCH   1  71
TORSDOF 16
ENDMDL
