MODEL 1
REMARK VINA RESULT:      -8.7      0.000      0.000
REMARK SMILES COc1cc(/C=N/[NH+]=C2\NC(=O)[C@@H](CC(=O)OCCOCCOC(=O)c3ccc(-c4c5nc(c(-c6c(F)c(F)c(F)c(F)c6F)c6ccc([nH]6)c(-c6c(F)c(F)c(F)c(F)c6F)c6nc(c(-c7c(F)c(F)c(F)c(F)c7F)c7ccc4[nH]7)C=C6)C=C5)cc3)S2)cc(I)c1OC
REMARK SMILES IDX 19 1 18 2 17 3 15 4 16 5 14 6 13 7 8 8 9 9 10 11 89 12 11 13
REMARK SMILES IDX 12 15 7 16 6 17 5 18 3 19 4 20 93 21 91 22 90 23 92 24 2 25
REMARK SMILES IDX 1 26 94 27 95 28 20 29 21 30 22 31 23 32 24 33 25 34 26 35
REMARK SMILES IDX 27 36 88 37 28 38 87 39 29 40 30 41 31 42 81 43 32 44 86 45
REMARK SMILES IDX 80 46 82 47 33 48 85 49 79 50 78 51 34 53 66 54 46 55 65 56
REMARK SMILES IDX 47 57 50 58 64 59 83 60 48 61 49 62 63 64 84 65 51 66 35 67
REMARK SMILES IDX 36 68 44 69 37 70 38 71 42 72 45 73 39 74 40 75 43 76 41 77
REMARK SMILES IDX 67 78 68 79 76 80 69 81 70 82 74 83 77 84 71 85 72 86 75 87
REMARK SMILES IDX 73 88 52 89 53 90 61 91 54 92 55 93 59 94 62 95 56 96 57 97
REMARK SMILES IDX 60 98 58 99
REMARK H PARENT 8 10 10 14 82 52 50 63
REMARK Flexibility Score: inf
ROOT
ATOM      1  C   UNL A   1      43.960  19.733  25.347  1.00  0.00     0.202 C 
ENDROOT
BRANCH   1   2
ATOM      2  C   UNL A   1      44.536  20.885  24.520  1.00  0.00     0.261 C 
BRANCH   2   3
ATOM      3  O   UNL A   1      43.710  22.065  24.613  1.00  0.00    -0.463 OA
BRANCH   3   4
ATOM      4  C   UNL A   1      44.344  23.221  24.950  1.00  0.00     0.307 C 
ATOM      5  O   UNL A   1      45.269  23.728  24.330  1.00  0.00    -0.252 OA
BRANCH   4   6
ATOM      6  C   UNL A   1      43.836  23.772  26.260  1.00  0.00     0.150 C 
BRANCH   6   7
ATOM      7  C   UNL A   1      44.488  23.118  27.473  1.00  0.00     0.184 C 
ATOM      8  N   UNL A   1      45.568  25.515  30.301  1.00  0.00    -0.142 N 
ATOM      9  C   UNL A   1      45.070  24.679  29.454  1.00  0.00     0.337 C 
ATOM     10  H   UNL A   1      46.488  25.861  30.239  1.00  0.00     0.343 HD
ATOM     11  N   UNL A   1      43.858  24.091  29.562  1.00  0.00    -0.202 N 
ATOM     12  S   UNL A   1      45.915  24.120  28.049  1.00  0.00    -0.020 SA
ATOM     13  C   UNL A   1      43.523  23.145  28.646  1.00  0.00     0.322 C 
ATOM     14  H   UNL A   1      43.236  24.342  30.283  1.00  0.00     0.316 HD
ATOM     15  O   UNL A   1      42.553  22.408  28.764  1.00  0.00    -0.246 OA
BRANCH   8  16
ATOM     16  N   UNL A   1      44.677  25.882  31.316  1.00  0.00    -0.093 NA
ATOM     17  C   UNL A   1      44.308  27.120  31.224  1.00  0.00     0.166 C 
BRANCH  17  18
ATOM     18  C   UNL A   1      43.338  27.679  32.176  1.00  0.00     0.002 A 
ATOM     19  C   UNL A   1      41.109  28.405  32.710  1.00  0.00     0.162 A 
ATOM     20  C   UNL A   1      42.020  27.881  31.789  1.00  0.00     0.060 A 
ATOM     21  C   UNL A   1      41.500  28.711  34.044  1.00  0.00     0.174 A 
ATOM     22  C   UNL A   1      42.838  28.481  34.416  1.00  0.00     0.060 A 
ATOM     23  C   UNL A   1      43.755  27.986  33.468  1.00  0.00     0.028 A 
ATOM     24  I   UNL A   1      43.698  28.697  36.330  1.00  0.00    -0.040 I 
BRANCH  19  25
ATOM     25  O   UNL A   1      39.810  28.713  32.367  1.00  0.00    -0.493 OA
ATOM     26  C   UNL A   1      38.942  27.618  32.101  1.00  0.00     0.278 C 
ENDBRANCH  19  25
BRANCH  21  27
ATOM     27  O   UNL A   1      40.437  29.136  34.794  1.00  0.00    -0.492 OA
ATOM     28  C   UNL A   1      40.300  30.467  35.243  1.00  0.00     0.278 C 
ENDBRANCH  21  27
ENDBRANCH  17  18
ENDBRANCH   8  16
ENDBRANCH   6   7
ENDBRANCH   4   6
ENDBRANCH   3   4
ENDBRANCH   2   3
ENDBRANCH   1   2
BRANCH   1  29
ATOM     29  O   UNL A   1      43.003  20.096  26.341  1.00  0.00    -0.374 OA
BRANCH  29  30
ATOM     30  C   UNL A   1      41.663  19.647  26.140  1.00  0.00     0.202 C 
BRANCH  30  31
ATOM     31  C   UNL A   1      40.580  20.455  26.866  1.00  0.00     0.261 C 
BRANCH  31  32
ATOM     32  O   UNL A   1      40.690  21.866  26.594  1.00  0.00    -0.460 OA
BRANCH  32  33
ATOM     33  C   UNL A   1      39.506  22.498  26.420  1.00  0.00     0.338 C 
ATOM     34  O   UNL A   1      38.445  22.002  26.061  1.00  0.00    -0.246 OA
BRANCH  33  35
ATOM     35  C   UNL A   1      39.589  23.899  26.874  1.00  0.00     0.060 A 
ATOM     36  C   UNL A   1      40.067  24.842  25.955  1.00  0.00     0.016 A 
ATOM     37  C   UNL A   1      39.307  24.273  28.190  1.00  0.00     0.016 A 
ATOM     38  C   UNL A   1      40.331  26.147  26.364  1.00  0.00     0.010 A 
ATOM     39  C   UNL A   1      39.579  25.584  28.602  1.00  0.00     0.010 A 
ATOM     40  C   UNL A   1      40.133  26.513  27.703  1.00  0.00    -0.014 A 
BRANCH  40  41
ATOM     41  C   UNL A   1      40.682  27.805  28.184  1.00  0.00     0.031 A 
ATOM     42  C   UNL A   1      42.167  28.039  28.097  1.00  0.00     0.074 A 
ATOM     43  C   UNL A   1      39.872  28.778  28.636  1.00  0.00     0.049 A 
ATOM     44  N   UNL A   1      42.867  29.088  28.449  1.00  0.00    -0.248 NA
ATOM     45  C   UNL A   1      42.971  26.941  27.535  1.00  0.00     0.031 C 
ATOM     46  C   UNL A   1      38.418  28.690  28.728  1.00  0.00     0.029 A 
ATOM     47  N   UNL A   1      40.166  30.036  29.101  1.00  0.00    -0.354 N 
ATOM     48  C   UNL A   1      44.188  28.777  28.152  1.00  0.00     0.074 A 
ATOM     49  C   UNL A   1      44.198  27.430  27.622  1.00  0.00     0.031 C 
ATOM     50  C   UNL A   1      37.942  29.845  29.225  1.00  0.00     0.029 A 
ATOM     51  C   UNL A   1      39.062  30.743  29.507  1.00  0.00     0.049 A 
ATOM     52  H   UNL A   1      41.081  30.397  29.140  1.00  0.00     0.167 HD
ATOM     53  C   UNL A   1      45.292  29.548  28.295  1.00  0.00     0.037 A 
ATOM     54  C   UNL A   1      38.970  31.970  30.056  1.00  0.00     0.037 A 
ATOM     55  C   UNL A   1      45.284  30.888  28.818  1.00  0.00     0.049 A 
ATOM     56  C   UNL A   1      40.222  32.784  30.265  1.00  0.00     0.074 A 
ATOM     57  C   UNL A   1      46.350  31.752  28.999  1.00  0.00     0.029 A 
ATOM     58  N   UNL A   1      44.149  31.559  29.247  1.00  0.00    -0.354 N 
ATOM     59  N   UNL A   1      41.462  32.489  29.965  1.00  0.00    -0.248 NA
ATOM     60  C   UNL A   1      40.056  34.108  30.884  1.00  0.00     0.031 C 
ATOM     61  C   UNL A   1      45.865  32.931  29.576  1.00  0.00     0.029 A 
ATOM     62  C   UNL A   1      44.491  32.820  29.710  1.00  0.00     0.049 A 
ATOM     63  H   UNL A   1      43.235  31.194  29.226  1.00  0.00     0.167 HD
ATOM     64  C   UNL A   1      42.219  33.597  30.326  1.00  0.00     0.074 A 
ATOM     65  C   UNL A   1      41.295  34.577  30.860  1.00  0.00     0.031 C 
ATOM     66  C   UNL A   1      43.557  33.788  30.222  1.00  0.00     0.037 A 
BRANCH  53  67
ATOM     67  C   UNL A   1      46.608  28.950  27.896  1.00  0.00     0.064 A 
ATOM     68  C   UNL A   1      47.490  28.413  28.846  1.00  0.00     0.173 A 
ATOM     69  C   UNL A   1      46.980  28.885  26.545  1.00  0.00     0.173 A 
ATOM     70  F   UNL A   1      47.188  28.464  30.152  1.00  0.00    -0.203 F 
ATOM     71  C   UNL A   1      48.706  27.853  28.459  1.00  0.00     0.198 A 
ATOM     72  C   UNL A   1      48.183  28.303  26.160  1.00  0.00     0.198 A 
ATOM     73  F   UNL A   1      46.170  29.382  25.597  1.00  0.00    -0.203 F 
ATOM     74  F   UNL A   1      49.552  27.386  29.387  1.00  0.00    -0.200 F 
ATOM     75  C   UNL A   1      49.048  27.792  27.117  1.00  0.00     0.200 A 
ATOM     76  F   UNL A   1      48.509  28.235  24.861  1.00  0.00    -0.200 F 
ATOM     77  F   UNL A   1      50.215  27.249  26.745  1.00  0.00    -0.200 F 
ENDBRANCH  53  67
BRANCH  54  78
ATOM     78  C   UNL A   1      37.644  32.510  30.454  1.00  0.00     0.064 A 
ATOM     79  C   UNL A   1      37.091  32.219  31.709  1.00  0.00     0.173 A 
ATOM     80  C   UNL A   1      36.892  33.305  29.578  1.00  0.00     0.173 A 
ATOM     81  F   UNL A   1      37.761  31.441  32.572  1.00  0.00    -0.203 F 
ATOM     82  C   UNL A   1      35.828  32.688  32.065  1.00  0.00     0.198 A 
ATOM     83  C   UNL A   1      35.641  33.796  29.945  1.00  0.00     0.198 A 
ATOM     84  F   UNL A   1      37.375  33.608  28.364  1.00  0.00    -0.203 F 
ATOM     85  F   UNL A   1      35.303  32.357  33.253  1.00  0.00    -0.200 F 
ATOM     86  C   UNL A   1      35.106  33.481  31.185  1.00  0.00     0.200 A 
ATOM     87  F   UNL A   1      34.951  34.568  29.094  1.00  0.00    -0.200 F 
ATOM     88  F   UNL A   1      33.892  33.932  31.527  1.00  0.00    -0.200 F 
ENDBRANCH  54  78
BRANCH  66  89
ATOM     89  C   UNL A   1      44.100  35.119  30.654  1.00  0.00     0.064 A 
ATOM     90  C   UNL A   1      44.613  35.324  31.943  1.00  0.00     0.173 A 
ATOM     91  C   UNL A   1      44.145  36.191  29.749  1.00  0.00     0.173 A 
ATOM     92  F   UNL A   1      44.579  34.335  32.848  1.00  0.00    -0.203 F 
ATOM     93  C   UNL A   1      45.127  36.562  32.319  1.00  0.00     0.198 A 
ATOM     94  C   UNL A   1      44.686  37.419  30.120  1.00  0.00     0.198 A 
ATOM     95  F   UNL A   1      43.675  36.044  28.502  1.00  0.00    -0.203 F 
ATOM     96  F   UNL A   1      45.570  36.749  33.569  1.00  0.00    -0.200 F 
ATOM     97  C   UNL A   1      45.170  37.606  31.406  1.00  0.00     0.200 A 
ATOM     98  F   UNL A   1      44.738  38.423  29.233  1.00  0.00    -0.200 F 
ATOM     99  F   UNL A   1      45.671  38.795  31.768  1.00  0.00    -0.200 F 
ENDBRANCH  66  89
ENDBRANCH  40  41
ENDBRANCH  33  35
ENDBRANCH  32  33
ENDBRANCH  31  32
ENDBRANCH  30  31
ENDBRANCH  29  30
ENDBRANCH   1  29
TORSDOF 19
ENDMDL
MODEL 2
REMARK VINA RESULT:      -8.5      1.033      2.082
REMARK SMILES COc1cc(/C=N/[NH+]=C2\NC(=O)[C@@H](CC(=O)OCCOCCOC(=O)c3ccc(-c4c5nc(c(-c6c(F)c(F)c(F)c(F)c6F)c6ccc([nH]6)c(-c6c(F)c(F)c(F)c(F)c6F)c6nc(c(-c7c(F)c(F)c(F)c(F)c7F)c7ccc4[nH]7)C=C6)C=C5)cc3)S2)cc(I)c1OC
REMARK SMILES IDX 19 1 18 2 17 3 15 4 16 5 14 6 13 7 8 8 9 9 10 11 89 12 11 13
REMARK SMILES IDX 12 15 7 16 6 17 5 18 3 19 4 20 93 21 91 22 90 23 92 24 2 25
REMARK SMILES IDX 1 26 94 27 95 28 20 29 21 30 22 31 23 32 24 33 25 34 26 35
REMARK SMILES IDX 27 36 88 37 28 38 87 39 29 40 30 41 31 42 81 43 32 44 86 45
REMARK SMILES IDX 80 46 82 47 33 48 85 49 79 50 78 51 34 53 66 54 46 55 65 56
REMARK SMILES IDX 47 57 50 58 64 59 83 60 48 61 49 62 63 64 84 65 51 66 35 67
REMARK SMILES IDX 36 68 44 69 37 70 38 71 42 72 45 73 39 74 40 75 43 76 41 77
REMARK SMILES IDX 67 78 68 79 76 80 69 81 70 82 74 83 77 84 71 85 72 86 75 87
REMARK SMILES IDX 73 88 52 89 53 90 61 91 54 92 55 93 59 94 62 95 56 96 57 97
REMARK SMILES IDX 60 98 58 99
REMARK H PARENT 8 10 10 14 82 52 50 63
REMARK Flexibility Score: inf
ROOT
ATOM      1  C   UNL A   1      44.251  20.320  25.369  1.00  0.00     0.202 C 
ENDROOT
BRANCH   1   2
ATOM      2  C   UNL A   1      44.618  21.484  24.446  1.00  0.00     0.261 C 
BRANCH   2   3
ATOM      3  O   UNL A   1      43.784  22.636  24.692  1.00  0.00    -0.463 OA
BRANCH   3   4
ATOM      4  C   UNL A   1      44.407  23.738  25.187  1.00  0.00     0.307 C 
ATOM      5  O   UNL A   1      45.346  24.319  24.660  1.00  0.00    -0.252 OA
BRANCH   4   6
ATOM      6  C   UNL A   1      43.865  24.121  26.544  1.00  0.00     0.150 C 
BRANCH   6   7
ATOM      7  C   UNL A   1      44.594  23.432  27.691  1.00  0.00     0.184 C 
ATOM      8  N   UNL A   1      45.600  25.698  30.651  1.00  0.00    -0.142 N 
ATOM      9  C   UNL A   1      45.132  24.890  29.760  1.00  0.00     0.337 C 
ATOM     10  H   UNL A   1      46.494  26.107  30.590  1.00  0.00     0.343 HD
ATOM     11  N   UNL A   1      43.965  24.216  29.858  1.00  0.00    -0.202 N 
ATOM     12  S   UNL A   1      45.970  24.485  28.299  1.00  0.00    -0.020 SA
ATOM     13  C   UNL A   1      43.664  23.314  28.887  1.00  0.00     0.322 C 
ATOM     14  H   UNL A   1      43.350  24.376  30.611  1.00  0.00     0.316 HD
ATOM     15  O   UNL A   1      42.748  22.508  28.978  1.00  0.00    -0.246 OA
BRANCH   8  16
ATOM     16  N   UNL A   1      44.718  25.935  31.711  1.00  0.00    -0.093 NA
ATOM     17  C   UNL A   1      44.325  27.168  31.759  1.00  0.00     0.166 C 
BRANCH  17  18
ATOM     18  C   UNL A   1      43.360  27.601  32.779  1.00  0.00     0.002 A 
ATOM     19  C   UNL A   1      42.853  28.254  35.037  1.00  0.00     0.162 A 
ATOM     20  C   UNL A   1      43.782  27.833  34.081  1.00  0.00     0.060 A 
ATOM     21  C   UNL A   1      41.489  28.473  34.694  1.00  0.00     0.174 A 
ATOM     22  C   UNL A   1      41.091  28.247  33.363  1.00  0.00     0.060 A 
ATOM     23  C   UNL A   1      42.029  27.789  32.418  1.00  0.00     0.028 A 
ATOM     24  I   UNL A   1      39.195  28.604  32.508  1.00  0.00    -0.040 I 
BRANCH  19  25
ATOM     25  O   UNL A   1      43.184  28.417  36.365  1.00  0.00    -0.493 OA
ATOM     26  C   UNL A   1      44.571  28.410  36.683  1.00  0.00     0.278 C 
ENDBRANCH  19  25
BRANCH  21  27
ATOM     27  O   UNL A   1      40.775  28.956  35.758  1.00  0.00    -0.492 OA
ATOM     28  C   UNL A   1      40.332  30.293  35.839  1.00  0.00     0.278 C 
ENDBRANCH  21  27
ENDBRANCH  17  18
ENDBRANCH   8  16
ENDBRANCH   6   7
ENDBRANCH   4   6
ENDBRANCH   3   4
ENDBRANCH   2   3
ENDBRANCH   1   2
BRANCH   1  29
ATOM     29  O   UNL A   1      43.251  20.593  26.350  1.00  0.00    -0.374 OA
BRANCH  29  30
ATOM     30  C   UNL A   1      41.960  20.027  26.130  1.00  0.00     0.202 C 
BRANCH  30  31
ATOM     31  C   UNL A   1      40.801  20.725  26.851  1.00  0.00     0.261 C 
BRANCH  31  32
ATOM     32  O   UNL A   1      40.815  22.150  26.634  1.00  0.00    -0.460 OA
BRANCH  32  33
ATOM     33  C   UNL A   1      39.590  22.706  26.478  1.00  0.00     0.338 C 
ATOM     34  O   UNL A   1      38.561  22.147  26.122  1.00  0.00    -0.246 OA
BRANCH  33  35
ATOM     35  C   UNL A   1      39.588  24.105  26.948  1.00  0.00     0.060 A 
ATOM     36  C   UNL A   1      40.028  25.083  26.048  1.00  0.00     0.016 A 
ATOM     37  C   UNL A   1      39.262  24.447  28.263  1.00  0.00     0.016 A 
ATOM     38  C   UNL A   1      40.212  26.396  26.475  1.00  0.00     0.010 A 
ATOM     39  C   UNL A   1      39.453  25.767  28.693  1.00  0.00     0.010 A 
ATOM     40  C   UNL A   1      39.971  26.735  27.814  1.00  0.00    -0.014 A 
BRANCH  40  41
ATOM     41  C   UNL A   1      40.439  28.050  28.318  1.00  0.00     0.031 A 
ATOM     42  C   UNL A   1      41.919  28.319  28.380  1.00  0.00     0.074 A 
ATOM     43  C   UNL A   1      39.565  29.013  28.661  1.00  0.00     0.049 A 
ATOM     44  N   UNL A   1      42.555  29.391  28.777  1.00  0.00    -0.248 NA
ATOM     45  C   UNL A   1      42.800  27.228  27.931  1.00  0.00     0.031 C 
ATOM     46  C   UNL A   1      38.111  28.891  28.604  1.00  0.00     0.029 A 
ATOM     47  N   UNL A   1      39.781  30.287  29.124  1.00  0.00    -0.354 N 
ATOM     48  C   UNL A   1      43.906  29.106  28.626  1.00  0.00     0.074 A 
ATOM     49  C   UNL A   1      44.001  27.749  28.133  1.00  0.00     0.031 C 
ATOM     50  C   UNL A   1      37.561  30.046  29.021  1.00  0.00     0.029 A 
ATOM     51  C   UNL A   1      38.626  30.976  29.397  1.00  0.00     0.049 A 
ATOM     52  H   UNL A   1      40.679  30.671  29.248  1.00  0.00     0.167 HD
ATOM     53  C   UNL A   1      44.973  29.906  28.864  1.00  0.00     0.037 A 
ATOM     54  C   UNL A   1      38.450  32.212  29.904  1.00  0.00     0.037 A 
ATOM     55  C   UNL A   1      44.881  31.256  29.352  1.00  0.00     0.049 A 
ATOM     56  C   UNL A   1      39.655  33.060  30.221  1.00  0.00     0.074 A 
ATOM     57  C   UNL A   1      45.904  32.150  29.621  1.00  0.00     0.029 A 
ATOM     58  N   UNL A   1      43.693  31.909  29.645  1.00  0.00    -0.354 N 
ATOM     59  N   UNL A   1      40.927  32.789  30.058  1.00  0.00    -0.248 NA
ATOM     60  C   UNL A   1      39.397  34.392  30.788  1.00  0.00     0.031 C 
ATOM     61  C   UNL A   1      45.336  33.328  30.117  1.00  0.00     0.029 A 
ATOM     62  C   UNL A   1      43.958  33.187  30.110  1.00  0.00     0.049 A 
ATOM     63  H   UNL A   1      42.795  31.522  29.538  1.00  0.00     0.167 HD
ATOM     64  C   UNL A   1      41.618  33.922  30.469  1.00  0.00     0.074 A 
ATOM     65  C   UNL A   1      40.622  34.890  30.881  1.00  0.00     0.031 C 
ATOM     66  C   UNL A   1      42.955  34.143  30.500  1.00  0.00     0.037 A 
BRANCH  53  67
ATOM     67  C   UNL A   1      46.336  29.331  28.618  1.00  0.00     0.064 A 
ATOM     68  C   UNL A   1      47.130  28.847  29.668  1.00  0.00     0.173 A 
ATOM     69  C   UNL A   1      46.843  29.236  27.313  1.00  0.00     0.173 A 
ATOM     70  F   UNL A   1      46.697  28.929  30.935  1.00  0.00    -0.203 F 
ATOM     71  C   UNL A   1      48.391  28.309  29.423  1.00  0.00     0.198 A 
ATOM     72  C   UNL A   1      48.092  28.674  27.069  1.00  0.00     0.198 A 
ATOM     73  F   UNL A   1      46.120  29.683  26.274  1.00  0.00    -0.203 F 
ATOM     74  F   UNL A   1      49.151  27.892  30.445  1.00  0.00    -0.200 F 
ATOM     75  C   UNL A   1      48.868  28.217  28.124  1.00  0.00     0.200 A 
ATOM     76  F   UNL A   1      48.548  28.577  25.812  1.00  0.00    -0.200 F 
ATOM     77  F   UNL A   1      50.079  27.693  27.888  1.00  0.00    -0.200 F 
ENDBRANCH  53  67
BRANCH  54  78
ATOM     78  C   UNL A   1      37.078  32.728  30.150  1.00  0.00     0.064 A 
ATOM     79  C   UNL A   1      36.402  33.476  29.177  1.00  0.00     0.173 A 
ATOM     80  C   UNL A   1      36.428  32.505  31.371  1.00  0.00     0.173 A 
ATOM     81  F   UNL A   1      36.994  33.739  28.002  1.00  0.00    -0.203 F 
ATOM     82  C   UNL A   1      35.133  33.998  29.424  1.00  0.00     0.198 A 
ATOM     83  C   UNL A   1      35.149  33.003  31.607  1.00  0.00     0.198 A 
ATOM     84  F   UNL A   1      37.034  31.798  32.336  1.00  0.00    -0.203 F 
ATOM     85  F   UNL A   1      34.527  34.749  28.494  1.00  0.00    -0.200 F 
ATOM     86  C   UNL A   1      34.505  33.756  30.637  1.00  0.00     0.200 A 
ATOM     87  F   UNL A   1      34.542  32.760  32.777  1.00  0.00    -0.200 F 
ATOM     88  F   UNL A   1      33.286  34.257  30.873  1.00  0.00    -0.200 F 
ENDBRANCH  54  78
BRANCH  66  89
ATOM     89  C   UNL A   1      43.420  35.496  30.954  1.00  0.00     0.064 A 
ATOM     90  C   UNL A   1      43.588  36.558  30.054  1.00  0.00     0.173 A 
ATOM     91  C   UNL A   1      43.662  35.741  32.315  1.00  0.00     0.173 A 
ATOM     92  F   UNL A   1      43.384  36.371  28.743  1.00  0.00    -0.203 F 
ATOM     93  C   UNL A   1      44.005  37.811  30.498  1.00  0.00     0.198 A 
ATOM     94  C   UNL A   1      44.050  37.002  32.758  1.00  0.00     0.198 A 
ATOM     95  F   UNL A   1      43.508  34.760  33.217  1.00  0.00    -0.203 F 
ATOM     96  F   UNL A   1      44.203  38.800  29.616  1.00  0.00    -0.200 F 
ATOM     97  C   UNL A   1      44.230  38.034  31.849  1.00  0.00     0.200 A 
ATOM     98  F   UNL A   1      44.255  37.219  34.065  1.00  0.00    -0.200 F 
ATOM     99  F   UNL A   1      44.625  39.241  32.274  1.00  0.00    -0.200 F 
ENDBRANCH  66  89
ENDBRANCH  40  41
ENDBRANCH  33  35
ENDBRANCH  32  33
ENDBRANCH  31  32
ENDBRANCH  30  31
ENDBRANCH  29  30
ENDBRANCH   1  29
TORSDOF 19
ENDMDL
MODEL 3
REMARK VINA RESULT:      -8.2      5.009     11.127
REMARK SMILES COc1cc(/C=N/[NH+]=C2\NC(=O)[C@@H](CC(=O)OCCOCCOC(=O)c3ccc(-c4c5nc(c(-c6c(F)c(F)c(F)c(F)c6F)c6ccc([nH]6)c(-c6c(F)c(F)c(F)c(F)c6F)c6nc(c(-c7c(F)c(F)c(F)c(F)c7F)c7ccc4[nH]7)C=C6)C=C5)cc3)S2)cc(I)c1OC
REMARK SMILES IDX 19 1 18 2 17 3 15 4 16 5 14 6 13 7 8 8 9 9 10 11 89 12 11 13
REMARK SMILES IDX 12 15 7 16 6 17 5 18 3 19 4 20 93 21 91 22 90 23 92 24 2 25
REMARK SMILES IDX 1 26 94 27 95 28 20 29 21 30 22 31 23 32 24 33 25 34 26 35
REMARK SMILES IDX 27 36 88 37 28 38 87 39 29 40 30 41 31 42 81 43 32 44 86 45
REMARK SMILES IDX 80 46 82 47 33 48 85 49 79 50 78 51 34 53 66 54 46 55 65 56
REMARK SMILES IDX 47 57 50 58 64 59 83 60 48 61 49 62 63 64 84 65 51 66 35 67
REMARK SMILES IDX 36 68 44 69 37 70 38 71 42 72 45 73 39 74 40 75 43 76 41 77
REMARK SMILES IDX 67 78 68 79 76 80 69 81 70 82 74 83 77 84 71 85 72 86 75 87
REMARK SMILES IDX 73 88 52 89 53 90 61 91 54 92 55 93 59 94 62 95 56 96 57 97
REMARK SMILES IDX 60 98 58 99
REMARK H PARENT 8 10 10 14 82 52 50 63
REMARK Flexibility Score: inf
ROOT
ATOM      1  C   UNL A   1      33.745  34.981  28.093  1.00  0.00     0.202 C 
ENDROOT
BRANCH   1   2
ATOM      2  C   UNL A   1      33.722  36.231  28.977  1.00  0.00     0.261 C 
BRANCH   2   3
ATOM      3  O   UNL A   1      32.518  36.294  29.770  1.00  0.00    -0.463 OA
BRANCH   3   4
ATOM      4  C   UNL A   1      32.647  35.990  31.089  1.00  0.00     0.307 C 
ATOM      5  O   UNL A   1      31.743  36.011  31.913  1.00  0.00    -0.252 OA
BRANCH   4   6
ATOM      6  C   UNL A   1      34.084  35.711  31.458  1.00  0.00     0.150 C 
BRANCH   6   7
ATOM      7  C   UNL A   1      34.399  34.222  31.539  1.00  0.00     0.184 C 
ATOM      8  N   UNL A   1      37.535  33.273  33.582  1.00  0.00    -0.142 N 
ATOM      9  C   UNL A   1      36.397  33.543  33.039  1.00  0.00     0.337 C 
ATOM     10  H   UNL A   1      38.376  33.223  33.074  1.00  0.00     0.343 HD
ATOM     11  N   UNL A   1      35.204  33.509  33.672  1.00  0.00    -0.202 N 
ATOM     12  S   UNL A   1      36.205  33.941  31.363  1.00  0.00    -0.020 SA
ATOM     13  C   UNL A   1      34.081  33.709  32.933  1.00  0.00     0.322 C 
ATOM     14  H   UNL A   1      35.150  33.346  34.642  1.00  0.00     0.316 HD
ATOM     15  O   UNL A   1      32.952  33.498  33.354  1.00  0.00    -0.246 OA
BRANCH   8  16
ATOM     16  N   UNL A   1      37.458  33.056  34.963  1.00  0.00    -0.093 NA
ATOM     17  C   UNL A   1      38.218  33.864  35.632  1.00  0.00     0.166 C 
BRANCH  17  18
ATOM     18  C   UNL A   1      38.240  33.819  37.100  1.00  0.00     0.002 A 
ATOM     19  C   UNL A   1      38.910  34.752  39.213  1.00  0.00     0.162 A 
ATOM     20  C   UNL A   1      38.907  34.804  37.817  1.00  0.00     0.060 A 
ATOM     21  C   UNL A   1      38.221  33.722  39.915  1.00  0.00     0.174 A 
ATOM     22  C   UNL A   1      37.539  32.745  39.165  1.00  0.00     0.060 A 
ATOM     23  C   UNL A   1      37.573  32.790  37.758  1.00  0.00     0.028 A 
ATOM     24  I   UNL A   1      36.323  31.182  39.892  1.00  0.00    -0.040 I 
BRANCH  19  25
ATOM     25  O   UNL A   1      39.624  35.645  39.982  1.00  0.00    -0.493 OA
ATOM     26  C   UNL A   1      39.047  36.931  40.170  1.00  0.00     0.278 C 
ENDBRANCH  19  25
BRANCH  21  27
ATOM     27  O   UNL A   1      38.288  33.906  41.269  1.00  0.00    -0.492 OA
ATOM     28  C   UNL A   1      37.142  34.041  42.082  1.00  0.00     0.278 C 
ENDBRANCH  21  27
ENDBRANCH  17  18
ENDBRANCH   8  16
ENDBRANCH   6   7
ENDBRANCH   4   6
ENDBRANCH   3   4
ENDBRANCH   2   3
ENDBRANCH   1   2
BRANCH   1  29
ATOM     29  O   UNL A   1      32.537  34.222  28.055  1.00  0.00    -0.374 OA
BRANCH  29  30
ATOM     30  C   UNL A   1      32.601  32.938  27.436  1.00  0.00     0.202 C 
BRANCH  30  31
ATOM     31  C   UNL A   1      33.895  32.152  27.678  1.00  0.00     0.261 C 
BRANCH  31  32
ATOM     32  O   UNL A   1      33.638  30.749  27.888  1.00  0.00    -0.460 OA
BRANCH  32  33
ATOM     33  C   UNL A   1      34.503  29.920  27.257  1.00  0.00     0.338 C 
ATOM     34  O   UNL A   1      34.356  29.384  26.166  1.00  0.00    -0.246 OA
BRANCH  33  35
ATOM     35  C   UNL A   1      35.779  29.839  27.993  1.00  0.00     0.060 A 
ATOM     36  C   UNL A   1      36.953  30.076  27.265  1.00  0.00     0.016 A 
ATOM     37  C   UNL A   1      35.844  29.443  29.330  1.00  0.00     0.016 A 
ATOM     38  C   UNL A   1      38.197  29.851  27.850  1.00  0.00     0.010 A 
ATOM     39  C   UNL A   1      37.095  29.213  29.917  1.00  0.00     0.010 A 
ATOM     40  C   UNL A   1      38.274  29.373  29.165  1.00  0.00    -0.014 A 
BRANCH  40  41
ATOM     41  C   UNL A   1      39.575  28.871  29.673  1.00  0.00     0.031 A 
ATOM     42  C   UNL A   1      40.225  29.581  30.831  1.00  0.00     0.074 A 
ATOM     43  C   UNL A   1      40.143  27.768  29.155  1.00  0.00     0.049 A 
ATOM     44  N   UNL A   1      41.351  29.319  31.443  1.00  0.00    -0.248 NA
ATOM     45  C   UNL A   1      39.503  30.744  31.372  1.00  0.00     0.031 C 
ATOM     46  C   UNL A   1      39.593  26.968  28.064  1.00  0.00     0.029 A 
ATOM     47  N   UNL A   1      41.314  27.130  29.486  1.00  0.00    -0.354 N 
ATOM     48  C   UNL A   1      41.473  30.281  32.437  1.00  0.00     0.074 A 
ATOM     49  C   UNL A   1      40.324  31.153  32.327  1.00  0.00     0.031 C 
ATOM     50  C   UNL A   1      40.428  25.945  27.811  1.00  0.00     0.029 A 
ATOM     51  C   UNL A   1      41.582  26.034  28.705  1.00  0.00     0.049 A 
ATOM     52  H   UNL A   1      41.904  27.431  30.214  1.00  0.00     0.167 HD
ATOM     53  C   UNL A   1      42.448  30.418  33.368  1.00  0.00     0.037 A 
ATOM     54  C   UNL A   1      42.645  25.206  28.706  1.00  0.00     0.037 A 
ATOM     55  C   UNL A   1      43.590  29.551  33.481  1.00  0.00     0.049 A 
ATOM     56  C   UNL A   1      43.749  25.419  29.710  1.00  0.00     0.074 A 
ATOM     57  C   UNL A   1      44.630  29.605  34.393  1.00  0.00     0.029 A 
ATOM     58  N   UNL A   1      43.842  28.468  32.652  1.00  0.00    -0.354 N 
ATOM     59  N   UNL A   1      43.846  26.319  30.658  1.00  0.00    -0.248 NA
ATOM     60  C   UNL A   1      44.889  24.492  29.649  1.00  0.00     0.031 C 
ATOM     61  C   UNL A   1      45.532  28.581  34.088  1.00  0.00     0.029 A 
ATOM     62  C   UNL A   1      45.031  27.858  33.018  1.00  0.00     0.049 A 
ATOM     63  H   UNL A   1      43.262  28.176  31.913  1.00  0.00     0.167 HD
ATOM     64  C   UNL A   1      45.036  26.050  31.323  1.00  0.00     0.074 A 
ATOM     65  C   UNL A   1      45.622  24.894  30.677  1.00  0.00     0.031 C 
ATOM     66  C   UNL A   1      45.591  26.699  32.375  1.00  0.00     0.037 A 
BRANCH  53  67
ATOM     67  C   UNL A   1      42.330  31.565  34.327  1.00  0.00     0.064 A 
ATOM     68  C   UNL A   1      41.752  31.407  35.595  1.00  0.00     0.173 A 
ATOM     69  C   UNL A   1      42.828  32.832  33.985  1.00  0.00     0.173 A 
ATOM     70  F   UNL A   1      41.248  30.220  35.964  1.00  0.00    -0.203 F 
ATOM     71  C   UNL A   1      41.658  32.481  36.478  1.00  0.00     0.198 A 
ATOM     72  C   UNL A   1      42.755  33.896  34.879  1.00  0.00     0.198 A 
ATOM     73  F   UNL A   1      43.392  33.034  32.784  1.00  0.00    -0.203 F 
ATOM     74  F   UNL A   1      41.063  32.318  37.668  1.00  0.00    -0.200 F 
ATOM     75  C   UNL A   1      42.165  33.722  36.122  1.00  0.00     0.200 A 
ATOM     76  F   UNL A   1      43.254  35.092  34.537  1.00  0.00    -0.200 F 
ATOM     77  F   UNL A   1      42.078  34.752  36.974  1.00  0.00    -0.200 F 
ENDBRANCH  53  67
BRANCH  54  78
ATOM     78  C   UNL A   1      42.725  24.096  27.721  1.00  0.00     0.064 A 
ATOM     79  C   UNL A   1      42.350  22.792  28.069  1.00  0.00     0.173 A 
ATOM     80  C   UNL A   1      43.202  24.314  26.421  1.00  0.00     0.173 A 
ATOM     81  F   UNL A   1      41.912  22.528  29.309  1.00  0.00    -0.203 F 
ATOM     82  C   UNL A   1      42.467  21.743  27.158  1.00  0.00     0.198 A 
ATOM     83  C   UNL A   1      43.292  23.270  25.503  1.00  0.00     0.198 A 
ATOM     84  F   UNL A   1      43.577  25.544  26.040  1.00  0.00    -0.203 F 
ATOM     85  F   UNL A   1      42.145  20.496  27.531  1.00  0.00    -0.200 F 
ATOM     86  C   UNL A   1      42.933  21.983  25.874  1.00  0.00     0.200 A 
ATOM     87  F   UNL A   1      43.735  23.510  24.261  1.00  0.00    -0.200 F 
ATOM     88  F   UNL A   1      43.044  20.975  24.999  1.00  0.00    -0.200 F 
ENDBRANCH  54  78
BRANCH  66  89
ATOM     89  C   UNL A   1      46.876  26.151  32.924  1.00  0.00     0.064 A 
ATOM     90  C   UNL A   1      48.124  26.639  32.509  1.00  0.00     0.173 A 
ATOM     91  C   UNL A   1      46.855  25.152  33.910  1.00  0.00     0.173 A 
ATOM     92  F   UNL A   1      48.197  27.583  31.559  1.00  0.00    -0.203 F 
ATOM     93  C   UNL A   1      49.305  26.129  33.042  1.00  0.00     0.198 A 
ATOM     94  C   UNL A   1      48.037  24.665  34.461  1.00  0.00     0.198 A 
ATOM     95  F   UNL A   1      45.688  24.657  34.347  1.00  0.00    -0.203 F 
ATOM     96  F   UNL A   1      50.486  26.577  32.598  1.00  0.00    -0.200 F 
ATOM     97  C   UNL A   1      49.260  25.147  34.022  1.00  0.00     0.200 A 
ATOM     98  F   UNL A   1      47.992  23.725  35.416  1.00  0.00    -0.200 F 
ATOM     99  F   UNL A   1      50.398  24.662  34.538  1.00  0.00    -0.200 F 
ENDBRANCH  66  89
ENDBRANCH  40  41
ENDBRANCH  33  35
ENDBRANCH  32  33
ENDBRANCH  31  32
ENDBRANCH  30  31
ENDBRANCH  29  30
ENDBRANCH   1  29
TORSDOF 19
ENDMDL
