MODEL 1
REMARK VINA RESULT:     -12.4      0.000      0.000
REMARK SMILES COc1ccc(-c2ncn(CC(=O)OCCOCCOC(=O)c3ccc(-c4c5nc(c(-c6c(F)c(F)c(F)c(F)c6F)c6ccc([nH]6)c(-c6c(F)c(F)c(F)c(F)c6F)c6nc(c(-c7c(F)c(F)c(F)c(F)c7F)c7ccc4[nH]7)C=C6)C=C5)cc3)c2-c2ccc(OC)cc2)cc1
REMARK SMILES IDX 16 1 15 2 14 3 12 4 13 5 11 6 10 7 7 8 8 9 86 10 9 11 6 12
REMARK SMILES IDX 3 13 4 14 96 15 5 16 95 17 2 18 1 19 87 20 88 21 94 22 89 23
REMARK SMILES IDX 93 24 90 25 91 26 92 27 17 28 18 29 19 30 20 31 21 32 22 33
REMARK SMILES IDX 23 34 24 35 85 36 25 37 84 38 26 39 27 40 28 41 78 42 29 43
REMARK SMILES IDX 83 44 77 45 79 46 30 47 82 48 76 49 75 50 31 52 63 53 43 54
REMARK SMILES IDX 62 55 44 56 47 57 61 58 80 59 45 60 46 61 60 63 81 64 48 65
REMARK SMILES IDX 32 66 33 67 41 68 34 69 35 70 39 71 42 72 36 73 37 74 40 75
REMARK SMILES IDX 38 76 64 77 65 78 73 79 66 80 67 81 71 82 74 83 68 84 69 85
REMARK SMILES IDX 72 86 70 87 49 88 50 89 58 90 51 91 52 92 56 93 59 94 53 95
REMARK SMILES IDX 54 96 57 97 55 98
REMARK H PARENT 79 51 47 62
REMARK Flexibility Score: inf
ROOT
ATOM      1  C   UNL A   1      35.725  20.667  25.037  1.00  0.00     0.202 C 
ENDROOT
BRANCH   1   2
ATOM      2  C   UNL A   1      34.458  21.431  24.629  1.00  0.00     0.261 C 
BRANCH   2   3
ATOM      3  O   UNL A   1      33.869  22.201  25.707  1.00  0.00    -0.462 OA
BRANCH   3   4
ATOM      4  C   UNL A   1      33.913  23.551  25.607  1.00  0.00     0.326 C 
ATOM      5  O   UNL A   1      34.889  24.162  25.177  1.00  0.00    -0.250 OA
BRANCH   4   6
ATOM      6  C   UNL A   1      32.664  24.300  26.037  1.00  0.00     0.246 C 
BRANCH   6   7
ATOM      7  N   UNL A   1      31.785  24.910  25.039  1.00  0.00    -0.319 N 
ATOM      8  C   UNL A   1      30.409  26.237  23.965  1.00  0.00     0.096 A 
ATOM      9  N   UNL A   1      30.113  24.961  23.564  1.00  0.00    -0.236 NA
ATOM     10  C   UNL A   1      31.439  26.255  24.902  1.00  0.00     0.076 A 
ATOM     11  C   UNL A   1      30.933  24.188  24.237  1.00  0.00     0.201 A 
BRANCH   8  12
ATOM     12  C   UNL A   1      29.741  27.414  23.443  1.00  0.00     0.003 A 
ATOM     13  C   UNL A   1      28.392  29.624  22.373  1.00  0.00     0.118 A 
ATOM     14  C   UNL A   1      27.680  28.596  22.982  1.00  0.00     0.047 A 
ATOM     15  C   UNL A   1      29.784  29.562  22.306  1.00  0.00     0.047 A 
ATOM     16  C   UNL A   1      28.350  27.507  23.530  1.00  0.00     0.014 A 
ATOM     17  C   UNL A   1      30.460  28.451  22.836  1.00  0.00     0.014 A 
BRANCH  13  18
ATOM     18  O   UNL A   1      27.651  30.695  21.960  1.00  0.00    -0.497 OA
ATOM     19  C   UNL A   1      28.297  31.496  20.979  1.00  0.00     0.278 C 
ENDBRANCH  13  18
ENDBRANCH   8  12
BRANCH  10  20
ATOM     20  C   UNL A   1      32.043  27.402  25.593  1.00  0.00     0.001 A 
ATOM     21  C   UNL A   1      33.309  27.866  25.218  1.00  0.00     0.014 A 
ATOM     22  C   UNL A   1      31.359  28.111  26.583  1.00  0.00     0.014 A 
ATOM     23  C   UNL A   1      33.959  28.886  25.906  1.00  0.00     0.047 A 
ATOM     24  C   UNL A   1      31.985  29.177  27.252  1.00  0.00     0.047 A 
ATOM     25  C   UNL A   1      33.294  29.531  26.933  1.00  0.00     0.118 A 
BRANCH  25  26
ATOM     26  O   UNL A   1      33.985  30.425  27.696  1.00  0.00    -0.497 OA
ATOM     27  C   UNL A   1      35.392  30.216  27.615  1.00  0.00     0.278 C 
ENDBRANCH  25  26
ENDBRANCH  10  20
ENDBRANCH   6   7
ENDBRANCH   4   6
ENDBRANCH   3   4
ENDBRANCH   2   3
ENDBRANCH   1   2
BRANCH   1  28
ATOM     28  O   UNL A   1      36.932  21.204  24.529  1.00  0.00    -0.374 OA
BRANCH  28  29
ATOM     29  C   UNL A   1      37.789  21.913  25.413  1.00  0.00     0.202 C 
BRANCH  29  30
ATOM     30  C   UNL A   1      39.137  21.330  25.845  1.00  0.00     0.261 C 
BRANCH  30  31
ATOM     31  O   UNL A   1      40.175  22.283  26.009  1.00  0.00    -0.460 OA
BRANCH  31  32
ATOM     32  C   UNL A   1      40.526  22.394  27.301  1.00  0.00     0.338 C 
ATOM     33  O   UNL A   1      40.707  21.456  28.052  1.00  0.00    -0.246 OA
BRANCH  32  34
ATOM     34  C   UNL A   1      40.627  23.818  27.677  1.00  0.00     0.060 A 
ATOM     35  C   UNL A   1      39.641  24.656  27.170  1.00  0.00     0.016 A 
ATOM     36  C   UNL A   1      41.702  24.331  28.435  1.00  0.00     0.016 A 
ATOM     37  C   UNL A   1      39.743  26.012  27.401  1.00  0.00     0.010 A 
ATOM     38  C   UNL A   1      41.831  25.693  28.625  1.00  0.00     0.010 A 
ATOM     39  C   UNL A   1      40.840  26.520  28.113  1.00  0.00    -0.014 A 
BRANCH  39  40
ATOM     40  C   UNL A   1      40.742  27.897  28.538  1.00  0.00     0.031 A 
ATOM     41  C   UNL A   1      41.845  28.743  28.039  1.00  0.00     0.074 A 
ATOM     42  C   UNL A   1      39.784  28.410  29.320  1.00  0.00     0.049 A 
ATOM     43  N   UNL A   1      42.854  29.169  28.721  1.00  0.00    -0.248 NA
ATOM     44  C   UNL A   1      41.914  29.029  26.602  1.00  0.00     0.031 C 
ATOM     45  C   UNL A   1      38.497  27.842  29.675  1.00  0.00     0.029 A 
ATOM     46  N   UNL A   1      39.777  29.625  29.927  1.00  0.00    -0.354 N 
ATOM     47  C   UNL A   1      43.625  29.908  27.837  1.00  0.00     0.074 A 
ATOM     48  C   UNL A   1      43.077  29.676  26.524  1.00  0.00     0.031 C 
ATOM     49  C   UNL A   1      37.744  28.786  30.282  1.00  0.00     0.029 A 
ATOM     50  C   UNL A   1      38.562  29.969  30.489  1.00  0.00     0.049 A 
ATOM     51  H   UNL A   1      40.567  30.210  29.964  1.00  0.00     0.167 HD
ATOM     52  C   UNL A   1      44.532  30.811  28.294  1.00  0.00     0.037 A 
ATOM     53  C   UNL A   1      38.255  31.166  31.039  1.00  0.00     0.037 A 
ATOM     54  C   UNL A   1      44.852  30.578  29.681  1.00  0.00     0.049 A 
ATOM     55  C   UNL A   1      39.532  31.818  31.432  1.00  0.00     0.074 A 
ATOM     56  C   UNL A   1      45.408  29.525  30.384  1.00  0.00     0.029 A 
ATOM     57  N   UNL A   1      44.266  31.384  30.626  1.00  0.00    -0.354 N 
ATOM     58  N   UNL A   1      40.290  31.410  32.412  1.00  0.00    -0.248 NA
ATOM     59  C   UNL A   1      40.183  32.691  30.467  1.00  0.00     0.031 C 
ATOM     60  C   UNL A   1      44.729  29.511  31.638  1.00  0.00     0.029 A 
ATOM     61  C   UNL A   1      43.823  30.573  31.640  1.00  0.00     0.049 A 
ATOM     62  H   UNL A   1      44.178  32.364  30.584  1.00  0.00     0.167 HD
ATOM     63  C   UNL A   1      41.587  31.608  31.962  1.00  0.00     0.074 A 
ATOM     64  C   UNL A   1      41.458  32.504  30.818  1.00  0.00     0.031 C 
ATOM     65  C   UNL A   1      42.611  30.811  32.387  1.00  0.00     0.037 A 
BRANCH  52  66
ATOM     66  C   UNL A   1      44.864  32.102  27.596  1.00  0.00     0.064 A 
ATOM     67  C   UNL A   1      46.106  32.226  26.944  1.00  0.00     0.173 A 
ATOM     68  C   UNL A   1      44.154  33.305  27.794  1.00  0.00     0.173 A 
ATOM     69  F   UNL A   1      46.872  31.148  26.719  1.00  0.00    -0.203 F 
ATOM     70  C   UNL A   1      46.633  33.471  26.598  1.00  0.00     0.198 A 
ATOM     71  C   UNL A   1      44.658  34.541  27.395  1.00  0.00     0.198 A 
ATOM     72  F   UNL A   1      43.006  33.354  28.480  1.00  0.00    -0.203 F 
ATOM     73  F   UNL A   1      47.876  33.552  26.102  1.00  0.00    -0.200 F 
ATOM     74  C   UNL A   1      45.912  34.628  26.829  1.00  0.00     0.200 A 
ATOM     75  F   UNL A   1      43.951  35.652  27.643  1.00  0.00    -0.200 F 
ATOM     76  F   UNL A   1      46.442  35.827  26.557  1.00  0.00    -0.200 F 
ENDBRANCH  52  66
BRANCH  53  77
ATOM     77  C   UNL A   1      36.963  31.879  31.001  1.00  0.00     0.064 A 
ATOM     78  C   UNL A   1      36.149  31.957  32.141  1.00  0.00     0.173 A 
ATOM     79  C   UNL A   1      36.629  32.729  29.928  1.00  0.00     0.173 A 
ATOM     80  F   UNL A   1      36.424  31.210  33.220  1.00  0.00    -0.203 F 
ATOM     81  C   UNL A   1      35.084  32.858  32.217  1.00  0.00     0.198 A 
ATOM     82  C   UNL A   1      35.559  33.620  30.001  1.00  0.00     0.198 A 
ATOM     83  F   UNL A   1      37.391  32.786  28.828  1.00  0.00    -0.203 F 
ATOM     84  F   UNL A   1      34.371  32.954  33.347  1.00  0.00    -0.200 F 
ATOM     85  C   UNL A   1      34.797  33.696  31.151  1.00  0.00     0.200 A 
ATOM     86  F   UNL A   1      35.311  34.448  28.977  1.00  0.00    -0.200 F 
ATOM     87  F   UNL A   1      33.815  34.602  31.248  1.00  0.00    -0.200 F 
ENDBRANCH  53  77
BRANCH  65  88
ATOM     88  C   UNL A   1      42.361  29.929  33.577  1.00  0.00     0.064 A 
ATOM     89  C   UNL A   1      41.807  28.639  33.498  1.00  0.00     0.173 A 
ATOM     90  C   UNL A   1      42.823  30.357  34.829  1.00  0.00     0.173 A 
ATOM     91  F   UNL A   1      41.441  28.116  32.321  1.00  0.00    -0.203 F 
ATOM     92  C   UNL A   1      41.675  27.841  34.633  1.00  0.00     0.198 A 
ATOM     93  C   UNL A   1      42.726  29.543  35.954  1.00  0.00     0.198 A 
ATOM     94  F   UNL A   1      43.415  31.556  34.955  1.00  0.00    -0.203 F 
ATOM     95  F   UNL A   1      41.126  26.620  34.537  1.00  0.00    -0.200 F 
ATOM     96  C   UNL A   1      42.140  28.291  35.858  1.00  0.00     0.200 A 
ATOM     97  F   UNL A   1      43.222  29.962  37.126  1.00  0.00    -0.200 F 
ATOM     98  F   UNL A   1      42.048  27.507  36.942  1.00  0.00    -0.200 F 
ENDBRANCH  65  88
ENDBRANCH  39  40
ENDBRANCH  32  34
ENDBRANCH  31  32
ENDBRANCH  30  31
ENDBRANCH  29  30
ENDBRANCH  28  29
ENDBRANCH   1  28
TORSDOF 19
ENDMDL
MODEL 2
REMARK VINA RESULT:     -12.2      3.027      9.212
REMARK SMILES COc1ccc(-c2ncn(CC(=O)OCCOCCOC(=O)c3ccc(-c4c5nc(c(-c6c(F)c(F)c(F)c(F)c6F)c6ccc([nH]6)c(-c6c(F)c(F)c(F)c(F)c6F)c6nc(c(-c7c(F)c(F)c(F)c(F)c7F)c7ccc4[nH]7)C=C6)C=C5)cc3)c2-c2ccc(OC)cc2)cc1
REMARK SMILES IDX 16 1 15 2 14 3 12 4 13 5 11 6 10 7 7 8 8 9 86 10 9 11 6 12
REMARK SMILES IDX 3 13 4 14 96 15 5 16 95 17 2 18 1 19 87 20 88 21 94 22 89 23
REMARK SMILES IDX 93 24 90 25 91 26 92 27 17 28 18 29 19 30 20 31 21 32 22 33
REMARK SMILES IDX 23 34 24 35 85 36 25 37 84 38 26 39 27 40 28 41 78 42 29 43
REMARK SMILES IDX 83 44 77 45 79 46 30 47 82 48 76 49 75 50 31 52 63 53 43 54
REMARK SMILES IDX 62 55 44 56 47 57 61 58 80 59 45 60 46 61 60 63 81 64 48 65
REMARK SMILES IDX 32 66 33 67 41 68 34 69 35 70 39 71 42 72 36 73 37 74 40 75
REMARK SMILES IDX 38 76 64 77 65 78 73 79 66 80 67 81 71 82 74 83 68 84 69 85
REMARK SMILES IDX 72 86 70 87 49 88 50 89 58 90 51 91 52 92 56 93 59 94 53 95
REMARK SMILES IDX 54 96 57 97 55 98
REMARK H PARENT 79 51 47 62
REMARK Flexibility Score: inf
ROOT
ATOM      1  C   UNL A   1      31.493  30.171  25.637  1.00  0.00     0.202 C 
ENDROOT
BRANCH   1   2
ATOM      2  C   UNL A   1      32.709  29.503  24.981  1.00  0.00     0.261 C 
BRANCH   2   3
ATOM      3  O   UNL A   1      32.391  28.272  24.284  1.00  0.00    -0.462 OA
BRANCH   3   4
ATOM      4  C   UNL A   1      33.154  27.186  24.558  1.00  0.00     0.326 C 
ATOM      5  O   UNL A   1      33.683  26.994  25.650  1.00  0.00    -0.250 OA
BRANCH   4   6
ATOM      6  C   UNL A   1      33.314  26.174  23.437  1.00  0.00     0.246 C 
BRANCH   6   7
ATOM      7  N   UNL A   1      32.689  24.854  23.535  1.00  0.00    -0.319 N 
ATOM      8  C   UNL A   1      32.305  22.696  23.557  1.00  0.00     0.096 A 
ATOM      9  N   UNL A   1      31.164  23.290  23.087  1.00  0.00    -0.236 NA
ATOM     10  C   UNL A   1      33.296  23.634  23.836  1.00  0.00     0.076 A 
ATOM     11  C   UNL A   1      31.428  24.576  23.062  1.00  0.00     0.201 A 
BRANCH   8  12
ATOM     12  C   UNL A   1      32.435  21.266  23.763  1.00  0.00     0.003 A 
ATOM     13  C   UNL A   1      32.587  18.491  24.122  1.00  0.00     0.118 A 
ATOM     14  C   UNL A   1      32.286  19.021  22.871  1.00  0.00     0.047 A 
ATOM     15  C   UNL A   1      32.827  19.345  25.199  1.00  0.00     0.047 A 
ATOM     16  C   UNL A   1      32.229  20.398  22.688  1.00  0.00     0.014 A 
ATOM     17  C   UNL A   1      32.744  20.735  25.021  1.00  0.00     0.014 A 
BRANCH  13  18
ATOM     18  O   UNL A   1      32.722  17.133  24.174  1.00  0.00    -0.497 OA
ATOM     19  C   UNL A   1      33.895  16.647  23.533  1.00  0.00     0.278 C 
ENDBRANCH  13  18
ENDBRANCH   8  12
BRANCH  10  20
ATOM     20  C   UNL A   1      34.661  23.420  24.335  1.00  0.00     0.001 A 
ATOM     21  C   UNL A   1      34.961  23.636  25.685  1.00  0.00     0.014 A 
ATOM     22  C   UNL A   1      35.678  22.928  23.514  1.00  0.00     0.014 A 
ATOM     23  C   UNL A   1      36.257  23.537  26.181  1.00  0.00     0.047 A 
ATOM     24  C   UNL A   1      36.982  22.775  24.016  1.00  0.00     0.047 A 
ATOM     25  C   UNL A   1      37.268  23.118  25.335  1.00  0.00     0.118 A 
BRANCH  25  26
ATOM     26  O   UNL A   1      38.555  23.165  25.785  1.00  0.00    -0.497 OA
ATOM     27  C   UNL A   1      39.052  21.870  26.110  1.00  0.00     0.278 C 
ENDBRANCH  25  26
ENDBRANCH  10  20
ENDBRANCH   6   7
ENDBRANCH   4   6
ENDBRANCH   3   4
ENDBRANCH   2   3
ENDBRANCH   1   2
BRANCH   1  28
ATOM     28  O   UNL A   1      31.776  30.877  26.831  1.00  0.00    -0.374 OA
BRANCH  28  29
ATOM     29  C   UNL A   1      33.133  31.051  27.216  1.00  0.00     0.202 C 
BRANCH  29  30
ATOM     30  C   UNL A   1      33.634  32.390  27.765  1.00  0.00     0.261 C 
BRANCH  30  31
ATOM     31  O   UNL A   1      35.045  32.527  27.807  1.00  0.00    -0.460 OA
BRANCH  31  32
ATOM     32  C   UNL A   1      35.508  32.352  29.055  1.00  0.00     0.338 C 
ATOM     33  O   UNL A   1      35.089  32.932  30.037  1.00  0.00    -0.246 OA
BRANCH  32  34
ATOM     34  C   UNL A   1      36.617  31.377  29.051  1.00  0.00     0.060 A 
ATOM     35  C   UNL A   1      37.850  31.852  29.483  1.00  0.00     0.016 A 
ATOM     36  C   UNL A   1      36.472  30.061  28.562  1.00  0.00     0.016 A 
ATOM     37  C   UNL A   1      38.945  31.016  29.402  1.00  0.00     0.010 A 
ATOM     38  C   UNL A   1      37.577  29.240  28.436  1.00  0.00     0.010 A 
ATOM     39  C   UNL A   1      38.802  29.726  28.869  1.00  0.00    -0.014 A 
BRANCH  39  40
ATOM     40  C   UNL A   1      39.920  28.830  29.060  1.00  0.00     0.031 A 
ATOM     41  C   UNL A   1      40.247  28.599  30.482  1.00  0.00     0.074 A 
ATOM     42  C   UNL A   1      40.637  28.253  28.088  1.00  0.00     0.049 A 
ATOM     43  N   UNL A   1      41.239  29.107  31.133  1.00  0.00    -0.248 NA
ATOM     44  C   UNL A   1      39.298  27.842  31.305  1.00  0.00     0.031 C 
ATOM     45  C   UNL A   1      40.319  28.121  26.679  1.00  0.00     0.029 A 
ATOM     46  N   UNL A   1      41.821  27.599  28.213  1.00  0.00    -0.354 N 
ATOM     47  C   UNL A   1      41.134  28.619  32.426  1.00  0.00     0.074 A 
ATOM     48  C   UNL A   1      39.854  27.960  32.511  1.00  0.00     0.031 C 
ATOM     49  C   UNL A   1      41.192  27.265  26.102  1.00  0.00     0.029 A 
ATOM     50  C   UNL A   1      42.213  26.918  27.077  1.00  0.00     0.049 A 
ATOM     51  H   UNL A   1      42.354  27.610  29.041  1.00  0.00     0.167 HD
ATOM     52  C   UNL A   1      42.206  28.628  33.260  1.00  0.00     0.037 A 
ATOM     53  C   UNL A   1      43.281  26.094  26.978  1.00  0.00     0.037 A 
ATOM     54  C   UNL A   1      43.226  29.536  32.796  1.00  0.00     0.049 A 
ATOM     55  C   UNL A   1      44.232  26.461  28.059  1.00  0.00     0.074 A 
ATOM     56  C   UNL A   1      43.278  30.898  32.564  1.00  0.00     0.029 A 
ATOM     57  N   UNL A   1      44.318  29.010  32.151  1.00  0.00    -0.354 N 
ATOM     58  N   UNL A   1      44.920  27.570  28.082  1.00  0.00    -0.248 NA
ATOM     59  C   UNL A   1      44.118  25.777  29.338  1.00  0.00     0.031 C 
ATOM     60  C   UNL A   1      44.116  31.051  31.419  1.00  0.00     0.029 A 
ATOM     61  C   UNL A   1      44.551  29.780  31.041  1.00  0.00     0.049 A 
ATOM     62  H   UNL A   1      44.838  28.223  32.433  1.00  0.00     0.167 HD
ATOM     63  C   UNL A   1      44.949  27.941  29.418  1.00  0.00     0.074 A 
ATOM     64  C   UNL A   1      44.546  26.746  30.151  1.00  0.00     0.031 C 
ATOM     65  C   UNL A   1      45.028  29.254  29.784  1.00  0.00     0.037 A 
BRANCH  52  66
ATOM     66  C   UNL A   1      42.478  27.572  34.297  1.00  0.00     0.064 A 
ATOM     67  C   UNL A   1      43.069  26.358  33.899  1.00  0.00     0.173 A 
ATOM     68  C   UNL A   1      41.916  27.582  35.592  1.00  0.00     0.173 A 
ATOM     69  F   UNL A   1      43.619  26.233  32.681  1.00  0.00    -0.203 F 
ATOM     70  C   UNL A   1      43.022  25.218  34.702  1.00  0.00     0.198 A 
ATOM     71  C   UNL A   1      41.921  26.458  36.414  1.00  0.00     0.198 A 
ATOM     72  F   UNL A   1      41.240  28.633  36.071  1.00  0.00    -0.203 F 
ATOM     73  F   UNL A   1      43.478  24.051  34.227  1.00  0.00    -0.200 F 
ATOM     74  C   UNL A   1      42.442  25.267  35.956  1.00  0.00     0.200 A 
ATOM     75  F   UNL A   1      41.340  26.521  37.620  1.00  0.00    -0.200 F 
ATOM     76  F   UNL A   1      42.338  24.159  36.702  1.00  0.00    -0.200 F 
ENDBRANCH  52  66
BRANCH  53  77
ATOM     77  C   UNL A   1      43.401  24.855  26.183  1.00  0.00     0.064 A 
ATOM     78  C   UNL A   1      44.420  24.706  25.231  1.00  0.00     0.173 A 
ATOM     79  C   UNL A   1      42.692  23.690  26.535  1.00  0.00     0.173 A 
ATOM     80  F   UNL A   1      45.168  25.759  24.872  1.00  0.00    -0.203 F 
ATOM     81  C   UNL A   1      44.734  23.458  24.687  1.00  0.00     0.198 A 
ATOM     82  C   UNL A   1      42.998  22.447  25.983  1.00  0.00     0.198 A 
ATOM     83  F   UNL A   1      41.755  23.713  27.493  1.00  0.00    -0.203 F 
ATOM     84  F   UNL A   1      45.758  23.342  23.831  1.00  0.00    -0.200 F 
ATOM     85  C   UNL A   1      44.030  22.328  25.071  1.00  0.00     0.200 A 
ATOM     86  F   UNL A   1      42.333  21.356  26.388  1.00  0.00    -0.200 F 
ATOM     87  F   UNL A   1      44.372  21.123  24.596  1.00  0.00    -0.200 F 
ENDBRANCH  53  77
BRANCH  65  88
ATOM     88  C   UNL A   1      45.397  30.253  28.725  1.00  0.00     0.064 A 
ATOM     89  C   UNL A   1      44.476  30.833  27.835  1.00  0.00     0.173 A 
ATOM     90  C   UNL A   1      46.712  30.737  28.698  1.00  0.00     0.173 A 
ATOM     91  F   UNL A   1      43.179  30.502  27.871  1.00  0.00    -0.203 F 
ATOM     92  C   UNL A   1      44.872  31.814  26.927  1.00  0.00     0.198 A 
ATOM     93  C   UNL A   1      47.095  31.744  27.818  1.00  0.00     0.198 A 
ATOM     94  F   UNL A   1      47.622  30.262  29.565  1.00  0.00    -0.203 F 
ATOM     95  F   UNL A   1      43.979  32.341  26.075  1.00  0.00    -0.200 F 
ATOM     96  C   UNL A   1      46.178  32.273  26.924  1.00  0.00     0.200 A 
ATOM     97  F   UNL A   1      48.347  32.220  27.852  1.00  0.00    -0.200 F 
ATOM     98  F   UNL A   1      46.548  33.244  26.076  1.00  0.00    -0.200 F 
ENDBRANCH  65  88
ENDBRANCH  39  40
ENDBRANCH  32  34
ENDBRANCH  31  32
ENDBRANCH  30  31
ENDBRANCH  29  30
ENDBRANCH  28  29
ENDBRANCH   1  28
TORSDOF 19
ENDMDL
MODEL 3
REMARK VINA RESULT:     -11.3      3.734      6.055
REMARK SMILES COc1ccc(-c2ncn(CC(=O)OCCOCCOC(=O)c3ccc(-c4c5nc(c(-c6c(F)c(F)c(F)c(F)c6F)c6ccc([nH]6)c(-c6c(F)c(F)c(F)c(F)c6F)c6nc(c(-c7c(F)c(F)c(F)c(F)c7F)c7ccc4[nH]7)C=C6)C=C5)cc3)c2-c2ccc(OC)cc2)cc1
REMARK SMILES IDX 16 1 15 2 14 3 12 4 13 5 11 6 10 7 7 8 8 9 86 10 9 11 6 12
REMARK SMILES IDX 3 13 4 14 96 15 5 16 95 17 2 18 1 19 87 20 88 21 94 22 89 23
REMARK SMILES IDX 93 24 90 25 91 26 92 27 17 28 18 29 19 30 20 31 21 32 22 33
REMARK SMILES IDX 23 34 24 35 85 36 25 37 84 38 26 39 27 40 28 41 78 42 29 43
REMARK SMILES IDX 83 44 77 45 79 46 30 47 82 48 76 49 75 50 31 52 63 53 43 54
REMARK SMILES IDX 62 55 44 56 47 57 61 58 80 59 45 60 46 61 60 63 81 64 48 65
REMARK SMILES IDX 32 66 33 67 41 68 34 69 35 70 39 71 42 72 36 73 37 74 40 75
REMARK SMILES IDX 38 76 64 77 65 78 73 79 66 80 67 81 71 82 74 83 68 84 69 85
REMARK SMILES IDX 72 86 70 87 49 88 50 89 58 90 51 91 52 92 56 93 59 94 53 95
REMARK SMILES IDX 54 96 57 97 55 98
REMARK H PARENT 79 51 47 62
REMARK Flexibility Score: inf
ROOT
ATOM      1  C   UNL A   1      40.944  20.928  27.095  1.00  0.00     0.202 C 
ENDROOT
BRANCH   1   2
ATOM      2  C   UNL A   1      40.533  22.335  26.641  1.00  0.00     0.261 C 
BRANCH   2   3
ATOM      3  O   UNL A   1      39.159  22.672  26.959  1.00  0.00    -0.462 OA
BRANCH   3   4
ATOM      4  C   UNL A   1      38.575  23.657  26.235  1.00  0.00     0.326 C 
ATOM      5  O   UNL A   1      39.126  24.726  25.986  1.00  0.00    -0.250 OA
BRANCH   4   6
ATOM      6  C   UNL A   1      37.179  23.370  25.710  1.00  0.00     0.246 C 
BRANCH   6   7
ATOM      7  N   UNL A   1      36.833  22.037  25.214  1.00  0.00    -0.319 N 
ATOM      8  C   UNL A   1      35.937  20.057  24.928  1.00  0.00     0.096 A 
ATOM      9  N   UNL A   1      37.242  19.957  24.525  1.00  0.00    -0.236 NA
ATOM     10  C   UNL A   1      35.637  21.338  25.385  1.00  0.00     0.076 A 
ATOM     11  C   UNL A   1      37.759  21.146  24.727  1.00  0.00     0.201 A 
BRANCH   8  12
ATOM     12  C   UNL A   1      34.991  18.960  24.853  1.00  0.00     0.003 A 
ATOM     13  C   UNL A   1      33.221  16.800  24.628  1.00  0.00     0.118 A 
ATOM     14  C   UNL A   1      34.576  16.576  24.851  1.00  0.00     0.047 A 
ATOM     15  C   UNL A   1      32.739  18.105  24.528  1.00  0.00     0.047 A 
ATOM     16  C   UNL A   1      35.452  17.648  24.982  1.00  0.00     0.014 A 
ATOM     17  C   UNL A   1      33.627  19.188  24.634  1.00  0.00     0.014 A 
BRANCH  13  18
ATOM     18  O   UNL A   1      32.429  15.687  24.619  1.00  0.00    -0.497 OA
ATOM     19  C   UNL A   1      32.842  14.681  25.536  1.00  0.00     0.278 C 
ENDBRANCH  13  18
ENDBRANCH   8  12
BRANCH  10  20
ATOM     20  C   UNL A   1      34.372  21.859  25.919  1.00  0.00     0.001 A 
ATOM     21  C   UNL A   1      33.437  22.454  25.064  1.00  0.00     0.014 A 
ATOM     22  C   UNL A   1      34.024  21.716  27.264  1.00  0.00     0.014 A 
ATOM     23  C   UNL A   1      32.269  23.044  25.538  1.00  0.00     0.047 A 
ATOM     24  C   UNL A   1      32.823  22.264  27.747  1.00  0.00     0.047 A 
ATOM     25  C   UNL A   1      31.974  22.957  26.886  1.00  0.00     0.118 A 
BRANCH  25  26
ATOM     26  O   UNL A   1      30.910  23.661  27.368  1.00  0.00    -0.497 OA
ATOM     27  C   UNL A   1      29.695  22.924  27.264  1.00  0.00     0.278 C 
ENDBRANCH  25  26
ENDBRANCH  10  20
ENDBRANCH   6   7
ENDBRANCH   4   6
ENDBRANCH   3   4
ENDBRANCH   2   3
ENDBRANCH   1   2
BRANCH   1  28
ATOM     28  O   UNL A   1      41.379  20.072  26.054  1.00  0.00    -0.374 OA
BRANCH  28  29
ATOM     29  C   UNL A   1      42.373  19.098  26.342  1.00  0.00     0.202 C 
BRANCH  29  30
ATOM     30  C   UNL A   1      43.620  18.958  25.465  1.00  0.00     0.261 C 
BRANCH  30  31
ATOM     31  O   UNL A   1      43.828  20.021  24.549  1.00  0.00    -0.460 OA
BRANCH  31  32
ATOM     32  C   UNL A   1      45.002  20.632  24.780  1.00  0.00     0.338 C 
ATOM     33  O   UNL A   1      46.091  20.152  24.538  1.00  0.00    -0.246 OA
BRANCH  32  34
ATOM     34  C   UNL A   1      44.772  21.954  25.396  1.00  0.00     0.060 A 
ATOM     35  C   UNL A   1      43.836  22.767  24.766  1.00  0.00     0.016 A 
ATOM     36  C   UNL A   1      45.510  22.416  26.507  1.00  0.00     0.016 A 
ATOM     37  C   UNL A   1      43.656  24.052  25.234  1.00  0.00     0.010 A 
ATOM     38  C   UNL A   1      45.365  23.718  26.946  1.00  0.00     0.010 A 
ATOM     39  C   UNL A   1      44.429  24.520  26.308  1.00  0.00    -0.014 A 
BRANCH  39  40
ATOM     40  C   UNL A   1      44.003  25.766  26.904  1.00  0.00     0.031 A 
ATOM     41  C   UNL A   1      44.916  26.892  26.620  1.00  0.00     0.074 A 
ATOM     42  C   UNL A   1      42.914  25.940  27.662  1.00  0.00     0.049 A 
ATOM     43  N   UNL A   1      45.766  27.415  27.438  1.00  0.00    -0.248 NA
ATOM     44  C   UNL A   1      44.999  27.397  25.246  1.00  0.00     0.031 C 
ATOM     45  C   UNL A   1      41.767  25.065  27.824  1.00  0.00     0.029 A 
ATOM     46  N   UNL A   1      42.602  27.021  28.424  1.00  0.00    -0.354 N 
ATOM     47  C   UNL A   1      46.400  28.425  26.732  1.00  0.00     0.074 A 
ATOM     48  C   UNL A   1      45.990  28.281  25.357  1.00  0.00     0.031 C 
ATOM     49  C   UNL A   1      40.791  25.726  28.485  1.00  0.00     0.029 A 
ATOM     50  C   UNL A   1      41.312  27.011  28.919  1.00  0.00     0.049 A 
ATOM     51  H   UNL A   1      43.240  27.749  28.607  1.00  0.00     0.167 HD
ATOM     52  C   UNL A   1      47.057  29.420  27.382  1.00  0.00     0.037 A 
ATOM     53  C   UNL A   1      40.717  28.019  29.596  1.00  0.00     0.037 A 
ATOM     54  C   UNL A   1      47.344  29.056  28.748  1.00  0.00     0.049 A 
ATOM     55  C   UNL A   1      41.793  28.861  30.182  1.00  0.00     0.074 A 
ATOM     56  C   UNL A   1      48.081  28.052  29.349  1.00  0.00     0.029 A 
ATOM     57  N   UNL A   1      46.542  29.568  29.738  1.00  0.00    -0.354 N 
ATOM     58  N   UNL A   1      42.568  28.481  31.160  1.00  0.00    -0.248 NA
ATOM     59  C   UNL A   1      42.286  29.988  29.403  1.00  0.00     0.031 C 
ATOM     60  C   UNL A   1      47.354  27.706  30.526  1.00  0.00     0.029 A 
ATOM     61  C   UNL A   1      46.236  28.539  30.592  1.00  0.00     0.049 A 
ATOM     62  H   UNL A   1      46.240  30.502  29.820  1.00  0.00     0.167 HD
ATOM     63  C   UNL A   1      43.811  29.015  30.856  1.00  0.00     0.074 A 
ATOM     64  C   UNL A   1      43.549  30.025  29.835  1.00  0.00     0.031 C 
ATOM     65  C   UNL A   1      44.962  28.399  31.256  1.00  0.00     0.037 A 
BRANCH  52  66
ATOM     66  C   UNL A   1      47.132  30.842  26.895  1.00  0.00     0.064 A 
ATOM     67  C   UNL A   1      48.370  31.511  26.924  1.00  0.00     0.173 A 
ATOM     68  C   UNL A   1      46.000  31.660  26.688  1.00  0.00     0.173 A 
ATOM     69  F   UNL A   1      49.509  30.833  27.131  1.00  0.00    -0.203 F 
ATOM     70  C   UNL A   1      48.458  32.901  26.840  1.00  0.00     0.198 A 
ATOM     71  C   UNL A   1      46.097  33.043  26.547  1.00  0.00     0.198 A 
ATOM     72  F   UNL A   1      44.752  31.179  26.728  1.00  0.00    -0.203 F 
ATOM     73  F   UNL A   1      49.643  33.504  27.007  1.00  0.00    -0.200 F 
ATOM     74  C   UNL A   1      47.320  33.666  26.658  1.00  0.00     0.200 A 
ATOM     75  F   UNL A   1      44.981  33.768  26.388  1.00  0.00    -0.200 F 
ATOM     76  F   UNL A   1      47.395  35.003  26.642  1.00  0.00    -0.200 F 
ENDBRANCH  52  66
BRANCH  53  77
ATOM     77  C   UNL A   1      39.302  28.439  29.542  1.00  0.00     0.064 A 
ATOM     78  C   UNL A   1      38.542  28.560  30.715  1.00  0.00     0.173 A 
ATOM     79  C   UNL A   1      38.750  28.994  28.371  1.00  0.00     0.173 A 
ATOM     80  F   UNL A   1      39.016  28.094  31.879  1.00  0.00    -0.203 F 
ATOM     81  C   UNL A   1      37.315  29.228  30.722  1.00  0.00     0.198 A 
ATOM     82  C   UNL A   1      37.519  29.650  28.378  1.00  0.00     0.198 A 
ATOM     83  F   UNL A   1      39.433  29.000  27.219  1.00  0.00    -0.203 F 
ATOM     84  F   UNL A   1      36.648  29.384  31.874  1.00  0.00    -0.200 F 
ATOM     85  C   UNL A   1      36.809  29.781  29.557  1.00  0.00     0.200 A 
ATOM     86  F   UNL A   1      37.057  30.209  27.251  1.00  0.00    -0.200 F 
ATOM     87  F   UNL A   1      35.663  30.474  29.577  1.00  0.00    -0.200 F 
ENDBRANCH  53  77
BRANCH  65  88
ATOM     88  C   UNL A   1      44.849  27.316  32.291  1.00  0.00     0.064 A 
ATOM     89  C   UNL A   1      44.842  27.552  33.678  1.00  0.00     0.173 A 
ATOM     90  C   UNL A   1      44.607  26.006  31.857  1.00  0.00     0.173 A 
ATOM     91  F   UNL A   1      44.958  28.792  34.168  1.00  0.00    -0.203 F 
ATOM     92  C   UNL A   1      44.654  26.508  34.583  1.00  0.00     0.198 A 
ATOM     93  C   UNL A   1      44.380  24.974  32.763  1.00  0.00     0.198 A 
ATOM     94  F   UNL A   1      44.543  25.732  30.544  1.00  0.00    -0.203 F 
ATOM     95  F   UNL A   1      44.669  26.753  35.903  1.00  0.00    -0.200 F 
ATOM     96  C   UNL A   1      44.417  25.223  34.126  1.00  0.00     0.200 A 
ATOM     97  F   UNL A   1      44.102  23.742  32.315  1.00  0.00    -0.200 F 
ATOM     98  F   UNL A   1      44.198  24.228  34.998  1.00  0.00    -0.200 F 
ENDBRANCH  65  88
ENDBRANCH  39  40
ENDBRANCH  32  34
ENDBRANCH  31  32
ENDBRANCH  30  31
ENDBRANCH  29  30
ENDBRANCH  28  29
ENDBRANCH   1  28
TORSDOF 19
ENDMDL
