MODEL 1
REMARK VINA RESULT:     -12.0      0.000      0.000
REMARK SMILES Cc1ccc(C(=O)N2CCC(CC(=O)OCCOCCOC(=O)c3ccc(-c4c5nc(c(-c6c(F)c(F)c(F)c(F)c6F)c6ccc([nH]6)c(-c6c(F)c(F)c(F)c(F)c6F)c6nc(c(-c7c(F)c(F)c(F)c(F)c7F)c7ccc4[nH]7)C=C6)C=C5)cc3)CC2)cn1
REMARK SMILES IDX 18 1 17 2 16 3 15 4 13 5 14 6 12 7 11 8 6 9 7 10 8 11 9 12
REMARK SMILES IDX 88 13 10 14 87 15 5 16 1 17 2 18 3 19 90 20 4 21 89 22 19 23
REMARK SMILES IDX 20 24 21 25 22 26 23 27 24 28 25 29 86 30 26 31 85 32 27 33
REMARK SMILES IDX 28 34 29 35 79 36 30 37 84 38 78 39 80 40 31 41 83 42 77 43
REMARK SMILES IDX 76 44 32 46 64 47 44 48 63 49 45 50 48 51 62 52 81 53 46 54
REMARK SMILES IDX 47 55 61 57 82 58 49 59 33 60 34 61 42 62 35 63 36 64 40 65
REMARK SMILES IDX 43 66 37 67 38 68 41 69 39 70 65 71 66 72 74 73 67 74 68 75
REMARK SMILES IDX 72 76 75 77 69 78 70 79 73 80 71 81 50 82 51 83 59 84 52 85
REMARK SMILES IDX 53 86 57 87 60 88 54 89 55 90 58 91 56 92
REMARK H PARENT 80 45 48 56
REMARK Flexibility Score: inf
ROOT
ATOM      1  O   UNL A   1      34.881  19.703  24.818  1.00  0.00    -0.374 OA
ENDROOT
BRANCH   1   2
ATOM      2  C   UNL A   1      33.500  20.009  25.008  1.00  0.00     0.202 C 
BRANCH   2   3
ATOM      3  C   UNL A   1      33.111  21.469  24.765  1.00  0.00     0.261 C 
BRANCH   3   4
ATOM      4  O   UNL A   1      32.267  21.955  25.827  1.00  0.00    -0.463 OA
BRANCH   4   5
ATOM      5  C   UNL A   1      32.861  22.680  26.807  1.00  0.00     0.306 C 
ATOM      6  O   UNL A   1      32.553  22.639  27.991  1.00  0.00    -0.252 OA
BRANCH   5   7
ATOM      7  C   UNL A   1      33.933  23.613  26.275  1.00  0.00     0.126 C 
BRANCH   7   8
ATOM      8  C   UNL A   1      33.516  25.047  25.885  1.00  0.00     0.003 C 
ATOM      9  C   UNL A   1      31.308  26.860  22.999  1.00  0.00     0.255 C 
ATOM     10  O   UNL A   1      31.624  26.145  22.053  1.00  0.00    -0.269 OA
ATOM     11  N   UNL A   1      32.041  26.891  24.179  1.00  0.00    -0.339 N 
ATOM     12  C   UNL A   1      33.486  26.817  24.085  1.00  0.00     0.120 C 
ATOM     13  C   UNL A   1      31.461  26.536  25.467  1.00  0.00     0.120 C 
ATOM     14  C   UNL A   1      34.007  25.444  24.481  1.00  0.00     0.026 C 
ATOM     15  C   UNL A   1      31.972  25.170  25.942  1.00  0.00     0.026 C 
BRANCH   9  16
ATOM     16  C   UNL A   1      30.240  27.882  22.821  1.00  0.00     0.058 A 
ATOM     17  C   UNL A   1      27.591  31.217  22.871  1.00  0.00     0.066 C 
ATOM     18  C   UNL A   1      28.481  30.013  22.796  1.00  0.00     0.037 A 
ATOM     19  C   UNL A   1      28.022  28.759  23.186  1.00  0.00     0.024 A 
ATOM     20  N   UNL A   1      29.758  30.224  22.399  1.00  0.00    -0.261 NA
ATOM     21  C   UNL A   1      28.911  27.684  23.201  1.00  0.00     0.017 A 
ATOM     22  C   UNL A   1      30.606  29.162  22.426  1.00  0.00     0.125 A 
ENDBRANCH   9  16
ENDBRANCH   7   8
ENDBRANCH   5   7
ENDBRANCH   4   5
ENDBRANCH   3   4
ENDBRANCH   2   3
ENDBRANCH   1   2
BRANCH   1  23
ATOM     23  C   UNL A   1      35.812  20.764  25.013  1.00  0.00     0.202 C 
BRANCH  23  24
ATOM     24  C   UNL A   1      37.290  20.353  25.004  1.00  0.00     0.261 C 
BRANCH  24  25
ATOM     25  O   UNL A   1      38.160  21.473  25.261  1.00  0.00    -0.460 OA
BRANCH  25  26
ATOM     26  C   UNL A   1      39.236  21.192  26.030  1.00  0.00     0.338 C 
ATOM     27  O   UNL A   1      39.823  20.120  26.125  1.00  0.00    -0.246 OA
BRANCH  26  28
ATOM     28  C   UNL A   1      39.745  22.423  26.659  1.00  0.00     0.060 A 
ATOM     29  C   UNL A   1      39.232  23.647  26.211  1.00  0.00     0.016 A 
ATOM     30  C   UNL A   1      40.762  22.390  27.616  1.00  0.00     0.016 A 
ATOM     31  C   UNL A   1      39.765  24.846  26.681  1.00  0.00     0.010 A 
ATOM     32  C   UNL A   1      41.301  23.592  28.081  1.00  0.00     0.010 A 
ATOM     33  C   UNL A   1      40.832  24.824  27.588  1.00  0.00    -0.014 A 
BRANCH  33  34
ATOM     34  C   UNL A   1      41.580  26.068  27.895  1.00  0.00     0.031 A 
ATOM     35  C   UNL A   1      40.878  27.155  28.660  1.00  0.00     0.074 A 
ATOM     36  C   UNL A   1      42.856  26.232  27.501  1.00  0.00     0.049 A 
ATOM     37  N   UNL A   1      41.264  28.380  28.910  1.00  0.00    -0.248 NA
ATOM     38  C   UNL A   1      39.560  26.812  29.218  1.00  0.00     0.031 C 
ATOM     39  C   UNL A   1      43.667  25.226  26.821  1.00  0.00     0.029 A 
ATOM     40  N   UNL A   1      43.684  27.322  27.606  1.00  0.00    -0.354 N 
ATOM     41  C   UNL A   1      40.234  28.957  29.643  1.00  0.00     0.074 A 
ATOM     42  C   UNL A   1      39.196  27.957  29.780  1.00  0.00     0.031 C 
ATOM     43  C   UNL A   1      44.873  25.755  26.546  1.00  0.00     0.029 A 
ATOM     44  C   UNL A   1      44.899  27.148  26.990  1.00  0.00     0.049 A 
ATOM     45  H   UNL A   1      43.431  28.148  28.077  1.00  0.00     0.167 HD
ATOM     46  C   UNL A   1      40.163  30.206  30.158  1.00  0.00     0.037 A 
ATOM     47  C   UNL A   1      45.897  28.029  26.775  1.00  0.00     0.037 A 
ATOM     48  C   UNL A   1      41.194  31.198  30.017  1.00  0.00     0.049 A 
ATOM     49  C   UNL A   1      45.747  29.448  27.267  1.00  0.00     0.074 A 
ATOM     50  C   UNL A   1      41.206  32.505  30.474  1.00  0.00     0.029 A 
ATOM     51  N   UNL A   1      42.402  30.989  29.369  1.00  0.00    -0.354 N 
ATOM     52  N   UNL A   1      44.764  29.994  27.941  1.00  0.00    -0.248 NA
ATOM     53  C   UNL A   1      46.847  30.376  26.962  1.00  0.00     0.031 C 
ATOM     54  C   UNL A   1      42.406  33.097  30.071  1.00  0.00     0.029 A 
ATOM     55  C   UNL A   1      43.163  32.144  29.409  1.00  0.00     0.049 A 
ATOM     56  H   UNL A   1      42.678  30.144  28.944  1.00  0.00     0.167 HD
ATOM     57  C   UNL A   1      45.148  31.308  28.182  1.00  0.00     0.074 A 
ATOM     58  C   UNL A   1      46.452  31.481  27.578  1.00  0.00     0.031 C 
ATOM     59  C   UNL A   1      44.481  32.282  28.846  1.00  0.00     0.037 A 
BRANCH  46  60
ATOM     60  C   UNL A   1      38.919  30.582  30.906  1.00  0.00     0.064 A 
ATOM     61  C   UNL A   1      38.838  30.460  32.302  1.00  0.00     0.173 A 
ATOM     62  C   UNL A   1      37.814  31.117  30.227  1.00  0.00     0.173 A 
ATOM     63  F   UNL A   1      39.862  29.939  32.994  1.00  0.00    -0.203 F 
ATOM     64  C   UNL A   1      37.690  30.846  32.988  1.00  0.00     0.198 A 
ATOM     65  C   UNL A   1      36.679  31.528  30.920  1.00  0.00     0.198 A 
ATOM     66  F   UNL A   1      37.842  31.256  28.893  1.00  0.00    -0.203 F 
ATOM     67  F   UNL A   1      37.621  30.688  34.317  1.00  0.00    -0.200 F 
ATOM     68  C   UNL A   1      36.615  31.388  32.297  1.00  0.00     0.200 A 
ATOM     69  F   UNL A   1      35.646  32.062  30.253  1.00  0.00    -0.200 F 
ATOM     70  F   UNL A   1      35.516  31.772  32.962  1.00  0.00    -0.200 F 
ENDBRANCH  46  60
BRANCH  47  71
ATOM     71  C   UNL A   1      47.119  27.616  26.037  1.00  0.00     0.064 A 
ATOM     72  C   UNL A   1      47.174  27.684  24.638  1.00  0.00     0.173 A 
ATOM     73  C   UNL A   1      48.236  27.095  26.708  1.00  0.00     0.173 A 
ATOM     74  F   UNL A   1      46.121  28.147  23.949  1.00  0.00    -0.203 F 
ATOM     75  C   UNL A   1      48.287  27.223  23.937  1.00  0.00     0.198 A 
ATOM     76  C   UNL A   1      49.360  26.664  26.008  1.00  0.00     0.198 A 
ATOM     77  F   UNL A   1      48.234  27.002  28.045  1.00  0.00    -0.203 F 
ATOM     78  F   UNL A   1      48.288  27.245  22.597  1.00  0.00    -0.200 F 
ATOM     79  C   UNL A   1      49.381  26.716  24.622  1.00  0.00     0.200 A 
ATOM     80  F   UNL A   1      50.419  26.182  26.674  1.00  0.00    -0.200 F 
ATOM     81  F   UNL A   1      50.448  26.267  23.947  1.00  0.00    -0.200 F 
ENDBRANCH  47  71
BRANCH  59  82
ATOM     82  C   UNL A   1      45.175  33.598  29.042  1.00  0.00     0.064 A 
ATOM     83  C   UNL A   1      46.030  33.831  30.128  1.00  0.00     0.173 A 
ATOM     84  C   UNL A   1      45.039  34.611  28.080  1.00  0.00     0.173 A 
ATOM     85  F   UNL A   1      46.183  32.898  31.079  1.00  0.00    -0.203 F 
ATOM     86  C   UNL A   1      46.715  35.037  30.249  1.00  0.00     0.198 A 
ATOM     87  C   UNL A   1      45.746  35.804  28.190  1.00  0.00     0.198 A 
ATOM     88  F   UNL A   1      44.239  34.433  27.018  1.00  0.00    -0.203 F 
ATOM     89  F   UNL A   1      47.504  35.253  31.311  1.00  0.00    -0.200 F 
ATOM     90  C   UNL A   1      46.581  36.018  29.276  1.00  0.00     0.200 A 
ATOM     91  F   UNL A   1      45.626  36.743  27.242  1.00  0.00    -0.200 F 
ATOM     92  F   UNL A   1      47.256  37.171  29.387  1.00  0.00    -0.200 F 
ENDBRANCH  59  82
ENDBRANCH  33  34
ENDBRANCH  26  28
ENDBRANCH  25  26
ENDBRANCH  24  25
ENDBRANCH  23  24
ENDBRANCH   1  23
TORSDOF 16
ENDMDL
MODEL 2
REMARK VINA RESULT:     -11.9      4.484      8.459
REMARK SMILES Cc1ccc(C(=O)N2CCC(CC(=O)OCCOCCOC(=O)c3ccc(-c4c5nc(c(-c6c(F)c(F)c(F)c(F)c6F)c6ccc([nH]6)c(-c6c(F)c(F)c(F)c(F)c6F)c6nc(c(-c7c(F)c(F)c(F)c(F)c7F)c7ccc4[nH]7)C=C6)C=C5)cc3)CC2)cn1
REMARK SMILES IDX 18 1 17 2 16 3 15 4 13 5 14 6 12 7 11 8 6 9 7 10 8 11 9 12
REMARK SMILES IDX 88 13 10 14 87 15 5 16 1 17 2 18 3 19 90 20 4 21 89 22 19 23
REMARK SMILES IDX 20 24 21 25 22 26 23 27 24 28 25 29 86 30 26 31 85 32 27 33
REMARK SMILES IDX 28 34 29 35 79 36 30 37 84 38 78 39 80 40 31 41 83 42 77 43
REMARK SMILES IDX 76 44 32 46 64 47 44 48 63 49 45 50 48 51 62 52 81 53 46 54
REMARK SMILES IDX 47 55 61 57 82 58 49 59 33 60 34 61 42 62 35 63 36 64 40 65
REMARK SMILES IDX 43 66 37 67 38 68 41 69 39 70 65 71 66 72 74 73 67 74 68 75
REMARK SMILES IDX 72 76 75 77 69 78 70 79 73 80 71 81 50 82 51 83 59 84 52 85
REMARK SMILES IDX 53 86 57 87 60 88 54 89 55 90 58 91 56 92
REMARK H PARENT 80 45 48 56
REMARK Flexibility Score: inf
ROOT
ATOM      1  O   UNL A   1      41.045  20.123  25.990  1.00  0.00    -0.374 OA
ENDROOT
BRANCH   1   2
ATOM      2  C   UNL A   1      40.193  21.252  26.177  1.00  0.00     0.202 C 
BRANCH   2   3
ATOM      3  C   UNL A   1      38.787  21.119  25.586  1.00  0.00     0.261 C 
BRANCH   3   4
ATOM      4  O   UNL A   1      37.930  22.173  26.068  1.00  0.00    -0.463 OA
BRANCH   4   5
ATOM      5  C   UNL A   1      36.605  22.063  25.802  1.00  0.00     0.306 C 
ATOM      6  O   UNL A   1      36.069  21.073  25.320  1.00  0.00    -0.252 OA
BRANCH   5   7
ATOM      7  C   UNL A   1      35.839  23.336  26.113  1.00  0.00     0.126 C 
BRANCH   7   8
ATOM      8  C   UNL A   1      34.453  23.524  25.462  1.00  0.00     0.003 C 
ATOM      9  C   UNL A   1      31.471  26.281  25.474  1.00  0.00     0.255 C 
ATOM     10  O   UNL A   1      31.529  26.605  26.657  1.00  0.00    -0.269 OA
ATOM     11  N   UNL A   1      32.056  25.114  24.999  1.00  0.00    -0.339 N 
ATOM     12  C   UNL A   1      31.989  23.930  25.832  1.00  0.00     0.120 C 
ATOM     13  C   UNL A   1      33.093  25.122  23.975  1.00  0.00     0.120 C 
ATOM     14  C   UNL A   1      33.323  23.635  26.501  1.00  0.00     0.026 C 
ATOM     15  C   UNL A   1      34.465  24.798  24.580  1.00  0.00     0.026 C 
BRANCH   9  16
ATOM     16  C   UNL A   1      30.580  27.035  24.550  1.00  0.00     0.058 A 
ATOM     17  C   UNL A   1      27.997  29.733  22.503  1.00  0.00     0.066 C 
ATOM     18  C   UNL A   1      28.908  28.739  23.159  1.00  0.00     0.037 A 
ATOM     19  C   UNL A   1      28.460  27.462  23.479  1.00  0.00     0.024 A 
ATOM     20  N   UNL A   1      30.149  29.173  23.482  1.00  0.00    -0.261 NA
ATOM     21  C   UNL A   1      29.305  26.602  24.183  1.00  0.00     0.017 A 
ATOM     22  C   UNL A   1      30.951  28.319  24.172  1.00  0.00     0.125 A 
ENDBRANCH   9  16
ENDBRANCH   7   8
ENDBRANCH   5   7
ENDBRANCH   4   5
ENDBRANCH   3   4
ENDBRANCH   2   3
ENDBRANCH   1   2
BRANCH   1  23
ATOM     23  C   UNL A   1      42.378  20.229  26.484  1.00  0.00     0.202 C 
BRANCH  23  24
ATOM     24  C   UNL A   1      43.311  21.136  25.671  1.00  0.00     0.261 C 
BRANCH  24  25
ATOM     25  O   UNL A   1      43.528  22.403  26.320  1.00  0.00    -0.460 OA
BRANCH  25  26
ATOM     26  C   UNL A   1      43.290  23.487  25.547  1.00  0.00     0.338 C 
ATOM     27  O   UNL A   1      43.435  23.581  24.334  1.00  0.00    -0.246 OA
BRANCH  26  28
ATOM     28  C   UNL A   1      42.658  24.551  26.346  1.00  0.00     0.060 A 
ATOM     29  C   UNL A   1      43.247  25.822  26.326  1.00  0.00     0.016 A 
ATOM     30  C   UNL A   1      41.553  24.296  27.162  1.00  0.00     0.016 A 
ATOM     31  C   UNL A   1      42.767  26.832  27.158  1.00  0.00     0.010 A 
ATOM     32  C   UNL A   1      41.077  25.307  28.001  1.00  0.00     0.010 A 
ATOM     33  C   UNL A   1      41.704  26.567  28.030  1.00  0.00    -0.014 A 
BRANCH  33  34
ATOM     34  C   UNL A   1      41.353  27.534  29.099  1.00  0.00     0.031 A 
ATOM     35  C   UNL A   1      42.144  27.505  30.378  1.00  0.00     0.074 A 
ATOM     36  C   UNL A   1      40.353  28.418  28.943  1.00  0.00     0.049 A 
ATOM     37  N   UNL A   1      41.931  28.135  31.504  1.00  0.00    -0.248 NA
ATOM     38  C   UNL A   1      43.340  26.645  30.385  1.00  0.00     0.031 C 
ATOM     39  C   UNL A   1      39.563  28.596  27.727  1.00  0.00     0.029 A 
ATOM     40  N   UNL A   1      39.821  29.323  29.827  1.00  0.00    -0.354 N 
ATOM     41  C   UNL A   1      42.955  27.740  32.356  1.00  0.00     0.074 A 
ATOM     42  C   UNL A   1      43.779  26.800  31.626  1.00  0.00     0.031 C 
ATOM     43  C   UNL A   1      38.629  29.537  27.950  1.00  0.00     0.029 A 
ATOM     44  C   UNL A   1      38.726  29.992  29.336  1.00  0.00     0.049 A 
ATOM     45  H   UNL A   1      40.189  29.478  30.727  1.00  0.00     0.167 HD
ATOM     46  C   UNL A   1      43.189  28.131  33.631  1.00  0.00     0.037 A 
ATOM     47  C   UNL A   1      37.880  30.841  29.952  1.00  0.00     0.037 A 
ATOM     48  C   UNL A   1      42.367  29.063  34.353  1.00  0.00     0.049 A 
ATOM     49  C   UNL A   1      38.101  31.178  31.406  1.00  0.00     0.074 A 
ATOM     50  C   UNL A   1      42.499  29.500  35.660  1.00  0.00     0.029 A 
ATOM     51  N   UNL A   1      41.255  29.704  33.827  1.00  0.00    -0.354 N 
ATOM     52  N   UNL A   1      39.058  30.787  32.213  1.00  0.00    -0.248 NA
ATOM     53  C   UNL A   1      37.118  32.071  32.038  1.00  0.00     0.031 C 
ATOM     54  C   UNL A   1      41.447  30.379  35.935  1.00  0.00     0.029 A 
ATOM     55  C   UNL A   1      40.690  30.527  34.784  1.00  0.00     0.049 A 
ATOM     56  H   UNL A   1      40.919  29.589  32.908  1.00  0.00     0.167 HD
ATOM     57  C   UNL A   1      38.820  31.424  33.426  1.00  0.00     0.074 A 
ATOM     58  C   UNL A   1      37.626  32.223  33.253  1.00  0.00     0.031 C 
ATOM     59  C   UNL A   1      39.530  31.355  34.578  1.00  0.00     0.037 A 
BRANCH  46  60
ATOM     60  C   UNL A   1      44.371  27.537  34.336  1.00  0.00     0.064 A 
ATOM     61  C   UNL A   1      45.622  28.172  34.333  1.00  0.00     0.173 A 
ATOM     62  C   UNL A   1      44.241  26.345  35.065  1.00  0.00     0.173 A 
ATOM     63  F   UNL A   1      45.802  29.305  33.637  1.00  0.00    -0.203 F 
ATOM     64  C   UNL A   1      46.702  27.628  35.021  1.00  0.00     0.198 A 
ATOM     65  C   UNL A   1      45.316  25.820  35.776  1.00  0.00     0.198 A 
ATOM     66  F   UNL A   1      43.065  25.701  35.102  1.00  0.00    -0.203 F 
ATOM     67  F   UNL A   1      47.897  28.233  34.976  1.00  0.00    -0.200 F 
ATOM     68  C   UNL A   1      46.546  26.458  35.750  1.00  0.00     0.200 A 
ATOM     69  F   UNL A   1      45.160  24.695  36.489  1.00  0.00    -0.200 F 
ATOM     70  F   UNL A   1      47.584  25.943  36.423  1.00  0.00    -0.200 F 
ENDBRANCH  46  60
BRANCH  47  71
ATOM     71  C   UNL A   1      36.724  31.417  29.216  1.00  0.00     0.064 A 
ATOM     72  C   UNL A   1      36.688  32.778  28.881  1.00  0.00     0.173 A 
ATOM     73  C   UNL A   1      35.609  30.634  28.879  1.00  0.00     0.173 A 
ATOM     74  F   UNL A   1      37.717  33.574  29.208  1.00  0.00    -0.203 F 
ATOM     75  C   UNL A   1      35.572  33.339  28.263  1.00  0.00     0.198 A 
ATOM     76  C   UNL A   1      34.507  31.190  28.233  1.00  0.00     0.198 A 
ATOM     77  F   UNL A   1      35.588  29.328  29.181  1.00  0.00    -0.203 F 
ATOM     78  F   UNL A   1      35.542  34.655  28.008  1.00  0.00    -0.200 F 
ATOM     79  C   UNL A   1      34.485  32.545  27.936  1.00  0.00     0.200 A 
ATOM     80  F   UNL A   1      33.461  30.418  27.910  1.00  0.00    -0.200 F 
ATOM     81  F   UNL A   1      33.409  33.086  27.347  1.00  0.00    -0.200 F 
ENDBRANCH  47  71
BRANCH  59  82
ATOM     82  C   UNL A   1      39.099  32.228  35.719  1.00  0.00     0.064 A 
ATOM     83  C   UNL A   1      38.278  31.751  36.750  1.00  0.00     0.173 A 
ATOM     84  C   UNL A   1      39.586  33.541  35.818  1.00  0.00     0.173 A 
ATOM     85  F   UNL A   1      37.778  30.507  36.693  1.00  0.00    -0.203 F 
ATOM     86  C   UNL A   1      37.949  32.562  37.833  1.00  0.00     0.198 A 
ATOM     87  C   UNL A   1      39.278  34.339  36.916  1.00  0.00     0.198 A 
ATOM     88  F   UNL A   1      40.383  34.041  34.862  1.00  0.00    -0.203 F 
ATOM     89  F   UNL A   1      37.137  32.097  38.792  1.00  0.00    -0.200 F 
ATOM     90  C   UNL A   1      38.457  33.850  37.921  1.00  0.00     0.200 A 
ATOM     91  F   UNL A   1      39.782  35.577  37.005  1.00  0.00    -0.200 F 
ATOM     92  F   UNL A   1      38.153  34.622  38.973  1.00  0.00    -0.200 F 
ENDBRANCH  59  82
ENDBRANCH  33  34
ENDBRANCH  26  28
ENDBRANCH  25  26
ENDBRANCH  24  25
ENDBRANCH  23  24
ENDBRANCH   1  23
TORSDOF 16
ENDMDL
MODEL 3
REMARK VINA RESULT:     -11.8      1.629      3.160
REMARK SMILES Cc1ccc(C(=O)N2CCC(CC(=O)OCCOCCOC(=O)c3ccc(-c4c5nc(c(-c6c(F)c(F)c(F)c(F)c6F)c6ccc([nH]6)c(-c6c(F)c(F)c(F)c(F)c6F)c6nc(c(-c7c(F)c(F)c(F)c(F)c7F)c7ccc4[nH]7)C=C6)C=C5)cc3)CC2)cn1
REMARK SMILES IDX 18 1 17 2 16 3 15 4 13 5 14 6 12 7 11 8 6 9 7 10 8 11 9 12
REMARK SMILES IDX 88 13 10 14 87 15 5 16 1 17 2 18 3 19 90 20 4 21 89 22 19 23
REMARK SMILES IDX 20 24 21 25 22 26 23 27 24 28 25 29 86 30 26 31 85 32 27 33
REMARK SMILES IDX 28 34 29 35 79 36 30 37 84 38 78 39 80 40 31 41 83 42 77 43
REMARK SMILES IDX 76 44 32 46 64 47 44 48 63 49 45 50 48 51 62 52 81 53 46 54
REMARK SMILES IDX 47 55 61 57 82 58 49 59 33 60 34 61 42 62 35 63 36 64 40 65
REMARK SMILES IDX 43 66 37 67 38 68 41 69 39 70 65 71 66 72 74 73 67 74 68 75
REMARK SMILES IDX 72 76 75 77 69 78 70 79 73 80 71 81 50 82 51 83 59 84 52 85
REMARK SMILES IDX 53 86 57 87 60 88 54 89 55 90 58 91 56 92
REMARK H PARENT 80 45 48 56
REMARK Flexibility Score: inf
ROOT
ATOM      1  O   UNL A   1      35.348  21.731  25.386  1.00  0.00    -0.374 OA
ENDROOT
BRANCH   1   2
ATOM      2  C   UNL A   1      35.296  22.758  24.395  1.00  0.00     0.202 C 
BRANCH   2   3
ATOM      3  C   UNL A   1      33.911  23.033  23.806  1.00  0.00     0.261 C 
BRANCH   3   4
ATOM      4  O   UNL A   1      34.010  23.380  22.410  1.00  0.00    -0.463 OA
BRANCH   4   5
ATOM      5  C   UNL A   1      33.122  24.286  21.934  1.00  0.00     0.306 C 
ATOM      6  O   UNL A   1      33.108  24.716  20.788  1.00  0.00    -0.252 OA
BRANCH   5   7
ATOM      7  C   UNL A   1      32.157  24.773  22.999  1.00  0.00     0.126 C 
BRANCH   7   8
ATOM      8  C   UNL A   1      32.218  26.260  23.407  1.00  0.00     0.003 C 
ATOM      9  C   UNL A   1      32.891  28.432  26.772  1.00  0.00     0.255 C 
ATOM     10  O   UNL A   1      32.314  27.704  27.575  1.00  0.00    -0.269 OA
ATOM     11  N   UNL A   1      32.681  28.331  25.403  1.00  0.00    -0.339 N 
ATOM     12  C   UNL A   1      31.335  28.063  24.937  1.00  0.00     0.120 C 
ATOM     13  C   UNL A   1      33.758  28.025  24.469  1.00  0.00     0.120 C 
ATOM     14  C   UNL A   1      31.174  26.622  24.478  1.00  0.00     0.026 C 
ATOM     15  C   UNL A   1      33.635  26.591  23.941  1.00  0.00     0.026 C 
BRANCH   9  16
ATOM     16  C   UNL A   1      33.678  29.593  27.269  1.00  0.00     0.058 A 
ATOM     17  C   UNL A   1      35.763  33.241  27.971  1.00  0.00     0.066 C 
ATOM     18  C   UNL A   1      35.046  31.936  27.797  1.00  0.00     0.037 A 
ATOM     19  C   UNL A   1      35.745  30.733  27.772  1.00  0.00     0.024 A 
ATOM     20  N   UNL A   1      33.708  31.999  27.599  1.00  0.00    -0.261 NA
ATOM     21  C   UNL A   1      35.053  29.551  27.503  1.00  0.00     0.017 A 
ATOM     22  C   UNL A   1      33.059  30.835  27.334  1.00  0.00     0.125 A 
ENDBRANCH   9  16
ENDBRANCH   7   8
ENDBRANCH   5   7
ENDBRANCH   4   5
ENDBRANCH   3   4
ENDBRANCH   2   3
ENDBRANCH   1   2
BRANCH   1  23
ATOM     23  C   UNL A   1      35.901  20.478  24.991  1.00  0.00     0.202 C 
BRANCH  23  24
ATOM     24  C   UNL A   1      37.432  20.429  24.916  1.00  0.00     0.261 C 
BRANCH  24  25
ATOM     25  O   UNL A   1      38.039  21.544  25.596  1.00  0.00    -0.460 OA
BRANCH  25  26
ATOM     26  C   UNL A   1      39.245  21.285  26.149  1.00  0.00     0.338 C 
ATOM     27  O   UNL A   1      39.892  20.246  26.071  1.00  0.00    -0.246 OA
BRANCH  26  28
ATOM     28  C   UNL A   1      39.796  22.507  26.760  1.00  0.00     0.060 A 
ATOM     29  C   UNL A   1      39.335  23.742  26.285  1.00  0.00     0.016 A 
ATOM     30  C   UNL A   1      40.803  22.453  27.727  1.00  0.00     0.016 A 
ATOM     31  C   UNL A   1      39.910  24.928  26.737  1.00  0.00     0.010 A 
ATOM     32  C   UNL A   1      41.384  23.642  28.174  1.00  0.00     0.010 A 
ATOM     33  C   UNL A   1      40.967  24.882  27.655  1.00  0.00    -0.014 A 
BRANCH  33  34
ATOM     34  C   UNL A   1      41.761  26.101  27.945  1.00  0.00     0.031 A 
ATOM     35  C   UNL A   1      41.130  27.184  28.777  1.00  0.00     0.074 A 
ATOM     36  C   UNL A   1      43.014  26.248  27.480  1.00  0.00     0.049 A 
ATOM     37  N   UNL A   1      41.558  28.393  29.033  1.00  0.00    -0.248 NA
ATOM     38  C   UNL A   1      39.840  26.855  29.405  1.00  0.00     0.031 C 
ATOM     39  C   UNL A   1      43.760  25.243  26.728  1.00  0.00     0.029 A 
ATOM     40  N   UNL A   1      43.871  27.317  27.561  1.00  0.00    -0.354 N 
ATOM     41  C   UNL A   1      40.586  28.973  29.840  1.00  0.00     0.074 A 
ATOM     42  C   UNL A   1      39.537  27.992  30.015  1.00  0.00     0.031 C 
ATOM     43  C   UNL A   1      44.959  25.753  26.394  1.00  0.00     0.029 A 
ATOM     44  C   UNL A   1      45.043  27.134  26.869  1.00  0.00     0.049 A 
ATOM     45  H   UNL A   1      43.665  28.137  28.066  1.00  0.00     0.167 HD
ATOM     46  C   UNL A   1      40.575  30.210  30.388  1.00  0.00     0.037 A 
ATOM     47  C   UNL A   1      46.046  27.998  26.616  1.00  0.00     0.037 A 
ATOM     48  C   UNL A   1      41.618  31.183  30.209  1.00  0.00     0.049 A 
ATOM     49  C   UNL A   1      45.958  29.407  27.149  1.00  0.00     0.074 A 
ATOM     50  C   UNL A   1      41.686  32.477  30.696  1.00  0.00     0.029 A 
ATOM     51  N   UNL A   1      42.780  30.965  29.485  1.00  0.00    -0.354 N 
ATOM     52  N   UNL A   1      45.030  29.956  27.894  1.00  0.00    -0.248 NA
ATOM     53  C   UNL A   1      47.059  30.319  26.801  1.00  0.00     0.031 C 
ATOM     54  C   UNL A   1      42.874  33.054  30.236  1.00  0.00     0.029 A 
ATOM     55  C   UNL A   1      43.568  32.102  29.507  1.00  0.00     0.049 A 
ATOM     56  H   UNL A   1      43.011  30.125  29.024  1.00  0.00     0.167 HD
ATOM     57  C   UNL A   1      45.457  31.256  28.143  1.00  0.00     0.074 A 
ATOM     58  C   UNL A   1      46.726  31.416  27.466  1.00  0.00     0.031 C 
ATOM     59  C   UNL A   1      44.853  32.227  28.869  1.00  0.00     0.037 A 
BRANCH  46  60
ATOM     60  C   UNL A   1      39.386  30.593  31.219  1.00  0.00     0.064 A 
ATOM     61  C   UNL A   1      39.300  30.250  32.577  1.00  0.00     0.173 A 
ATOM     62  C   UNL A   1      38.346  31.354  30.665  1.00  0.00     0.173 A 
ATOM     63  F   UNL A   1      40.262  29.510  33.148  1.00  0.00    -0.203 F 
ATOM     64  C   UNL A   1      38.208  30.643  33.345  1.00  0.00     0.198 A 
ATOM     65  C   UNL A   1      37.270  31.769  31.444  1.00  0.00     0.198 A 
ATOM     66  F   UNL A   1      38.383  31.710  29.372  1.00  0.00    -0.203 F 
ATOM     67  F   UNL A   1      38.129  30.275  34.631  1.00  0.00    -0.200 F 
ATOM     68  C   UNL A   1      37.198  31.409  32.780  1.00  0.00     0.200 A 
ATOM     69  F   UNL A   1      36.301  32.519  30.900  1.00  0.00    -0.200 F 
ATOM     70  F   UNL A   1      36.155  31.798  33.526  1.00  0.00    -0.200 F 
ENDBRANCH  46  60
BRANCH  47  71
ATOM     71  C   UNL A   1      47.212  27.578  25.796  1.00  0.00     0.064 A 
ATOM     72  C   UNL A   1      48.388  27.109  26.401  1.00  0.00     0.173 A 
ATOM     73  C   UNL A   1      47.199  27.685  24.396  1.00  0.00     0.173 A 
ATOM     74  F   UNL A   1      48.461  27.016  27.736  1.00  0.00    -0.203 F 
ATOM     75  C   UNL A   1      49.511  26.791  25.641  1.00  0.00     0.198 A 
ATOM     76  C   UNL A   1      48.313  27.336  23.636  1.00  0.00     0.198 A 
ATOM     77  F   UNL A   1      46.103  28.133  23.768  1.00  0.00    -0.203 F 
ATOM     78  F   UNL A   1      50.641  26.402  26.250  1.00  0.00    -0.200 F 
ATOM     79  C   UNL A   1      49.472  26.901  24.260  1.00  0.00     0.200 A 
ATOM     80  F   UNL A   1      48.268  27.436  22.301  1.00  0.00    -0.200 F 
ATOM     81  F   UNL A   1      50.556  26.600  23.530  1.00  0.00    -0.200 F 
ENDBRANCH  47  71
BRANCH  59  82
ATOM     82  C   UNL A   1      45.587  33.522  29.055  1.00  0.00     0.064 A 
ATOM     83  C   UNL A   1      45.383  34.619  28.206  1.00  0.00     0.173 A 
ATOM     84  C   UNL A   1      46.449  33.686  30.150  1.00  0.00     0.173 A 
ATOM     85  F   UNL A   1      44.578  34.505  27.139  1.00  0.00    -0.203 F 
ATOM     86  C   UNL A   1      46.026  35.831  28.442  1.00  0.00     0.198 A 
ATOM     87  C   UNL A   1      47.068  34.908  30.398  1.00  0.00     0.198 A 
ATOM     88  F   UNL A   1      46.671  32.669  30.996  1.00  0.00    -0.203 F 
ATOM     89  F   UNL A   1      45.841  36.858  27.601  1.00  0.00    -0.200 F 
ATOM     90  C   UNL A   1      46.859  35.978  29.542  1.00  0.00     0.200 A 
ATOM     91  F   UNL A   1      47.861  35.052  31.469  1.00  0.00    -0.200 F 
ATOM     92  F   UNL A   1      47.462  37.152  29.775  1.00  0.00    -0.200 F 
ENDBRANCH  59  82
ENDBRANCH  33  34
ENDBRANCH  26  28
ENDBRANCH  25  26
ENDBRANCH  24  25
ENDBRANCH  23  24
ENDBRANCH   1  23
TORSDOF 16
ENDMDL
