MODEL 1
REMARK VINA RESULT:     -12.0      0.000      0.000
REMARK SMILES COc1cc(S(=O)(=O)Nc2cccc(C(=O)OCCOCCOC(=O)c3ccc(-c4c5nc(c(-c6c(F)c(F)c(F)c(F)c6F)c6ccc([nH]6)c(-c6c(F)c(F)c(F)c(F)c6F)c6nc(c(-c7c(F)c(F)c(F)c(F)c7F)c7ccc4[nH]7)C=C6)C=C5)cc3)c2)c(OC)cc1C
REMARK SMILES IDX 19 1 18 2 17 3 15 4 16 5 14 6 10 7 11 8 89 9 12 10 13 11
REMARK SMILES IDX 9 12 6 14 7 15 8 16 5 17 3 18 4 19 94 20 93 21 95 22 90 23
REMARK SMILES IDX 2 24 1 25 91 26 92 27 20 28 21 29 22 30 23 31 24 32 25 33
REMARK SMILES IDX 26 34 27 35 88 36 28 37 87 38 29 39 30 40 31 41 81 42 32 43
REMARK SMILES IDX 86 44 80 45 82 46 33 47 85 48 79 49 78 50 34 52 66 53 46 54
REMARK SMILES IDX 65 55 47 56 50 57 64 58 83 59 48 60 49 61 63 63 84 64 51 65
REMARK SMILES IDX 35 66 36 67 44 68 37 69 38 70 42 71 45 72 39 73 40 74 43 75
REMARK SMILES IDX 41 76 67 77 68 78 76 79 69 80 70 81 74 82 77 83 71 84 72 85
REMARK SMILES IDX 75 86 73 87 52 88 53 89 61 90 54 91 55 92 59 93 62 94 56 95
REMARK SMILES IDX 57 96 60 97 58 98
REMARK H PARENT 9 13 82 51 50 62
REMARK Flexibility Score: inf
ROOT
ATOM      1  C   UNL A   1      42.242  18.859  26.599  1.00  0.00     0.202 C 
ENDROOT
BRANCH   1   2
ATOM      2  C   UNL A   1      41.783  20.168  26.008  1.00  0.00     0.261 C 
BRANCH   2   3
ATOM      3  O   UNL A   1      40.543  20.612  26.579  1.00  0.00    -0.460 OA
BRANCH   3   4
ATOM      4  C   UNL A   1      39.410  20.276  25.905  1.00  0.00     0.338 C 
ATOM      5  O   UNL A   1      39.251  19.285  25.219  1.00  0.00    -0.246 OA
BRANCH   4   6
ATOM      6  C   UNL A   1      38.486  21.429  25.964  1.00  0.00     0.062 A 
ATOM      7  C   UNL A   1      36.467  22.335  25.052  1.00  0.00     0.050 A 
ATOM      8  C   UNL A   1      36.902  23.627  25.351  1.00  0.00     0.027 A 
ATOM      9  C   UNL A   1      37.207  21.229  25.459  1.00  0.00     0.042 A 
ATOM     10  C   UNL A   1      38.133  23.817  25.983  1.00  0.00     0.003 A 
ATOM     11  C   UNL A   1      38.936  22.719  26.273  1.00  0.00     0.016 A 
BRANCH   7  12
ATOM     12  N   UNL A   1      35.366  22.038  24.217  1.00  0.00    -0.279 N 
ATOM     13  H   UNL A   1      35.207  21.091  23.998  1.00  0.00     0.180 HD
BRANCH  12  14
ATOM     14  S   UNL A   1      34.317  23.158  23.569  1.00  0.00     0.265 S 
ATOM     15  O   UNL A   1      33.192  22.419  23.025  1.00  0.00    -0.201 OA
ATOM     16  O   UNL A   1      35.153  23.957  22.693  1.00  0.00    -0.201 OA
BRANCH  14  17
ATOM     17  C   UNL A   1      33.624  24.299  24.751  1.00  0.00     0.133 A 
ATOM     18  C   UNL A   1      33.288  26.686  25.156  1.00  0.00     0.123 A 
ATOM     19  C   UNL A   1      33.869  25.649  24.428  1.00  0.00     0.073 A 
ATOM     20  C   UNL A   1      32.347  26.396  26.140  1.00  0.00    -0.005 A 
ATOM     21  C   UNL A   1      32.159  25.055  26.499  1.00  0.00     0.055 A 
ATOM     22  C   UNL A   1      31.540  27.437  26.858  1.00  0.00     0.048 C 
ATOM     23  C   UNL A   1      32.842  24.004  25.869  1.00  0.00     0.139 A 
BRANCH  18  24
ATOM     24  O   UNL A   1      33.632  27.954  24.776  1.00  0.00    -0.496 OA
ATOM     25  C   UNL A   1      33.790  28.084  23.362  1.00  0.00     0.278 C 
ENDBRANCH  18  24
BRANCH  23  26
ATOM     26  O   UNL A   1      32.804  22.736  26.344  1.00  0.00    -0.495 OA
ATOM     27  C   UNL A   1      33.202  22.467  27.683  1.00  0.00     0.278 C 
ENDBRANCH  23  26
ENDBRANCH  14  17
ENDBRANCH  12  14
ENDBRANCH   7  12
ENDBRANCH   4   6
ENDBRANCH   3   4
ENDBRANCH   2   3
ENDBRANCH   1   2
BRANCH   1  28
ATOM     28  O   UNL A   1      43.000  18.212  25.590  1.00  0.00    -0.374 OA
BRANCH  28  29
ATOM     29  C   UNL A   1      44.371  18.552  25.520  1.00  0.00     0.202 C 
BRANCH  29  30
ATOM     30  C   UNL A   1      44.810  18.860  24.086  1.00  0.00     0.261 C 
BRANCH  30  31
ATOM     31  O   UNL A   1      44.703  20.279  23.838  1.00  0.00    -0.460 OA
BRANCH  31  32
ATOM     32  C   UNL A   1      45.495  21.078  24.606  1.00  0.00     0.338 C 
ATOM     33  O   UNL A   1      46.608  20.779  25.018  1.00  0.00    -0.246 OA
BRANCH  32  34
ATOM     34  C   UNL A   1      44.706  22.234  25.125  1.00  0.00     0.060 A 
ATOM     35  C   UNL A   1      44.361  23.294  24.263  1.00  0.00     0.016 A 
ATOM     36  C   UNL A   1      44.631  22.407  26.505  1.00  0.00     0.016 A 
ATOM     37  C   UNL A   1      44.100  24.568  24.786  1.00  0.00     0.010 A 
ATOM     38  C   UNL A   1      44.517  23.687  27.000  1.00  0.00     0.010 A 
ATOM     39  C   UNL A   1      44.276  24.777  26.150  1.00  0.00    -0.014 A 
BRANCH  39  40
ATOM     40  C   UNL A   1      44.245  26.063  26.843  1.00  0.00     0.031 A 
ATOM     41  C   UNL A   1      42.929  26.736  26.955  1.00  0.00     0.074 A 
ATOM     42  C   UNL A   1      45.285  26.476  27.610  1.00  0.00     0.049 A 
ATOM     43  N   UNL A   1      42.761  27.889  27.496  1.00  0.00    -0.248 NA
ATOM     44  C   UNL A   1      41.678  26.187  26.428  1.00  0.00     0.031 C 
ATOM     45  C   UNL A   1      45.240  27.392  28.750  1.00  0.00     0.029 A 
ATOM     46  N   UNL A   1      46.656  26.180  27.513  1.00  0.00    -0.354 N 
ATOM     47  C   UNL A   1      41.418  28.047  27.731  1.00  0.00     0.074 A 
ATOM     48  C   UNL A   1      40.783  27.057  26.906  1.00  0.00     0.031 C 
ATOM     49  C   UNL A   1      46.476  27.841  29.016  1.00  0.00     0.029 A 
ATOM     50  C   UNL A   1      47.348  27.309  27.988  1.00  0.00     0.049 A 
ATOM     51  H   UNL A   1      47.054  25.343  27.177  1.00  0.00     0.167 HD
ATOM     52  C   UNL A   1      41.049  28.915  28.714  1.00  0.00     0.037 A 
ATOM     53  C   UNL A   1      48.185  28.031  27.196  1.00  0.00     0.037 A 
ATOM     54  C   UNL A   1      42.211  29.706  29.152  1.00  0.00     0.049 A 
ATOM     55  C   UNL A   1      47.669  29.437  27.132  1.00  0.00     0.074 A 
ATOM     56  C   UNL A   1      42.963  29.753  30.313  1.00  0.00     0.029 A 
ATOM     57  N   UNL A   1      42.945  30.404  28.188  1.00  0.00    -0.354 N 
ATOM     58  N   UNL A   1      46.395  29.715  27.227  1.00  0.00    -0.248 NA
ATOM     59  C   UNL A   1      48.520  30.619  27.159  1.00  0.00     0.031 C 
ATOM     60  C   UNL A   1      44.191  30.418  30.008  1.00  0.00     0.029 A 
ATOM     61  C   UNL A   1      44.172  30.808  28.676  1.00  0.00     0.049 A 
ATOM     62  H   UNL A   1      42.627  30.585  27.274  1.00  0.00     0.167 HD
ATOM     63  C   UNL A   1      46.259  31.045  27.488  1.00  0.00     0.074 A 
ATOM     64  C   UNL A   1      47.606  31.582  27.371  1.00  0.00     0.031 C 
ATOM     65  C   UNL A   1      45.077  31.614  27.858  1.00  0.00     0.037 A 
BRANCH  52  66
ATOM     66  C   UNL A   1      39.694  28.958  29.398  1.00  0.00     0.064 A 
ATOM     67  C   UNL A   1      38.581  29.517  28.732  1.00  0.00     0.173 A 
ATOM     68  C   UNL A   1      39.426  28.552  30.726  1.00  0.00     0.173 A 
ATOM     69  F   UNL A   1      38.685  29.977  27.476  1.00  0.00    -0.203 F 
ATOM     70  C   UNL A   1      37.321  29.641  29.332  1.00  0.00     0.198 A 
ATOM     71  C   UNL A   1      38.154  28.627  31.306  1.00  0.00     0.198 A 
ATOM     72  F   UNL A   1      40.382  28.117  31.551  1.00  0.00    -0.203 F 
ATOM     73  F   UNL A   1      36.317  30.221  28.658  1.00  0.00    -0.200 F 
ATOM     74  C   UNL A   1      37.102  29.180  30.613  1.00  0.00     0.200 A 
ATOM     75  F   UNL A   1      37.969  28.180  32.558  1.00  0.00    -0.200 F 
ATOM     76  F   UNL A   1      35.894  29.282  31.182  1.00  0.00    -0.200 F 
ENDBRANCH  52  66
BRANCH  53  77
ATOM     77  C   UNL A   1      48.825  27.203  26.140  1.00  0.00     0.064 A 
ATOM     78  C   UNL A   1      48.301  27.326  24.835  1.00  0.00     0.173 A 
ATOM     79  C   UNL A   1      50.146  26.756  26.262  1.00  0.00     0.173 A 
ATOM     80  F   UNL A   1      47.047  27.774  24.655  1.00  0.00    -0.203 F 
ATOM     81  C   UNL A   1      49.105  27.153  23.709  1.00  0.00     0.198 A 
ATOM     82  C   UNL A   1      50.952  26.593  25.129  1.00  0.00     0.198 A 
ATOM     83  F   UNL A   1      50.706  26.620  27.472  1.00  0.00    -0.203 F 
ATOM     84  F   UNL A   1      48.622  27.440  22.490  1.00  0.00    -0.200 F 
ATOM     85  C   UNL A   1      50.444  26.836  23.861  1.00  0.00     0.200 A 
ATOM     86  F   UNL A   1      52.255  26.310  25.270  1.00  0.00    -0.200 F 
ATOM     87  F   UNL A   1      51.257  26.842  22.794  1.00  0.00    -0.200 F 
ENDBRANCH  53  77
BRANCH  65  88
ATOM     88  C   UNL A   1      44.711  33.033  27.512  1.00  0.00     0.064 A 
ATOM     89  C   UNL A   1      44.031  33.391  26.333  1.00  0.00     0.173 A 
ATOM     90  C   UNL A   1      44.851  34.066  28.468  1.00  0.00     0.173 A 
ATOM     91  F   UNL A   1      43.704  32.486  25.401  1.00  0.00    -0.203 F 
ATOM     92  C   UNL A   1      43.598  34.692  26.095  1.00  0.00     0.198 A 
ATOM     93  C   UNL A   1      44.345  35.345  28.259  1.00  0.00     0.198 A 
ATOM     94  F   UNL A   1      45.436  33.861  29.656  1.00  0.00    -0.203 F 
ATOM     95  F   UNL A   1      43.005  34.986  24.929  1.00  0.00    -0.200 F 
ATOM     96  C   UNL A   1      43.740  35.666  27.063  1.00  0.00     0.200 A 
ATOM     97  F   UNL A   1      44.425  36.258  29.238  1.00  0.00    -0.200 F 
ATOM     98  F   UNL A   1      43.271  36.901  26.852  1.00  0.00    -0.200 F 
ENDBRANCH  65  88
ENDBRANCH  39  40
ENDBRANCH  32  34
ENDBRANCH  31  32
ENDBRANCH  30  31
ENDBRANCH  29  30
ENDBRANCH  28  29
ENDBRANCH   1  28
TORSDOF 19
ENDMDL
MODEL 2
REMARK VINA RESULT:     -11.7      3.902     10.033
REMARK SMILES COc1cc(S(=O)(=O)Nc2cccc(C(=O)OCCOCCOC(=O)c3ccc(-c4c5nc(c(-c6c(F)c(F)c(F)c(F)c6F)c6ccc([nH]6)c(-c6c(F)c(F)c(F)c(F)c6F)c6nc(c(-c7c(F)c(F)c(F)c(F)c7F)c7ccc4[nH]7)C=C6)C=C5)cc3)c2)c(OC)cc1C
REMARK SMILES IDX 19 1 18 2 17 3 15 4 16 5 14 6 10 7 11 8 89 9 12 10 13 11
REMARK SMILES IDX 9 12 6 14 7 15 8 16 5 17 3 18 4 19 94 20 93 21 95 22 90 23
REMARK SMILES IDX 2 24 1 25 91 26 92 27 20 28 21 29 22 30 23 31 24 32 25 33
REMARK SMILES IDX 26 34 27 35 88 36 28 37 87 38 29 39 30 40 31 41 81 42 32 43
REMARK SMILES IDX 86 44 80 45 82 46 33 47 85 48 79 49 78 50 34 52 66 53 46 54
REMARK SMILES IDX 65 55 47 56 50 57 64 58 83 59 48 60 49 61 63 63 84 64 51 65
REMARK SMILES IDX 35 66 36 67 44 68 37 69 38 70 42 71 45 72 39 73 40 74 43 75
REMARK SMILES IDX 41 76 67 77 68 78 76 79 69 80 70 81 74 82 77 83 71 84 72 85
REMARK SMILES IDX 75 86 73 87 52 88 53 89 61 90 54 91 55 92 59 93 62 94 56 95
REMARK SMILES IDX 57 96 60 97 58 98
REMARK H PARENT 9 13 82 51 50 62
REMARK Flexibility Score: inf
ROOT
ATOM      1  C   UNL A   1      32.298  27.691  26.364  1.00  0.00     0.202 C 
ENDROOT
BRANCH   1   2
ATOM      2  C   UNL A   1      31.060  26.844  26.205  1.00  0.00     0.261 C 
BRANCH   2   3
ATOM      3  O   UNL A   1      31.310  25.665  25.426  1.00  0.00    -0.460 OA
BRANCH   3   4
ATOM      4  C   UNL A   1      30.588  25.530  24.281  1.00  0.00     0.338 C 
ATOM      5  O   UNL A   1      29.424  25.844  24.126  1.00  0.00    -0.246 OA
BRANCH   4   6
ATOM      6  C   UNL A   1      31.389  24.731  23.329  1.00  0.00     0.062 A 
ATOM      7  C   UNL A   1      32.203  22.529  22.861  1.00  0.00     0.050 A 
ATOM      8  C   UNL A   1      33.278  23.069  22.151  1.00  0.00     0.027 A 
ATOM      9  C   UNL A   1      31.197  23.355  23.354  1.00  0.00     0.042 A 
ATOM     10  C   UNL A   1      33.394  24.454  22.013  1.00  0.00     0.003 A 
ATOM     11  C   UNL A   1      32.460  25.289  22.618  1.00  0.00     0.016 A 
BRANCH   7  12
ATOM     12  N   UNL A   1      32.111  21.177  23.261  1.00  0.00    -0.279 N 
ATOM     13  H   UNL A   1      31.489  20.600  22.762  1.00  0.00     0.180 HD
BRANCH  12  14
ATOM     14  S   UNL A   1      32.966  20.480  24.509  1.00  0.00     0.265 S 
ATOM     15  O   UNL A   1      33.608  19.295  23.971  1.00  0.00    -0.201 OA
ATOM     16  O   UNL A   1      31.991  20.356  25.576  1.00  0.00    -0.201 OA
BRANCH  14  17
ATOM     17  C   UNL A   1      34.280  21.490  25.167  1.00  0.00     0.133 A 
ATOM     18  C   UNL A   1      36.716  21.641  25.292  1.00  0.00     0.123 A 
ATOM     19  C   UNL A   1      35.559  20.933  24.971  1.00  0.00     0.073 A 
ATOM     20  C   UNL A   1      36.622  22.971  25.691  1.00  0.00    -0.005 A 
ATOM     21  C   UNL A   1      35.349  23.496  25.945  1.00  0.00     0.055 A 
ATOM     22  C   UNL A   1      37.807  23.870  25.891  1.00  0.00     0.048 C 
ATOM     23  C   UNL A   1      34.175  22.749  25.761  1.00  0.00     0.139 A 
BRANCH  18  24
ATOM     24  O   UNL A   1      37.898  20.982  25.098  1.00  0.00    -0.496 OA
ATOM     25  C   UNL A   1      37.718  19.589  24.837  1.00  0.00     0.278 C 
ENDBRANCH  18  24
BRANCH  23  26
ATOM     26  O   UNL A   1      32.968  23.191  26.187  1.00  0.00    -0.495 OA
ATOM     27  C   UNL A   1      32.509  22.853  27.491  1.00  0.00     0.278 C 
ENDBRANCH  23  26
ENDBRANCH  14  17
ENDBRANCH  12  14
ENDBRANCH   7  12
ENDBRANCH   4   6
ENDBRANCH   3   4
ENDBRANCH   2   3
ENDBRANCH   1   2
BRANCH   1  28
ATOM     28  O   UNL A   1      32.028  28.917  25.703  1.00  0.00    -0.374 OA
BRANCH  28  29
ATOM     29  C   UNL A   1      32.435  30.094  26.374  1.00  0.00     0.202 C 
BRANCH  29  30
ATOM     30  C   UNL A   1      33.926  30.067  26.719  1.00  0.00     0.261 C 
BRANCH  30  31
ATOM     31  O   UNL A   1      34.177  30.918  27.860  1.00  0.00    -0.460 OA
BRANCH  31  32
ATOM     32  C   UNL A   1      35.450  31.386  27.983  1.00  0.00     0.338 C 
ATOM     33  O   UNL A   1      35.821  32.508  27.668  1.00  0.00    -0.246 OA
BRANCH  32  34
ATOM     34  C   UNL A   1      36.384  30.258  28.269  1.00  0.00     0.060 A 
ATOM     35  C   UNL A   1      36.432  29.693  29.559  1.00  0.00     0.016 A 
ATOM     36  C   UNL A   1      37.420  30.023  27.368  1.00  0.00     0.016 A 
ATOM     37  C   UNL A   1      37.590  29.035  29.995  1.00  0.00     0.010 A 
ATOM     38  C   UNL A   1      38.601  29.505  27.849  1.00  0.00     0.010 A 
ATOM     39  C   UNL A   1      38.706  29.030  29.165  1.00  0.00    -0.014 A 
BRANCH  39  40
ATOM     40  C   UNL A   1      40.049  28.573  29.517  1.00  0.00     0.031 A 
ATOM     41  C   UNL A   1      40.417  27.194  29.117  1.00  0.00     0.074 A 
ATOM     42  C   UNL A   1      41.013  29.446  29.904  1.00  0.00     0.049 A 
ATOM     43  N   UNL A   1      41.543  26.645  29.399  1.00  0.00    -0.248 NA
ATOM     44  C   UNL A   1      39.527  26.284  28.391  1.00  0.00     0.031 C 
ATOM     45  C   UNL A   1      42.461  29.288  29.770  1.00  0.00     0.029 A 
ATOM     46  N   UNL A   1      40.901  30.689  30.551  1.00  0.00    -0.354 N 
ATOM     47  C   UNL A   1      41.676  25.533  28.607  1.00  0.00     0.074 A 
ATOM     48  C   UNL A   1      40.346  25.259  28.135  1.00  0.00     0.031 C 
ATOM     49  C   UNL A   1      43.085  30.160  30.578  1.00  0.00     0.029 A 
ATOM     50  C   UNL A   1      42.057  30.840  31.339  1.00  0.00     0.049 A 
ATOM     51  H   UNL A   1      40.157  31.330  30.468  1.00  0.00     0.167 HD
ATOM     52  C   UNL A   1      42.938  25.088  28.353  1.00  0.00     0.037 A 
ATOM     53  C   UNL A   1      42.001  30.943  32.694  1.00  0.00     0.037 A 
ATOM     54  C   UNL A   1      43.903  25.780  29.223  1.00  0.00     0.049 A 
ATOM     55  C   UNL A   1      42.787  29.809  33.281  1.00  0.00     0.074 A 
ATOM     56  C   UNL A   1      44.904  26.710  29.005  1.00  0.00     0.029 A 
ATOM     57  N   UNL A   1      43.688  25.760  30.605  1.00  0.00    -0.354 N 
ATOM     58  N   UNL A   1      42.895  28.654  32.678  1.00  0.00    -0.248 NA
ATOM     59  C   UNL A   1      43.650  29.935  34.447  1.00  0.00     0.031 C 
ATOM     60  C   UNL A   1      45.227  27.304  30.265  1.00  0.00     0.029 A 
ATOM     61  C   UNL A   1      44.453  26.710  31.253  1.00  0.00     0.049 A 
ATOM     62  H   UNL A   1      43.069  25.145  31.060  1.00  0.00     0.167 HD
ATOM     63  C   UNL A   1      43.924  27.964  33.245  1.00  0.00     0.074 A 
ATOM     64  C   UNL A   1      44.323  28.772  34.387  1.00  0.00     0.031 C 
ATOM     65  C   UNL A   1      44.437  26.820  32.710  1.00  0.00     0.037 A 
BRANCH  52  66
ATOM     66  C   UNL A   1      43.340  24.152  27.225  1.00  0.00     0.064 A 
ATOM     67  C   UNL A   1      42.905  22.808  27.232  1.00  0.00     0.173 A 
ATOM     68  C   UNL A   1      44.210  24.471  26.157  1.00  0.00     0.173 A 
ATOM     69  F   UNL A   1      42.099  22.345  28.199  1.00  0.00    -0.203 F 
ATOM     70  C   UNL A   1      43.291  21.881  26.255  1.00  0.00     0.198 A 
ATOM     71  C   UNL A   1      44.553  23.559  25.153  1.00  0.00     0.198 A 
ATOM     72  F   UNL A   1      44.820  25.655  26.058  1.00  0.00    -0.203 F 
ATOM     73  F   UNL A   1      42.877  20.609  26.343  1.00  0.00    -0.200 F 
ATOM     74  C   UNL A   1      44.101  22.260  25.205  1.00  0.00     0.200 A 
ATOM     75  F   UNL A   1      45.350  23.950  24.147  1.00  0.00    -0.200 F 
ATOM     76  F   UNL A   1      44.458  21.380  24.260  1.00  0.00    -0.200 F 
ENDBRANCH  52  66
BRANCH  53  77
ATOM     77  C   UNL A   1      40.738  31.569  33.165  1.00  0.00     0.064 A 
ATOM     78  C   UNL A   1      40.646  32.974  33.051  1.00  0.00     0.173 A 
ATOM     79  C   UNL A   1      39.537  30.849  33.212  1.00  0.00     0.173 A 
ATOM     80  F   UNL A   1      41.765  33.714  32.977  1.00  0.00    -0.203 F 
ATOM     81  C   UNL A   1      39.422  33.609  32.843  1.00  0.00     0.198 A 
ATOM     82  C   UNL A   1      38.312  31.490  32.994  1.00  0.00     0.198 A 
ATOM     83  F   UNL A   1      39.553  29.514  33.317  1.00  0.00    -0.203 F 
ATOM     84  F   UNL A   1      39.387  34.922  32.571  1.00  0.00    -0.200 F 
ATOM     85  C   UNL A   1      38.262  32.858  32.765  1.00  0.00     0.200 A 
ATOM     86  F   UNL A   1      37.188  30.767  32.892  1.00  0.00    -0.200 F 
ATOM     87  F   UNL A   1      37.113  33.441  32.393  1.00  0.00    -0.200 F 
ENDBRANCH  53  77
BRANCH  65  88
ATOM     88  C   UNL A   1      45.033  25.722  33.550  1.00  0.00     0.064 A 
ATOM     89  C   UNL A   1      44.259  24.821  34.307  1.00  0.00     0.173 A 
ATOM     90  C   UNL A   1      46.408  25.406  33.455  1.00  0.00     0.173 A 
ATOM     91  F   UNL A   1      42.925  24.914  34.371  1.00  0.00    -0.203 F 
ATOM     92  C   UNL A   1      44.826  23.741  34.978  1.00  0.00     0.198 A 
ATOM     93  C   UNL A   1      46.956  24.280  34.061  1.00  0.00     0.198 A 
ATOM     94  F   UNL A   1      47.259  26.147  32.731  1.00  0.00    -0.203 F 
ATOM     95  F   UNL A   1      44.047  22.949  35.728  1.00  0.00    -0.200 F 
ATOM     96  C   UNL A   1      46.171  23.461  34.843  1.00  0.00     0.200 A 
ATOM     97  F   UNL A   1      48.247  23.981  33.859  1.00  0.00    -0.200 F 
ATOM     98  F   UNL A   1      46.701  22.389  35.443  1.00  0.00    -0.200 F 
ENDBRANCH  65  88
ENDBRANCH  39  40
ENDBRANCH  32  34
ENDBRANCH  31  32
ENDBRANCH  30  31
ENDBRANCH  29  30
ENDBRANCH  28  29
ENDBRANCH   1  28
TORSDOF 19
ENDMDL
MODEL 3
REMARK VINA RESULT:     -11.6      3.266      5.084
REMARK SMILES COc1cc(S(=O)(=O)Nc2cccc(C(=O)OCCOCCOC(=O)c3ccc(-c4c5nc(c(-c6c(F)c(F)c(F)c(F)c6F)c6ccc([nH]6)c(-c6c(F)c(F)c(F)c(F)c6F)c6nc(c(-c7c(F)c(F)c(F)c(F)c7F)c7ccc4[nH]7)C=C6)C=C5)cc3)c2)c(OC)cc1C
REMARK SMILES IDX 19 1 18 2 17 3 15 4 16 5 14 6 10 7 11 8 89 9 12 10 13 11
REMARK SMILES IDX 9 12 6 14 7 15 8 16 5 17 3 18 4 19 94 20 93 21 95 22 90 23
REMARK SMILES IDX 2 24 1 25 91 26 92 27 20 28 21 29 22 30 23 31 24 32 25 33
REMARK SMILES IDX 26 34 27 35 88 36 28 37 87 38 29 39 30 40 31 41 81 42 32 43
REMARK SMILES IDX 86 44 80 45 82 46 33 47 85 48 79 49 78 50 34 52 66 53 46 54
REMARK SMILES IDX 65 55 47 56 50 57 64 58 83 59 48 60 49 61 63 63 84 64 51 65
REMARK SMILES IDX 35 66 36 67 44 68 37 69 38 70 42 71 45 72 39 73 40 74 43 75
REMARK SMILES IDX 41 76 67 77 68 78 76 79 69 80 70 81 74 82 77 83 71 84 72 85
REMARK SMILES IDX 75 86 73 87 52 88 53 89 61 90 54 91 55 92 59 93 62 94 56 95
REMARK SMILES IDX 57 96 60 97 58 98
REMARK H PARENT 9 13 82 51 50 62
REMARK Flexibility Score: inf
ROOT
ATOM      1  C   UNL A   1      36.149  20.337  25.034  1.00  0.00     0.202 C 
ENDROOT
BRANCH   1   2
ATOM      2  C   UNL A   1      34.752  19.940  24.625  1.00  0.00     0.261 C 
BRANCH   2   3
ATOM      3  O   UNL A   1      33.828  21.033  24.730  1.00  0.00    -0.460 OA
BRANCH   3   4
ATOM      4  C   UNL A   1      32.539  20.711  25.021  1.00  0.00     0.338 C 
ATOM      5  O   UNL A   1      32.094  19.588  25.159  1.00  0.00    -0.246 OA
BRANCH   4   6
ATOM      6  C   UNL A   1      31.727  21.942  24.917  1.00  0.00     0.062 A 
ATOM      7  C   UNL A   1      31.605  24.094  23.874  1.00  0.00     0.050 A 
ATOM      8  C   UNL A   1      30.835  24.573  24.936  1.00  0.00     0.027 A 
ATOM      9  C   UNL A   1      31.957  22.748  23.809  1.00  0.00     0.042 A 
ATOM     10  C   UNL A   1      30.491  23.719  25.986  1.00  0.00     0.003 A 
ATOM     11  C   UNL A   1      30.953  22.407  25.988  1.00  0.00     0.016 A 
BRANCH   7  12
ATOM     12  N   UNL A   1      32.202  24.912  22.890  1.00  0.00    -0.279 N 
ATOM     13  H   UNL A   1      31.996  24.711  21.949  1.00  0.00     0.180 HD
BRANCH  12  14
ATOM     14  S   UNL A   1      33.229  26.189  23.190  1.00  0.00     0.265 S 
ATOM     15  O   UNL A   1      33.584  26.759  21.903  1.00  0.00    -0.201 OA
ATOM     16  O   UNL A   1      34.258  25.619  24.040  1.00  0.00    -0.201 OA
BRANCH  14  17
ATOM     17  C   UNL A   1      32.506  27.520  24.131  1.00  0.00     0.133 A 
ATOM     18  C   UNL A   1      32.770  28.772  26.214  1.00  0.00     0.123 A 
ATOM     19  C   UNL A   1      33.105  27.695  25.394  1.00  0.00     0.073 A 
ATOM     20  C   UNL A   1      31.925  29.769  25.731  1.00  0.00    -0.005 A 
ATOM     21  C   UNL A   1      31.285  29.555  24.504  1.00  0.00     0.055 A 
ATOM     22  C   UNL A   1      31.640  31.048  26.461  1.00  0.00     0.048 C 
ATOM     23  C   UNL A   1      31.506  28.406  23.729  1.00  0.00     0.139 A 
BRANCH  18  24
ATOM     24  O   UNL A   1      33.384  28.815  27.434  1.00  0.00    -0.496 OA
ATOM     25  C   UNL A   1      34.794  29.029  27.336  1.00  0.00     0.278 C 
ENDBRANCH  18  24
BRANCH  23  26
ATOM     26  O   UNL A   1      30.747  28.114  22.646  1.00  0.00    -0.495 OA
ATOM     27  C   UNL A   1      29.379  28.506  22.610  1.00  0.00     0.278 C 
ENDBRANCH  23  26
ENDBRANCH  14  17
ENDBRANCH  12  14
ENDBRANCH   7  12
ENDBRANCH   4   6
ENDBRANCH   3   4
ENDBRANCH   2   3
ENDBRANCH   1   2
BRANCH   1  28
ATOM     28  O   UNL A   1      36.357  21.643  24.519  1.00  0.00    -0.374 OA
BRANCH  28  29
ATOM     29  C   UNL A   1      37.218  22.481  25.264  1.00  0.00     0.202 C 
BRANCH  29  30
ATOM     30  C   UNL A   1      38.492  21.751  25.696  1.00  0.00     0.261 C 
BRANCH  30  31
ATOM     31  O   UNL A   1      39.605  22.674  25.699  1.00  0.00    -0.460 OA
BRANCH  31  32
ATOM     32  C   UNL A   1      40.057  23.055  26.926  1.00  0.00     0.338 C 
ATOM     33  O   UNL A   1      40.354  22.292  27.835  1.00  0.00    -0.246 OA
BRANCH  32  34
ATOM     34  C   UNL A   1      39.854  24.522  27.113  1.00  0.00     0.060 A 
ATOM     35  C   UNL A   1      40.507  25.436  26.263  1.00  0.00     0.016 A 
ATOM     36  C   UNL A   1      39.312  24.959  28.319  1.00  0.00     0.016 A 
ATOM     37  C   UNL A   1      40.759  26.745  26.700  1.00  0.00     0.010 A 
ATOM     38  C   UNL A   1      39.687  26.194  28.797  1.00  0.00     0.010 A 
ATOM     39  C   UNL A   1      40.429  27.086  28.008  1.00  0.00    -0.014 A 
BRANCH  39  40
ATOM     40  C   UNL A   1      40.786  28.321  28.700  1.00  0.00     0.031 A 
ATOM     41  C   UNL A   1      39.772  29.403  28.713  1.00  0.00     0.074 A 
ATOM     42  C   UNL A   1      41.845  28.376  29.547  1.00  0.00     0.049 A 
ATOM     43  N   UNL A   1      39.966  30.557  29.243  1.00  0.00    -0.248 NA
ATOM     44  C   UNL A   1      38.451  29.298  28.089  1.00  0.00     0.031 C 
ATOM     45  C   UNL A   1      42.030  29.279  30.682  1.00  0.00     0.029 A 
ATOM     46  N   UNL A   1      43.037  27.630  29.554  1.00  0.00    -0.354 N 
ATOM     47  C   UNL A   1      38.744  31.166  29.373  1.00  0.00     0.074 A 
ATOM     48  C   UNL A   1      37.872  30.431  28.499  1.00  0.00     0.031 C 
ATOM     49  C   UNL A   1      43.322  29.289  31.044  1.00  0.00     0.029 A 
ATOM     50  C   UNL A   1      44.035  28.469  30.084  1.00  0.00     0.049 A 
ATOM     51  H   UNL A   1      43.151  26.701  29.248  1.00  0.00     0.167 HD
ATOM     52  C   UNL A   1      38.620  32.130  30.328  1.00  0.00     0.037 A 
ATOM     53  C   UNL A   1      45.123  28.847  29.362  1.00  0.00     0.037 A 
ATOM     54  C   UNL A   1      39.946  32.491  30.857  1.00  0.00     0.049 A 
ATOM     55  C   UNL A   1      45.121  30.342  29.262  1.00  0.00     0.074 A 
ATOM     56  C   UNL A   1      40.581  32.308  32.072  1.00  0.00     0.029 A 
ATOM     57  N   UNL A   1      40.942  32.877  29.954  1.00  0.00    -0.354 N 
ATOM     58  N   UNL A   1      44.014  31.037  29.260  1.00  0.00    -0.248 NA
ATOM     59  C   UNL A   1      46.319  31.166  29.358  1.00  0.00     0.031 C 
ATOM     60  C   UNL A   1      41.981  32.510  31.865  1.00  0.00     0.029 A 
ATOM     61  C   UNL A   1      42.194  32.852  30.536  1.00  0.00     0.049 A 
ATOM     62  H   UNL A   1      40.772  33.134  29.019  1.00  0.00     0.167 HD
ATOM     63  C   UNL A   1      44.318  32.340  29.514  1.00  0.00     0.074 A 
ATOM     64  C   UNL A   1      45.772  32.386  29.502  1.00  0.00     0.031 C 
ATOM     65  C   UNL A   1      43.376  33.285  29.792  1.00  0.00     0.037 A 
BRANCH  52  66
ATOM     66  C   UNL A   1      37.313  32.646  30.906  1.00  0.00     0.064 A 
ATOM     67  C   UNL A   1      36.452  33.438  30.114  1.00  0.00     0.173 A 
ATOM     68  C   UNL A   1      36.878  32.479  32.241  1.00  0.00     0.173 A 
ATOM     69  F   UNL A   1      36.744  33.712  28.835  1.00  0.00    -0.203 F 
ATOM     70  C   UNL A   1      35.264  33.993  30.609  1.00  0.00     0.198 A 
ATOM     71  C   UNL A   1      35.665  32.989  32.719  1.00  0.00     0.198 A 
ATOM     72  F   UNL A   1      37.621  31.868  33.167  1.00  0.00    -0.203 F 
ATOM     73  F   UNL A   1      34.513  34.772  29.816  1.00  0.00    -0.200 F 
ATOM     74  C   UNL A   1      34.861  33.754  31.905  1.00  0.00     0.200 A 
ATOM     75  F   UNL A   1      35.300  32.750  33.988  1.00  0.00    -0.200 F 
ATOM     76  F   UNL A   1      33.717  34.271  32.375  1.00  0.00    -0.200 F 
ENDBRANCH  52  66
BRANCH  53  77
ATOM     77  C   UNL A   1      45.519  27.826  28.356  1.00  0.00     0.064 A 
ATOM     78  C   UNL A   1      46.217  26.698  28.838  1.00  0.00     0.173 A 
ATOM     79  C   UNL A   1      44.825  27.683  27.148  1.00  0.00     0.173 A 
ATOM     80  F   UNL A   1      46.880  26.769  30.005  1.00  0.00    -0.203 F 
ATOM     81  C   UNL A   1      46.103  25.452  28.222  1.00  0.00     0.198 A 
ATOM     82  C   UNL A   1      44.706  26.428  26.537  1.00  0.00     0.198 A 
ATOM     83  F   UNL A   1      44.140  28.713  26.634  1.00  0.00    -0.203 F 
ATOM     84  F   UNL A   1      46.642  24.368  28.799  1.00  0.00    -0.200 F 
ATOM     85  C   UNL A   1      45.306  25.311  27.099  1.00  0.00     0.200 A 
ATOM     86  F   UNL A   1      43.916  26.279  25.465  1.00  0.00    -0.200 F 
ATOM     87  F   UNL A   1      45.055  24.088  26.609  1.00  0.00    -0.200 F 
ENDBRANCH  53  77
BRANCH  65  88
ATOM     88  C   UNL A   1      43.540  34.735  29.424  1.00  0.00     0.064 A 
ATOM     89  C   UNL A   1      43.351  35.227  28.119  1.00  0.00     0.173 A 
ATOM     90  C   UNL A   1      43.691  35.721  30.427  1.00  0.00     0.173 A 
ATOM     91  F   UNL A   1      43.057  34.419  27.092  1.00  0.00    -0.203 F 
ATOM     92  C   UNL A   1      43.389  36.589  27.829  1.00  0.00     0.198 A 
ATOM     93  C   UNL A   1      43.649  37.082  30.143  1.00  0.00     0.198 A 
ATOM     94  F   UNL A   1      43.835  35.402  31.721  1.00  0.00    -0.203 F 
ATOM     95  F   UNL A   1      43.257  36.995  26.559  1.00  0.00    -0.200 F 
ATOM     96  C   UNL A   1      43.523  37.517  28.842  1.00  0.00     0.200 A 
ATOM     97  F   UNL A   1      43.705  37.970  31.147  1.00  0.00    -0.200 F 
ATOM     98  F   UNL A   1      43.502  38.826  28.565  1.00  0.00    -0.200 F 
ENDBRANCH  65  88
ENDBRANCH  39  40
ENDBRANCH  32  34
ENDBRANCH  31  32
ENDBRANCH  30  31
ENDBRANCH  29  30
ENDBRANCH  28  29
ENDBRANCH   1  28
TORSDOF 19
ENDMDL
