MODEL 1
REMARK VINA RESULT:     -12.4      0.000      0.000
REMARK SMILES O=C(NNS(=O)(=O)c1cccc(C(=O)OCCOCCOC(=O)c2ccc(-c3c4nc(c(-c5c(F)c(F)c(F)c(F)c5F)c5ccc([nH]5)c(-c5c(F)c(F)c(F)c(F)c5F)c5nc(c(-c6c(F)c(F)c(F)c(F)c6F)c6ccc3[nH]6)C=C5)C=C4)cc2)c1)c1ccc2c(c1)OCO2
REMARK SMILES IDX 17 1 16 2 15 3 13 4 14 5 12 6 8 7 9 8 87 9 10 10 11 11 5 12
REMARK SMILES IDX 6 13 7 14 4 15 3 17 1 18 2 19 88 21 89 22 93 23 90 24 92 25
REMARK SMILES IDX 91 26 94 27 96 28 95 29 18 30 19 31 20 32 21 33 22 34 23 35
REMARK SMILES IDX 24 36 25 37 86 38 26 39 85 40 27 41 28 42 29 43 79 44 30 45
REMARK SMILES IDX 84 46 78 47 80 48 31 49 83 50 77 51 76 52 32 54 64 55 44 56
REMARK SMILES IDX 63 57 45 58 48 59 62 60 81 61 46 62 47 63 61 65 82 66 49 67
REMARK SMILES IDX 33 68 34 69 42 70 35 71 36 72 40 73 43 74 37 75 38 76 41 77
REMARK SMILES IDX 39 78 65 79 66 80 74 81 67 82 68 83 72 84 75 85 69 86 70 87
REMARK SMILES IDX 73 88 71 89 50 90 51 91 59 92 52 93 53 94 57 95 60 96 54 97
REMARK SMILES IDX 55 98 58 99 56 100
REMARK H PARENT 4 16 3 20 80 53 48 64
REMARK Flexibility Score: inf
ROOT
ATOM      1  C   UNL A   1      40.741  21.248  27.386  1.00  0.00     0.202 C 
ENDROOT
BRANCH   1   2
ATOM      2  C   UNL A   1      40.000  21.626  26.098  1.00  0.00     0.261 C 
BRANCH   2   3
ATOM      3  O   UNL A   1      38.584  21.741  26.316  1.00  0.00    -0.460 OA
BRANCH   3   4
ATOM      4  C   UNL A   1      38.038  22.934  25.969  1.00  0.00     0.338 C 
ATOM      5  O   UNL A   1      38.548  24.036  26.074  1.00  0.00    -0.246 OA
BRANCH   4   6
ATOM      6  C   UNL A   1      36.764  22.698  25.247  1.00  0.00     0.061 A 
ATOM      7  C   UNL A   1      34.618  21.629  24.989  1.00  0.00     0.084 A 
ATOM      8  C   UNL A   1      34.451  22.229  23.737  1.00  0.00     0.022 A 
ATOM      9  C   UNL A   1      35.775  21.850  25.748  1.00  0.00     0.037 A 
ATOM     10  C   UNL A   1      35.445  23.075  23.245  1.00  0.00     0.002 A 
ATOM     11  C   UNL A   1      36.594  23.316  24.000  1.00  0.00     0.016 A 
BRANCH   7  12
ATOM     12  S   UNL A   1      33.331  20.620  25.672  1.00  0.00     0.257 S 
ATOM     13  O   UNL A   1      33.325  20.814  27.105  1.00  0.00    -0.205 OA
ATOM     14  O   UNL A   1      33.442  19.307  25.076  1.00  0.00    -0.205 OA
BRANCH  12  15
ATOM     15  N   UNL A   1      31.911  21.322  25.085  1.00  0.00    -0.123 NA
ATOM     16  H   UNL A   1      32.193  22.072  24.454  1.00  0.00     0.167 HD
BRANCH  15  17
ATOM     17  N   UNL A   1      30.953  21.888  25.999  1.00  0.00    -0.273 N 
ATOM     18  O   UNL A   1      30.333  23.558  27.402  1.00  0.00    -0.268 OA
ATOM     19  C   UNL A   1      30.953  23.201  26.406  1.00  0.00     0.266 C 
ATOM     20  H   UNL A   1      30.252  21.296  26.356  1.00  0.00     0.186 HD
BRANCH  19  21
ATOM     21  C   UNL A   1      31.628  24.218  25.566  1.00  0.00     0.045 A 
ATOM     22  C   UNL A   1      32.844  24.800  25.998  1.00  0.00     0.018 A 
ATOM     23  C   UNL A   1      31.145  24.440  24.273  1.00  0.00     0.064 A 
ATOM     24  C   UNL A   1      33.590  25.602  25.131  1.00  0.00     0.051 A 
ATOM     25  C   UNL A   1      31.919  25.213  23.437  1.00  0.00     0.166 A 
ATOM     26  C   UNL A   1      33.111  25.769  23.849  1.00  0.00     0.165 A 
ATOM     27  O   UNL A   1      31.660  25.470  22.126  1.00  0.00    -0.454 OA
ATOM     28  O   UNL A   1      33.746  26.429  22.843  1.00  0.00    -0.454 OA
ATOM     29  C   UNL A   1      32.911  26.064  21.724  1.00  0.00     0.468 C 
ENDBRANCH  19  21
ENDBRANCH  15  17
ENDBRANCH  12  15
ENDBRANCH   7  12
ENDBRANCH   4   6
ENDBRANCH   3   4
ENDBRANCH   2   3
ENDBRANCH   1   2
BRANCH   1  30
ATOM     30  O   UNL A   1      42.162  21.143  27.308  1.00  0.00    -0.374 OA
BRANCH  30  31
ATOM     31  C   UNL A   1      42.735  20.754  26.060  1.00  0.00     0.202 C 
BRANCH  31  32
ATOM     32  C   UNL A   1      43.696  21.742  25.385  1.00  0.00     0.261 C 
BRANCH  32  33
ATOM     33  O   UNL A   1      43.030  22.913  24.882  1.00  0.00    -0.460 OA
BRANCH  33  34
ATOM     34  C   UNL A   1      43.747  24.059  24.989  1.00  0.00     0.338 C 
ATOM     35  O   UNL A   1      44.733  24.384  24.351  1.00  0.00    -0.246 OA
BRANCH  34  36
ATOM     36  C   UNL A   1      43.075  24.988  25.915  1.00  0.00     0.060 A 
ATOM     37  C   UNL A   1      43.605  26.278  26.044  1.00  0.00     0.016 A 
ATOM     38  C   UNL A   1      42.011  24.572  26.717  1.00  0.00     0.016 A 
ATOM     39  C   UNL A   1      43.094  27.149  27.003  1.00  0.00     0.010 A 
ATOM     40  C   UNL A   1      41.506  25.444  27.686  1.00  0.00     0.010 A 
ATOM     41  C   UNL A   1      42.065  26.725  27.853  1.00  0.00    -0.014 A 
BRANCH  41  42
ATOM     42  C   UNL A   1      41.650  27.578  28.993  1.00  0.00     0.031 A 
ATOM     43  C   UNL A   1      42.422  27.513  30.280  1.00  0.00     0.074 A 
ATOM     44  C   UNL A   1      40.601  28.412  28.875  1.00  0.00     0.049 A 
ATOM     45  N   UNL A   1      42.200  28.125  31.416  1.00  0.00    -0.248 NA
ATOM     46  C   UNL A   1      43.604  26.637  30.290  1.00  0.00     0.031 C 
ATOM     47  C   UNL A   1      39.800  28.591  27.666  1.00  0.00     0.029 A 
ATOM     48  N   UNL A   1      40.025  29.255  29.792  1.00  0.00    -0.354 N 
ATOM     49  C   UNL A   1      43.205  27.704  32.275  1.00  0.00     0.074 A 
ATOM     50  C   UNL A   1      44.025  26.765  31.539  1.00  0.00     0.031 C 
ATOM     51  C   UNL A   1      38.823  29.479  27.920  1.00  0.00     0.029 A 
ATOM     52  C   UNL A   1      38.912  29.903  29.316  1.00  0.00     0.049 A 
ATOM     53  H   UNL A   1      40.377  29.383  30.702  1.00  0.00     0.167 HD
ATOM     54  C   UNL A   1      43.428  28.075  33.559  1.00  0.00     0.037 A 
ATOM     55  C   UNL A   1      38.050  30.723  29.946  1.00  0.00     0.037 A 
ATOM     56  C   UNL A   1      42.610  29.010  34.287  1.00  0.00     0.049 A 
ATOM     57  C   UNL A   1      38.278  31.062  31.396  1.00  0.00     0.074 A 
ATOM     58  C   UNL A   1      42.768  29.467  35.583  1.00  0.00     0.029 A 
ATOM     59  N   UNL A   1      41.474  29.624  33.780  1.00  0.00    -0.354 N 
ATOM     60  N   UNL A   1      39.246  30.682  32.195  1.00  0.00    -0.248 NA
ATOM     61  C   UNL A   1      37.290  31.947  32.033  1.00  0.00     0.031 C 
ATOM     62  C   UNL A   1      41.698  30.318  35.879  1.00  0.00     0.029 A 
ATOM     63  C   UNL A   1      40.904  30.434  34.750  1.00  0.00     0.049 A 
ATOM     64  H   UNL A   1      41.125  29.502  32.869  1.00  0.00     0.167 HD
ATOM     65  C   UNL A   1      39.002  31.300  33.414  1.00  0.00     0.074 A 
ATOM     66  C   UNL A   1      37.800  32.090  33.249  1.00  0.00     0.031 C 
ATOM     67  C   UNL A   1      39.711  31.221  34.567  1.00  0.00     0.037 A 
BRANCH  54  68
ATOM     68  C   UNL A   1      44.591  27.447  34.270  1.00  0.00     0.064 A 
ATOM     69  C   UNL A   1      44.477  26.209  34.922  1.00  0.00     0.173 A 
ATOM     70  C   UNL A   1      45.846  28.073  34.266  1.00  0.00     0.173 A 
ATOM     71  F   UNL A   1      43.296  25.575  34.965  1.00  0.00    -0.203 F 
ATOM     72  C   UNL A   1      45.572  25.636  35.564  1.00  0.00     0.198 A 
ATOM     73  C   UNL A   1      46.945  27.483  34.885  1.00  0.00     0.198 A 
ATOM     74  F   UNL A   1      46.011  29.255  33.653  1.00  0.00    -0.203 F 
ATOM     75  F   UNL A   1      45.430  24.473  36.217  1.00  0.00    -0.200 F 
ATOM     76  C   UNL A   1      46.806  26.269  35.538  1.00  0.00     0.200 A 
ATOM     77  F   UNL A   1      48.139  28.090  34.849  1.00  0.00    -0.200 F 
ATOM     78  F   UNL A   1      47.860  25.710  36.151  1.00  0.00    -0.200 F 
ENDBRANCH  54  68
BRANCH  55  79
ATOM     79  C   UNL A   1      36.878  31.270  29.213  1.00  0.00     0.064 A 
ATOM     80  C   UNL A   1      35.773  30.464  28.912  1.00  0.00     0.173 A 
ATOM     81  C   UNL A   1      36.850  32.606  28.785  1.00  0.00     0.173 A 
ATOM     82  F   UNL A   1      35.766  29.174  29.276  1.00  0.00    -0.203 F 
ATOM     83  C   UNL A   1      34.689  30.969  28.196  1.00  0.00     0.198 A 
ATOM     84  C   UNL A   1      35.752  33.117  28.095  1.00  0.00     0.198 A 
ATOM     85  F   UNL A   1      37.885  33.417  29.045  1.00  0.00    -0.203 F 
ATOM     86  F   UNL A   1      33.664  30.165  27.882  1.00  0.00    -0.200 F 
ATOM     87  C   UNL A   1      34.677  32.296  27.795  1.00  0.00     0.200 A 
ATOM     88  F   UNL A   1      35.741  34.402  27.717  1.00  0.00    -0.200 F 
ATOM     89  F   UNL A   1      33.632  32.781  27.109  1.00  0.00    -0.200 F 
ENDBRANCH  55  79
BRANCH  67  90
ATOM     90  C   UNL A   1      39.229  32.038  35.732  1.00  0.00     0.064 A 
ATOM     91  C   UNL A   1      38.356  31.509  36.692  1.00  0.00     0.173 A 
ATOM     92  C   UNL A   1      39.684  33.353  35.912  1.00  0.00     0.173 A 
ATOM     93  F   UNL A   1      37.879  30.261  36.558  1.00  0.00    -0.203 F 
ATOM     94  C   UNL A   1      37.938  32.274  37.778  1.00  0.00     0.198 A 
ATOM     95  C   UNL A   1      39.289  34.105  37.015  1.00  0.00     0.198 A 
ATOM     96  F   UNL A   1      40.527  33.905  35.025  1.00  0.00    -0.203 F 
ATOM     97  F   UNL A   1      37.068  31.762  38.661  1.00  0.00    -0.200 F 
ATOM     98  C   UNL A   1      38.411  33.567  37.943  1.00  0.00     0.200 A 
ATOM     99  F   UNL A   1      39.757  35.349  37.179  1.00  0.00    -0.200 F 
ATOM    100  F   UNL A   1      38.014  34.298  38.994  1.00  0.00    -0.200 F 
ENDBRANCH  67  90
ENDBRANCH  41  42
ENDBRANCH  34  36
ENDBRANCH  33  34
ENDBRANCH  32  33
ENDBRANCH  31  32
ENDBRANCH  30  31
ENDBRANCH   1  30
TORSDOF 18
ENDMDL
MODEL 2
REMARK VINA RESULT:     -11.9      3.745      9.061
REMARK SMILES O=C(NNS(=O)(=O)c1cccc(C(=O)OCCOCCOC(=O)c2ccc(-c3c4nc(c(-c5c(F)c(F)c(F)c(F)c5F)c5ccc([nH]5)c(-c5c(F)c(F)c(F)c(F)c5F)c5nc(c(-c6c(F)c(F)c(F)c(F)c6F)c6ccc3[nH]6)C=C5)C=C4)cc2)c1)c1ccc2c(c1)OCO2
REMARK SMILES IDX 17 1 16 2 15 3 13 4 14 5 12 6 8 7 9 8 87 9 10 10 11 11 5 12
REMARK SMILES IDX 6 13 7 14 4 15 3 17 1 18 2 19 88 21 89 22 93 23 90 24 92 25
REMARK SMILES IDX 91 26 94 27 96 28 95 29 18 30 19 31 20 32 21 33 22 34 23 35
REMARK SMILES IDX 24 36 25 37 86 38 26 39 85 40 27 41 28 42 29 43 79 44 30 45
REMARK SMILES IDX 84 46 78 47 80 48 31 49 83 50 77 51 76 52 32 54 64 55 44 56
REMARK SMILES IDX 63 57 45 58 48 59 62 60 81 61 46 62 47 63 61 65 82 66 49 67
REMARK SMILES IDX 33 68 34 69 42 70 35 71 36 72 40 73 43 74 37 75 38 76 41 77
REMARK SMILES IDX 39 78 65 79 66 80 74 81 67 82 68 83 72 84 75 85 69 86 70 87
REMARK SMILES IDX 73 88 71 89 50 90 51 91 59 92 52 93 53 94 57 95 60 96 54 97
REMARK SMILES IDX 55 98 58 99 56 100
REMARK H PARENT 4 16 3 20 80 53 48 64
REMARK Flexibility Score: inf
ROOT
ATOM      1  C   UNL A   1      34.982  33.225  28.295  1.00  0.00     0.202 C 
ENDROOT
BRANCH   1   2
ATOM      2  C   UNL A   1      34.488  31.795  28.545  1.00  0.00     0.261 C 
BRANCH   2   3
ATOM      3  O   UNL A   1      33.993  31.188  27.340  1.00  0.00    -0.460 OA
BRANCH   3   4
ATOM      4  C   UNL A   1      34.384  29.905  27.132  1.00  0.00     0.338 C 
ATOM      5  O   UNL A   1      35.432  29.388  27.481  1.00  0.00    -0.246 OA
BRANCH   4   6
ATOM      6  C   UNL A   1      33.252  29.133  26.564  1.00  0.00     0.061 A 
ATOM      7  C   UNL A   1      31.651  28.649  24.827  1.00  0.00     0.084 A 
ATOM      8  C   UNL A   1      31.028  27.699  25.643  1.00  0.00     0.022 A 
ATOM      9  C   UNL A   1      32.758  29.378  25.282  1.00  0.00     0.037 A 
ATOM     10  C   UNL A   1      31.529  27.462  26.923  1.00  0.00     0.002 A 
ATOM     11  C   UNL A   1      32.642  28.170  27.380  1.00  0.00     0.016 A 
BRANCH   7  12
ATOM     12  S   UNL A   1      31.086  28.906  23.167  1.00  0.00     0.257 S 
ATOM     13  O   UNL A   1      32.216  29.328  22.371  1.00  0.00    -0.205 OA
ATOM     14  O   UNL A   1      29.864  29.677  23.236  1.00  0.00    -0.205 OA
BRANCH  12  15
ATOM     15  N   UNL A   1      30.674  27.355  22.635  1.00  0.00    -0.123 NA
ATOM     16  H   UNL A   1      30.751  26.737  23.443  1.00  0.00     0.167 HD
BRANCH  15  17
ATOM     17  N   UNL A   1      31.417  26.737  21.568  1.00  0.00    -0.273 N 
ATOM     18  O   UNL A   1      33.278  25.664  20.841  1.00  0.00    -0.268 OA
ATOM     19  C   UNL A   1      32.497  25.908  21.756  1.00  0.00     0.266 C 
ATOM     20  H   UNL A   1      31.133  26.920  20.643  1.00  0.00     0.186 HD
BRANCH  19  21
ATOM     21  C   UNL A   1      32.661  25.217  23.055  1.00  0.00     0.045 A 
ATOM     22  C   UNL A   1      33.682  25.618  23.948  1.00  0.00     0.018 A 
ATOM     23  C   UNL A   1      31.677  24.306  23.453  1.00  0.00     0.064 A 
ATOM     24  C   UNL A   1      33.720  25.117  25.252  1.00  0.00     0.051 A 
ATOM     25  C   UNL A   1      31.728  23.853  24.752  1.00  0.00     0.166 A 
ATOM     26  C   UNL A   1      32.714  24.253  25.629  1.00  0.00     0.165 A 
ATOM     27  O   UNL A   1      30.817  23.034  25.344  1.00  0.00    -0.454 OA
ATOM     28  O   UNL A   1      32.529  23.744  26.877  1.00  0.00    -0.454 OA
ATOM     29  C   UNL A   1      31.228  23.139  26.723  1.00  0.00     0.468 C 
ENDBRANCH  19  21
ENDBRANCH  15  17
ENDBRANCH  12  15
ENDBRANCH   7  12
ENDBRANCH   4   6
ENDBRANCH   3   4
ENDBRANCH   2   3
ENDBRANCH   1   2
BRANCH   1  30
ATOM     30  O   UNL A   1      34.005  34.187  27.900  1.00  0.00    -0.374 OA
BRANCH  30  31
ATOM     31  C   UNL A   1      34.109  35.504  28.439  1.00  0.00     0.202 C 
BRANCH  31  32
ATOM     32  C   UNL A   1      32.916  36.034  29.246  1.00  0.00     0.261 C 
BRANCH  32  33
ATOM     33  O   UNL A   1      32.529  35.152  30.314  1.00  0.00    -0.460 OA
BRANCH  33  34
ATOM     34  C   UNL A   1      32.711  35.660  31.558  1.00  0.00     0.338 C 
ATOM     35  O   UNL A   1      32.002  36.457  32.149  1.00  0.00    -0.246 OA
BRANCH  34  36
ATOM     36  C   UNL A   1      33.847  34.989  32.214  1.00  0.00     0.060 A 
ATOM     37  C   UNL A   1      35.107  35.592  32.112  1.00  0.00     0.016 A 
ATOM     38  C   UNL A   1      33.701  33.744  32.826  1.00  0.00     0.016 A 
ATOM     39  C   UNL A   1      36.236  34.933  32.594  1.00  0.00     0.010 A 
ATOM     40  C   UNL A   1      34.836  33.079  33.301  1.00  0.00     0.010 A 
ATOM     41  C   UNL A   1      36.111  33.658  33.160  1.00  0.00    -0.014 A 
BRANCH  41  42
ATOM     42  C   UNL A   1      37.326  32.879  33.500  1.00  0.00     0.031 A 
ATOM     43  C   UNL A   1      38.042  33.157  34.791  1.00  0.00     0.074 A 
ATOM     44  C   UNL A   1      37.780  31.925  32.668  1.00  0.00     0.049 A 
ATOM     45  N   UNL A   1      39.150  32.638  35.258  1.00  0.00    -0.248 NA
ATOM     46  C   UNL A   1      37.427  34.158  35.677  1.00  0.00     0.031 C 
ATOM     47  C   UNL A   1      37.150  31.539  31.407  1.00  0.00     0.029 A 
ATOM     48  N   UNL A   1      38.885  31.115  32.757  1.00  0.00    -0.354 N 
ATOM     49  C   UNL A   1      39.369  33.252  36.483  1.00  0.00     0.074 A 
ATOM     50  C   UNL A   1      38.293  34.201  36.679  1.00  0.00     0.031 C 
ATOM     51  C   UNL A   1      37.888  30.575  30.830  1.00  0.00     0.029 A 
ATOM     52  C   UNL A   1      39.057  30.302  31.665  1.00  0.00     0.049 A 
ATOM     53  H   UNL A   1      39.494  31.118  33.530  1.00  0.00     0.167 HD
ATOM     54  C   UNL A   1      40.372  33.037  37.368  1.00  0.00     0.037 A 
ATOM     55  C   UNL A   1      40.060  29.456  31.362  1.00  0.00     0.037 A 
ATOM     56  C   UNL A   1      41.439  32.091  37.170  1.00  0.00     0.049 A 
ATOM     57  C   UNL A   1      41.202  29.288  32.329  1.00  0.00     0.074 A 
ATOM     58  C   UNL A   1      42.488  31.784  38.017  1.00  0.00     0.029 A 
ATOM     59  N   UNL A   1      41.595  31.305  36.037  1.00  0.00    -0.354 N 
ATOM     60  N   UNL A   1      41.389  29.852  33.498  1.00  0.00    -0.248 NA
ATOM     61  C   UNL A   1      42.275  28.364  31.933  1.00  0.00     0.031 C 
ATOM     62  C   UNL A   1      43.309  30.849  37.377  1.00  0.00     0.029 A 
ATOM     63  C   UNL A   1      42.742  30.534  36.152  1.00  0.00     0.049 A 
ATOM     64  H   UNL A   1      40.984  31.297  35.266  1.00  0.00     0.167 HD
ATOM     65  C   UNL A   1      42.579  29.332  33.989  1.00  0.00     0.074 A 
ATOM     66  C   UNL A   1      43.068  28.398  32.996  1.00  0.00     0.031 C 
ATOM     67  C   UNL A   1      43.211  29.603  35.158  1.00  0.00     0.037 A 
BRANCH  54  68
ATOM     68  C   UNL A   1      40.377  33.859  38.623  1.00  0.00     0.064 A 
ATOM     69  C   UNL A   1      41.102  35.057  38.718  1.00  0.00     0.173 A 
ATOM     70  C   UNL A   1      39.616  33.462  39.733  1.00  0.00     0.173 A 
ATOM     71  F   UNL A   1      41.854  35.474  37.689  1.00  0.00    -0.203 F 
ATOM     72  C   UNL A   1      41.082  35.813  39.888  1.00  0.00     0.198 A 
ATOM     73  C   UNL A   1      39.577  34.236  40.890  1.00  0.00     0.198 A 
ATOM     74  F   UNL A   1      38.901  32.328  39.693  1.00  0.00    -0.203 F 
ATOM     75  F   UNL A   1      41.816  36.933  39.971  1.00  0.00    -0.200 F 
ATOM     76  C   UNL A   1      40.315  35.407  40.969  1.00  0.00     0.200 A 
ATOM     77  F   UNL A   1      38.826  33.848  41.930  1.00  0.00    -0.200 F 
ATOM     78  F   UNL A   1      40.293  36.142  42.090  1.00  0.00    -0.200 F 
ENDBRANCH  54  68
BRANCH  55  79
ATOM     79  C   UNL A   1      40.037  28.710  30.077  1.00  0.00     0.064 A 
ATOM     80  C   UNL A   1      39.437  27.448  29.984  1.00  0.00     0.173 A 
ATOM     81  C   UNL A   1      40.630  29.238  28.920  1.00  0.00     0.173 A 
ATOM     82  F   UNL A   1      38.881  26.889  31.069  1.00  0.00    -0.203 F 
ATOM     83  C   UNL A   1      39.444  26.734  28.787  1.00  0.00     0.198 A 
ATOM     84  C   UNL A   1      40.611  28.536  27.717  1.00  0.00     0.198 A 
ATOM     85  F   UNL A   1      41.221  30.441  28.957  1.00  0.00    -0.203 F 
ATOM     86  F   UNL A   1      38.903  25.509  28.737  1.00  0.00    -0.200 F 
ATOM     87  C   UNL A   1      40.025  27.281  27.653  1.00  0.00     0.200 A 
ATOM     88  F   UNL A   1      41.164  29.073  26.621  1.00  0.00    -0.200 F 
ATOM     89  F   UNL A   1      40.028  26.595  26.502  1.00  0.00    -0.200 F 
ENDBRANCH  55  79
BRANCH  67  90
ATOM     90  C   UNL A   1      44.481  28.855  35.447  1.00  0.00     0.064 A 
ATOM     91  C   UNL A   1      44.472  27.607  36.085  1.00  0.00     0.173 A 
ATOM     92  C   UNL A   1      45.719  29.375  35.038  1.00  0.00     0.173 A 
ATOM     93  F   UNL A   1      43.316  27.072  36.508  1.00  0.00    -0.203 F 
ATOM     94  C   UNL A   1      45.658  26.917  36.324  1.00  0.00     0.198 A 
ATOM     95  C   UNL A   1      46.899  28.670  35.251  1.00  0.00     0.198 A 
ATOM     96  F   UNL A   1      45.781  30.563  34.417  1.00  0.00    -0.203 F 
ATOM     97  F   UNL A   1      45.630  25.745  36.975  1.00  0.00    -0.200 F 
ATOM     98  C   UNL A   1      46.869  27.445  35.900  1.00  0.00     0.200 A 
ATOM     99  F   UNL A   1      48.066  29.175  34.829  1.00  0.00    -0.200 F 
ATOM    100  F   UNL A   1      48.008  26.774  36.123  1.00  0.00    -0.200 F 
ENDBRANCH  67  90
ENDBRANCH  41  42
ENDBRANCH  34  36
ENDBRANCH  33  34
ENDBRANCH  32  33
ENDBRANCH  31  32
ENDBRANCH  30  31
ENDBRANCH   1  30
TORSDOF 18
ENDMDL
MODEL 3
REMARK VINA RESULT:     -11.9      4.616      9.046
REMARK SMILES O=C(NNS(=O)(=O)c1cccc(C(=O)OCCOCCOC(=O)c2ccc(-c3c4nc(c(-c5c(F)c(F)c(F)c(F)c5F)c5ccc([nH]5)c(-c5c(F)c(F)c(F)c(F)c5F)c5nc(c(-c6c(F)c(F)c(F)c(F)c6F)c6ccc3[nH]6)C=C5)C=C4)cc2)c1)c1ccc2c(c1)OCO2
REMARK SMILES IDX 17 1 16 2 15 3 13 4 14 5 12 6 8 7 9 8 87 9 10 10 11 11 5 12
REMARK SMILES IDX 6 13 7 14 4 15 3 17 1 18 2 19 88 21 89 22 93 23 90 24 92 25
REMARK SMILES IDX 91 26 94 27 96 28 95 29 18 30 19 31 20 32 21 33 22 34 23 35
REMARK SMILES IDX 24 36 25 37 86 38 26 39 85 40 27 41 28 42 29 43 79 44 30 45
REMARK SMILES IDX 84 46 78 47 80 48 31 49 83 50 77 51 76 52 32 54 64 55 44 56
REMARK SMILES IDX 63 57 45 58 48 59 62 60 81 61 46 62 47 63 61 65 82 66 49 67
REMARK SMILES IDX 33 68 34 69 42 70 35 71 36 72 40 73 43 74 37 75 38 76 41 77
REMARK SMILES IDX 39 78 65 79 66 80 74 81 67 82 68 83 72 84 75 85 69 86 70 87
REMARK SMILES IDX 73 88 71 89 50 90 51 91 59 92 52 93 53 94 57 95 60 96 54 97
REMARK SMILES IDX 55 98 58 99 56 100
REMARK H PARENT 4 16 3 20 80 53 48 64
REMARK Flexibility Score: inf
ROOT
ATOM      1  C   UNL A   1      36.382  20.554  25.000  1.00  0.00     0.202 C 
ENDROOT
BRANCH   1   2
ATOM      2  C   UNL A   1      34.923  20.337  25.419  1.00  0.00     0.261 C 
BRANCH   2   3
ATOM      3  O   UNL A   1      34.216  19.517  24.474  1.00  0.00    -0.460 OA
BRANCH   3   4
ATOM      4  C   UNL A   1      32.872  19.453  24.650  1.00  0.00     0.338 C 
ATOM      5  O   UNL A   1      32.221  18.487  25.006  1.00  0.00    -0.246 OA
BRANCH   4   6
ATOM      6  C   UNL A   1      32.297  20.815  24.526  1.00  0.00     0.061 A 
ATOM      7  C   UNL A   1      31.200  22.764  25.428  1.00  0.00     0.084 A 
ATOM      8  C   UNL A   1      31.121  23.331  24.152  1.00  0.00     0.022 A 
ATOM      9  C   UNL A   1      31.779  21.503  25.624  1.00  0.00     0.037 A 
ATOM     10  C   UNL A   1      31.641  22.635  23.061  1.00  0.00     0.002 A 
ATOM     11  C   UNL A   1      32.235  21.386  23.247  1.00  0.00     0.016 A 
BRANCH   7  12
ATOM     12  S   UNL A   1      30.624  23.665  26.841  1.00  0.00     0.257 S 
ATOM     13  O   UNL A   1      31.776  24.058  27.621  1.00  0.00    -0.205 OA
ATOM     14  O   UNL A   1      29.525  22.921  27.416  1.00  0.00    -0.205 OA
BRANCH  12  15
ATOM     15  N   UNL A   1      29.982  25.083  26.183  1.00  0.00    -0.123 NA
ATOM     16  H   UNL A   1      30.294  25.124  25.212  1.00  0.00     0.167 HD
BRANCH  15  17
ATOM     17  N   UNL A   1      30.295  26.359  26.772  1.00  0.00    -0.273 N 
ATOM     18  O   UNL A   1      31.802  27.991  27.228  1.00  0.00    -0.268 OA
ATOM     19  C   UNL A   1      31.427  27.086  26.489  1.00  0.00     0.266 C 
ATOM     20  H   UNL A   1      29.656  26.737  27.419  1.00  0.00     0.186 HD
BRANCH  19  21
ATOM     21  C   UNL A   1      32.144  26.841  25.217  1.00  0.00     0.045 A 
ATOM     22  C   UNL A   1      33.403  26.194  25.226  1.00  0.00     0.018 A 
ATOM     23  C   UNL A   1      31.472  27.084  24.015  1.00  0.00     0.064 A 
ATOM     24  C   UNL A   1      33.993  25.777  24.031  1.00  0.00     0.051 A 
ATOM     25  C   UNL A   1      32.068  26.635  22.859  1.00  0.00     0.166 A 
ATOM     26  C   UNL A   1      33.287  25.992  22.866  1.00  0.00     0.165 A 
ATOM     27  O   UNL A   1      31.532  26.703  21.610  1.00  0.00    -0.454 OA
ATOM     28  O   UNL A   1      33.653  25.568  21.626  1.00  0.00    -0.454 OA
ATOM     29  C   UNL A   1      32.447  25.855  20.886  1.00  0.00     0.468 C 
ENDBRANCH  19  21
ENDBRANCH  15  17
ENDBRANCH  12  15
ENDBRANCH   7  12
ENDBRANCH   4   6
ENDBRANCH   3   4
ENDBRANCH   2   3
ENDBRANCH   1   2
BRANCH   1  30
ATOM     30  O   UNL A   1      37.109  21.570  25.689  1.00  0.00    -0.374 OA
BRANCH  30  31
ATOM     31  C   UNL A   1      38.532  21.469  25.720  1.00  0.00     0.202 C 
BRANCH  31  32
ATOM     32  C   UNL A   1      39.145  20.072  25.556  1.00  0.00     0.261 C 
BRANCH  32  33
ATOM     33  O   UNL A   1      40.023  19.717  26.639  1.00  0.00    -0.460 OA
BRANCH  33  34
ATOM     34  C   UNL A   1      41.316  19.527  26.278  1.00  0.00     0.338 C 
ATOM     35  O   UNL A   1      41.805  18.542  25.751  1.00  0.00    -0.246 OA
BRANCH  34  36
ATOM     36  C   UNL A   1      42.080  20.772  26.469  1.00  0.00     0.060 A 
ATOM     37  C   UNL A   1      42.352  21.174  27.783  1.00  0.00     0.016 A 
ATOM     38  C   UNL A   1      42.431  21.582  25.388  1.00  0.00     0.016 A 
ATOM     39  C   UNL A   1      42.950  22.410  28.023  1.00  0.00     0.010 A 
ATOM     40  C   UNL A   1      43.021  22.826  25.632  1.00  0.00     0.010 A 
ATOM     41  C   UNL A   1      43.256  23.258  26.951  1.00  0.00    -0.014 A 
BRANCH  41  42
ATOM     42  C   UNL A   1      43.714  24.643  27.214  1.00  0.00     0.031 A 
ATOM     43  C   UNL A   1      42.739  25.652  27.751  1.00  0.00     0.074 A 
ATOM     44  C   UNL A   1      44.992  24.994  26.984  1.00  0.00     0.049 A 
ATOM     45  N   UNL A   1      42.910  26.926  27.997  1.00  0.00    -0.248 NA
ATOM     46  C   UNL A   1      41.386  25.158  28.052  1.00  0.00     0.031 C 
ATOM     47  C   UNL A   1      46.038  24.095  26.500  1.00  0.00     0.029 A 
ATOM     48  N   UNL A   1      45.622  26.206  27.119  1.00  0.00    -0.354 N 
ATOM     49  C   UNL A   1      41.690  27.387  28.471  1.00  0.00     0.074 A 
ATOM     50  C   UNL A   1      40.778  26.263  28.456  1.00  0.00     0.031 C 
ATOM     51  C   UNL A   1      47.180  24.791  26.363  1.00  0.00     0.029 A 
ATOM     52  C   UNL A   1      46.934  26.189  26.717  1.00  0.00     0.049 A 
ATOM     53  H   UNL A   1      45.175  27.009  27.470  1.00  0.00     0.167 HD
ATOM     54  C   UNL A   1      41.363  28.634  28.889  1.00  0.00     0.037 A 
ATOM     55  C   UNL A   1      47.826  27.193  26.620  1.00  0.00     0.037 A 
ATOM     56  C   UNL A   1      42.274  29.749  28.903  1.00  0.00     0.049 A 
ATOM     57  C   UNL A   1      47.416  28.586  27.022  1.00  0.00     0.074 A 
ATOM     58  C   UNL A   1      42.044  31.045  29.329  1.00  0.00     0.029 A 
ATOM     59  N   UNL A   1      43.588  29.699  28.462  1.00  0.00    -0.354 N 
ATOM     60  N   UNL A   1      46.269  29.009  27.495  1.00  0.00    -0.248 NA
ATOM     61  C   UNL A   1      48.429  29.642  26.876  1.00  0.00     0.031 C 
ATOM     62  C   UNL A   1      43.203  31.793  29.098  1.00  0.00     0.029 A 
ATOM     63  C   UNL A   1      44.172  30.951  28.578  1.00  0.00     0.049 A 
ATOM     64  H   UNL A   1      44.038  28.896  28.116  1.00  0.00     0.167 HD
ATOM     65  C   UNL A   1      46.429  30.368  27.729  1.00  0.00     0.074 A 
ATOM     66  C   UNL A   1      47.788  30.699  27.357  1.00  0.00     0.031 C 
ATOM     67  C   UNL A   1      45.530  31.262  28.210  1.00  0.00     0.037 A 
BRANCH  54  68
ATOM     68  C   UNL A   1      39.952  28.866  29.342  1.00  0.00     0.064 A 
ATOM     69  C   UNL A   1      38.952  29.295  28.456  1.00  0.00     0.173 A 
ATOM     70  C   UNL A   1      39.585  28.617  30.674  1.00  0.00     0.173 A 
ATOM     71  F   UNL A   1      39.253  29.557  27.175  1.00  0.00    -0.203 F 
ATOM     72  C   UNL A   1      37.644  29.490  28.893  1.00  0.00     0.198 A 
ATOM     73  C   UNL A   1      38.271  28.787  31.100  1.00  0.00     0.198 A 
ATOM     74  F   UNL A   1      40.501  28.201  31.561  1.00  0.00    -0.203 F 
ATOM     75  F   UNL A   1      36.714  29.941  28.038  1.00  0.00    -0.200 F 
ATOM     76  C   UNL A   1      37.303  29.229  30.211  1.00  0.00     0.200 A 
ATOM     77  F   UNL A   1      37.940  28.523  32.372  1.00  0.00    -0.200 F 
ATOM     78  F   UNL A   1      36.041  29.410  30.627  1.00  0.00    -0.200 F 
ENDBRANCH  54  68
BRANCH  55  79
ATOM     79  C   UNL A   1      49.194  26.922  26.107  1.00  0.00     0.064 A 
ATOM     80  C   UNL A   1      49.499  27.070  24.748  1.00  0.00     0.173 A 
ATOM     81  C   UNL A   1      50.219  26.493  26.964  1.00  0.00     0.173 A 
ATOM     82  F   UNL A   1      48.546  27.451  23.886  1.00  0.00    -0.203 F 
ATOM     83  C   UNL A   1      50.774  26.785  24.262  1.00  0.00     0.198 A 
ATOM     84  C   UNL A   1      51.501  26.236  26.481  1.00  0.00     0.198 A 
ATOM     85  F   UNL A   1      49.977  26.331  28.273  1.00  0.00    -0.203 F 
ATOM     86  F   UNL A   1      51.026  26.891  22.950  1.00  0.00    -0.200 F 
ATOM     87  C   UNL A   1      51.775  26.375  25.129  1.00  0.00     0.200 A 
ATOM     88  F   UNL A   1      52.467  25.850  27.324  1.00  0.00    -0.200 F 
ATOM     89  F   UNL A   1      53.001  26.104  24.661  1.00  0.00    -0.200 F 
ENDBRANCH  55  79
BRANCH  67  90
ATOM     90  C   UNL A   1      45.997  32.678  28.398  1.00  0.00     0.064 A 
ATOM     91  C   UNL A   1      45.841  33.645  27.395  1.00  0.00     0.173 A 
ATOM     92  C   UNL A   1      46.565  33.081  29.616  1.00  0.00     0.173 A 
ATOM     93  F   UNL A   1      45.317  33.307  26.207  1.00  0.00    -0.203 F 
ATOM     94  C   UNL A   1      46.258  34.958  27.596  1.00  0.00     0.198 A 
ATOM     95  C   UNL A   1      46.954  34.401  29.825  1.00  0.00     0.198 A 
ATOM     96  F   UNL A   1      46.730  32.196  30.611  1.00  0.00    -0.203 F 
ATOM     97  F   UNL A   1      46.140  35.855  26.607  1.00  0.00    -0.200 F 
ATOM     98  C   UNL A   1      46.806  35.337  28.813  1.00  0.00     0.200 A 
ATOM     99  F   UNL A   1      47.470  34.768  31.005  1.00  0.00    -0.200 F 
ATOM    100  F   UNL A   1      47.198  36.604  29.006  1.00  0.00    -0.200 F 
ENDBRANCH  67  90
ENDBRANCH  41  42
ENDBRANCH  34  36
ENDBRANCH  33  34
ENDBRANCH  32  33
ENDBRANCH  31  32
ENDBRANCH  30  31
ENDBRANCH   1  30
TORSDOF 18
ENDMDL
