MODEL 1
REMARK VINA RESULT:     -11.3      0.000      0.000
REMARK SMILES O=C(CCN1C(=O)/C(=C2\C(=O)N(Cc3ccc(Cl)cc3)c3ccccc32)SC1=S)OCCOCCOC(=O)c1ccc(-c2c3nc(c(-c4c(F)c(F)c(F)c(F)c4F)c4ccc([nH]4)c(-c4c(F)c(F)c(F)c(F)c4F)c4nc(c(-c5c(F)c(F)c(F)c(F)c5F)c5ccc2[nH]5)C=C4)C=C3)cc1
REMARK SMILES IDX 32 1 31 2 30 3 2 4 1 5 3 6 4 7 5 8 6 9 28 10 7 11 8 12 27 13
REMARK SMILES IDX 29 14 9 15 10 16 26 17 11 18 12 19 21 20 25 21 22 22 24 23
REMARK SMILES IDX 23 24 13 25 14 26 15 27 20 28 16 29 19 30 17 31 18 32 33 33
REMARK SMILES IDX 34 34 35 35 36 36 37 37 38 38 39 39 40 40 101 41 41 42
REMARK SMILES IDX 100 43 42 44 43 45 44 46 94 47 45 48 99 49 93 50 95 51 46 52
REMARK SMILES IDX 98 53 92 54 91 55 47 57 79 58 59 59 78 60 60 61 63 62 77 63
REMARK SMILES IDX 96 64 61 65 62 66 76 68 97 69 64 70 48 71 49 72 57 73 50 74
REMARK SMILES IDX 51 75 55 76 58 77 52 78 53 79 56 80 54 81 80 82 81 83 89 84
REMARK SMILES IDX 82 85 83 86 87 87 90 88 84 89 85 90 88 91 86 92 65 93 66 94
REMARK SMILES IDX 74 95 67 96 68 97 72 98 75 99 69 100 70 101 73 102 71 103
REMARK H PARENT 95 56 63 67
REMARK Flexibility Score: inf
ROOT
ATOM      1  C   UNL A   1      32.723  21.631  25.835  1.00  0.00     0.202 C 
ENDROOT
BRANCH   1   2
ATOM      2  C   UNL A   1      31.420  22.385  25.595  1.00  0.00     0.261 C 
BRANCH   2   3
ATOM      3  O   UNL A   1      31.523  23.328  24.546  1.00  0.00    -0.463 OA
BRANCH   3   4
ATOM      4  C   UNL A   1      30.799  24.460  24.693  1.00  0.00     0.307 C 
ATOM      5  O   UNL A   1      30.156  24.646  25.722  1.00  0.00    -0.252 OA
BRANCH   4   6
ATOM      6  C   UNL A   1      30.712  25.412  23.513  1.00  0.00     0.144 C 
BRANCH   6   7
ATOM      7  C   UNL A   1      31.450  26.742  23.613  1.00  0.00     0.139 C 
BRANCH   7   8
ATOM      8  N   UNL A   1      32.304  27.060  24.770  1.00  0.00    -0.292 N 
ATOM      9  C   UNL A   1      31.900  27.726  25.921  1.00  0.00     0.267 C 
ATOM     10  C   UNL A   1      33.521  26.426  24.954  1.00  0.00     0.148 C 
ATOM     11  O   UNL A   1      30.829  27.642  26.488  1.00  0.00    -0.268 OA
ATOM     12  C   UNL A   1      33.133  28.339  26.507  1.00  0.00     0.093 C 
ATOM     13  S   UNL A   1      34.185  26.923  26.501  1.00  0.00    -0.053 SA
ATOM     14  S   UNL A   1      34.341  25.388  23.942  1.00  0.00    -0.052 S 
ATOM     15  C   UNL A   1      33.517  29.608  26.810  1.00  0.00     0.069 C 
ATOM     16  C   UNL A   1      32.855  30.969  27.080  1.00  0.00     0.260 C 
ATOM     17  C   UNL A   1      34.904  29.857  27.166  1.00  0.00     0.012 A 
ATOM     18  O   UNL A   1      31.911  31.494  26.535  1.00  0.00    -0.269 OA
ATOM     19  N   UNL A   1      33.619  31.688  28.018  1.00  0.00    -0.303 N 
ATOM     20  C   UNL A   1      34.866  30.794  28.170  1.00  0.00     0.052 A 
ATOM     21  C   UNL A   1      36.095  29.267  26.704  1.00  0.00     0.011 A 
ATOM     22  C   UNL A   1      35.883  30.508  29.090  1.00  0.00     0.027 A 
ATOM     23  C   UNL A   1      37.233  29.328  27.482  1.00  0.00     0.001 A 
ATOM     24  C   UNL A   1      37.095  29.876  28.735  1.00  0.00     0.002 A 
BRANCH  19  25
ATOM     25  C   UNL A   1      33.130  33.361  28.172  1.00  0.00     0.161 C 
BRANCH  25  26
ATOM     26  C   UNL A   1      33.536  34.601  29.178  1.00  0.00    -0.028 A 
ATOM     27  C   UNL A   1      34.281  34.594  30.350  1.00  0.00     0.007 A 
ATOM     28  C   UNL A   1      33.226  35.935  28.931  1.00  0.00     0.007 A 
ATOM     29  C   UNL A   1      33.836  35.399  31.464  1.00  0.00     0.021 A 
ATOM     30  C   UNL A   1      32.727  36.766  30.019  1.00  0.00     0.021 A 
ATOM     31  C   UNL A   1      32.585  36.247  31.404  1.00  0.00     0.041 A 
ATOM     32  Cl  UNL A   1      30.524  36.098  32.940  1.00  0.00    -0.084 Cl
ENDBRANCH  25  26
ENDBRANCH  19  25
ENDBRANCH   7   8
ENDBRANCH   6   7
ENDBRANCH   4   6
ENDBRANCH   3   4
ENDBRANCH   2   3
ENDBRANCH   1   2
BRANCH   1  33
ATOM     33  O   UNL A   1      33.908  22.282  25.440  1.00  0.00    -0.374 OA
BRANCH  33  34
ATOM     34  C   UNL A   1      35.009  21.779  26.167  1.00  0.00     0.202 C 
BRANCH  34  35
ATOM     35  C   UNL A   1      36.223  21.269  25.346  1.00  0.00     0.261 C 
BRANCH  35  36
ATOM     36  O   UNL A   1      37.397  22.122  25.245  1.00  0.00    -0.460 OA
BRANCH  36  37
ATOM     37  C   UNL A   1      38.588  21.729  25.803  1.00  0.00     0.338 C 
ATOM     38  O   UNL A   1      39.093  20.627  25.704  1.00  0.00    -0.246 OA
BRANCH  37  39
ATOM     39  C   UNL A   1      39.179  22.881  26.586  1.00  0.00     0.060 A 
ATOM     40  C   UNL A   1      38.506  24.070  26.587  1.00  0.00     0.016 A 
ATOM     41  C   UNL A   1      40.347  22.863  27.372  1.00  0.00     0.016 A 
ATOM     42  C   UNL A   1      39.092  25.197  27.208  1.00  0.00     0.010 A 
ATOM     43  C   UNL A   1      40.946  24.084  27.935  1.00  0.00     0.010 A 
ATOM     44  C   UNL A   1      40.399  25.365  27.735  1.00  0.00    -0.014 A 
BRANCH  44  45
ATOM     45  C   UNL A   1      41.034  26.833  28.080  1.00  0.00     0.031 A 
ATOM     46  C   UNL A   1      40.843  28.066  29.306  1.00  0.00     0.074 A 
ATOM     47  C   UNL A   1      42.270  27.004  27.590  1.00  0.00     0.049 A 
ATOM     48  N   UNL A   1      41.130  29.375  29.240  1.00  0.00    -0.248 NA
ATOM     49  C   UNL A   1      40.243  27.849  30.663  1.00  0.00     0.031 C 
ATOM     50  C   UNL A   1      43.384  25.616  26.771  1.00  0.00     0.029 A 
ATOM     51  N   UNL A   1      43.449  28.415  27.986  1.00  0.00    -0.354 N 
ATOM     52  C   UNL A   1      40.582  30.011  30.385  1.00  0.00     0.074 A 
ATOM     53  C   UNL A   1      39.978  29.020  31.181  1.00  0.00     0.031 C 
ATOM     54  C   UNL A   1      45.001  26.081  26.812  1.00  0.00     0.029 A 
ATOM     55  C   UNL A   1      45.189  27.871  27.544  1.00  0.00     0.049 A 
ATOM     56  H   UNL A   1      43.196  29.289  28.362  1.00  0.00     0.167 HD
ATOM     57  C   UNL A   1      40.600  31.277  30.863  1.00  0.00     0.037 A 
ATOM     58  C   UNL A   1      46.186  28.704  27.184  1.00  0.00     0.037 A 
ATOM     59  C   UNL A   1      41.572  32.229  30.451  1.00  0.00     0.049 A 
ATOM     60  C   UNL A   1      46.052  30.135  27.572  1.00  0.00     0.074 A 
ATOM     61  C   UNL A   1      41.657  33.561  30.791  1.00  0.00     0.029 A 
ATOM     62  N   UNL A   1      42.718  31.893  29.741  1.00  0.00    -0.354 N 
ATOM     63  N   UNL A   1      45.085  30.720  28.233  1.00  0.00    -0.248 NA
ATOM     64  C   UNL A   1      47.159  31.018  27.203  1.00  0.00     0.031 C 
ATOM     65  C   UNL A   1      42.855  34.048  30.272  1.00  0.00     0.029 A 
ATOM     66  C   UNL A   1      43.534  33.005  29.654  1.00  0.00     0.049 A 
ATOM     67  H   UNL A   1      42.917  31.007  29.362  1.00  0.00     0.167 HD
ATOM     68  C   UNL A   1      45.481  32.029  28.416  1.00  0.00     0.074 A 
ATOM     69  C   UNL A   1      46.787  32.149  27.790  1.00  0.00     0.031 C 
ATOM     70  C   UNL A   1      44.837  33.042  29.046  1.00  0.00     0.037 A 
BRANCH  57  71
ATOM     71  C   UNL A   1      39.480  31.710  31.815  1.00  0.00     0.064 A 
ATOM     72  C   UNL A   1      39.456  31.512  33.210  1.00  0.00     0.173 A 
ATOM     73  C   UNL A   1      38.331  32.292  31.248  1.00  0.00     0.173 A 
ATOM     74  F   UNL A   1      40.513  30.979  33.841  1.00  0.00    -0.203 F 
ATOM     75  C   UNL A   1      38.306  31.777  33.965  1.00  0.00     0.198 A 
ATOM     76  C   UNL A   1      37.213  32.621  32.015  1.00  0.00     0.198 A 
ATOM     77  F   UNL A   1      38.286  32.540  29.931  1.00  0.00    -0.203 F 
ATOM     78  F   UNL A   1      38.268  31.452  35.266  1.00  0.00    -0.200 F 
ATOM     79  C   UNL A   1      37.187  32.334  33.368  1.00  0.00     0.200 A 
ATOM     80  F   UNL A   1      36.149  33.194  31.434  1.00  0.00    -0.200 F 
ATOM     81  F   UNL A   1      36.085  32.582  34.090  1.00  0.00    -0.200 F 
ENDBRANCH  57  71
BRANCH  58  82
ATOM     82  C   UNL A   1      47.292  28.144  26.379  1.00  0.00     0.064 A 
ATOM     83  C   UNL A   1      48.449  27.703  27.021  1.00  0.00     0.173 A 
ATOM     84  C   UNL A   1      47.187  27.919  24.992  1.00  0.00     0.173 A 
ATOM     85  F   UNL A   1      48.607  27.929  28.332  1.00  0.00    -0.203 F 
ATOM     86  C   UNL A   1      49.439  27.015  26.324  1.00  0.00     0.198 A 
ATOM     87  C   UNL A   1      48.163  27.201  24.303  1.00  0.00     0.198 A 
ATOM     88  F   UNL A   1      46.118  28.350  24.308  1.00  0.00    -0.203 F 
ATOM     89  F   UNL A   1      50.534  26.593  26.971  1.00  0.00    -0.200 F 
ATOM     90  C   UNL A   1      49.285  26.744  24.972  1.00  0.00     0.200 A 
ATOM     91  F   UNL A   1      48.001  26.925  23.000  1.00  0.00    -0.200 F 
ATOM     92  F   UNL A   1      50.215  26.034  24.319  1.00  0.00    -0.200 F 
ENDBRANCH  58  82
BRANCH  70  93
ATOM     93  C   UNL A   1      45.564  34.340  29.128  1.00  0.00     0.064 A 
ATOM     94  C   UNL A   1      46.444  34.604  30.183  1.00  0.00     0.173 A 
ATOM     95  C   UNL A   1      45.430  35.292  28.106  1.00  0.00     0.173 A 
ATOM     96  F   UNL A   1      46.596  33.712  31.174  1.00  0.00    -0.203 F 
ATOM     97  C   UNL A   1      47.139  35.803  30.237  1.00  0.00     0.198 A 
ATOM     98  C   UNL A   1      46.157  36.473  28.144  1.00  0.00     0.198 A 
ATOM     99  F   UNL A   1      44.619  35.059  27.063  1.00  0.00    -0.203 F 
ATOM    100  F   UNL A   1      47.933  36.065  31.283  1.00  0.00    -0.200 F 
ATOM    101  C   UNL A   1      47.000  36.734  29.215  1.00  0.00     0.200 A 
ATOM    102  F   UNL A   1      46.045  37.359  27.145  1.00  0.00    -0.200 F 
ATOM    103  F   UNL A   1      47.679  37.888  29.266  1.00  0.00    -0.200 F 
ENDBRANCH  70  93
ENDBRANCH  44  45
ENDBRANCH  37  39
ENDBRANCH  36  37
ENDBRANCH  35  36
ENDBRANCH  34  35
ENDBRANCH  33  34
ENDBRANCH   1  33
TORSDOF 18
ENDMDL
MODEL 2
REMARK VINA RESULT:     -11.1      9.230     16.447
REMARK SMILES O=C(CCN1C(=O)/C(=C2\C(=O)N(Cc3ccc(Cl)cc3)c3ccccc32)SC1=S)OCCOCCOC(=O)c1ccc(-c2c3nc(c(-c4c(F)c(F)c(F)c(F)c4F)c4ccc([nH]4)c(-c4c(F)c(F)c(F)c(F)c4F)c4nc(c(-c5c(F)c(F)c(F)c(F)c5F)c5ccc2[nH]5)C=C4)C=C3)cc1
REMARK SMILES IDX 32 1 31 2 30 3 2 4 1 5 3 6 4 7 5 8 6 9 28 10 7 11 8 12 27 13
REMARK SMILES IDX 29 14 9 15 10 16 26 17 11 18 12 19 21 20 25 21 22 22 24 23
REMARK SMILES IDX 23 24 13 25 14 26 15 27 20 28 16 29 19 30 17 31 18 32 33 33
REMARK SMILES IDX 34 34 35 35 36 36 37 37 38 38 39 39 40 40 101 41 41 42
REMARK SMILES IDX 100 43 42 44 43 45 44 46 94 47 45 48 99 49 93 50 95 51 46 52
REMARK SMILES IDX 98 53 92 54 91 55 47 57 79 58 59 59 78 60 60 61 63 62 77 63
REMARK SMILES IDX 96 64 61 65 62 66 76 68 97 69 64 70 48 71 49 72 57 73 50 74
REMARK SMILES IDX 51 75 55 76 58 77 52 78 53 79 56 80 54 81 80 82 81 83 89 84
REMARK SMILES IDX 82 85 83 86 87 87 90 88 84 89 85 90 88 91 86 92 65 93 66 94
REMARK SMILES IDX 74 95 67 96 68 97 72 98 75 99 69 100 70 101 73 102 71 103
REMARK H PARENT 95 56 63 67
REMARK Flexibility Score: inf
ROOT
ATOM      1  C   UNL A   1      46.562  43.972  28.409  1.00  0.00     0.202 C 
ENDROOT
BRANCH   1   2
ATOM      2  C   UNL A   1      46.921  44.984  27.327  1.00  0.00     0.261 C 
BRANCH   2   3
ATOM      3  O   UNL A   1      45.828  45.288  26.482  1.00  0.00    -0.463 OA
BRANCH   3   4
ATOM      4  C   UNL A   1      45.757  44.586  25.329  1.00  0.00     0.307 C 
ATOM      5  O   UNL A   1      46.751  44.473  24.618  1.00  0.00    -0.252 OA
BRANCH   4   6
ATOM      6  C   UNL A   1      44.400  44.060  24.894  1.00  0.00     0.144 C 
BRANCH   6   7
ATOM      7  C   UNL A   1      44.362  42.782  24.064  1.00  0.00     0.139 C 
BRANCH   7   8
ATOM      8  N   UNL A   1      43.972  42.803  22.643  1.00  0.00    -0.292 N 
ATOM      9  C   UNL A   1      44.827  42.620  21.562  1.00  0.00     0.267 C 
ATOM     10  C   UNL A   1      42.646  42.678  22.266  1.00  0.00     0.148 C 
ATOM     11  O   UNL A   1      45.782  41.873  21.490  1.00  0.00    -0.268 OA
ATOM     12  C   UNL A   1      44.177  43.293  20.394  1.00  0.00     0.093 C 
ATOM     13  S   UNL A   1      42.568  42.579  20.515  1.00  0.00    -0.053 SA
ATOM     14  S   UNL A   1      41.272  42.657  23.205  1.00  0.00    -0.052 S 
ATOM     15  C   UNL A   1      44.536  44.295  19.549  1.00  0.00     0.069 C 
ATOM     16  C   UNL A   1      45.826  44.987  19.079  1.00  0.00     0.260 C 
ATOM     17  C   UNL A   1      43.537  44.850  18.651  1.00  0.00     0.012 A 
ATOM     18  O   UNL A   1      46.810  45.303  19.707  1.00  0.00    -0.269 OA
ATOM     19  N   UNL A   1      45.682  45.395  17.739  1.00  0.00    -0.303 N 
ATOM     20  C   UNL A   1      44.194  45.092  17.469  1.00  0.00     0.052 A 
ATOM     21  C   UNL A   1      42.156  45.061  18.825  1.00  0.00     0.011 A 
ATOM     22  C   UNL A   1      43.326  44.812  16.406  1.00  0.00     0.027 A 
ATOM     23  C   UNL A   1      41.338  45.169  17.718  1.00  0.00     0.001 A 
ATOM     24  C   UNL A   1      41.923  44.946  16.494  1.00  0.00     0.002 A 
BRANCH  19  25
ATOM     25  C   UNL A   1      46.964  46.455  17.196  1.00  0.00     0.161 C 
BRANCH  25  26
ATOM     26  C   UNL A   1      48.512  46.234  16.678  1.00  0.00    -0.028 A 
ATOM     27  C   UNL A   1      49.011  45.397  15.688  1.00  0.00     0.007 A 
ATOM     28  C   UNL A   1      49.600  46.964  17.146  1.00  0.00     0.007 A 
ATOM     29  C   UNL A   1      50.244  44.686  15.934  1.00  0.00     0.021 A 
ATOM     30  C   UNL A   1      50.845  46.272  17.452  1.00  0.00     0.021 A 
ATOM     31  C   UNL A   1      51.010  44.812  17.233  1.00  0.00     0.041 A 
ATOM     32  Cl  UNL A   1      51.627  42.924  18.871  1.00  0.00    -0.084 Cl
ENDBRANCH  25  26
ENDBRANCH  19  25
ENDBRANCH   7   8
ENDBRANCH   6   7
ENDBRANCH   4   6
ENDBRANCH   3   4
ENDBRANCH   2   3
ENDBRANCH   1   2
BRANCH   1  33
ATOM     33  O   UNL A   1      47.107  42.681  28.269  1.00  0.00    -0.374 OA
BRANCH  33  34
ATOM     34  C   UNL A   1      46.080  41.736  28.057  1.00  0.00     0.202 C 
BRANCH  34  35
ATOM     35  C   UNL A   1      46.483  40.393  27.391  1.00  0.00     0.261 C 
BRANCH  35  36
ATOM     36  O   UNL A   1      46.676  39.230  28.244  1.00  0.00    -0.460 OA
BRANCH  36  37
ATOM     37  C   UNL A   1      47.468  38.190  27.826  1.00  0.00     0.338 C 
ATOM     38  O   UNL A   1      48.659  38.251  27.586  1.00  0.00    -0.246 OA
BRANCH  37  39
ATOM     39  C   UNL A   1      46.624  36.942  27.687  1.00  0.00     0.060 A 
ATOM     40  C   UNL A   1      46.689  36.007  28.681  1.00  0.00     0.016 A 
ATOM     41  C   UNL A   1      45.721  36.639  26.649  1.00  0.00     0.016 A 
ATOM     42  C   UNL A   1      46.007  34.779  28.523  1.00  0.00     0.010 A 
ATOM     43  C   UNL A   1      45.095  35.315  26.501  1.00  0.00     0.010 A 
ATOM     44  C   UNL A   1      45.346  34.248  27.384  1.00  0.00    -0.014 A 
BRANCH  44  45
ATOM     45  C   UNL A   1      44.933  32.670  27.253  1.00  0.00     0.031 A 
ATOM     46  C   UNL A   1      45.727  31.155  26.891  1.00  0.00     0.074 A 
ATOM     47  C   UNL A   1      43.852  32.344  27.976  1.00  0.00     0.049 A 
ATOM     48  N   UNL A   1      45.197  30.013  26.426  1.00  0.00    -0.248 NA
ATOM     49  C   UNL A   1      47.202  30.906  26.989  1.00  0.00     0.031 C 
ATOM     50  C   UNL A   1      42.955  33.494  29.285  1.00  0.00     0.029 A 
ATOM     51  N   UNL A   1      43.215  30.609  28.321  1.00  0.00    -0.354 N 
ATOM     52  C   UNL A   1      46.257  29.144  26.059  1.00  0.00     0.074 A 
ATOM     53  C   UNL A   1      47.470  29.792  26.359  1.00  0.00     0.031 C 
ATOM     54  C   UNL A   1      42.039  32.554  30.338  1.00  0.00     0.029 A 
ATOM     55  C   UNL A   1      42.092  30.681  29.822  1.00  0.00     0.049 A 
ATOM     56  H   UNL A   1      43.434  29.801  27.803  1.00  0.00     0.167 HD
ATOM     57  C   UNL A   1      46.322  27.876  25.590  1.00  0.00     0.037 A 
ATOM     58  C   UNL A   1      41.074  29.831  30.062  1.00  0.00     0.037 A 
ATOM     59  C   UNL A   1      45.244  26.960  25.732  1.00  0.00     0.049 A 
ATOM     60  C   UNL A   1      41.102  28.519  29.358  1.00  0.00     0.074 A 
ATOM     61  C   UNL A   1      45.146  25.679  25.235  1.00  0.00     0.029 A 
ATOM     62  N   UNL A   1      44.157  27.182  26.566  1.00  0.00    -0.354 N 
ATOM     63  N   UNL A   1      41.996  28.055  28.520  1.00  0.00    -0.248 NA
ATOM     64  C   UNL A   1      40.008  27.594  29.655  1.00  0.00     0.031 C 
ATOM     65  C   UNL A   1      43.980  25.119  25.756  1.00  0.00     0.029 A 
ATOM     66  C   UNL A   1      43.386  26.037  26.613  1.00  0.00     0.049 A 
ATOM     67  H   UNL A   1      43.966  28.019  27.047  1.00  0.00     0.167 HD
ATOM     68  C   UNL A   1      41.612  26.762  28.227  1.00  0.00     0.074 A 
ATOM     69  C   UNL A   1      40.397  26.518  28.984  1.00  0.00     0.031 C 
ATOM     70  C   UNL A   1      42.207  25.853  27.416  1.00  0.00     0.037 A 
BRANCH  57  71
ATOM     71  C   UNL A   1      47.571  27.454  24.809  1.00  0.00     0.064 A 
ATOM     72  C   UNL A   1      48.683  26.765  25.333  1.00  0.00     0.173 A 
ATOM     73  C   UNL A   1      47.662  27.849  23.461  1.00  0.00     0.173 A 
ATOM     74  F   UNL A   1      48.680  26.333  26.604  1.00  0.00    -0.203 F 
ATOM     75  C   UNL A   1      49.853  26.589  24.583  1.00  0.00     0.198 A 
ATOM     76  C   UNL A   1      48.803  27.609  22.695  1.00  0.00     0.198 A 
ATOM     77  F   UNL A   1      46.635  28.485  22.879  1.00  0.00    -0.203 F 
ATOM     78  F   UNL A   1      50.941  26.050  25.154  1.00  0.00    -0.200 F 
ATOM     79  C   UNL A   1      49.911  27.008  23.264  1.00  0.00     0.200 A 
ATOM     80  F   UNL A   1      48.836  27.986  21.409  1.00  0.00    -0.200 F 
ATOM     81  F   UNL A   1      51.033  26.844  22.549  1.00  0.00    -0.200 F 
ENDBRANCH  57  71
BRANCH  58  82
ATOM     82  C   UNL A   1      39.985  30.294  30.947  1.00  0.00     0.064 A 
ATOM     83  C   UNL A   1      40.081  30.076  32.321  1.00  0.00     0.173 A 
ATOM     84  C   UNL A   1      38.899  31.061  30.481  1.00  0.00     0.173 A 
ATOM     85  F   UNL A   1      41.078  29.321  32.804  1.00  0.00    -0.203 F 
ATOM     86  C   UNL A   1      39.167  30.644  33.204  1.00  0.00     0.198 A 
ATOM     87  C   UNL A   1      38.004  31.657  31.369  1.00  0.00     0.198 A 
ATOM     88  F   UNL A   1      38.727  31.278  29.169  1.00  0.00    -0.203 F 
ATOM     89  F   UNL A   1      39.293  30.427  34.520  1.00  0.00    -0.200 F 
ATOM     90  C   UNL A   1      38.144  31.453  32.731  1.00  0.00     0.200 A 
ATOM     91  F   UNL A   1      37.029  32.453  30.907  1.00  0.00    -0.200 F 
ATOM     92  F   UNL A   1      37.300  32.042  33.589  1.00  0.00    -0.200 F 
ENDBRANCH  58  82
BRANCH  70  93
ATOM     93  C   UNL A   1      41.573  24.505  27.355  1.00  0.00     0.064 A 
ATOM     94  C   UNL A   1      40.396  24.298  26.627  1.00  0.00     0.173 A 
ATOM     95  C   UNL A   1      42.189  23.405  27.970  1.00  0.00     0.173 A 
ATOM     96  F   UNL A   1      39.786  25.329  26.024  1.00  0.00    -0.203 F 
ATOM     97  C   UNL A   1      39.829  23.035  26.551  1.00  0.00     0.198 A 
ATOM     98  C   UNL A   1      41.638  22.136  27.859  1.00  0.00     0.198 A 
ATOM     99  F   UNL A   1      43.335  23.561  28.650  1.00  0.00    -0.203 F 
ATOM    100  F   UNL A   1      38.672  22.864  25.898  1.00  0.00    -0.200 F 
ATOM    101  C   UNL A   1      40.453  21.954  27.161  1.00  0.00     0.200 A 
ATOM    102  F   UNL A   1      42.255  21.089  28.423  1.00  0.00    -0.200 F 
ATOM    103  F   UNL A   1      39.906  20.734  27.078  1.00  0.00    -0.200 F 
ENDBRANCH  70  93
ENDBRANCH  44  45
ENDBRANCH  37  39
ENDBRANCH  36  37
ENDBRANCH  35  36
ENDBRANCH  34  35
ENDBRANCH  33  34
ENDBRANCH   1  33
TORSDOF 18
ENDMDL
MODEL 3
REMARK VINA RESULT:     -11.1      8.546     15.728
REMARK SMILES O=C(CCN1C(=O)/C(=C2\C(=O)N(Cc3ccc(Cl)cc3)c3ccccc32)SC1=S)OCCOCCOC(=O)c1ccc(-c2c3nc(c(-c4c(F)c(F)c(F)c(F)c4F)c4ccc([nH]4)c(-c4c(F)c(F)c(F)c(F)c4F)c4nc(c(-c5c(F)c(F)c(F)c(F)c5F)c5ccc2[nH]5)C=C4)C=C3)cc1
REMARK SMILES IDX 32 1 31 2 30 3 2 4 1 5 3 6 4 7 5 8 6 9 28 10 7 11 8 12 27 13
REMARK SMILES IDX 29 14 9 15 10 16 26 17 11 18 12 19 21 20 25 21 22 22 24 23
REMARK SMILES IDX 23 24 13 25 14 26 15 27 20 28 16 29 19 30 17 31 18 32 33 33
REMARK SMILES IDX 34 34 35 35 36 36 37 37 38 38 39 39 40 40 101 41 41 42
REMARK SMILES IDX 100 43 42 44 43 45 44 46 94 47 45 48 99 49 93 50 95 51 46 52
REMARK SMILES IDX 98 53 92 54 91 55 47 57 79 58 59 59 78 60 60 61 63 62 77 63
REMARK SMILES IDX 96 64 61 65 62 66 76 68 97 69 64 70 48 71 49 72 57 73 50 74
REMARK SMILES IDX 51 75 55 76 58 77 52 78 53 79 56 80 54 81 80 82 81 83 89 84
REMARK SMILES IDX 82 85 83 86 87 87 90 88 84 89 85 90 88 91 86 92 65 93 66 94
REMARK SMILES IDX 74 95 67 96 68 97 72 98 75 99 69 100 70 101 73 102 71 103
REMARK H PARENT 95 56 63 67
REMARK Flexibility Score: inf
ROOT
ATOM      1  C   UNL A   1      47.596  44.000  25.663  1.00  0.00     0.202 C 
ENDROOT
BRANCH   1   2
ATOM      2  C   UNL A   1      48.340  44.268  24.360  1.00  0.00     0.261 C 
BRANCH   2   3
ATOM      3  O   UNL A   1      47.736  43.632  23.249  1.00  0.00    -0.463 OA
BRANCH   3   4
ATOM      4  C   UNL A   1      48.492  43.547  22.132  1.00  0.00     0.307 C 
ATOM      5  O   UNL A   1      48.548  42.491  21.510  1.00  0.00    -0.252 OA
BRANCH   4   6
ATOM      6  C   UNL A   1      49.349  44.743  21.755  1.00  0.00     0.144 C 
BRANCH   6   7
ATOM      7  C   UNL A   1      48.823  45.689  20.682  1.00  0.00     0.139 C 
BRANCH   7   8
ATOM      8  N   UNL A   1      47.388  45.752  20.352  1.00  0.00    -0.292 N 
ATOM      9  C   UNL A   1      46.345  45.821  21.268  1.00  0.00     0.267 C 
ATOM     10  C   UNL A   1      46.964  46.084  19.077  1.00  0.00     0.148 C 
ATOM     11  O   UNL A   1      46.327  46.415  22.328  1.00  0.00    -0.268 OA
ATOM     12  C   UNL A   1      45.138  45.275  20.572  1.00  0.00     0.093 C 
ATOM     13  S   UNL A   1      45.214  46.223  19.086  1.00  0.00    -0.053 SA
ATOM     14  S   UNL A   1      47.851  46.298  17.684  1.00  0.00    -0.052 S 
ATOM     15  C   UNL A   1      44.284  44.245  20.809  1.00  0.00     0.069 C 
ATOM     16  C   UNL A   1      43.847  43.372  21.998  1.00  0.00     0.260 C 
ATOM     17  C   UNL A   1      43.336  43.864  19.775  1.00  0.00     0.012 A 
ATOM     18  O   UNL A   1      44.505  42.899  22.895  1.00  0.00    -0.269 OA
ATOM     19  N   UNL A   1      42.494  43.014  21.848  1.00  0.00    -0.303 N 
ATOM     20  C   UNL A   1      42.175  43.545  20.436  1.00  0.00     0.052 A 
ATOM     21  C   UNL A   1      43.453  43.863  18.373  1.00  0.00     0.011 A 
ATOM     22  C   UNL A   1      41.087  43.972  19.664  1.00  0.00     0.027 A 
ATOM     23  C   UNL A   1      42.314  43.899  17.593  1.00  0.00     0.001 A 
ATOM     24  C   UNL A   1      41.119  44.052  18.255  1.00  0.00     0.002 A 
BRANCH  19  25
ATOM     25  C   UNL A   1      41.976  41.780  22.976  1.00  0.00     0.161 C 
BRANCH  25  26
ATOM     26  C   UNL A   1      42.121  41.559  24.602  1.00  0.00    -0.028 A 
ATOM     27  C   UNL A   1      43.260  41.430  25.388  1.00  0.00     0.007 A 
ATOM     28  C   UNL A   1      41.044  41.542  25.484  1.00  0.00     0.007 A 
ATOM     29  C   UNL A   1      43.269  40.446  26.444  1.00  0.00     0.021 A 
ATOM     30  C   UNL A   1      40.995  40.532  26.532  1.00  0.00     0.021 A 
ATOM     31  C   UNL A   1      42.087  39.543  26.725  1.00  0.00     0.041 A 
ATOM     32  Cl  UNL A   1      42.049  36.969  26.699  1.00  0.00    -0.084 Cl
ENDBRANCH  25  26
ENDBRANCH  19  25
ENDBRANCH   7   8
ENDBRANCH   6   7
ENDBRANCH   4   6
ENDBRANCH   3   4
ENDBRANCH   2   3
ENDBRANCH   1   2
BRANCH   1  33
ATOM     33  O   UNL A   1      47.943  42.823  26.355  1.00  0.00    -0.374 OA
BRANCH  33  34
ATOM     34  C   UNL A   1      46.915  41.862  26.233  1.00  0.00     0.202 C 
BRANCH  34  35
ATOM     35  C   UNL A   1      47.349  40.379  26.089  1.00  0.00     0.261 C 
BRANCH  35  36
ATOM     36  O   UNL A   1      46.861  39.419  27.067  1.00  0.00    -0.460 OA
BRANCH  36  37
ATOM     37  C   UNL A   1      47.640  38.350  27.435  1.00  0.00     0.338 C 
ATOM     38  O   UNL A   1      48.827  38.388  27.694  1.00  0.00    -0.246 OA
BRANCH  37  39
ATOM     39  C   UNL A   1      46.794  37.096  27.450  1.00  0.00     0.060 A 
ATOM     40  C   UNL A   1      47.130  36.105  28.329  1.00  0.00     0.016 A 
ATOM     41  C   UNL A   1      45.644  36.837  26.680  1.00  0.00     0.016 A 
ATOM     42  C   UNL A   1      46.435  34.874  28.284  1.00  0.00     0.010 A 
ATOM     43  C   UNL A   1      45.006  35.512  26.623  1.00  0.00     0.010 A 
ATOM     44  C   UNL A   1      45.492  34.399  27.335  1.00  0.00    -0.014 A 
BRANCH  44  45
ATOM     45  C   UNL A   1      45.064  32.824  27.222  1.00  0.00     0.031 A 
ATOM     46  C   UNL A   1      45.847  31.296  26.886  1.00  0.00     0.074 A 
ATOM     47  C   UNL A   1      43.974  32.518  27.939  1.00  0.00     0.049 A 
ATOM     48  N   UNL A   1      45.309  30.153  26.432  1.00  0.00    -0.248 NA
ATOM     49  C   UNL A   1      47.318  31.035  27.001  1.00  0.00     0.031 C 
ATOM     50  C   UNL A   1      43.076  33.693  29.225  1.00  0.00     0.029 A 
ATOM     51  N   UNL A   1      43.317  30.794  28.301  1.00  0.00    -0.354 N 
ATOM     52  C   UNL A   1      46.364  29.269  26.087  1.00  0.00     0.074 A 
ATOM     53  C   UNL A   1      47.580  29.910  26.389  1.00  0.00     0.031 C 
ATOM     54  C   UNL A   1      42.142  32.776  30.282  1.00  0.00     0.029 A 
ATOM     55  C   UNL A   1      42.182  30.896  29.791  1.00  0.00     0.049 A 
ATOM     56  H   UNL A   1      43.532  29.977  27.796  1.00  0.00     0.167 HD
ATOM     57  C   UNL A   1      46.421  27.995  25.635  1.00  0.00     0.037 A 
ATOM     58  C   UNL A   1      41.153  30.059  30.033  1.00  0.00     0.037 A 
ATOM     59  C   UNL A   1      45.333  27.091  25.779  1.00  0.00     0.049 A 
ATOM     60  C   UNL A   1      41.174  28.738  29.347  1.00  0.00     0.074 A 
ATOM     61  C   UNL A   1      45.226  25.804  25.298  1.00  0.00     0.029 A 
ATOM     62  N   UNL A   1      44.240  27.335  26.600  1.00  0.00    -0.354 N 
ATOM     63  N   UNL A   1      42.071  28.254  28.523  1.00  0.00    -0.248 NA
ATOM     64  C   UNL A   1      40.069  27.828  29.647  1.00  0.00     0.031 C 
ATOM     65  C   UNL A   1      44.051  25.263  25.816  1.00  0.00     0.029 A 
ATOM     66  C   UNL A   1      43.458  26.197  26.656  1.00  0.00     0.049 A 
ATOM     67  H   UNL A   1      44.053  28.180  27.068  1.00  0.00     0.167 HD
ATOM     68  C   UNL A   1      41.678  26.961  28.244  1.00  0.00     0.074 A 
ATOM     69  C   UNL A   1      40.453  26.739  28.994  1.00  0.00     0.031 C 
ATOM     70  C   UNL A   1      42.270  26.035  27.451  1.00  0.00     0.037 A 
BRANCH  57  71
ATOM     71  C   UNL A   1      47.672  27.550  24.870  1.00  0.00     0.064 A 
ATOM     72  C   UNL A   1      48.828  26.976  25.435  1.00  0.00     0.173 A 
ATOM     73  C   UNL A   1      47.714  27.800  23.485  1.00  0.00     0.173 A 
ATOM     74  F   UNL A   1      48.874  26.685  26.745  1.00  0.00    -0.203 F 
ATOM     75  C   UNL A   1      49.990  26.775  24.677  1.00  0.00     0.198 A 
ATOM     76  C   UNL A   1      48.849  27.533  22.719  1.00  0.00     0.198 A 
ATOM     77  F   UNL A   1      46.644  28.319  22.866  1.00  0.00    -0.203 F 
ATOM     78  F   UNL A   1      51.116  26.354  25.273  1.00  0.00    -0.200 F 
ATOM     79  C   UNL A   1      49.998  27.051  23.320  1.00  0.00     0.200 A 
ATOM     80  F   UNL A   1      48.835  27.768  21.400  1.00  0.00    -0.200 F 
ATOM     81  F   UNL A   1      51.111  26.864  22.596  1.00  0.00    -0.200 F 
ENDBRANCH  57  71
BRANCH  58  82
ATOM     82  C   UNL A   1      40.061  30.544  30.903  1.00  0.00     0.064 A 
ATOM     83  C   UNL A   1      38.861  30.960  30.327  1.00  0.00     0.173 A 
ATOM     84  C   UNL A   1      40.127  30.492  32.310  1.00  0.00     0.173 A 
ATOM     85  F   UNL A   1      38.766  31.060  28.993  1.00  0.00    -0.203 F 
ATOM     86  C   UNL A   1      37.752  31.260  31.114  1.00  0.00     0.198 A 
ATOM     87  C   UNL A   1      39.007  30.760  33.094  1.00  0.00     0.198 A 
ATOM     88  F   UNL A   1      41.262  30.136  32.928  1.00  0.00    -0.203 F 
ATOM     89  F   UNL A   1      36.610  31.646  30.529  1.00  0.00    -0.200 F 
ATOM     90  C   UNL A   1      37.818  31.137  32.493  1.00  0.00     0.200 A 
ATOM     91  F   UNL A   1      39.070  30.621  34.427  1.00  0.00    -0.200 F 
ATOM     92  F   UNL A   1      36.731  31.373  33.242  1.00  0.00    -0.200 F 
ENDBRANCH  58  82
BRANCH  70  93
ATOM     93  C   UNL A   1      41.624  24.693  27.402  1.00  0.00     0.064 A 
ATOM     94  C   UNL A   1      40.445  24.491  26.677  1.00  0.00     0.173 A 
ATOM     95  C   UNL A   1      42.230  23.593  28.025  1.00  0.00     0.173 A 
ATOM     96  F   UNL A   1      39.843  25.523  26.065  1.00  0.00    -0.203 F 
ATOM     97  C   UNL A   1      39.865  23.232  26.612  1.00  0.00     0.198 A 
ATOM     98  C   UNL A   1      41.668  22.328  27.926  1.00  0.00     0.198 A 
ATOM     99  F   UNL A   1      43.379  23.744  28.703  1.00  0.00    -0.203 F 
ATOM    100  F   UNL A   1      38.706  23.067  25.962  1.00  0.00    -0.200 F 
ATOM    101  C   UNL A   1      40.480  22.151  27.231  1.00  0.00     0.200 A 
ATOM    102  F   UNL A   1      42.275  21.280  28.498  1.00  0.00    -0.200 F 
ATOM    103  F   UNL A   1      39.922  20.936  27.159  1.00  0.00    -0.200 F 
ENDBRANCH  70  93
ENDBRANCH  44  45
ENDBRANCH  37  39
ENDBRANCH  36  37
ENDBRANCH  35  36
ENDBRANCH  34  35
ENDBRANCH  33  34
ENDBRANCH   1  33
TORSDOF 18
ENDMDL
