MODEL 1
REMARK VINA RESULT:     -11.5      0.000      0.000
REMARK SMILES O=C(C[C@H]1CC[C@@H](C(=O)OCCOCCOC(=O)c2ccc(-c3c4nc(c(-c5c(F)c(F)c(F)c(F)c5F)c5ccc([nH]5)c(-c5c(F)c(F)c(F)c(F)c5F)c5nc(c(-c6c(F)c(F)c(F)c(F)c6F)c6ccc3[nH]6)C=C5)C=C4)cc2)C1)c1ccc(Cl)cc1
REMARK SMILES IDX 12 1 11 2 10 3 8 4 9 5 7 6 4 7 5 8 82 9 6 10 3 11 2 12 1 13
REMARK SMILES IDX 83 14 84 15 89 16 85 17 88 18 86 19 87 20 13 21 14 22 15 23
REMARK SMILES IDX 16 24 17 25 18 26 19 27 20 28 81 29 21 30 80 31 22 32 23 33
REMARK SMILES IDX 24 34 74 35 25 36 79 37 73 38 75 39 26 40 78 41 72 42 71 43
REMARK SMILES IDX 27 45 59 46 39 47 58 48 40 49 43 50 57 51 76 52 41 53 42 54
REMARK SMILES IDX 56 56 77 57 44 58 28 59 29 60 37 61 30 62 31 63 35 64 38 65
REMARK SMILES IDX 32 66 33 67 36 68 34 69 60 70 61 71 69 72 62 73 63 74 67 75
REMARK SMILES IDX 70 76 64 77 65 78 68 79 66 80 45 81 46 82 54 83 47 84 48 85
REMARK SMILES IDX 52 86 55 87 49 88 50 89 53 90 51 91
REMARK H PARENT 75 44 43 55
REMARK Flexibility Score: inf
ROOT
ATOM      1  C   UNL A   1      40.656  21.288  27.470  1.00  0.00     0.202 C 
ENDROOT
BRANCH   1   2
ATOM      2  C   UNL A   1      39.888  21.693  26.207  1.00  0.00     0.261 C 
BRANCH   2   3
ATOM      3  O   UNL A   1      38.476  21.743  26.453  1.00  0.00    -0.463 OA
BRANCH   3   4
ATOM      4  C   UNL A   1      37.752  22.548  25.626  1.00  0.00     0.309 C 
ATOM      5  O   UNL A   1      37.713  23.769  25.685  1.00  0.00    -0.252 OA
BRANCH   4   6
ATOM      6  C   UNL A   1      37.097  21.728  24.522  1.00  0.00     0.099 C 
ATOM      7  C   UNL A   1      34.717  22.137  24.710  1.00  0.00    -0.003 C 
ATOM      8  C   UNL A   1      35.220  22.900  23.468  1.00  0.00     0.005 C 
ATOM      9  C   UNL A   1      35.786  21.066  24.925  1.00  0.00     0.019 C 
ATOM     10  C   UNL A   1      36.708  22.577  23.315  1.00  0.00     0.015 C 
BRANCH   7  11
ATOM     11  C   UNL A   1      34.466  23.104  25.880  1.00  0.00     0.084 C 
BRANCH  11  12
ATOM     12  C   UNL A   1      34.094  24.562  25.632  1.00  0.00     0.163 C 
ATOM     13  O   UNL A   1      34.960  25.433  25.749  1.00  0.00    -0.294 OA
BRANCH  12  14
ATOM     14  C   UNL A   1      32.731  24.995  25.200  1.00  0.00     0.018 A 
ATOM     15  C   UNL A   1      32.045  24.447  24.112  1.00  0.00     0.013 A 
ATOM     16  C   UNL A   1      32.110  26.008  25.949  1.00  0.00     0.013 A 
ATOM     17  C   UNL A   1      30.735  24.852  23.825  1.00  0.00     0.021 A 
ATOM     18  C   UNL A   1      30.817  26.432  25.640  1.00  0.00     0.021 A 
ATOM     19  C   UNL A   1      30.125  25.838  24.592  1.00  0.00     0.041 A 
ATOM     20  Cl  UNL A   1      28.512  26.328  24.252  1.00  0.00    -0.084 Cl
ENDBRANCH  12  14
ENDBRANCH  11  12
ENDBRANCH   7  11
ENDBRANCH   4   6
ENDBRANCH   3   4
ENDBRANCH   2   3
ENDBRANCH   1   2
BRANCH   1  21
ATOM     21  O   UNL A   1      42.074  21.178  27.350  1.00  0.00    -0.374 OA
BRANCH  21  22
ATOM     22  C   UNL A   1      42.600  20.723  26.103  1.00  0.00     0.202 C 
BRANCH  22  23
ATOM     23  C   UNL A   1      43.529  21.681  25.347  1.00  0.00     0.261 C 
BRANCH  23  24
ATOM     24  O   UNL A   1      42.848  22.855  24.870  1.00  0.00    -0.460 OA
BRANCH  24  25
ATOM     25  C   UNL A   1      43.564  23.996  24.959  1.00  0.00     0.338 C 
ATOM     26  O   UNL A   1      44.613  24.268  24.378  1.00  0.00    -0.246 OA
BRANCH  25  27
ATOM     27  C   UNL A   1      42.858  24.996  25.774  1.00  0.00     0.060 A 
ATOM     28  C   UNL A   1      43.393  26.290  25.832  1.00  0.00     0.016 A 
ATOM     29  C   UNL A   1      41.778  24.635  26.580  1.00  0.00     0.016 A 
ATOM     30  C   UNL A   1      42.883  27.218  26.739  1.00  0.00     0.010 A 
ATOM     31  C   UNL A   1      41.278  25.563  27.499  1.00  0.00     0.010 A 
ATOM     32  C   UNL A   1      41.850  26.845  27.607  1.00  0.00    -0.014 A 
BRANCH  32  33
ATOM     33  C   UNL A   1      41.460  27.729  28.733  1.00  0.00     0.031 A 
ATOM     34  C   UNL A   1      42.201  27.611  30.035  1.00  0.00     0.074 A 
ATOM     35  C   UNL A   1      40.448  28.605  28.612  1.00  0.00     0.049 A 
ATOM     36  N   UNL A   1      41.964  28.193  31.183  1.00  0.00    -0.248 NA
ATOM     37  C   UNL A   1      43.378  26.726  30.040  1.00  0.00     0.031 C 
ATOM     38  C   UNL A   1      39.700  28.870  27.386  1.00  0.00     0.029 A 
ATOM     39  N   UNL A   1      39.848  29.404  29.552  1.00  0.00    -0.354 N 
ATOM     40  C   UNL A   1      42.963  27.755  32.040  1.00  0.00     0.074 A 
ATOM     41  C   UNL A   1      43.786  26.825  31.297  1.00  0.00     0.031 C 
ATOM     42  C   UNL A   1      38.683  29.703  27.667  1.00  0.00     0.029 A 
ATOM     43  C   UNL A   1      38.715  30.028  29.091  1.00  0.00     0.049 A 
ATOM     44  H   UNL A   1      40.196  29.520  30.465  1.00  0.00     0.167 HD
ATOM     45  C   UNL A   1      43.187  28.114  33.326  1.00  0.00     0.037 A 
ATOM     46  C   UNL A   1      37.793  30.752  29.753  1.00  0.00     0.037 A 
ATOM     47  C   UNL A   1      42.367  29.039  34.064  1.00  0.00     0.049 A 
ATOM     48  C   UNL A   1      37.987  31.041  31.216  1.00  0.00     0.074 A 
ATOM     49  C   UNL A   1      42.537  29.503  35.356  1.00  0.00     0.029 A 
ATOM     50  N   UNL A   1      41.214  29.631  33.573  1.00  0.00    -0.354 N 
ATOM     51  N   UNL A   1      38.960  30.663  32.010  1.00  0.00    -0.248 NA
ATOM     52  C   UNL A   1      36.968  31.873  31.872  1.00  0.00     0.031 C 
ATOM     53  C   UNL A   1      41.458  30.338  35.664  1.00  0.00     0.029 A 
ATOM     54  C   UNL A   1      40.641  30.431  34.548  1.00  0.00     0.049 A 
ATOM     55  H   UNL A   1      40.854  29.500  32.666  1.00  0.00     0.167 HD
ATOM     56  C   UNL A   1      38.698  31.247  33.241  1.00  0.00     0.074 A 
ATOM     57  C   UNL A   1      37.467  31.995  33.095  1.00  0.00     0.031 C 
ATOM     58  C   UNL A   1      39.423  31.182  34.385  1.00  0.00     0.037 A 
BRANCH  45  59
ATOM     59  C   UNL A   1      44.363  27.498  34.022  1.00  0.00     0.064 A 
ATOM     60  C   UNL A   1      45.622  28.116  34.019  1.00  0.00     0.173 A 
ATOM     61  C   UNL A   1      44.221  26.296  34.731  1.00  0.00     0.173 A 
ATOM     62  F   UNL A   1      45.811  29.260  33.346  1.00  0.00    -0.203 F 
ATOM     63  C   UNL A   1      46.703  27.540  34.682  1.00  0.00     0.198 A 
ATOM     64  C   UNL A   1      45.298  25.736  35.411  1.00  0.00     0.198 A 
ATOM     65  F   UNL A   1      43.036  25.668  34.766  1.00  0.00    -0.203 F 
ATOM     66  F   UNL A   1      47.907  28.127  34.633  1.00  0.00    -0.200 F 
ATOM     67  C   UNL A   1      46.539  26.354  35.383  1.00  0.00     0.200 A 
ATOM     68  F   UNL A   1      45.135  24.595  36.097  1.00  0.00    -0.200 F 
ATOM     69  F   UNL A   1      47.579  25.804  36.025  1.00  0.00    -0.200 F 
ENDBRANCH  45  59
BRANCH  46  70
ATOM     70  C   UNL A   1      36.592  31.243  29.031  1.00  0.00     0.064 A 
ATOM     71  C   UNL A   1      36.464  32.589  28.668  1.00  0.00     0.173 A 
ATOM     72  C   UNL A   1      35.549  30.369  28.689  1.00  0.00     0.173 A 
ATOM     73  F   UNL A   1      37.426  33.465  28.995  1.00  0.00    -0.203 F 
ATOM     74  C   UNL A   1      35.328  33.047  28.001  1.00  0.00     0.198 A 
ATOM     75  C   UNL A   1      34.425  30.824  28.004  1.00  0.00     0.198 A 
ATOM     76  F   UNL A   1      35.626  29.070  29.017  1.00  0.00    -0.203 F 
ATOM     77  F   UNL A   1      35.213  34.347  27.696  1.00  0.00    -0.200 F 
ATOM     78  C   UNL A   1      34.314  32.164  27.665  1.00  0.00     0.200 A 
ATOM     79  F   UNL A   1      33.450  29.966  27.675  1.00  0.00    -0.200 F 
ATOM     80  F   UNL A   1      33.225  32.605  27.022  1.00  0.00    -0.200 F 
ENDBRANCH  46  70
BRANCH  58  81
ATOM     81  C   UNL A   1      38.939  31.980  35.558  1.00  0.00     0.064 A 
ATOM     82  C   UNL A   1      38.180  31.398  36.582  1.00  0.00     0.173 A 
ATOM     83  C   UNL A   1      39.291  33.333  35.684  1.00  0.00     0.173 A 
ATOM     84  F   UNL A   1      37.806  30.112  36.498  1.00  0.00    -0.203 F 
ATOM     85  C   UNL A   1      37.780  32.147  37.687  1.00  0.00     0.198 A 
ATOM     86  C   UNL A   1      38.910  34.071  36.801  1.00  0.00     0.198 A 
ATOM     87  F   UNL A   1      40.021  33.933  34.732  1.00  0.00    -0.203 F 
ATOM     88  F   UNL A   1      37.026  31.580  38.639  1.00  0.00    -0.200 F 
ATOM     89  C   UNL A   1      38.152  33.477  37.799  1.00  0.00     0.200 A 
ATOM     90  F   UNL A   1      39.280  35.354  36.913  1.00  0.00    -0.200 F 
ATOM     91  F   UNL A   1      37.775  34.192  38.868  1.00  0.00    -0.200 F 
ENDBRANCH  58  81
ENDBRANCH  32  33
ENDBRANCH  25  27
ENDBRANCH  24  25
ENDBRANCH  23  24
ENDBRANCH  22  23
ENDBRANCH  21  22
ENDBRANCH   1  21
TORSDOF 17
ENDMDL
MODEL 2
REMARK VINA RESULT:     -11.4      0.780      2.156
REMARK SMILES O=C(C[C@H]1CC[C@@H](C(=O)OCCOCCOC(=O)c2ccc(-c3c4nc(c(-c5c(F)c(F)c(F)c(F)c5F)c5ccc([nH]5)c(-c5c(F)c(F)c(F)c(F)c5F)c5nc(c(-c6c(F)c(F)c(F)c(F)c6F)c6ccc3[nH]6)C=C5)C=C4)cc2)C1)c1ccc(Cl)cc1
REMARK SMILES IDX 12 1 11 2 10 3 8 4 9 5 7 6 4 7 5 8 82 9 6 10 3 11 2 12 1 13
REMARK SMILES IDX 83 14 84 15 89 16 85 17 88 18 86 19 87 20 13 21 14 22 15 23
REMARK SMILES IDX 16 24 17 25 18 26 19 27 20 28 81 29 21 30 80 31 22 32 23 33
REMARK SMILES IDX 24 34 74 35 25 36 79 37 73 38 75 39 26 40 78 41 72 42 71 43
REMARK SMILES IDX 27 45 59 46 39 47 58 48 40 49 43 50 57 51 76 52 41 53 42 54
REMARK SMILES IDX 56 56 77 57 44 58 28 59 29 60 37 61 30 62 31 63 35 64 38 65
REMARK SMILES IDX 32 66 33 67 36 68 34 69 60 70 61 71 69 72 62 73 63 74 67 75
REMARK SMILES IDX 70 76 64 77 65 78 68 79 66 80 45 81 46 82 54 83 47 84 48 85
REMARK SMILES IDX 52 86 55 87 49 88 50 89 53 90 51 91
REMARK H PARENT 75 44 43 55
REMARK Flexibility Score: inf
ROOT
ATOM      1  C   UNL A   1      40.756  21.677  27.430  1.00  0.00     0.202 C 
ENDROOT
BRANCH   1   2
ATOM      2  C   UNL A   1      39.895  21.704  26.163  1.00  0.00     0.261 C 
BRANCH   2   3
ATOM      3  O   UNL A   1      38.515  21.928  26.480  1.00  0.00    -0.463 OA
BRANCH   3   4
ATOM      4  C   UNL A   1      37.829  22.739  25.626  1.00  0.00     0.309 C 
ATOM      5  O   UNL A   1      37.833  23.961  25.656  1.00  0.00    -0.252 OA
BRANCH   4   6
ATOM      6  C   UNL A   1      37.155  21.916  24.535  1.00  0.00     0.099 C 
ATOM      7  C   UNL A   1      34.776  22.049  24.972  1.00  0.00    -0.003 C 
ATOM      8  C   UNL A   1      35.070  22.933  23.742  1.00  0.00     0.005 C 
ATOM      9  C   UNL A   1      35.967  21.091  25.012  1.00  0.00     0.019 C 
ATOM     10  C   UNL A   1      36.561  22.785  23.429  1.00  0.00     0.015 C 
BRANCH   7  11
ATOM     11  C   UNL A   1      34.544  22.913  26.223  1.00  0.00     0.084 C 
BRANCH  11  12
ATOM     12  C   UNL A   1      33.257  23.711  26.403  1.00  0.00     0.163 C 
ATOM     13  O   UNL A   1      32.387  23.287  27.169  1.00  0.00    -0.294 OA
BRANCH  12  14
ATOM     14  C   UNL A   1      33.009  25.022  25.731  1.00  0.00     0.018 A 
ATOM     15  C   UNL A   1      33.927  26.077  25.712  1.00  0.00     0.013 A 
ATOM     16  C   UNL A   1      31.778  25.186  25.076  1.00  0.00     0.013 A 
ATOM     17  C   UNL A   1      33.649  27.243  24.988  1.00  0.00     0.021 A 
ATOM     18  C   UNL A   1      31.492  26.363  24.383  1.00  0.00     0.021 A 
ATOM     19  C   UNL A   1      32.436  27.380  24.323  1.00  0.00     0.041 A 
ATOM     20  Cl  UNL A   1      32.097  28.804  23.421  1.00  0.00    -0.084 Cl
ENDBRANCH  12  14
ENDBRANCH  11  12
ENDBRANCH   7  11
ENDBRANCH   4   6
ENDBRANCH   3   4
ENDBRANCH   2   3
ENDBRANCH   1   2
BRANCH   1  21
ATOM     21  O   UNL A   1      42.171  21.652  27.243  1.00  0.00    -0.374 OA
BRANCH  21  22
ATOM     22  C   UNL A   1      42.680  20.920  26.129  1.00  0.00     0.202 C 
BRANCH  22  23
ATOM     23  C   UNL A   1      43.533  21.695  25.116  1.00  0.00     0.261 C 
BRANCH  23  24
ATOM     24  O   UNL A   1      42.918  22.927  24.699  1.00  0.00    -0.460 OA
BRANCH  24  25
ATOM     25  C   UNL A   1      43.687  24.024  24.866  1.00  0.00     0.338 C 
ATOM     26  O   UNL A   1      44.775  24.260  24.346  1.00  0.00    -0.246 OA
BRANCH  25  27
ATOM     27  C   UNL A   1      42.994  25.030  25.683  1.00  0.00     0.060 A 
ATOM     28  C   UNL A   1      43.560  26.309  25.769  1.00  0.00     0.016 A 
ATOM     29  C   UNL A   1      41.892  24.686  26.467  1.00  0.00     0.016 A 
ATOM     30  C   UNL A   1      43.060  27.238  26.681  1.00  0.00     0.010 A 
ATOM     31  C   UNL A   1      41.400  25.613  27.392  1.00  0.00     0.010 A 
ATOM     32  C   UNL A   1      42.004  26.879  27.527  1.00  0.00    -0.014 A 
BRANCH  32  33
ATOM     33  C   UNL A   1      41.619  27.756  28.660  1.00  0.00     0.031 A 
ATOM     34  C   UNL A   1      42.375  27.643  29.953  1.00  0.00     0.074 A 
ATOM     35  C   UNL A   1      40.597  28.623  28.552  1.00  0.00     0.049 A 
ATOM     36  N   UNL A   1      42.146  28.219  31.105  1.00  0.00    -0.248 NA
ATOM     37  C   UNL A   1      43.561  26.769  29.943  1.00  0.00     0.031 C 
ATOM     38  C   UNL A   1      39.832  28.884  27.336  1.00  0.00     0.029 A 
ATOM     39  N   UNL A   1      40.000  29.415  29.501  1.00  0.00    -0.354 N 
ATOM     40  C   UNL A   1      43.159  27.789  31.950  1.00  0.00     0.074 A 
ATOM     41  C   UNL A   1      43.981  26.868  31.195  1.00  0.00     0.031 C 
ATOM     42  C   UNL A   1      38.812  29.707  27.630  1.00  0.00     0.029 A 
ATOM     43  C   UNL A   1      38.857  30.029  29.055  1.00  0.00     0.049 A 
ATOM     44  H   UNL A   1      40.358  29.531  30.411  1.00  0.00     0.167 HD
ATOM     45  C   UNL A   1      43.394  28.148  33.234  1.00  0.00     0.037 A 
ATOM     46  C   UNL A   1      37.935  30.743  29.728  1.00  0.00     0.037 A 
ATOM     47  C   UNL A   1      42.575  29.063  33.983  1.00  0.00     0.049 A 
ATOM     48  C   UNL A   1      38.144  31.030  31.190  1.00  0.00     0.074 A 
ATOM     49  C   UNL A   1      42.755  29.526  35.274  1.00  0.00     0.029 A 
ATOM     50  N   UNL A   1      41.410  29.645  33.507  1.00  0.00    -0.354 N 
ATOM     51  N   UNL A   1      39.129  30.660  31.972  1.00  0.00    -0.248 NA
ATOM     52  C   UNL A   1      37.125  31.852  31.860  1.00  0.00     0.031 C 
ATOM     53  C   UNL A   1      41.672  30.350  35.596  1.00  0.00     0.029 A 
ATOM     54  C   UNL A   1      40.841  30.437  34.490  1.00  0.00     0.049 A 
ATOM     55  H   UNL A   1      41.041  29.513  32.603  1.00  0.00     0.167 HD
ATOM     56  C   UNL A   1      38.876  31.239  33.208  1.00  0.00     0.074 A 
ATOM     57  C   UNL A   1      37.636  31.976  33.077  1.00  0.00     0.031 C 
ATOM     58  C   UNL A   1      39.615  31.177  34.343  1.00  0.00     0.037 A 
BRANCH  45  59
ATOM     59  C   UNL A   1      44.583  27.541  33.915  1.00  0.00     0.064 A 
ATOM     60  C   UNL A   1      44.493  26.318  34.596  1.00  0.00     0.173 A 
ATOM     61  C   UNL A   1      45.836  28.169  33.854  1.00  0.00     0.173 A 
ATOM     62  F   UNL A   1      43.315  25.684  34.692  1.00  0.00    -0.203 F 
ATOM     63  C   UNL A   1      45.610  25.757  35.211  1.00  0.00     0.198 A 
ATOM     64  C   UNL A   1      46.954  27.594  34.450  1.00  0.00     0.198 A 
ATOM     65  F   UNL A   1      45.975  29.339  33.212  1.00  0.00    -0.203 F 
ATOM     66  F   UNL A   1      45.493  24.607  35.890  1.00  0.00    -0.200 F 
ATOM     67  C   UNL A   1      46.840  26.392  35.133  1.00  0.00     0.200 A 
ATOM     68  F   UNL A   1      48.145  28.204  34.365  1.00  0.00    -0.200 F 
ATOM     69  F   UNL A   1      47.915  25.849  35.720  1.00  0.00    -0.200 F 
ENDBRANCH  45  59
BRANCH  46  70
ATOM     70  C   UNL A   1      36.722  31.224  29.022  1.00  0.00     0.064 A 
ATOM     71  C   UNL A   1      35.673  30.353  28.704  1.00  0.00     0.173 A 
ATOM     72  C   UNL A   1      36.590  32.571  28.652  1.00  0.00     0.173 A 
ATOM     73  F   UNL A   1      35.767  29.052  29.018  1.00  0.00    -0.203 F 
ATOM     74  C   UNL A   1      34.541  30.808  28.029  1.00  0.00     0.198 A 
ATOM     75  C   UNL A   1      35.449  33.029  27.996  1.00  0.00     0.198 A 
ATOM     76  F   UNL A   1      37.570  33.444  28.933  1.00  0.00    -0.203 F 
ATOM     77  F   UNL A   1      33.567  29.947  27.706  1.00  0.00    -0.200 F 
ATOM     78  C   UNL A   1      34.428  32.145  27.682  1.00  0.00     0.200 A 
ATOM     79  F   UNL A   1      35.341  34.324  27.668  1.00  0.00    -0.200 F 
ATOM     80  F   UNL A   1      33.339  32.581  27.035  1.00  0.00    -0.200 F 
ENDBRANCH  46  70
BRANCH  58  81
ATOM     81  C   UNL A   1      39.136  31.968  35.523  1.00  0.00     0.064 A 
ATOM     82  C   UNL A   1      39.419  33.333  35.660  1.00  0.00     0.173 A 
ATOM     83  C   UNL A   1      38.332  31.359  36.500  1.00  0.00     0.173 A 
ATOM     84  F   UNL A   1      40.196  33.955  34.759  1.00  0.00    -0.203 F 
ATOM     85  C   UNL A   1      38.925  34.060  36.740  1.00  0.00     0.198 A 
ATOM     86  C   UNL A   1      37.819  32.095  37.565  1.00  0.00     0.198 A 
ATOM     87  F   UNL A   1      38.029  30.056  36.410  1.00  0.00    -0.203 F 
ATOM     88  F   UNL A   1      39.236  35.357  36.870  1.00  0.00    -0.200 F 
ATOM     89  C   UNL A   1      38.120  33.443  37.686  1.00  0.00     0.200 A 
ATOM     90  F   UNL A   1      37.032  31.499  38.471  1.00  0.00    -0.200 F 
ATOM     91  F   UNL A   1      37.637  34.147  38.719  1.00  0.00    -0.200 F 
ENDBRANCH  58  81
ENDBRANCH  32  33
ENDBRANCH  25  27
ENDBRANCH  24  25
ENDBRANCH  23  24
ENDBRANCH  22  23
ENDBRANCH  21  22
ENDBRANCH   1  21
TORSDOF 17
ENDMDL
MODEL 3
REMARK VINA RESULT:     -11.2      4.694      9.320
REMARK SMILES O=C(C[C@H]1CC[C@@H](C(=O)OCCOCCOC(=O)c2ccc(-c3c4nc(c(-c5c(F)c(F)c(F)c(F)c5F)c5ccc([nH]5)c(-c5c(F)c(F)c(F)c(F)c5F)c5nc(c(-c6c(F)c(F)c(F)c(F)c6F)c6ccc3[nH]6)C=C5)C=C4)cc2)C1)c1ccc(Cl)cc1
REMARK SMILES IDX 12 1 11 2 10 3 8 4 9 5 7 6 4 7 5 8 82 9 6 10 3 11 2 12 1 13
REMARK SMILES IDX 83 14 84 15 89 16 85 17 88 18 86 19 87 20 13 21 14 22 15 23
REMARK SMILES IDX 16 24 17 25 18 26 19 27 20 28 81 29 21 30 80 31 22 32 23 33
REMARK SMILES IDX 24 34 74 35 25 36 79 37 73 38 75 39 26 40 78 41 72 42 71 43
REMARK SMILES IDX 27 45 59 46 39 47 58 48 40 49 43 50 57 51 76 52 41 53 42 54
REMARK SMILES IDX 56 56 77 57 44 58 28 59 29 60 37 61 30 62 31 63 35 64 38 65
REMARK SMILES IDX 32 66 33 67 36 68 34 69 60 70 61 71 69 72 62 73 63 74 67 75
REMARK SMILES IDX 70 76 64 77 65 78 68 79 66 80 45 81 46 82 54 83 47 84 48 85
REMARK SMILES IDX 52 86 55 87 49 88 50 89 53 90 51 91
REMARK H PARENT 75 44 43 55
REMARK Flexibility Score: inf
ROOT
ATOM      1  C   UNL A   1      36.486  21.798  24.642  1.00  0.00     0.202 C 
ENDROOT
BRANCH   1   2
ATOM      2  C   UNL A   1      35.649  21.402  25.863  1.00  0.00     0.261 C 
BRANCH   2   3
ATOM      3  O   UNL A   1      34.293  21.119  25.492  1.00  0.00    -0.463 OA
BRANCH   3   4
ATOM      4  C   UNL A   1      33.367  22.052  25.850  1.00  0.00     0.309 C 
ATOM      5  O   UNL A   1      33.575  23.008  26.583  1.00  0.00    -0.252 OA
BRANCH   4   6
ATOM      6  C   UNL A   1      32.060  21.821  25.101  1.00  0.00     0.099 C 
ATOM      7  C   UNL A   1      32.198  23.163  23.089  1.00  0.00    -0.003 C 
ATOM      8  C   UNL A   1      32.378  21.688  22.674  1.00  0.00     0.005 C 
ATOM      9  C   UNL A   1      31.487  23.067  24.438  1.00  0.00     0.019 C 
ATOM     10  C   UNL A   1      32.216  20.843  23.940  1.00  0.00     0.015 C 
BRANCH   7  11
ATOM     11  C   UNL A   1      33.547  23.903  23.073  1.00  0.00     0.084 C 
BRANCH  11  12
ATOM     12  C   UNL A   1      33.631  25.379  22.697  1.00  0.00     0.163 C 
ATOM     13  O   UNL A   1      33.618  25.699  21.505  1.00  0.00    -0.294 OA
BRANCH  12  14
ATOM     14  C   UNL A   1      33.677  26.478  23.708  1.00  0.00     0.018 A 
ATOM     15  C   UNL A   1      33.639  27.838  23.387  1.00  0.00     0.013 A 
ATOM     16  C   UNL A   1      33.754  26.105  25.060  1.00  0.00     0.013 A 
ATOM     17  C   UNL A   1      33.603  28.804  24.401  1.00  0.00     0.021 A 
ATOM     18  C   UNL A   1      33.750  27.072  26.066  1.00  0.00     0.021 A 
ATOM     19  C   UNL A   1      33.653  28.417  25.736  1.00  0.00     0.041 A 
ATOM     20  Cl  UNL A   1      33.594  29.598  26.983  1.00  0.00    -0.084 Cl
ENDBRANCH  12  14
ENDBRANCH  11  12
ENDBRANCH   7  11
ENDBRANCH   4   6
ENDBRANCH   3   4
ENDBRANCH   2   3
ENDBRANCH   1   2
BRANCH   1  21
ATOM     21  O   UNL A   1      37.724  22.457  24.900  1.00  0.00    -0.374 OA
BRANCH  21  22
ATOM     22  C   UNL A   1      38.619  21.847  25.829  1.00  0.00     0.202 C 
BRANCH  22  23
ATOM     23  C   UNL A   1      39.261  20.519  25.410  1.00  0.00     0.261 C 
BRANCH  23  24
ATOM     24  O   UNL A   1      40.041  19.921  26.462  1.00  0.00    -0.460 OA
BRANCH  24  25
ATOM     25  C   UNL A   1      41.336  19.704  26.149  1.00  0.00     0.338 C 
ATOM     26  O   UNL A   1      41.805  18.754  25.526  1.00  0.00    -0.246 OA
BRANCH  25  27
ATOM     27  C   UNL A   1      42.169  20.849  26.542  1.00  0.00     0.060 A 
ATOM     28  C   UNL A   1      42.228  21.181  27.903  1.00  0.00     0.016 A 
ATOM     29  C   UNL A   1      42.762  21.672  25.583  1.00  0.00     0.016 A 
ATOM     30  C   UNL A   1      42.837  22.368  28.309  1.00  0.00     0.010 A 
ATOM     31  C   UNL A   1      43.359  22.868  25.991  1.00  0.00     0.010 A 
ATOM     32  C   UNL A   1      43.368  23.238  27.351  1.00  0.00    -0.014 A 
BRANCH  32  33
ATOM     33  C   UNL A   1      43.799  24.605  27.735  1.00  0.00     0.031 A 
ATOM     34  C   UNL A   1      42.748  25.644  28.012  1.00  0.00     0.074 A 
ATOM     35  C   UNL A   1      45.101  24.928  27.813  1.00  0.00     0.049 A 
ATOM     36  N   UNL A   1      42.886  26.923  28.250  1.00  0.00    -0.248 NA
ATOM     37  C   UNL A   1      41.353  25.173  28.035  1.00  0.00     0.031 C 
ATOM     38  C   UNL A   1      46.215  24.000  27.643  1.00  0.00     0.029 A 
ATOM     39  N   UNL A   1      45.704  26.144  28.015  1.00  0.00    -0.354 N 
ATOM     40  C   UNL A   1      41.602  27.406  28.462  1.00  0.00     0.074 A 
ATOM     41  C   UNL A   1      40.693  26.295  28.281  1.00  0.00     0.031 C 
ATOM     42  C   UNL A   1      47.367  24.693  27.659  1.00  0.00     0.029 A 
ATOM     43  C   UNL A   1      47.065  26.110  27.842  1.00  0.00     0.049 A 
ATOM     44  H   UNL A   1      45.209  26.959  28.259  1.00  0.00     0.167 HD
ATOM     45  C   UNL A   1      41.219  28.660  28.799  1.00  0.00     0.037 A 
ATOM     46  C   UNL A   1      47.961  27.115  27.805  1.00  0.00     0.037 A 
ATOM     47  C   UNL A   1      42.125  29.764  28.978  1.00  0.00     0.049 A 
ATOM     48  C   UNL A   1      47.503  28.526  28.057  1.00  0.00     0.074 A 
ATOM     49  C   UNL A   1      41.840  31.061  29.364  1.00  0.00     0.029 A 
ATOM     50  N   UNL A   1      43.494  29.698  28.769  1.00  0.00    -0.354 N 
ATOM     51  N   UNL A   1      46.294  28.969  28.304  1.00  0.00    -0.248 NA
ATOM     52  C   UNL A   1      48.534  29.573  28.046  1.00  0.00     0.031 C 
ATOM     53  C   UNL A   1      43.031  31.794  29.341  1.00  0.00     0.029 A 
ATOM     54  C   UNL A   1      44.065  30.941  28.986  1.00  0.00     0.049 A 
ATOM     55  H   UNL A   1      43.987  28.888  28.505  1.00  0.00     0.167 HD
ATOM     56  C   UNL A   1      46.424  30.333  28.524  1.00  0.00     0.074 A 
ATOM     57  C   UNL A   1      47.829  30.649  28.369  1.00  0.00     0.031 C 
ATOM     58  C   UNL A   1      45.467  31.239  28.842  1.00  0.00     0.037 A 
BRANCH  45  59
ATOM     59  C   UNL A   1      39.753  28.908  28.988  1.00  0.00     0.064 A 
ATOM     60  C   UNL A   1      39.143  28.772  30.244  1.00  0.00     0.173 A 
ATOM     61  C   UNL A   1      38.955  29.321  27.911  1.00  0.00     0.173 A 
ATOM     62  F   UNL A   1      39.861  28.369  31.303  1.00  0.00    -0.203 F 
ATOM     63  C   UNL A   1      37.783  29.020  30.410  1.00  0.00     0.198 A 
ATOM     64  C   UNL A   1      37.601  29.590  28.086  1.00  0.00     0.198 A 
ATOM     65  F   UNL A   1      39.492  29.468  26.690  1.00  0.00    -0.203 F 
ATOM     66  F   UNL A   1      37.213  28.847  31.611  1.00  0.00    -0.200 F 
ATOM     67  C   UNL A   1      37.015  29.435  29.332  1.00  0.00     0.200 A 
ATOM     68  F   UNL A   1      36.862  30.000  27.045  1.00  0.00    -0.200 F 
ATOM     69  F   UNL A   1      35.707  29.679  29.494  1.00  0.00    -0.200 F 
ENDBRANCH  45  59
BRANCH  46  70
ATOM     70  C   UNL A   1      49.383  26.817  27.503  1.00  0.00     0.064 A 
ATOM     71  C   UNL A   1      49.852  26.778  26.185  1.00  0.00     0.173 A 
ATOM     72  C   UNL A   1      50.301  26.566  28.534  1.00  0.00     0.173 A 
ATOM     73  F   UNL A   1      49.005  26.989  25.167  1.00  0.00    -0.203 F 
ATOM     74  C   UNL A   1      51.187  26.486  25.906  1.00  0.00     0.198 A 
ATOM     75  C   UNL A   1      51.639  26.295  28.256  1.00  0.00     0.198 A 
ATOM     76  F   UNL A   1      49.898  26.591  29.814  1.00  0.00    -0.203 F 
ATOM     77  F   UNL A   1      51.604  26.420  24.635  1.00  0.00    -0.200 F 
ATOM     78  C   UNL A   1      52.079  26.251  26.942  1.00  0.00     0.200 A 
ATOM     79  F   UNL A   1      52.499  26.075  29.259  1.00  0.00    -0.200 F 
ATOM     80  F   UNL A   1      53.362  25.972  26.672  1.00  0.00    -0.200 F 
ENDBRANCH  46  70
BRANCH  58  81
ATOM     81  C   UNL A   1      45.906  32.649  29.098  1.00  0.00     0.064 A 
ATOM     82  C   UNL A   1      46.331  33.071  30.365  1.00  0.00     0.173 A 
ATOM     83  C   UNL A   1      45.956  33.574  28.043  1.00  0.00     0.173 A 
ATOM     84  F   UNL A   1      46.286  32.227  31.407  1.00  0.00    -0.203 F 
ATOM     85  C   UNL A   1      46.779  34.373  30.570  1.00  0.00     0.198 A 
ATOM     86  C   UNL A   1      46.429  34.868  28.247  1.00  0.00     0.198 A 
ATOM     87  F   UNL A   1      45.565  33.216  26.811  1.00  0.00    -0.203 F 
ATOM     88  F   UNL A   1      47.150  34.766  31.797  1.00  0.00    -0.200 F 
ATOM     89  C   UNL A   1      46.836  35.266  29.511  1.00  0.00     0.200 A 
ATOM     90  F   UNL A   1      46.493  35.725  27.220  1.00  0.00    -0.200 F 
ATOM     91  F   UNL A   1      47.278  36.516  29.709  1.00  0.00    -0.200 F 
ENDBRANCH  58  81
ENDBRANCH  32  33
ENDBRANCH  25  27
ENDBRANCH  24  25
ENDBRANCH  23  24
ENDBRANCH  22  23
ENDBRANCH  21  22
ENDBRANCH   1  21
TORSDOF 17
ENDMDL
