MODEL 1
REMARK VINA RESULT:     -12.8      0.000      0.000
REMARK SMILES O=C(OCCOCCOC(=O)c1ccc2c(c1)[C@@H]1C=CC[C@@H]1[C@H](c1ccncc1)N2)c1ccc(-c2c3nc(c(-c4c(F)c(F)c(F)c(F)c4F)c4ccc([nH]4)c(-c4c(F)c(F)c(F)c(F)c4F)c4nc(c(-c5c(F)c(F)c(F)c(F)c5F)c5ccc2[nH]5)C=C4)C=C3)cc1
REMARK SMILES IDX 5 1 4 2 3 3 2 4 1 5 31 6 32 7 93 8 33 9 92 10 34 11 35 12
REMARK SMILES IDX 36 13 86 14 37 15 91 16 85 17 87 18 38 19 90 20 84 21 83 22
REMARK SMILES IDX 39 24 71 25 51 26 70 27 52 28 55 29 69 30 88 31 53 32 54 33
REMARK SMILES IDX 68 35 89 36 56 37 40 38 41 39 49 40 42 41 43 42 47 43 50 44
REMARK SMILES IDX 44 45 45 46 48 47 46 48 72 49 73 50 81 51 74 52 75 53 79 54
REMARK SMILES IDX 82 55 76 56 77 57 80 58 78 59 57 60 58 61 66 62 59 63 60 64
REMARK SMILES IDX 64 65 67 66 61 67 62 68 65 69 63 70 6 71 7 72 8 73 9 74
REMARK SMILES IDX 10 75 11 76 12 77 13 78 17 79 14 80 16 81 15 82 18 83 30 84
REMARK SMILES IDX 19 85 22 86 23 87 20 89 21 90 24 91 25 92 29 93 26 94 28 95
REMARK SMILES IDX 27 96
REMARK H PARENT 87 23 55 34 30 88
REMARK Flexibility Score: inf
ROOT
ATOM      1  C   UNL A   1      31.181  32.073  26.396  1.00  0.00     0.202 C 
ENDROOT
BRANCH   1   2
ATOM      2  C   UNL A   1      32.423  32.495  27.183  1.00  0.00     0.261 C 
BRANCH   2   3
ATOM      3  O   UNL A   1      32.310  33.868  27.593  1.00  0.00    -0.460 OA
BRANCH   3   4
ATOM      4  C   UNL A   1      33.048  34.539  28.507  1.00  0.00     0.338 C 
ATOM      5  O   UNL A   1      32.732  35.695  28.782  1.00  0.00    -0.246 OA
BRANCH   4   6
ATOM      6  C   UNL A   1      34.233  33.960  29.212  1.00  0.00     0.060 A 
ATOM      7  C   UNL A   1      35.559  34.338  28.999  1.00  0.00     0.016 A 
ATOM      8  C   UNL A   1      33.973  33.033  30.237  1.00  0.00     0.016 A 
ATOM      9  C   UNL A   1      36.601  33.784  29.728  1.00  0.00     0.010 A 
ATOM     10  C   UNL A   1      35.011  32.499  31.007  1.00  0.00     0.010 A 
ATOM     11  C   UNL A   1      36.333  32.867  30.739  1.00  0.00    -0.014 A 
BRANCH  11  12
ATOM     12  C   UNL A   1      37.479  32.258  31.434  1.00  0.00     0.031 A 
ATOM     13  C   UNL A   1      38.301  31.246  30.702  1.00  0.00     0.074 A 
ATOM     14  C   UNL A   1      37.844  32.729  32.639  1.00  0.00     0.049 A 
ATOM     15  N   UNL A   1      39.349  30.582  31.105  1.00  0.00    -0.248 NA
ATOM     16  C   UNL A   1      37.895  30.955  29.316  1.00  0.00     0.031 C 
ATOM     17  C   UNL A   1      37.162  33.806  33.362  1.00  0.00     0.029 A 
ATOM     18  N   UNL A   1      38.895  32.396  33.450  1.00  0.00    -0.354 N 
ATOM     19  C   UNL A   1      39.715  29.779  30.034  1.00  0.00     0.074 A 
ATOM     20  C   UNL A   1      38.779  30.035  28.963  1.00  0.00     0.031 C 
ATOM     21  C   UNL A   1      37.831  34.062  34.498  1.00  0.00     0.029 A 
ATOM     22  C   UNL A   1      38.943  33.127  34.612  1.00  0.00     0.049 A 
ATOM     23  H   UNL A   1      39.552  31.699  33.223  1.00  0.00     0.167 HD
ATOM     24  C   UNL A   1      40.742  28.902  29.965  1.00  0.00     0.037 A 
ATOM     25  C   UNL A   1      39.784  33.023  35.658  1.00  0.00     0.037 A 
ATOM     26  C   UNL A   1      41.652  28.668  31.053  1.00  0.00     0.049 A 
ATOM     27  C   UNL A   1      40.863  31.974  35.590  1.00  0.00     0.074 A 
ATOM     28  C   UNL A   1      42.685  27.753  31.142  1.00  0.00     0.029 A 
ATOM     29  N   UNL A   1      41.631  29.369  32.254  1.00  0.00    -0.354 N 
ATOM     30  N   UNL A   1      41.163  31.161  34.606  1.00  0.00    -0.248 NA
ATOM     31  C   UNL A   1      41.706  31.816  36.781  1.00  0.00     0.031 C 
ATOM     32  C   UNL A   1      43.262  27.874  32.411  1.00  0.00     0.029 A 
ATOM     33  C   UNL A   1      42.622  28.898  33.096  1.00  0.00     0.049 A 
ATOM     34  H   UNL A   1      41.003  30.095  32.471  1.00  0.00     0.167 HD
ATOM     35  C   UNL A   1      42.236  30.403  35.049  1.00  0.00     0.074 A 
ATOM     36  C   UNL A   1      42.548  30.872  36.385  1.00  0.00     0.031 C 
ATOM     37  C   UNL A   1      42.900  29.402  34.418  1.00  0.00     0.037 A 
BRANCH  24  38
ATOM     38  C   UNL A   1      40.865  28.096  28.708  1.00  0.00     0.064 A 
ATOM     39  C   UNL A   1      41.646  28.523  27.624  1.00  0.00     0.173 A 
ATOM     40  C   UNL A   1      40.151  26.896  28.570  1.00  0.00     0.173 A 
ATOM     41  F   UNL A   1      42.323  29.679  27.693  1.00  0.00    -0.203 F 
ATOM     42  C   UNL A   1      41.681  27.795  26.436  1.00  0.00     0.198 A 
ATOM     43  C   UNL A   1      40.209  26.157  27.391  1.00  0.00     0.198 A 
ATOM     44  F   UNL A   1      39.383  26.448  29.574  1.00  0.00    -0.203 F 
ATOM     45  F   UNL A   1      42.384  28.254  25.391  1.00  0.00    -0.200 F 
ATOM     46  C   UNL A   1      40.966  26.612  26.322  1.00  0.00     0.200 A 
ATOM     47  F   UNL A   1      39.517  25.015  27.283  1.00  0.00    -0.200 F 
ATOM     48  F   UNL A   1      40.991  25.919  25.175  1.00  0.00    -0.200 F 
ENDBRANCH  24  38
BRANCH  25  49
ATOM     49  C   UNL A   1      39.608  33.888  36.855  1.00  0.00     0.064 A 
ATOM     50  C   UNL A   1      38.825  33.480  37.943  1.00  0.00     0.173 A 
ATOM     51  C   UNL A   1      40.213  35.154  36.931  1.00  0.00     0.173 A 
ATOM     52  F   UNL A   1      38.204  32.291  37.914  1.00  0.00    -0.203 F 
ATOM     53  C   UNL A   1      38.644  34.306  39.053  1.00  0.00     0.198 A 
ATOM     54  C   UNL A   1      40.056  35.965  38.053  1.00  0.00     0.198 A 
ATOM     55  F   UNL A   1      40.968  35.600  35.917  1.00  0.00    -0.203 F 
ATOM     56  F   UNL A   1      37.851  33.910  40.058  1.00  0.00    -0.200 F 
ATOM     57  C   UNL A   1      39.264  35.545  39.109  1.00  0.00     0.200 A 
ATOM     58  F   UNL A   1      40.670  37.155  38.107  1.00  0.00    -0.200 F 
ATOM     59  F   UNL A   1      39.091  36.337  40.176  1.00  0.00    -0.200 F 
ENDBRANCH  25  49
BRANCH  37  60
ATOM     60  C   UNL A   1      44.039  28.776  35.161  1.00  0.00     0.064 A 
ATOM     61  C   UNL A   1      43.851  27.655  35.982  1.00  0.00     0.173 A 
ATOM     62  C   UNL A   1      45.341  29.278  35.012  1.00  0.00     0.173 A 
ATOM     63  F   UNL A   1      42.621  27.153  36.166  1.00  0.00    -0.203 F 
ATOM     64  C   UNL A   1      44.925  27.070  36.646  1.00  0.00     0.198 A 
ATOM     65  C   UNL A   1      46.416  28.673  35.655  1.00  0.00     0.198 A 
ATOM     66  F   UNL A   1      45.570  30.345  34.232  1.00  0.00    -0.203 F 
ATOM     67  F   UNL A   1      44.718  26.026  37.459  1.00  0.00    -0.200 F 
ATOM     68  C   UNL A   1      46.206  27.574  36.475  1.00  0.00     0.200 A 
ATOM     69  F   UNL A   1      47.655  29.151  35.479  1.00  0.00    -0.200 F 
ATOM     70  F   UNL A   1      47.241  27.004  37.108  1.00  0.00    -0.200 F 
ENDBRANCH  37  60
ENDBRANCH  11  12
ENDBRANCH   4   6
ENDBRANCH   3   4
ENDBRANCH   2   3
ENDBRANCH   1   2
BRANCH   1  71
ATOM     71  O   UNL A   1      31.311  30.809  25.746  1.00  0.00    -0.374 OA
BRANCH  71  72
ATOM     72  C   UNL A   1      32.544  30.115  25.969  1.00  0.00     0.202 C 
BRANCH  72  73
ATOM     73  C   UNL A   1      32.532  28.803  25.178  1.00  0.00     0.261 C 
BRANCH  73  74
ATOM     74  O   UNL A   1      31.300  28.123  25.457  1.00  0.00    -0.460 OA
BRANCH  74  75
ATOM     75  C   UNL A   1      31.357  27.240  26.487  1.00  0.00     0.338 C 
ATOM     76  O   UNL A   1      31.106  27.452  27.662  1.00  0.00    -0.246 OA
BRANCH  75  77
ATOM     77  C   UNL A   1      31.556  25.896  25.907  1.00  0.00     0.060 A 
ATOM     78  C   UNL A   1      30.655  25.438  24.943  1.00  0.00     0.018 A 
ATOM     79  C   UNL A   1      32.673  25.127  26.236  1.00  0.00     0.022 A 
ATOM     80  C   UNL A   1      30.880  24.217  24.305  1.00  0.00     0.027 A 
ATOM     81  C   UNL A   1      32.895  23.893  25.610  1.00  0.00    -0.017 A 
ATOM     82  C   UNL A   1      31.971  23.415  24.663  1.00  0.00     0.038 A 
ATOM     83  C   UNL A   1      34.104  23.078  26.005  1.00  0.00     0.049 C 
ATOM     84  N   UNL A   1      32.135  22.167  24.061  1.00  0.00    -0.378 N 
ATOM     85  C   UNL A   1      35.412  23.746  25.678  1.00  0.00    -0.023 C 
ATOM     86  C   UNL A   1      34.246  21.743  25.252  1.00  0.00     0.031 C 
ATOM     87  C   UNL A   1      32.886  21.182  24.830  1.00  0.00     0.114 C 
ATOM     88  H   UNL A   1      31.765  21.963  23.173  1.00  0.00     0.161 HD
ATOM     89  C   UNL A   1      36.042  23.153  24.657  1.00  0.00    -0.030 C 
ATOM     90  C   UNL A   1      35.251  22.005  24.119  1.00  0.00     0.034 C 
BRANCH  87  91
ATOM     91  C   UNL A   1      32.999  19.835  24.139  1.00  0.00    -0.022 A 
ATOM     92  C   UNL A   1      33.942  18.915  24.621  1.00  0.00     0.026 A 
ATOM     93  C   UNL A   1      32.213  19.447  23.049  1.00  0.00     0.026 A 
ATOM     94  C   UNL A   1      34.054  17.675  24.015  1.00  0.00     0.111 A 
ATOM     95  C   UNL A   1      32.388  18.175  22.519  1.00  0.00     0.111 A 
ATOM     96  N   UNL A   1      33.291  17.282  22.977  1.00  0.00    -0.265 NA
ENDBRANCH  87  91
ENDBRANCH  75  77
ENDBRANCH  74  75
ENDBRANCH  73  74
ENDBRANCH  72  73
ENDBRANCH  71  72
ENDBRANCH   1  71
TORSDOF 15
ENDMDL
MODEL 2
REMARK VINA RESULT:     -12.6      0.673      7.242
REMARK SMILES O=C(OCCOCCOC(=O)c1ccc2c(c1)[C@@H]1C=CC[C@@H]1[C@H](c1ccncc1)N2)c1ccc(-c2c3nc(c(-c4c(F)c(F)c(F)c(F)c4F)c4ccc([nH]4)c(-c4c(F)c(F)c(F)c(F)c4F)c4nc(c(-c5c(F)c(F)c(F)c(F)c5F)c5ccc2[nH]5)C=C4)C=C3)cc1
REMARK SMILES IDX 5 1 4 2 3 3 2 4 1 5 31 6 32 7 93 8 33 9 92 10 34 11 35 12
REMARK SMILES IDX 36 13 86 14 37 15 91 16 85 17 87 18 38 19 90 20 84 21 83 22
REMARK SMILES IDX 39 24 71 25 51 26 70 27 52 28 55 29 69 30 88 31 53 32 54 33
REMARK SMILES IDX 68 35 89 36 56 37 40 38 41 39 49 40 42 41 43 42 47 43 50 44
REMARK SMILES IDX 44 45 45 46 48 47 46 48 72 49 73 50 81 51 74 52 75 53 79 54
REMARK SMILES IDX 82 55 76 56 77 57 80 58 78 59 57 60 58 61 66 62 59 63 60 64
REMARK SMILES IDX 64 65 67 66 61 67 62 68 65 69 63 70 6 71 7 72 8 73 9 74
REMARK SMILES IDX 10 75 11 76 12 77 13 78 17 79 14 80 16 81 15 82 18 83 30 84
REMARK SMILES IDX 19 85 22 86 23 87 20 89 21 90 24 91 25 92 29 93 26 94 28 95
REMARK SMILES IDX 27 96
REMARK H PARENT 87 23 55 34 30 88
REMARK Flexibility Score: inf
ROOT
ATOM      1  C   UNL A   1      31.094  32.362  26.176  1.00  0.00     0.202 C 
ENDROOT
BRANCH   1   2
ATOM      2  C   UNL A   1      32.151  32.597  27.257  1.00  0.00     0.261 C 
BRANCH   2   3
ATOM      3  O   UNL A   1      32.189  33.986  27.623  1.00  0.00    -0.460 OA
BRANCH   3   4
ATOM      4  C   UNL A   1      33.045  34.615  28.461  1.00  0.00     0.338 C 
ATOM      5  O   UNL A   1      32.823  35.789  28.753  1.00  0.00    -0.246 OA
BRANCH   4   6
ATOM      6  C   UNL A   1      34.252  33.968  29.062  1.00  0.00     0.060 A 
ATOM      7  C   UNL A   1      35.568  34.392  28.874  1.00  0.00     0.016 A 
ATOM      8  C   UNL A   1      34.026  32.913  29.964  1.00  0.00     0.016 A 
ATOM      9  C   UNL A   1      36.632  33.764  29.506  1.00  0.00     0.010 A 
ATOM     10  C   UNL A   1      35.087  32.300  30.638  1.00  0.00     0.010 A 
ATOM     11  C   UNL A   1      36.397  32.721  30.395  1.00  0.00    -0.014 A 
BRANCH  11  12
ATOM     12  C   UNL A   1      37.566  32.045  30.982  1.00  0.00     0.031 A 
ATOM     13  C   UNL A   1      37.930  32.352  32.400  1.00  0.00     0.074 A 
ATOM     14  C   UNL A   1      38.180  31.070  30.288  1.00  0.00     0.049 A 
ATOM     15  N   UNL A   1      38.908  31.882  33.124  1.00  0.00    -0.248 NA
ATOM     16  C   UNL A   1      37.058  33.307  33.104  1.00  0.00     0.031 C 
ATOM     17  C   UNL A   1      37.800  30.629  28.944  1.00  0.00     0.029 A 
ATOM     18  N   UNL A   1      39.222  30.250  30.627  1.00  0.00    -0.354 N 
ATOM     19  C   UNL A   1      38.784  32.500  34.360  1.00  0.00     0.074 A 
ATOM     20  C   UNL A   1      37.639  33.379  34.291  1.00  0.00     0.031 C 
ATOM     21  C   UNL A   1      38.582  29.598  28.585  1.00  0.00     0.029 A 
ATOM     22  C   UNL A   1      39.555  29.353  29.642  1.00  0.00     0.049 A 
ATOM     23  H   UNL A   1      39.688  30.299  31.493  1.00  0.00     0.167 HD
ATOM     24  C   UNL A   1      39.570  32.343  35.450  1.00  0.00     0.037 A 
ATOM     25  C   UNL A   1      40.558  28.456  29.601  1.00  0.00     0.037 A 
ATOM     26  C   UNL A   1      40.706  31.463  35.483  1.00  0.00     0.049 A 
ATOM     27  C   UNL A   1      41.472  28.368  30.794  1.00  0.00     0.074 A 
ATOM     28  C   UNL A   1      41.629  31.271  36.494  1.00  0.00     0.029 A 
ATOM     29  N   UNL A   1      41.070  30.619  34.439  1.00  0.00    -0.354 N 
ATOM     30  N   UNL A   1      41.401  29.009  31.938  1.00  0.00    -0.248 NA
ATOM     31  C   UNL A   1      42.613  27.452  30.687  1.00  0.00     0.031 C 
ATOM     32  C   UNL A   1      42.573  30.340  36.045  1.00  0.00     0.029 A 
ATOM     33  C   UNL A   1      42.212  29.915  34.774  1.00  0.00     0.049 A 
ATOM     34  H   UNL A   1      40.585  30.535  33.586  1.00  0.00     0.167 HD
ATOM     35  C   UNL A   1      42.476  28.565  32.692  1.00  0.00     0.074 A 
ATOM     36  C   UNL A   1      43.171  27.583  31.882  1.00  0.00     0.031 C 
ATOM     37  C   UNL A   1      42.865  28.940  33.937  1.00  0.00     0.037 A 
BRANCH  24  38
ATOM     38  C   UNL A   1      39.261  33.200  36.640  1.00  0.00     0.064 A 
ATOM     39  C   UNL A   1      39.812  34.480  36.799  1.00  0.00     0.173 A 
ATOM     40  C   UNL A   1      38.433  32.710  37.663  1.00  0.00     0.173 A 
ATOM     41  F   UNL A   1      40.634  34.982  35.866  1.00  0.00    -0.203 F 
ATOM     42  C   UNL A   1      39.571  35.225  37.952  1.00  0.00     0.198 A 
ATOM     43  C   UNL A   1      38.175  33.468  38.802  1.00  0.00     0.198 A 
ATOM     44  F   UNL A   1      37.889  31.489  37.564  1.00  0.00    -0.203 F 
ATOM     45  F   UNL A   1      40.158  36.419  38.110  1.00  0.00    -0.200 F 
ATOM     46  C   UNL A   1      38.752  34.720  38.950  1.00  0.00     0.200 A 
ATOM     47  F   UNL A   1      37.382  32.978  39.765  1.00  0.00    -0.200 F 
ATOM     48  F   UNL A   1      38.532  35.433  40.064  1.00  0.00    -0.200 F 
ENDBRANCH  24  38
BRANCH  25  49
ATOM     49  C   UNL A   1      40.772  27.622  28.388  1.00  0.00     0.064 A 
ATOM     50  C   UNL A   1      41.585  28.059  27.334  1.00  0.00     0.173 A 
ATOM     51  C   UNL A   1      40.156  26.366  28.253  1.00  0.00     0.173 A 
ATOM     52  F   UNL A   1      42.177  29.261  27.399  1.00  0.00    -0.203 F 
ATOM     53  C   UNL A   1      41.762  27.283  26.188  1.00  0.00     0.198 A 
ATOM     54  C   UNL A   1      40.359  25.578  27.122  1.00  0.00     0.198 A 
ATOM     55  F   UNL A   1      39.363  25.898  29.228  1.00  0.00    -0.203 F 
ATOM     56  F   UNL A   1      42.506  27.747  25.175  1.00  0.00    -0.200 F 
ATOM     57  C   UNL A   1      41.155  26.040  26.087  1.00  0.00     0.200 A 
ATOM     58  F   UNL A   1      39.780  24.372  27.036  1.00  0.00    -0.200 F 
ATOM     59  F   UNL A   1      41.328  25.294  24.987  1.00  0.00    -0.200 F 
ENDBRANCH  25  49
BRANCH  37  60
ATOM     60  C   UNL A   1      44.077  28.262  34.496  1.00  0.00     0.064 A 
ATOM     61  C   UNL A   1      43.979  27.066  35.220  1.00  0.00     0.173 A 
ATOM     62  C   UNL A   1      45.356  28.792  34.262  1.00  0.00     0.173 A 
ATOM     63  F   UNL A   1      42.775  26.532  35.481  1.00  0.00    -0.203 F 
ATOM     64  C   UNL A   1      45.117  26.434  35.711  1.00  0.00     0.198 A 
ATOM     65  C   UNL A   1      46.493  28.143  34.730  1.00  0.00     0.198 A 
ATOM     66  F   UNL A   1      45.498  29.932  33.568  1.00  0.00    -0.203 F 
ATOM     67  F   UNL A   1      44.999  25.315  36.437  1.00  0.00    -0.200 F 
ATOM     68  C   UNL A   1      46.372  26.969  35.459  1.00  0.00     0.200 A 
ATOM     69  F   UNL A   1      47.705  28.652  34.475  1.00  0.00    -0.200 F 
ATOM     70  F   UNL A   1      47.469  26.355  35.924  1.00  0.00    -0.200 F 
ENDBRANCH  37  60
ENDBRANCH  11  12
ENDBRANCH   4   6
ENDBRANCH   3   4
ENDBRANCH   2   3
ENDBRANCH   1   2
BRANCH   1  71
ATOM     71  O   UNL A   1      31.013  31.008  25.732  1.00  0.00    -0.374 OA
BRANCH  71  72
ATOM     72  C   UNL A   1      32.223  30.246  25.824  1.00  0.00     0.202 C 
BRANCH  72  73
ATOM     73  C   UNL A   1      32.024  28.902  25.116  1.00  0.00     0.261 C 
BRANCH  73  74
ATOM     74  O   UNL A   1      32.711  27.892  25.870  1.00  0.00    -0.460 OA
BRANCH  74  75
ATOM     75  C   UNL A   1      31.902  27.066  26.583  1.00  0.00     0.338 C 
ATOM     76  O   UNL A   1      31.052  27.381  27.400  1.00  0.00    -0.246 OA
BRANCH  75  77
ATOM     77  C   UNL A   1      32.062  25.705  26.030  1.00  0.00     0.060 A 
ATOM     78  C   UNL A   1      31.062  25.193  25.200  1.00  0.00     0.018 A 
ATOM     79  C   UNL A   1      33.231  24.973  26.246  1.00  0.00     0.022 A 
ATOM     80  C   UNL A   1      31.239  23.954  24.582  1.00  0.00     0.027 A 
ATOM     81  C   UNL A   1      33.406  23.721  25.639  1.00  0.00    -0.017 A 
ATOM     82  C   UNL A   1      32.385  23.189  24.830  1.00  0.00     0.038 A 
ATOM     83  C   UNL A   1      34.674  22.947  25.911  1.00  0.00     0.049 C 
ATOM     84  N   UNL A   1      32.505  21.923  24.257  1.00  0.00    -0.378 N 
ATOM     85  C   UNL A   1      35.915  23.630  25.402  1.00  0.00    -0.023 C 
ATOM     86  C   UNL A   1      34.757  21.588  25.193  1.00  0.00     0.031 C 
ATOM     87  C   UNL A   1      33.370  20.984  24.961  1.00  0.00     0.114 C 
ATOM     88  H   UNL A   1      32.035  21.679  23.428  1.00  0.00     0.161 HD
ATOM     89  C   UNL A   1      36.430  23.013  24.332  1.00  0.00    -0.030 C 
ATOM     90  C   UNL A   1      35.608  21.828  23.936  1.00  0.00     0.034 C 
BRANCH  87  91
ATOM     91  C   UNL A   1      33.431  19.614  24.308  1.00  0.00    -0.022 A 
ATOM     92  C   UNL A   1      32.484  19.304  23.320  1.00  0.00     0.026 A 
ATOM     93  C   UNL A   1      34.381  18.638  24.625  1.00  0.00     0.026 A 
ATOM     94  C   UNL A   1      32.529  18.066  22.701  1.00  0.00     0.111 A 
ATOM     95  C   UNL A   1      34.354  17.432  23.938  1.00  0.00     0.111 A 
ATOM     96  N   UNL A   1      33.449  17.124  22.984  1.00  0.00    -0.265 NA
ENDBRANCH  87  91
ENDBRANCH  75  77
ENDBRANCH  74  75
ENDBRANCH  73  74
ENDBRANCH  72  73
ENDBRANCH  71  72
ENDBRANCH   1  71
TORSDOF 15
ENDMDL
MODEL 3
REMARK VINA RESULT:     -12.6      5.630     10.821
REMARK SMILES O=C(OCCOCCOC(=O)c1ccc2c(c1)[C@@H]1C=CC[C@@H]1[C@H](c1ccncc1)N2)c1ccc(-c2c3nc(c(-c4c(F)c(F)c(F)c(F)c4F)c4ccc([nH]4)c(-c4c(F)c(F)c(F)c(F)c4F)c4nc(c(-c5c(F)c(F)c(F)c(F)c5F)c5ccc2[nH]5)C=C4)C=C3)cc1
REMARK SMILES IDX 5 1 4 2 3 3 2 4 1 5 31 6 32 7 93 8 33 9 92 10 34 11 35 12
REMARK SMILES IDX 36 13 86 14 37 15 91 16 85 17 87 18 38 19 90 20 84 21 83 22
REMARK SMILES IDX 39 24 71 25 51 26 70 27 52 28 55 29 69 30 88 31 53 32 54 33
REMARK SMILES IDX 68 35 89 36 56 37 40 38 41 39 49 40 42 41 43 42 47 43 50 44
REMARK SMILES IDX 44 45 45 46 48 47 46 48 72 49 73 50 81 51 74 52 75 53 79 54
REMARK SMILES IDX 82 55 76 56 77 57 80 58 78 59 57 60 58 61 66 62 59 63 60 64
REMARK SMILES IDX 64 65 67 66 61 67 62 68 65 69 63 70 6 71 7 72 8 73 9 74
REMARK SMILES IDX 10 75 11 76 12 77 13 78 17 79 14 80 16 81 15 82 18 83 30 84
REMARK SMILES IDX 19 85 22 86 23 87 20 89 21 90 24 91 25 92 29 93 26 94 28 95
REMARK SMILES IDX 27 96
REMARK H PARENT 87 23 55 34 30 88
REMARK Flexibility Score: inf
ROOT
ATOM      1  C   UNL A   1      38.199  19.646  24.984  1.00  0.00     0.202 C 
ENDROOT
BRANCH   1   2
ATOM      2  C   UNL A   1      39.323  20.026  25.950  1.00  0.00     0.261 C 
BRANCH   2   3
ATOM      3  O   UNL A   1      40.503  19.255  25.670  1.00  0.00    -0.460 OA
BRANCH   3   4
ATOM      4  C   UNL A   1      41.794  19.565  25.926  1.00  0.00     0.338 C 
ATOM      5  O   UNL A   1      42.644  18.684  25.806  1.00  0.00    -0.246 OA
BRANCH   4   6
ATOM      6  C   UNL A   1      42.260  20.922  26.348  1.00  0.00     0.060 A 
ATOM      7  C   UNL A   1      42.399  21.350  27.668  1.00  0.00     0.016 A 
ATOM      8  C   UNL A   1      42.680  21.796  25.328  1.00  0.00     0.016 A 
ATOM      9  C   UNL A   1      42.882  22.613  27.978  1.00  0.00     0.010 A 
ATOM     10  C   UNL A   1      43.207  23.055  25.630  1.00  0.00     0.010 A 
ATOM     11  C   UNL A   1      43.295  23.469  26.962  1.00  0.00    -0.014 A 
BRANCH  11  12
ATOM     12  C   UNL A   1      43.732  24.822  27.342  1.00  0.00     0.031 A 
ATOM     13  C   UNL A   1      42.698  25.810  27.779  1.00  0.00     0.074 A 
ATOM     14  C   UNL A   1      45.047  25.088  27.429  1.00  0.00     0.049 A 
ATOM     15  N   UNL A   1      42.845  27.050  28.158  1.00  0.00    -0.248 NA
ATOM     16  C   UNL A   1      41.307  25.328  27.810  1.00  0.00     0.031 C 
ATOM     17  C   UNL A   1      46.118  24.132  27.139  1.00  0.00     0.029 A 
ATOM     18  N   UNL A   1      45.708  26.221  27.823  1.00  0.00    -0.354 N 
ATOM     19  C   UNL A   1      41.566  27.502  28.451  1.00  0.00     0.074 A 
ATOM     20  C   UNL A   1      40.654  26.409  28.205  1.00  0.00     0.031 C 
ATOM     21  C   UNL A   1      47.303  24.712  27.392  1.00  0.00     0.029 A 
ATOM     22  C   UNL A   1      47.076  26.094  27.796  1.00  0.00     0.049 A 
ATOM     23  H   UNL A   1      45.247  27.046  28.098  1.00  0.00     0.167 HD
ATOM     24  C   UNL A   1      41.197  28.731  28.880  1.00  0.00     0.037 A 
ATOM     25  C   UNL A   1      48.028  27.012  28.047  1.00  0.00     0.037 A 
ATOM     26  C   UNL A   1      42.132  29.799  29.109  1.00  0.00     0.049 A 
ATOM     27  C   UNL A   1      47.584  28.397  28.435  1.00  0.00     0.074 A 
ATOM     28  C   UNL A   1      41.883  31.111  29.468  1.00  0.00     0.029 A 
ATOM     29  N   UNL A   1      43.512  29.667  28.999  1.00  0.00    -0.354 N 
ATOM     30  N   UNL A   1      46.368  28.848  28.639  1.00  0.00    -0.248 NA
ATOM     31  C   UNL A   1      48.637  29.404  28.610  1.00  0.00     0.031 C 
ATOM     32  C   UNL A   1      43.110  31.781  29.536  1.00  0.00     0.029 A 
ATOM     33  C   UNL A   1      44.128  30.875  29.267  1.00  0.00     0.049 A 
ATOM     34  H   UNL A   1      43.981  28.834  28.764  1.00  0.00     0.167 HD
ATOM     35  C   UNL A   1      46.508  30.185  28.979  1.00  0.00     0.074 A 
ATOM     36  C   UNL A   1      47.931  30.465  28.975  1.00  0.00     0.031 C 
ATOM     37  C   UNL A   1      45.551  31.105  29.258  1.00  0.00     0.037 A 
BRANCH  24  38
ATOM     38  C   UNL A   1      39.729  28.982  29.043  1.00  0.00     0.064 A 
ATOM     39  C   UNL A   1      39.077  28.813  30.273  1.00  0.00     0.173 A 
ATOM     40  C   UNL A   1      38.952  29.354  27.935  1.00  0.00     0.173 A 
ATOM     41  F   UNL A   1      39.768  28.428  31.356  1.00  0.00    -0.203 F 
ATOM     42  C   UNL A   1      37.697  28.976  30.381  1.00  0.00     0.198 A 
ATOM     43  C   UNL A   1      37.578  29.542  28.051  1.00  0.00     0.198 A 
ATOM     44  F   UNL A   1      39.526  29.520  26.734  1.00  0.00    -0.203 F 
ATOM     45  F   UNL A   1      37.087  28.749  31.552  1.00  0.00    -0.200 F 
ATOM     46  C   UNL A   1      36.950  29.343  29.271  1.00  0.00     0.200 A 
ATOM     47  F   UNL A   1      36.858  29.896  26.978  1.00  0.00    -0.200 F 
ATOM     48  F   UNL A   1      35.621  29.487  29.374  1.00  0.00    -0.200 F 
ENDBRANCH  24  38
BRANCH  25  49
ATOM     49  C   UNL A   1      49.466  26.665  27.891  1.00  0.00     0.064 A 
ATOM     50  C   UNL A   1      50.066  26.586  26.628  1.00  0.00     0.173 A 
ATOM     51  C   UNL A   1      50.272  26.395  29.009  1.00  0.00     0.173 A 
ATOM     52  F   UNL A   1      49.337  26.809  25.524  1.00  0.00    -0.203 F 
ATOM     53  C   UNL A   1      51.409  26.236  26.487  1.00  0.00     0.198 A 
ATOM     54  C   UNL A   1      51.621  26.077  28.869  1.00  0.00     0.198 A 
ATOM     55  F   UNL A   1      49.751  26.451  30.244  1.00  0.00    -0.203 F 
ATOM     56  F   UNL A   1      51.945  26.121  25.264  1.00  0.00    -0.200 F 
ATOM     57  C   UNL A   1      52.187  25.989  27.608  1.00  0.00     0.200 A 
ATOM     58  F   UNL A   1      52.371  25.853  29.957  1.00  0.00    -0.200 F 
ATOM     59  F   UNL A   1      53.478  25.657  27.471  1.00  0.00    -0.200 F 
ENDBRANCH  25  49
BRANCH  37  60
ATOM     60  C   UNL A   1      46.023  32.483  29.607  1.00  0.00     0.064 A 
ATOM     61  C   UNL A   1      46.178  33.474  28.628  1.00  0.00     0.173 A 
ATOM     62  C   UNL A   1      46.276  32.826  30.944  1.00  0.00     0.173 A 
ATOM     63  F   UNL A   1      45.963  33.185  27.335  1.00  0.00    -0.203 F 
ATOM     64  C   UNL A   1      46.593  34.756  28.972  1.00  0.00     0.198 A 
ATOM     65  C   UNL A   1      46.663  34.117  31.288  1.00  0.00     0.198 A 
ATOM     66  F   UNL A   1      46.134  31.911  31.916  1.00  0.00    -0.203 F 
ATOM     67  F   UNL A   1      46.777  35.677  28.018  1.00  0.00    -0.200 F 
ATOM     68  C   UNL A   1      46.827  35.079  30.301  1.00  0.00     0.200 A 
ATOM     69  F   UNL A   1      46.875  34.431  32.572  1.00  0.00    -0.200 F 
ATOM     70  F   UNL A   1      47.217  36.317  30.633  1.00  0.00    -0.200 F 
ENDBRANCH  37  60
ENDBRANCH  11  12
ENDBRANCH   4   6
ENDBRANCH   3   4
ENDBRANCH   2   3
ENDBRANCH   1   2
BRANCH   1  71
ATOM     71  O   UNL A   1      37.269  20.700  24.736  1.00  0.00    -0.374 OA
BRANCH  71  72
ATOM     72  C   UNL A   1      37.696  22.012  25.121  1.00  0.00     0.202 C 
BRANCH  72  73
ATOM     73  C   UNL A   1      36.710  23.044  24.562  1.00  0.00     0.261 C 
BRANCH  73  74
ATOM     74  O   UNL A   1      36.200  23.817  25.659  1.00  0.00    -0.460 OA
BRANCH  74  75
ATOM     75  C   UNL A   1      35.019  23.376  26.165  1.00  0.00     0.338 C 
ATOM     76  O   UNL A   1      34.851  22.548  27.046  1.00  0.00    -0.246 OA
BRANCH  75  77
ATOM     77  C   UNL A   1      33.954  24.246  25.625  1.00  0.00     0.060 A 
ATOM     78  C   UNL A   1      32.667  23.725  25.480  1.00  0.00     0.018 A 
ATOM     79  C   UNL A   1      34.195  25.593  25.353  1.00  0.00     0.022 A 
ATOM     80  C   UNL A   1      31.622  24.555  25.072  1.00  0.00     0.027 A 
ATOM     81  C   UNL A   1      33.152  26.429  24.928  1.00  0.00    -0.017 A 
ATOM     82  C   UNL A   1      31.861  25.897  24.749  1.00  0.00     0.038 A 
ATOM     83  C   UNL A   1      33.451  27.877  24.623  1.00  0.00     0.049 C 
ATOM     84  N   UNL A   1      30.815  26.688  24.275  1.00  0.00    -0.378 N 
ATOM     85  C   UNL A   1      33.906  28.662  25.825  1.00  0.00    -0.023 C 
ATOM     86  C   UNL A   1      32.232  28.697  24.166  1.00  0.00     0.031 C 
ATOM     87  C   UNL A   1      31.199  27.826  23.448  1.00  0.00     0.114 C 
ATOM     88  H   UNL A   1      29.874  26.491  24.486  1.00  0.00     0.161 HD
ATOM     89  C   UNL A   1      32.974  29.524  26.248  1.00  0.00    -0.030 C 
ATOM     90  C   UNL A   1      31.736  29.444  25.414  1.00  0.00     0.034 C 
BRANCH  87  91
ATOM     91  C   UNL A   1      30.016  28.626  22.934  1.00  0.00    -0.022 A 
ATOM     92  C   UNL A   1      30.265  29.718  22.089  1.00  0.00     0.026 A 
ATOM     93  C   UNL A   1      28.683  28.339  23.247  1.00  0.00     0.026 A 
ATOM     94  C   UNL A   1      29.200  30.454  21.598  1.00  0.00     0.111 A 
ATOM     95  C   UNL A   1      27.683  29.127  22.692  1.00  0.00     0.111 A 
ATOM     96  N   UNL A   1      27.912  30.177  21.876  1.00  0.00    -0.265 NA
ENDBRANCH  87  91
ENDBRANCH  75  77
ENDBRANCH  74  75
ENDBRANCH  73  74
ENDBRANCH  72  73
ENDBRANCH  71  72
ENDBRANCH   1  71
TORSDOF 15
ENDMDL
