MODEL 1
REMARK VINA RESULT:     -11.5      0.000      0.000
REMARK SMILES Cn1ccc(Nc2nccc(C(=O)OCCOCCOC(=O)c3ccc(-c4c5nc(c(-c6c(F)c(F)c(F)c(F)c6F)c6ccc([nH]6)c(-c6c(F)c(F)c(F)c(F)c6F)c6nc(c(-c7c(F)c(F)c(F)c(F)c7F)c7ccc4[nH]7)C=C6)C=C5)cc3)c2N)n1
REMARK SMILES IDX 17 1 16 2 15 3 14 4 12 5 13 6 11 7 7 8 8 9 86 10 9 11 10 12
REMARK SMILES IDX 6 13 5 15 1 16 2 17 3 18 88 19 4 20 87 21 18 24 19 25 20 26
REMARK SMILES IDX 21 27 22 28 23 29 24 30 85 31 25 32 84 33 26 34 27 35 28 36
REMARK SMILES IDX 78 37 29 38 83 39 77 40 79 41 30 42 82 43 76 44 75 45 31 47
REMARK SMILES IDX 63 48 43 49 62 50 44 51 47 52 61 53 80 54 45 55 46 56 60 58
REMARK SMILES IDX 81 59 48 60 32 61 33 62 41 63 34 64 35 65 39 66 42 67 36 68
REMARK SMILES IDX 37 69 40 70 38 71 64 72 65 73 73 74 66 75 67 76 71 77 74 78
REMARK SMILES IDX 68 79 69 80 72 81 70 82 49 83 50 84 58 85 51 86 52 87 56 88
REMARK SMILES IDX 59 89 53 90 54 91 57 92 55 93
REMARK H PARENT 6 14 87 22 87 23 79 46 47 57
REMARK Flexibility Score: inf
ROOT
ATOM      1  O   UNL A   1      30.976  29.526  24.627  1.00  0.00    -0.374 OA
ENDROOT
BRANCH   1   2
ATOM      2  C   UNL A   1      31.108  28.293  23.917  1.00  0.00     0.202 C 
BRANCH   2   3
ATOM      3  C   UNL A   1      30.892  27.035  24.762  1.00  0.00     0.261 C 
BRANCH   3   4
ATOM      4  O   UNL A   1      31.968  26.107  24.542  1.00  0.00    -0.460 OA
BRANCH   4   5
ATOM      5  C   UNL A   1      32.774  25.859  25.604  1.00  0.00     0.340 C 
ATOM      6  O   UNL A   1      33.098  26.668  26.460  1.00  0.00    -0.246 OA
BRANCH   5   7
ATOM      7  C   UNL A   1      33.119  24.415  25.705  1.00  0.00     0.088 A 
ATOM      8  C   UNL A   1      32.695  22.052  25.668  1.00  0.00     0.155 A 
ATOM      9  N   UNL A   1      34.014  21.769  25.802  1.00  0.00    -0.237 NA
ATOM     10  C   UNL A   1      32.179  23.374  25.701  1.00  0.00     0.090 A 
ATOM     11  C   UNL A   1      34.875  22.804  25.840  1.00  0.00     0.114 A 
ATOM     12  C   UNL A   1      34.486  24.123  25.758  1.00  0.00     0.038 A 
BRANCH   8  13
ATOM     13  N   UNL A   1      31.885  20.932  25.391  1.00  0.00    -0.322 N 
ATOM     14  H   UNL A   1      30.917  21.041  25.528  1.00  0.00     0.170 HD
BRANCH  13  15
ATOM     15  C   UNL A   1      32.303  19.721  24.955  1.00  0.00     0.153 A 
ATOM     16  C   UNL A   1      32.913  16.315  25.369  1.00  0.00     0.173 C 
ATOM     17  N   UNL A   1      32.781  17.658  24.858  1.00  0.00    -0.274 N 
ATOM     18  C   UNL A   1      32.849  18.074  23.565  1.00  0.00     0.110 A 
ATOM     19  N   UNL A   1      32.527  18.648  25.718  1.00  0.00    -0.155 NA
ATOM     20  C   UNL A   1      32.528  19.415  23.591  1.00  0.00     0.068 A 
ENDBRANCH  13  15
ENDBRANCH   8  13
BRANCH  10  21
ATOM     21  N   UNL A   1      30.807  23.596  25.924  1.00  0.00    -0.395 N 
ATOM     22  H   UNL A   1      30.162  23.466  25.191  1.00  0.00     0.156 HD
ATOM     23  H   UNL A   1      30.493  23.880  26.813  1.00  0.00     0.156 HD
ENDBRANCH  10  21
ENDBRANCH   5   7
ENDBRANCH   4   5
ENDBRANCH   3   4
ENDBRANCH   2   3
ENDBRANCH   1   2
BRANCH   1  24
ATOM     24  C   UNL A   1      31.858  29.726  25.733  1.00  0.00     0.202 C 
BRANCH  24  25
ATOM     25  C   UNL A   1      31.835  31.127  26.348  1.00  0.00     0.261 C 
BRANCH  25  26
ATOM     26  O   UNL A   1      32.616  31.183  27.554  1.00  0.00    -0.460 OA
BRANCH  26  27
ATOM     27  C   UNL A   1      33.451  32.241  27.630  1.00  0.00     0.338 C 
ATOM     28  O   UNL A   1      33.146  33.427  27.617  1.00  0.00    -0.246 OA
BRANCH  27  29
ATOM     29  C   UNL A   1      34.834  31.797  27.882  1.00  0.00     0.060 A 
ATOM     30  C   UNL A   1      35.037  30.421  28.041  1.00  0.00     0.016 A 
ATOM     31  C   UNL A   1      35.891  32.695  28.060  1.00  0.00     0.016 A 
ATOM     32  C   UNL A   1      36.272  29.944  28.468  1.00  0.00     0.010 A 
ATOM     33  C   UNL A   1      37.134  32.214  28.492  1.00  0.00     0.010 A 
ATOM     34  C   UNL A   1      37.310  30.842  28.749  1.00  0.00    -0.014 A 
BRANCH  34  35
ATOM     35  C   UNL A   1      38.492  30.340  29.491  1.00  0.00     0.031 A 
ATOM     36  C   UNL A   1      38.681  30.758  30.924  1.00  0.00     0.074 A 
ATOM     37  C   UNL A   1      39.332  29.454  28.929  1.00  0.00     0.049 A 
ATOM     38  N   UNL A   1      39.581  30.370  31.793  1.00  0.00    -0.248 NA
ATOM     39  C   UNL A   1      37.725  31.745  31.451  1.00  0.00     0.031 C 
ATOM     40  C   UNL A   1      39.239  28.953  27.561  1.00  0.00     0.029 A 
ATOM     41  N   UNL A   1      40.421  28.806  29.454  1.00  0.00    -0.354 N 
ATOM     42  C   UNL A   1      39.296  31.060  32.965  1.00  0.00     0.074 A 
ATOM     43  C   UNL A   1      38.166  31.920  32.687  1.00  0.00     0.031 C 
ATOM     44  C   UNL A   1      40.230  28.070  27.353  1.00  0.00     0.029 A 
ATOM     45  C   UNL A   1      41.031  27.953  28.569  1.00  0.00     0.049 A 
ATOM     46  H   UNL A   1      40.736  28.941  30.378  1.00  0.00     0.167 HD
ATOM     47  C   UNL A   1      39.908  30.971  34.169  1.00  0.00     0.037 A 
ATOM     48  C   UNL A   1      42.113  27.167  28.729  1.00  0.00     0.037 A 
ATOM     49  C   UNL A   1      41.029  30.114  34.450  1.00  0.00     0.049 A 
ATOM     50  C   UNL A   1      42.799  27.112  30.069  1.00  0.00     0.074 A 
ATOM     51  C   UNL A   1      41.713  29.944  35.641  1.00  0.00     0.029 A 
ATOM     52  N   UNL A   1      41.635  29.282  33.519  1.00  0.00    -0.354 N 
ATOM     53  N   UNL A   1      42.498  27.737  31.182  1.00  0.00    -0.248 NA
ATOM     54  C   UNL A   1      43.966  26.224  30.179  1.00  0.00     0.031 C 
ATOM     55  C   UNL A   1      42.758  29.040  35.421  1.00  0.00     0.029 A 
ATOM     56  C   UNL A   1      42.696  28.611  34.105  1.00  0.00     0.049 A 
ATOM     57  H   UNL A   1      41.353  29.185  32.581  1.00  0.00     0.167 HD
ATOM     58  C   UNL A   1      43.417  27.300  32.127  1.00  0.00     0.074 A 
ATOM     59  C   UNL A   1      44.276  26.343  31.462  1.00  0.00     0.031 C 
ATOM     60  C   UNL A   1      43.538  27.656  33.430  1.00  0.00     0.037 A 
BRANCH  47  61
ATOM     61  C   UNL A   1      39.385  31.843  35.273  1.00  0.00     0.064 A 
ATOM     62  C   UNL A   1      38.504  31.349  36.246  1.00  0.00     0.173 A 
ATOM     63  C   UNL A   1      39.785  33.184  35.369  1.00  0.00     0.173 A 
ATOM     64  F   UNL A   1      38.079  30.078  36.190  1.00  0.00    -0.203 F 
ATOM     65  C   UNL A   1      38.023  32.173  37.261  1.00  0.00     0.198 A 
ATOM     66  C   UNL A   1      39.324  33.997  36.400  1.00  0.00     0.198 A 
ATOM     67  F   UNL A   1      40.628  33.706  34.464  1.00  0.00    -0.203 F 
ATOM     68  F   UNL A   1      37.146  31.692  38.154  1.00  0.00    -0.200 F 
ATOM     69  C   UNL A   1      38.438  33.494  37.341  1.00  0.00     0.200 A 
ATOM     70  F   UNL A   1      39.732  35.272  36.481  1.00  0.00    -0.200 F 
ATOM     71  F   UNL A   1      37.977  34.285  38.320  1.00  0.00    -0.200 F 
ENDBRANCH  47  61
BRANCH  48  72
ATOM     72  C   UNL A   1      42.608  26.351  27.590  1.00  0.00     0.064 A 
ATOM     73  C   UNL A   1      42.100  25.068  27.343  1.00  0.00     0.173 A 
ATOM     74  C   UNL A   1      43.611  26.832  26.738  1.00  0.00     0.173 A 
ATOM     75  F   UNL A   1      41.157  24.555  28.146  1.00  0.00    -0.203 F 
ATOM     76  C   UNL A   1      42.591  24.290  26.296  1.00  0.00     0.198 A 
ATOM     77  C   UNL A   1      44.082  26.065  25.676  1.00  0.00     0.198 A 
ATOM     78  F   UNL A   1      44.130  28.054  26.934  1.00  0.00    -0.203 F 
ATOM     79  F   UNL A   1      42.120  23.050  26.108  1.00  0.00    -0.200 F 
ATOM     80  C   UNL A   1      43.578  24.791  25.461  1.00  0.00     0.200 A 
ATOM     81  F   UNL A   1      45.029  26.557  24.864  1.00  0.00    -0.200 F 
ATOM     82  F   UNL A   1      44.048  24.044  24.452  1.00  0.00    -0.200 F 
ENDBRANCH  48  72
BRANCH  60  83
ATOM     83  C   UNL A   1      44.615  26.982  34.229  1.00  0.00     0.064 A 
ATOM     84  C   UNL A   1      45.897  27.537  34.356  1.00  0.00     0.173 A 
ATOM     85  C   UNL A   1      44.354  25.773  34.893  1.00  0.00     0.173 A 
ATOM     86  F   UNL A   1      46.201  28.684  33.728  1.00  0.00    -0.203 F 
ATOM     87  C   UNL A   1      46.888  26.890  35.090  1.00  0.00     0.198 A 
ATOM     88  C   UNL A   1      45.338  25.145  35.651  1.00  0.00     0.198 A 
ATOM     89  F   UNL A   1      43.142  25.205  34.812  1.00  0.00    -0.203 F 
ATOM     90  F   UNL A   1      48.122  27.411  35.151  1.00  0.00    -0.200 F 
ATOM     91  C   UNL A   1      46.607  25.698  35.739  1.00  0.00     0.200 A 
ATOM     92  F   UNL A   1      45.062  23.999  36.288  1.00  0.00    -0.200 F 
ATOM     93  F   UNL A   1      47.562  25.076  36.445  1.00  0.00    -0.200 F 
ENDBRANCH  60  83
ENDBRANCH  34  35
ENDBRANCH  27  29
ENDBRANCH  26  27
ENDBRANCH  25  26
ENDBRANCH  24  25
ENDBRANCH   1  24
TORSDOF 17
ENDMDL
MODEL 2
REMARK VINA RESULT:     -11.5      0.992      1.759
REMARK SMILES Cn1ccc(Nc2nccc(C(=O)OCCOCCOC(=O)c3ccc(-c4c5nc(c(-c6c(F)c(F)c(F)c(F)c6F)c6ccc([nH]6)c(-c6c(F)c(F)c(F)c(F)c6F)c6nc(c(-c7c(F)c(F)c(F)c(F)c7F)c7ccc4[nH]7)C=C6)C=C5)cc3)c2N)n1
REMARK SMILES IDX 17 1 16 2 15 3 14 4 12 5 13 6 11 7 7 8 8 9 86 10 9 11 10 12
REMARK SMILES IDX 6 13 5 15 1 16 2 17 3 18 88 19 4 20 87 21 18 24 19 25 20 26
REMARK SMILES IDX 21 27 22 28 23 29 24 30 85 31 25 32 84 33 26 34 27 35 28 36
REMARK SMILES IDX 78 37 29 38 83 39 77 40 79 41 30 42 82 43 76 44 75 45 31 47
REMARK SMILES IDX 63 48 43 49 62 50 44 51 47 52 61 53 80 54 45 55 46 56 60 58
REMARK SMILES IDX 81 59 48 60 32 61 33 62 41 63 34 64 35 65 39 66 42 67 36 68
REMARK SMILES IDX 37 69 40 70 38 71 64 72 65 73 73 74 66 75 67 76 71 77 74 78
REMARK SMILES IDX 68 79 69 80 72 81 70 82 49 83 50 84 58 85 51 86 52 87 56 88
REMARK SMILES IDX 59 89 53 90 54 91 57 92 55 93
REMARK H PARENT 6 14 87 22 87 23 79 46 47 57
REMARK Flexibility Score: inf
ROOT
ATOM      1  O   UNL A   1      33.035  28.218  25.779  1.00  0.00    -0.374 OA
ENDROOT
BRANCH   1   2
ATOM      2  C   UNL A   1      32.920  26.986  25.063  1.00  0.00     0.202 C 
BRANCH   2   3
ATOM      3  C   UNL A   1      33.746  25.829  25.632  1.00  0.00     0.261 C 
BRANCH   3   4
ATOM      4  O   UNL A   1      34.553  25.247  24.594  1.00  0.00    -0.460 OA
BRANCH   4   5
ATOM      5  C   UNL A   1      35.080  24.025  24.856  1.00  0.00     0.340 C 
ATOM      6  O   UNL A   1      36.096  23.808  25.499  1.00  0.00    -0.246 OA
BRANCH   5   7
ATOM      7  C   UNL A   1      34.186  22.931  24.387  1.00  0.00     0.088 A 
ATOM      8  C   UNL A   1      33.013  20.842  24.542  1.00  0.00     0.155 A 
ATOM      9  N   UNL A   1      32.375  21.064  23.367  1.00  0.00    -0.237 NA
ATOM     10  C   UNL A   1      34.006  21.714  25.061  1.00  0.00     0.090 A 
ATOM     11  C   UNL A   1      32.610  22.231  22.738  1.00  0.00     0.114 A 
ATOM     12  C   UNL A   1      33.466  23.198  23.219  1.00  0.00     0.038 A 
BRANCH   8  13
ATOM     13  N   UNL A   1      32.539  19.725  25.260  1.00  0.00    -0.322 N 
ATOM     14  H   UNL A   1      31.829  19.893  25.920  1.00  0.00     0.170 HD
BRANCH  13  15
ATOM     15  C   UNL A   1      32.961  18.445  25.133  1.00  0.00     0.153 A 
ATOM     16  C   UNL A   1      32.530  14.997  25.391  1.00  0.00     0.173 C 
ATOM     17  N   UNL A   1      33.035  16.327  25.151  1.00  0.00    -0.274 N 
ATOM     18  C   UNL A   1      34.134  16.691  24.436  1.00  0.00     0.110 A 
ATOM     19  N   UNL A   1      32.357  17.368  25.641  1.00  0.00    -0.155 NA
ATOM     20  C   UNL A   1      34.108  18.069  24.394  1.00  0.00     0.068 A 
ENDBRANCH  13  15
ENDBRANCH   8  13
BRANCH  10  21
ATOM     21  N   UNL A   1      34.884  21.272  26.068  1.00  0.00    -0.395 N 
ATOM     22  H   UNL A   1      35.854  21.249  25.899  1.00  0.00     0.156 HD
ATOM     23  H   UNL A   1      34.529  20.986  26.940  1.00  0.00     0.156 HD
ENDBRANCH  10  21
ENDBRANCH   5   7
ENDBRANCH   4   5
ENDBRANCH   3   4
ENDBRANCH   2   3
ENDBRANCH   1   2
BRANCH   1  24
ATOM     24  C   UNL A   1      32.472  29.374  25.159  1.00  0.00     0.202 C 
BRANCH  24  25
ATOM     25  C   UNL A   1      31.982  30.462  26.118  1.00  0.00     0.261 C 
BRANCH  25  26
ATOM     26  O   UNL A   1      32.733  30.457  27.344  1.00  0.00    -0.460 OA
BRANCH  26  27
ATOM     27  C   UNL A   1      33.466  31.570  27.554  1.00  0.00     0.338 C 
ATOM     28  O   UNL A   1      33.059  32.723  27.625  1.00  0.00    -0.246 OA
BRANCH  27  29
ATOM     29  C   UNL A   1      34.870  31.224  27.842  1.00  0.00     0.060 A 
ATOM     30  C   UNL A   1      35.165  29.865  28.007  1.00  0.00     0.016 A 
ATOM     31  C   UNL A   1      35.856  32.194  28.049  1.00  0.00     0.016 A 
ATOM     32  C   UNL A   1      36.418  29.475  28.466  1.00  0.00     0.010 A 
ATOM     33  C   UNL A   1      37.118  31.800  28.513  1.00  0.00     0.010 A 
ATOM     34  C   UNL A   1      37.383  30.444  28.775  1.00  0.00    -0.014 A 
BRANCH  34  35
ATOM     35  C   UNL A   1      38.578  30.025  29.548  1.00  0.00     0.031 A 
ATOM     36  C   UNL A   1      38.745  30.528  30.956  1.00  0.00     0.074 A 
ATOM     37  C   UNL A   1      39.450  29.138  29.039  1.00  0.00     0.049 A 
ATOM     38  N   UNL A   1      39.652  30.219  31.848  1.00  0.00    -0.248 NA
ATOM     39  C   UNL A   1      37.753  31.509  31.424  1.00  0.00     0.031 C 
ATOM     40  C   UNL A   1      39.382  28.559  27.700  1.00  0.00     0.029 A 
ATOM     41  N   UNL A   1      40.558  28.558  29.603  1.00  0.00    -0.354 N 
ATOM     42  C   UNL A   1      39.338  30.962  32.978  1.00  0.00     0.074 A 
ATOM     43  C   UNL A   1      38.181  31.767  32.649  1.00  0.00     0.031 C 
ATOM     44  C   UNL A   1      40.403  27.700  27.545  1.00  0.00     0.029 A 
ATOM     45  C   UNL A   1      41.202  27.678  28.769  1.00  0.00     0.049 A 
ATOM     46  H   UNL A   1      40.863  28.755  30.518  1.00  0.00     0.167 HD
ATOM     47  C   UNL A   1      39.947  30.962  34.188  1.00  0.00     0.037 A 
ATOM     48  C   UNL A   1      42.309  26.940  28.976  1.00  0.00     0.037 A 
ATOM     49  C   UNL A   1      41.094  30.161  34.520  1.00  0.00     0.049 A 
ATOM     50  C   UNL A   1      42.989  26.983  30.319  1.00  0.00     0.074 A 
ATOM     51  C   UNL A   1      41.777  30.080  35.721  1.00  0.00     0.029 A 
ATOM     52  N   UNL A   1      41.733  29.300  33.639  1.00  0.00    -0.354 N 
ATOM     53  N   UNL A   1      42.661  27.658  31.394  1.00  0.00    -0.248 NA
ATOM     54  C   UNL A   1      44.185  26.143  30.482  1.00  0.00     0.031 C 
ATOM     55  C   UNL A   1      42.854  29.202  35.555  1.00  0.00     0.029 A 
ATOM     56  C   UNL A   1      42.813  28.699  34.265  1.00  0.00     0.049 A 
ATOM     57  H   UNL A   1      41.460  29.141  32.707  1.00  0.00     0.167 HD
ATOM     58  C   UNL A   1      43.589  27.305  32.366  1.00  0.00     0.074 A 
ATOM     59  C   UNL A   1      44.484  26.344  31.758  1.00  0.00     0.031 C 
ATOM     60  C   UNL A   1      43.691  27.738  33.647  1.00  0.00     0.037 A 
BRANCH  47  61
ATOM     61  C   UNL A   1      39.387  31.875  35.240  1.00  0.00     0.064 A 
ATOM     62  C   UNL A   1      39.722  33.237  35.285  1.00  0.00     0.173 A 
ATOM     63  C   UNL A   1      38.490  31.386  36.201  1.00  0.00     0.173 A 
ATOM     64  F   UNL A   1      40.588  33.749  34.398  1.00  0.00    -0.203 F 
ATOM     65  C   UNL A   1      39.198  34.070  36.271  1.00  0.00     0.198 A 
ATOM     66  C   UNL A   1      37.948  32.229  37.168  1.00  0.00     0.198 A 
ATOM     67  F   UNL A   1      38.136  30.092  36.200  1.00  0.00    -0.203 F 
ATOM     68  F   UNL A   1      39.568  35.358  36.323  1.00  0.00    -0.200 F 
ATOM     69  C   UNL A   1      38.308  33.567  37.207  1.00  0.00     0.200 A 
ATOM     70  F   UNL A   1      37.080  31.743  38.067  1.00  0.00    -0.200 F 
ATOM     71  F   UNL A   1      37.802  34.371  38.153  1.00  0.00    -0.200 F 
ENDBRANCH  47  61
BRANCH  48  72
ATOM     72  C   UNL A   1      42.837  26.079  27.886  1.00  0.00     0.064 A 
ATOM     73  C   UNL A   1      42.493  24.723  27.801  1.00  0.00     0.173 A 
ATOM     74  C   UNL A   1      43.711  26.594  26.918  1.00  0.00     0.173 A 
ATOM     75  F   UNL A   1      41.680  24.181  28.719  1.00  0.00    -0.203 F 
ATOM     76  C   UNL A   1      43.019  23.910  26.798  1.00  0.00     0.198 A 
ATOM     77  C   UNL A   1      44.214  25.787  25.901  1.00  0.00     0.198 A 
ATOM     78  F   UNL A   1      44.071  27.885  26.957  1.00  0.00    -0.203 F 
ATOM     79  F   UNL A   1      42.709  22.607  26.766  1.00  0.00    -0.200 F 
ATOM     80  C   UNL A   1      43.875  24.443  25.847  1.00  0.00     0.200 A 
ATOM     81  F   UNL A   1      45.033  26.309  24.977  1.00  0.00    -0.200 F 
ATOM     82  F   UNL A   1      44.378  23.661  24.882  1.00  0.00    -0.200 F 
ENDBRANCH  48  72
BRANCH  60  83
ATOM     83  C   UNL A   1      44.786  27.146  34.486  1.00  0.00     0.064 A 
ATOM     84  C   UNL A   1      46.050  27.747  34.581  1.00  0.00     0.173 A 
ATOM     85  C   UNL A   1      44.560  25.972  35.221  1.00  0.00     0.173 A 
ATOM     86  F   UNL A   1      46.320  28.863  33.886  1.00  0.00    -0.203 F 
ATOM     87  C   UNL A   1      47.058  27.176  35.352  1.00  0.00     0.198 A 
ATOM     88  C   UNL A   1      45.562  25.421  36.016  1.00  0.00     0.198 A 
ATOM     89  F   UNL A   1      43.367  25.362  35.174  1.00  0.00    -0.203 F 
ATOM     90  F   UNL A   1      48.275  27.737  35.383  1.00  0.00    -0.200 F 
ATOM     91  C   UNL A   1      46.813  26.017  36.072  1.00  0.00     0.200 A 
ATOM     92  F   UNL A   1      45.319  24.307  36.721  1.00  0.00    -0.200 F 
ATOM     93  F   UNL A   1      47.784  25.468  36.815  1.00  0.00    -0.200 F 
ENDBRANCH  60  83
ENDBRANCH  34  35
ENDBRANCH  27  29
ENDBRANCH  26  27
ENDBRANCH  25  26
ENDBRANCH  24  25
ENDBRANCH   1  24
TORSDOF 17
ENDMDL
MODEL 3
REMARK VINA RESULT:     -11.4      1.237      2.078
REMARK SMILES Cn1ccc(Nc2nccc(C(=O)OCCOCCOC(=O)c3ccc(-c4c5nc(c(-c6c(F)c(F)c(F)c(F)c6F)c6ccc([nH]6)c(-c6c(F)c(F)c(F)c(F)c6F)c6nc(c(-c7c(F)c(F)c(F)c(F)c7F)c7ccc4[nH]7)C=C6)C=C5)cc3)c2N)n1
REMARK SMILES IDX 17 1 16 2 15 3 14 4 12 5 13 6 11 7 7 8 8 9 86 10 9 11 10 12
REMARK SMILES IDX 6 13 5 15 1 16 2 17 3 18 88 19 4 20 87 21 18 24 19 25 20 26
REMARK SMILES IDX 21 27 22 28 23 29 24 30 85 31 25 32 84 33 26 34 27 35 28 36
REMARK SMILES IDX 78 37 29 38 83 39 77 40 79 41 30 42 82 43 76 44 75 45 31 47
REMARK SMILES IDX 63 48 43 49 62 50 44 51 47 52 61 53 80 54 45 55 46 56 60 58
REMARK SMILES IDX 81 59 48 60 32 61 33 62 41 63 34 64 35 65 39 66 42 67 36 68
REMARK SMILES IDX 37 69 40 70 38 71 64 72 65 73 73 74 66 75 67 76 71 77 74 78
REMARK SMILES IDX 68 79 69 80 72 81 70 82 49 83 50 84 58 85 51 86 52 87 56 88
REMARK SMILES IDX 59 89 53 90 54 91 57 92 55 93
REMARK H PARENT 6 14 87 22 87 23 79 46 47 57
REMARK Flexibility Score: inf
ROOT
ATOM      1  O   UNL A   1      31.807  30.222  26.769  1.00  0.00    -0.374 OA
ENDROOT
BRANCH   1   2
ATOM      2  C   UNL A   1      31.882  29.123  25.858  1.00  0.00     0.202 C 
BRANCH   2   3
ATOM      3  C   UNL A   1      31.032  29.273  24.594  1.00  0.00     0.261 C 
BRANCH   3   4
ATOM      4  O   UNL A   1      30.457  28.003  24.238  1.00  0.00    -0.460 OA
BRANCH   4   5
ATOM      5  C   UNL A   1      30.569  27.637  22.938  1.00  0.00     0.340 C 
ATOM      6  O   UNL A   1      30.105  28.240  21.982  1.00  0.00    -0.246 OA
BRANCH   5   7
ATOM      7  C   UNL A   1      31.468  26.462  22.775  1.00  0.00     0.088 A 
ATOM      8  C   UNL A   1      32.045  24.132  22.737  1.00  0.00     0.155 A 
ATOM      9  N   UNL A   1      33.294  24.403  22.287  1.00  0.00    -0.237 NA
ATOM     10  C   UNL A   1      31.110  25.142  23.083  1.00  0.00     0.090 A 
ATOM     11  C   UNL A   1      33.604  25.691  22.042  1.00  0.00     0.114 A 
ATOM     12  C   UNL A   1      32.727  26.736  22.231  1.00  0.00     0.038 A 
BRANCH   8  13
ATOM     13  N   UNL A   1      31.712  22.762  22.738  1.00  0.00    -0.322 N 
ATOM     14  H   UNL A   1      31.109  22.453  22.024  1.00  0.00     0.170 HD
BRANCH  13  15
ATOM     15  C   UNL A   1      32.137  21.828  23.621  1.00  0.00     0.153 A 
ATOM     16  C   UNL A   1      33.403  18.688  24.444  1.00  0.00     0.173 C 
ATOM     17  N   UNL A   1      32.898  20.039  24.466  1.00  0.00    -0.274 N 
ATOM     18  C   UNL A   1      32.922  20.928  25.495  1.00  0.00     0.110 A 
ATOM     19  N   UNL A   1      32.362  20.540  23.350  1.00  0.00    -0.155 NA
ATOM     20  C   UNL A   1      32.444  22.111  24.973  1.00  0.00     0.068 A 
ENDBRANCH  13  15
ENDBRANCH   8  13
BRANCH  10  21
ATOM     21  N   UNL A   1      29.988  24.830  23.874  1.00  0.00    -0.395 N 
ATOM     22  H   UNL A   1      30.088  24.721  24.848  1.00  0.00     0.156 HD
ATOM     23  H   UNL A   1      29.104  24.722  23.455  1.00  0.00     0.156 HD
ENDBRANCH  10  21
ENDBRANCH   5   7
ENDBRANCH   4   5
ENDBRANCH   3   4
ENDBRANCH   2   3
ENDBRANCH   1   2
BRANCH   1  24
ATOM     24  C   UNL A   1      31.311  31.455  26.245  1.00  0.00     0.202 C 
BRANCH  24  25
ATOM     25  C   UNL A   1      31.839  32.719  26.927  1.00  0.00     0.261 C 
BRANCH  25  26
ATOM     26  O   UNL A   1      32.873  32.409  27.878  1.00  0.00    -0.460 OA
BRANCH  26  27
ATOM     27  C   UNL A   1      33.832  33.352  27.988  1.00  0.00     0.338 C 
ATOM     28  O   UNL A   1      33.677  34.566  28.019  1.00  0.00    -0.246 OA
BRANCH  27  29
ATOM     29  C   UNL A   1      35.149  32.731  28.216  1.00  0.00     0.060 A 
ATOM     30  C   UNL A   1      35.168  31.348  28.430  1.00  0.00     0.016 A 
ATOM     31  C   UNL A   1      36.326  33.481  28.320  1.00  0.00     0.016 A 
ATOM     32  C   UNL A   1      36.341  30.722  28.840  1.00  0.00     0.010 A 
ATOM     33  C   UNL A   1      37.506  32.850  28.734  1.00  0.00     0.010 A 
ATOM     34  C   UNL A   1      37.502  31.479  29.047  1.00  0.00    -0.014 A 
BRANCH  34  35
ATOM     35  C   UNL A   1      38.631  30.848  29.774  1.00  0.00     0.031 A 
ATOM     36  C   UNL A   1      38.832  31.175  31.229  1.00  0.00     0.074 A 
ATOM     37  C   UNL A   1      39.407  29.929  29.174  1.00  0.00     0.049 A 
ATOM     38  N   UNL A   1      39.686  30.673  32.084  1.00  0.00    -0.248 NA
ATOM     39  C   UNL A   1      37.947  32.205  31.797  1.00  0.00     0.031 C 
ATOM     40  C   UNL A   1      39.295  29.508  27.780  1.00  0.00     0.029 A 
ATOM     41  N   UNL A   1      40.436  29.172  29.675  1.00  0.00    -0.354 N 
ATOM     42  C   UNL A   1      39.439  31.322  33.288  1.00  0.00     0.074 A 
ATOM     43  C   UNL A   1      38.383  32.281  33.045  1.00  0.00     0.031 C 
ATOM     44  C   UNL A   1      40.218  28.563  27.537  1.00  0.00     0.029 A 
ATOM     45  C   UNL A   1      40.990  28.321  28.753  1.00  0.00     0.049 A 
ATOM     46  H   UNL A   1      40.747  29.234  30.608  1.00  0.00     0.167 HD
ATOM     47  C   UNL A   1      40.026  31.123  34.492  1.00  0.00     0.037 A 
ATOM     48  C   UNL A   1      42.006  27.445  28.882  1.00  0.00     0.037 A 
ATOM     49  C   UNL A   1      41.072  30.168  34.739  1.00  0.00     0.049 A 
ATOM     50  C   UNL A   1      42.666  27.268  30.224  1.00  0.00     0.074 A 
ATOM     51  C   UNL A   1      41.724  29.884  35.926  1.00  0.00     0.029 A 
ATOM     52  N   UNL A   1      41.625  29.341  33.771  1.00  0.00    -0.354 N 
ATOM     53  N   UNL A   1      42.399  27.856  31.365  1.00  0.00    -0.248 NA
ATOM     54  C   UNL A   1      43.759  26.287  30.299  1.00  0.00     0.031 C 
ATOM     55  C   UNL A   1      42.699  28.913  35.669  1.00  0.00     0.029 A 
ATOM     56  C   UNL A   1      42.622  28.559  34.332  1.00  0.00     0.049 A 
ATOM     57  H   UNL A   1      41.350  29.314  32.827  1.00  0.00     0.167 HD
ATOM     58  C   UNL A   1      43.268  27.300  32.296  1.00  0.00     0.074 A 
ATOM     59  C   UNL A   1      44.059  26.315  31.589  1.00  0.00     0.031 C 
ATOM     60  C   UNL A   1      43.398  27.578  33.617  1.00  0.00     0.037 A 
BRANCH  47  61
ATOM     61  C   UNL A   1      39.555  31.976  35.635  1.00  0.00     0.064 A 
ATOM     62  C   UNL A   1      40.103  33.243  35.881  1.00  0.00     0.173 A 
ATOM     63  C   UNL A   1      38.530  31.526  36.481  1.00  0.00     0.173 A 
ATOM     64  F   UNL A   1      41.096  33.711  35.111  1.00  0.00    -0.203 F 
ATOM     65  C   UNL A   1      39.659  34.019  36.949  1.00  0.00     0.198 A 
ATOM     66  C   UNL A   1      38.071  32.317  37.531  1.00  0.00     0.198 A 
ATOM     67  F   UNL A   1      37.971  30.322  36.287  1.00  0.00    -0.203 F 
ATOM     68  F   UNL A   1      40.229  35.209  37.194  1.00  0.00    -0.200 F 
ATOM     69  C   UNL A   1      38.640  33.559  37.769  1.00  0.00     0.200 A 
ATOM     70  F   UNL A   1      37.078  31.874  38.317  1.00  0.00    -0.200 F 
ATOM     71  F   UNL A   1      38.211  34.308  38.794  1.00  0.00    -0.200 F 
ENDBRANCH  47  61
BRANCH  48  72
ATOM     72  C   UNL A   1      42.452  26.653  27.707  1.00  0.00     0.064 A 
ATOM     73  C   UNL A   1      41.916  25.385  27.442  1.00  0.00     0.173 A 
ATOM     74  C   UNL A   1      43.436  27.142  26.837  1.00  0.00     0.173 A 
ATOM     75  F   UNL A   1      40.991  24.865  28.260  1.00  0.00    -0.203 F 
ATOM     76  C   UNL A   1      42.362  24.629  26.359  1.00  0.00     0.198 A 
ATOM     77  C   UNL A   1      43.861  26.397  25.740  1.00  0.00     0.198 A 
ATOM     78  F   UNL A   1      43.979  28.350  27.048  1.00  0.00    -0.203 F 
ATOM     79  F   UNL A   1      41.866  23.401  26.153  1.00  0.00    -0.200 F 
ATOM     80  C   UNL A   1      43.331  25.137  25.507  1.00  0.00     0.200 A 
ATOM     81  F   UNL A   1      44.789  26.897  24.912  1.00  0.00    -0.200 F 
ATOM     82  F   UNL A   1      43.757  24.411  24.464  1.00  0.00    -0.200 F 
ENDBRANCH  48  72
BRANCH  60  83
ATOM     83  C   UNL A   1      44.407  26.781  34.389  1.00  0.00     0.064 A 
ATOM     84  C   UNL A   1      45.717  27.244  34.590  1.00  0.00     0.173 A 
ATOM     85  C   UNL A   1      44.054  25.546  34.955  1.00  0.00     0.173 A 
ATOM     86  F   UNL A   1      46.108  28.413  34.058  1.00  0.00    -0.203 F 
ATOM     87  C   UNL A   1      46.644  26.485  35.298  1.00  0.00     0.198 A 
ATOM     88  C   UNL A   1      44.976  24.803  35.687  1.00  0.00     0.198 A 
ATOM     89  F   UNL A   1      42.813  25.061  34.801  1.00  0.00    -0.203 F 
ATOM     90  F   UNL A   1      47.905  26.921  35.429  1.00  0.00    -0.200 F 
ATOM     91  C   UNL A   1      46.273  25.268  35.849  1.00  0.00     0.200 A 
ATOM     92  F   UNL A   1      44.613  23.633  36.230  1.00  0.00    -0.200 F 
ATOM     93  F   UNL A   1      47.167  24.538  36.530  1.00  0.00    -0.200 F 
ENDBRANCH  60  83
ENDBRANCH  34  35
ENDBRANCH  27  29
ENDBRANCH  26  27
ENDBRANCH  25  26
ENDBRANCH  24  25
ENDBRANCH   1  24
TORSDOF 17
ENDMDL
