MODEL 1
REMARK VINA RESULT:     -12.5      0.000      0.000
REMARK SMILES O=C(OCCOCCOC(=O)[C@H]1[C@H]2CC[C@H](C2)[C@@H]1C(=O)N[C@H]1CCCc2ccccc21)c1ccc(-c2c3nc(c(-c4c(F)c(F)c(F)c(F)c4F)c4ccc([nH]4)c(-c4c(F)c(F)c(F)c(F)c4F)c4nc(c(-c5c(F)c(F)c(F)c(F)c5F)c5ccc2[nH]5)C=C4)C=C3)cc1
REMARK SMILES IDX 6 1 5 2 4 3 3 4 2 5 1 6 32 7 33 8 94 9 34 10 93 11 35 12
REMARK SMILES IDX 36 13 37 14 87 15 38 16 92 17 86 18 88 19 39 20 91 21 85 22
REMARK SMILES IDX 84 23 40 25 72 26 52 27 71 28 53 29 56 30 70 31 89 32 54 33
REMARK SMILES IDX 55 34 69 36 90 37 57 38 41 39 42 40 50 41 43 42 44 43 48 44
REMARK SMILES IDX 51 45 45 46 46 47 49 48 47 49 73 50 74 51 82 52 75 53 76 54
REMARK SMILES IDX 80 55 83 56 77 57 78 58 81 59 79 60 58 61 59 62 67 63 60 64
REMARK SMILES IDX 61 65 65 66 68 67 62 68 63 69 66 70 64 71 7 72 8 73 9 74
REMARK SMILES IDX 10 75 11 76 12 77 13 78 18 79 14 80 17 81 16 82 15 83 19 84
REMARK SMILES IDX 20 85 21 86 22 88 23 89 31 90 24 91 26 92 30 93 25 94 27 95
REMARK SMILES IDX 29 96 28 97
REMARK H PARENT 88 24 56 35 21 87
REMARK Flexibility Score: inf
ROOT
ATOM      1  O   UNL A   1      32.609  30.353  27.305  1.00  0.00    -0.374 OA
ENDROOT
BRANCH   1   2
ATOM      2  C   UNL A   1      31.977  31.345  26.497  1.00  0.00     0.202 C 
BRANCH   2   3
ATOM      3  C   UNL A   1      31.551  32.607  27.247  1.00  0.00     0.261 C 
BRANCH   3   4
ATOM      4  O   UNL A   1      32.596  33.585  27.215  1.00  0.00    -0.460 OA
BRANCH   4   5
ATOM      5  C   UNL A   1      33.109  34.213  28.299  1.00  0.00     0.338 C 
ATOM      6  O   UNL A   1      32.527  35.193  28.759  1.00  0.00    -0.246 OA
BRANCH   5   7
ATOM      7  C   UNL A   1      34.308  33.705  29.026  1.00  0.00     0.060 A 
ATOM      8  C   UNL A   1      35.610  34.186  28.863  1.00  0.00     0.016 A 
ATOM      9  C   UNL A   1      34.081  32.728  30.004  1.00  0.00     0.016 A 
ATOM     10  C   UNL A   1      36.663  33.713  29.609  1.00  0.00     0.010 A 
ATOM     11  C   UNL A   1      35.134  32.257  30.789  1.00  0.00     0.010 A 
ATOM     12  C   UNL A   1      36.425  32.758  30.583  1.00  0.00    -0.014 A 
BRANCH  12  13
ATOM     13  C   UNL A   1      37.597  32.220  31.273  1.00  0.00     0.031 A 
ATOM     14  C   UNL A   1      38.419  31.214  30.546  1.00  0.00     0.074 A 
ATOM     15  C   UNL A   1      37.966  32.755  32.447  1.00  0.00     0.049 A 
ATOM     16  N   UNL A   1      39.409  30.488  30.977  1.00  0.00    -0.248 NA
ATOM     17  C   UNL A   1      38.079  31.000  29.128  1.00  0.00     0.031 C 
ATOM     18  C   UNL A   1      37.296  33.879  33.111  1.00  0.00     0.029 A 
ATOM     19  N   UNL A   1      39.007  32.449  33.276  1.00  0.00    -0.354 N 
ATOM     20  C   UNL A   1      39.771  29.688  29.905  1.00  0.00     0.074 A 
ATOM     21  C   UNL A   1      38.912  30.027  28.795  1.00  0.00     0.031 C 
ATOM     22  C   UNL A   1      37.951  34.169  34.246  1.00  0.00     0.029 A 
ATOM     23  C   UNL A   1      39.017  33.194  34.428  1.00  0.00     0.049 A 
ATOM     24  H   UNL A   1      39.681  31.763  33.068  1.00  0.00     0.167 HD
ATOM     25  C   UNL A   1      40.732  28.739  29.884  1.00  0.00     0.037 A 
ATOM     26  C   UNL A   1      39.774  33.042  35.528  1.00  0.00     0.037 A 
ATOM     27  C   UNL A   1      41.557  28.458  31.028  1.00  0.00     0.049 A 
ATOM     28  C   UNL A   1      40.769  31.914  35.521  1.00  0.00     0.074 A 
ATOM     29  C   UNL A   1      42.517  27.481  31.192  1.00  0.00     0.029 A 
ATOM     30  N   UNL A   1      41.507  29.183  32.217  1.00  0.00    -0.354 N 
ATOM     31  N   UNL A   1      41.046  31.065  34.556  1.00  0.00    -0.248 NA
ATOM     32  C   UNL A   1      41.535  31.700  36.750  1.00  0.00     0.031 C 
ATOM     33  C   UNL A   1      43.012  27.584  32.497  1.00  0.00     0.029 A 
ATOM     34  C   UNL A   1      42.408  28.665  33.127  1.00  0.00     0.049 A 
ATOM     35  H   UNL A   1      40.915  29.952  32.383  1.00  0.00     0.167 HD
ATOM     36  C   UNL A   1      42.032  30.228  35.050  1.00  0.00     0.074 A 
ATOM     37  C   UNL A   1      42.313  30.685  36.400  1.00  0.00     0.031 C 
ATOM     38  C   UNL A   1      42.652  29.177  34.455  1.00  0.00     0.037 A 
BRANCH  25  39
ATOM     39  C   UNL A   1      40.832  27.901  28.645  1.00  0.00     0.064 A 
ATOM     40  C   UNL A   1      41.615  28.279  27.543  1.00  0.00     0.173 A 
ATOM     41  C   UNL A   1      40.062  26.734  28.527  1.00  0.00     0.173 A 
ATOM     42  F   UNL A   1      42.343  29.406  27.586  1.00  0.00    -0.203 F 
ATOM     43  C   UNL A   1      41.589  27.546  26.358  1.00  0.00     0.198 A 
ATOM     44  C   UNL A   1      40.064  25.985  27.353  1.00  0.00     0.198 A 
ATOM     45  F   UNL A   1      39.285  26.332  29.544  1.00  0.00    -0.203 F 
ATOM     46  F   UNL A   1      42.282  27.970  25.292  1.00  0.00    -0.200 F 
ATOM     47  C   UNL A   1      40.816  26.399  26.266  1.00  0.00     0.200 A 
ATOM     48  F   UNL A   1      39.315  24.876  27.267  1.00  0.00    -0.200 F 
ATOM     49  F   UNL A   1      40.780  25.703  25.120  1.00  0.00    -0.200 F 
ENDBRANCH  25  39
BRANCH  26  50
ATOM     50  C   UNL A   1      39.564  33.918  36.711  1.00  0.00     0.064 A 
ATOM     51  C   UNL A   1      38.769  33.506  37.789  1.00  0.00     0.173 A 
ATOM     52  C   UNL A   1      40.169  35.183  36.799  1.00  0.00     0.173 A 
ATOM     53  F   UNL A   1      38.154  32.315  37.752  1.00  0.00    -0.203 F 
ATOM     54  C   UNL A   1      38.579  34.329  38.900  1.00  0.00     0.198 A 
ATOM     55  C   UNL A   1      40.005  35.990  37.923  1.00  0.00     0.198 A 
ATOM     56  F   UNL A   1      40.941  35.631  35.798  1.00  0.00    -0.203 F 
ATOM     57  F   UNL A   1      37.781  33.926  39.899  1.00  0.00    -0.200 F 
ATOM     58  C   UNL A   1      39.202  35.565  38.970  1.00  0.00     0.200 A 
ATOM     59  F   UNL A   1      40.623  37.176  37.991  1.00  0.00    -0.200 F 
ATOM     60  F   UNL A   1      39.025  36.350  40.041  1.00  0.00    -0.200 F 
ENDBRANCH  26  50
BRANCH  38  61
ATOM     61  C   UNL A   1      43.725  28.498  35.247  1.00  0.00     0.064 A 
ATOM     62  C   UNL A   1      45.068  28.884  35.150  1.00  0.00     0.173 A 
ATOM     63  C   UNL A   1      43.386  27.489  36.160  1.00  0.00     0.173 A 
ATOM     64  F   UNL A   1      45.438  29.833  34.276  1.00  0.00    -0.203 F 
ATOM     65  C   UNL A   1      46.041  28.267  35.929  1.00  0.00     0.198 A 
ATOM     66  C   UNL A   1      44.356  26.900  36.960  1.00  0.00     0.198 A 
ATOM     67  F   UNL A   1      42.110  27.093  36.290  1.00  0.00    -0.203 F 
ATOM     68  F   UNL A   1      47.327  28.617  35.791  1.00  0.00    -0.200 F 
ATOM     69  C   UNL A   1      45.683  27.284  36.840  1.00  0.00     0.200 A 
ATOM     70  F   UNL A   1      44.007  25.963  37.853  1.00  0.00    -0.200 F 
ATOM     71  F   UNL A   1      46.620  26.703  37.601  1.00  0.00    -0.200 F 
ENDBRANCH  38  61
ENDBRANCH  12  13
ENDBRANCH   5   7
ENDBRANCH   4   5
ENDBRANCH   3   4
ENDBRANCH   2   3
ENDBRANCH   1   2
BRANCH   1  72
ATOM     72  C   UNL A   1      34.028  30.297  27.223  1.00  0.00     0.202 C 
BRANCH  72  73
ATOM     73  C   UNL A   1      34.468  28.909  26.768  1.00  0.00     0.261 C 
BRANCH  73  74
ATOM     74  O   UNL A   1      33.364  28.225  26.141  1.00  0.00    -0.463 OA
BRANCH  74  75
ATOM     75  C   UNL A   1      33.502  28.037  24.797  1.00  0.00     0.310 C 
ATOM     76  O   UNL A   1      34.365  28.563  24.105  1.00  0.00    -0.252 OA
BRANCH  75  77
ATOM     77  C   UNL A   1      32.454  27.065  24.287  1.00  0.00     0.115 C 
ATOM     78  C   UNL A   1      31.019  27.527  24.683  1.00  0.00     0.004 C 
ATOM     79  C   UNL A   1      32.359  26.974  22.750  1.00  0.00     0.096 C 
ATOM     80  C   UNL A   1      30.594  28.894  24.100  1.00  0.00     0.005 C 
ATOM     81  C   UNL A   1      30.195  26.619  23.781  1.00  0.00     0.009 C 
ATOM     82  C   UNL A   1      30.844  27.133  22.491  1.00  0.00     0.002 C 
ATOM     83  C   UNL A   1      30.498  28.631  22.592  1.00  0.00     0.005 C 
BRANCH  79  84
ATOM     84  C   UNL A   1      33.067  25.834  21.980  1.00  0.00     0.224 C 
ATOM     85  O   UNL A   1      33.275  25.992  20.767  1.00  0.00    -0.275 OA
ATOM     86  N   UNL A   1      33.488  24.642  22.462  1.00  0.00    -0.349 N 
ATOM     87  H   UNL A   1      34.127  24.174  21.879  1.00  0.00     0.164 HD
BRANCH  86  88
ATOM     88  C   UNL A   1      33.166  23.929  23.683  1.00  0.00     0.112 C 
ATOM     89  C   UNL A   1      31.813  23.227  23.505  1.00  0.00     0.030 C 
ATOM     90  C   UNL A   1      34.177  22.864  24.112  1.00  0.00    -0.022 A 
ATOM     91  C   UNL A   1      31.366  22.693  24.852  1.00  0.00     0.007 C 
ATOM     92  C   UNL A   1      33.738  21.778  24.916  1.00  0.00    -0.043 A 
ATOM     93  C   UNL A   1      35.543  22.942  23.790  1.00  0.00     0.006 A 
ATOM     94  C   UNL A   1      32.284  21.562  25.280  1.00  0.00     0.036 C 
ATOM     95  C   UNL A   1      34.650  20.805  25.351  1.00  0.00     0.004 A 
ATOM     96  C   UNL A   1      36.436  21.955  24.223  1.00  0.00     0.000 A 
ATOM     97  C   UNL A   1      35.992  20.890  25.003  1.00  0.00     0.000 A 
ENDBRANCH  86  88
ENDBRANCH  79  84
ENDBRANCH  75  77
ENDBRANCH  74  75
ENDBRANCH  73  74
ENDBRANCH  72  73
ENDBRANCH   1  72
TORSDOF 16
ENDMDL
MODEL 2
REMARK VINA RESULT:     -12.4      5.398     10.571
REMARK SMILES O=C(OCCOCCOC(=O)[C@H]1[C@H]2CC[C@H](C2)[C@@H]1C(=O)N[C@H]1CCCc2ccccc21)c1ccc(-c2c3nc(c(-c4c(F)c(F)c(F)c(F)c4F)c4ccc([nH]4)c(-c4c(F)c(F)c(F)c(F)c4F)c4nc(c(-c5c(F)c(F)c(F)c(F)c5F)c5ccc2[nH]5)C=C4)C=C3)cc1
REMARK SMILES IDX 6 1 5 2 4 3 3 4 2 5 1 6 32 7 33 8 94 9 34 10 93 11 35 12
REMARK SMILES IDX 36 13 37 14 87 15 38 16 92 17 86 18 88 19 39 20 91 21 85 22
REMARK SMILES IDX 84 23 40 25 72 26 52 27 71 28 53 29 56 30 70 31 89 32 54 33
REMARK SMILES IDX 55 34 69 36 90 37 57 38 41 39 42 40 50 41 43 42 44 43 48 44
REMARK SMILES IDX 51 45 45 46 46 47 49 48 47 49 73 50 74 51 82 52 75 53 76 54
REMARK SMILES IDX 80 55 83 56 77 57 78 58 81 59 79 60 58 61 59 62 67 63 60 64
REMARK SMILES IDX 61 65 65 66 68 67 62 68 63 69 66 70 64 71 7 72 8 73 9 74
REMARK SMILES IDX 10 75 11 76 12 77 13 78 18 79 14 80 17 81 16 82 15 83 19 84
REMARK SMILES IDX 20 85 21 86 22 88 23 89 31 90 24 91 26 92 30 93 25 94 27 95
REMARK SMILES IDX 29 96 28 97
REMARK H PARENT 88 24 56 35 21 87
REMARK Flexibility Score: inf
ROOT
ATOM      1  O   UNL A   1      37.068  20.552  25.085  1.00  0.00    -0.374 OA
ENDROOT
BRANCH   1   2
ATOM      2  C   UNL A   1      38.274  19.801  24.949  1.00  0.00     0.202 C 
BRANCH   2   3
ATOM      3  C   UNL A   1      39.381  20.182  25.933  1.00  0.00     0.261 C 
BRANCH   3   4
ATOM      4  O   UNL A   1      40.458  19.241  25.863  1.00  0.00    -0.460 OA
BRANCH   4   5
ATOM      5  C   UNL A   1      41.773  19.559  25.910  1.00  0.00     0.338 C 
ATOM      6  O   UNL A   1      42.603  18.757  25.485  1.00  0.00    -0.246 OA
BRANCH   5   7
ATOM      7  C   UNL A   1      42.260  20.890  26.372  1.00  0.00     0.060 A 
ATOM      8  C   UNL A   1      42.437  21.262  27.707  1.00  0.00     0.016 A 
ATOM      9  C   UNL A   1      42.642  21.799  25.376  1.00  0.00     0.016 A 
ATOM     10  C   UNL A   1      42.947  22.489  28.064  1.00  0.00     0.010 A 
ATOM     11  C   UNL A   1      43.186  23.036  25.721  1.00  0.00     0.010 A 
ATOM     12  C   UNL A   1      43.335  23.372  27.071  1.00  0.00    -0.014 A 
BRANCH  12  13
ATOM     13  C   UNL A   1      43.772  24.697  27.508  1.00  0.00     0.031 A 
ATOM     14  C   UNL A   1      42.724  25.646  27.978  1.00  0.00     0.074 A 
ATOM     15  C   UNL A   1      45.087  24.949  27.613  1.00  0.00     0.049 A 
ATOM     16  N   UNL A   1      42.827  26.907  28.279  1.00  0.00    -0.248 NA
ATOM     17  C   UNL A   1      41.369  25.089  28.135  1.00  0.00     0.031 C 
ATOM     18  C   UNL A   1      46.156  23.982  27.345  1.00  0.00     0.029 A 
ATOM     19  N   UNL A   1      45.747  26.080  28.000  1.00  0.00    -0.354 N 
ATOM     20  C   UNL A   1      41.541  27.312  28.602  1.00  0.00     0.074 A 
ATOM     21  C   UNL A   1      40.676  26.162  28.481  1.00  0.00     0.031 C 
ATOM     22  C   UNL A   1      47.341  24.564  27.582  1.00  0.00     0.029 A 
ATOM     23  C   UNL A   1      47.112  25.961  27.921  1.00  0.00     0.049 A 
ATOM     24  H   UNL A   1      45.290  26.897  28.304  1.00  0.00     0.167 HD
ATOM     25  C   UNL A   1      41.140  28.556  28.945  1.00  0.00     0.037 A 
ATOM     26  C   UNL A   1      48.053  26.912  28.050  1.00  0.00     0.037 A 
ATOM     27  C   UNL A   1      42.060  29.655  29.053  1.00  0.00     0.049 A 
ATOM     28  C   UNL A   1      47.575  28.310  28.333  1.00  0.00     0.074 A 
ATOM     29  C   UNL A   1      41.803  30.985  29.313  1.00  0.00     0.029 A 
ATOM     30  N   UNL A   1      43.439  29.530  28.902  1.00  0.00    -0.354 N 
ATOM     31  N   UNL A   1      46.348  28.740  28.525  1.00  0.00    -0.248 NA
ATOM     32  C   UNL A   1      48.597  29.358  28.392  1.00  0.00     0.031 C 
ATOM     33  C   UNL A   1      43.022  31.672  29.272  1.00  0.00     0.029 A 
ATOM     34  C   UNL A   1      44.047  30.762  29.049  1.00  0.00     0.049 A 
ATOM     35  H   UNL A   1      43.911  28.686  28.718  1.00  0.00     0.167 HD
ATOM     36  C   UNL A   1      46.447  30.103  28.748  1.00  0.00     0.074 A 
ATOM     37  C   UNL A   1      47.862  30.423  28.681  1.00  0.00     0.031 C 
ATOM     38  C   UNL A   1      45.468  31.012  28.985  1.00  0.00     0.037 A 
BRANCH  25  39
ATOM     39  C   UNL A   1      39.665  28.774  29.103  1.00  0.00     0.064 A 
ATOM     40  C   UNL A   1      38.849  29.192  28.040  1.00  0.00     0.173 A 
ATOM     41  C   UNL A   1      39.071  28.640  30.367  1.00  0.00     0.173 A 
ATOM     42  F   UNL A   1      39.372  29.372  26.817  1.00  0.00    -0.203 F 
ATOM     43  C   UNL A   1      37.507  29.509  28.247  1.00  0.00     0.198 A 
ATOM     44  C   UNL A   1      37.722  28.926  30.564  1.00  0.00     0.198 A 
ATOM     45  F   UNL A   1      39.806  28.257  31.422  1.00  0.00    -0.203 F 
ATOM     46  F   UNL A   1      36.768  29.982  27.235  1.00  0.00    -0.200 F 
ATOM     47  C   UNL A   1      36.946  29.373  29.507  1.00  0.00     0.200 A 
ATOM     48  F   UNL A   1      37.182  28.793  31.783  1.00  0.00    -0.200 F 
ATOM     49  F   UNL A   1      35.659  29.692  29.708  1.00  0.00    -0.200 F 
ENDBRANCH  25  39
BRANCH  26  50
ATOM     50  C   UNL A   1      49.488  26.582  27.843  1.00  0.00     0.064 A 
ATOM     51  C   UNL A   1      50.027  26.454  26.556  1.00  0.00     0.173 A 
ATOM     52  C   UNL A   1      50.360  26.402  28.930  1.00  0.00     0.173 A 
ATOM     53  F   UNL A   1      49.237  26.598  25.481  1.00  0.00    -0.203 F 
ATOM     54  C   UNL A   1      51.375  26.149  26.366  1.00  0.00     0.198 A 
ATOM     55  C   UNL A   1      51.712  26.130  28.739  1.00  0.00     0.198 A 
ATOM     56  F   UNL A   1      49.900  26.512  30.186  1.00  0.00    -0.203 F 
ATOM     57  F   UNL A   1      51.854  25.993  25.124  1.00  0.00    -0.200 F 
ATOM     58  C   UNL A   1      52.218  25.995  27.456  1.00  0.00     0.200 A 
ATOM     59  F   UNL A   1      52.525  25.999  29.797  1.00  0.00    -0.200 F 
ATOM     60  F   UNL A   1      53.514  25.710  27.271  1.00  0.00    -0.200 F 
ENDBRANCH  26  50
BRANCH  38  61
ATOM     61  C   UNL A   1      45.910  32.420  29.239  1.00  0.00     0.064 A 
ATOM     62  C   UNL A   1      46.014  33.358  28.203  1.00  0.00     0.173 A 
ATOM     63  C   UNL A   1      46.172  32.843  30.550  1.00  0.00     0.173 A 
ATOM     64  F   UNL A   1      45.789  32.990  26.932  1.00  0.00    -0.203 F 
ATOM     65  C   UNL A   1      46.384  34.671  28.471  1.00  0.00     0.198 A 
ATOM     66  C   UNL A   1      46.509  34.164  30.816  1.00  0.00     0.198 A 
ATOM     67  F   UNL A   1      46.078  31.979  31.573  1.00  0.00    -0.203 F 
ATOM     68  F   UNL A   1      46.522  35.544  27.464  1.00  0.00    -0.200 F 
ATOM     69  C   UNL A   1      46.621  35.075  29.777  1.00  0.00     0.200 A 
ATOM     70  F   UNL A   1      46.719  34.557  32.080  1.00  0.00    -0.200 F 
ATOM     71  F   UNL A   1      46.962  36.345  30.034  1.00  0.00    -0.200 F 
ENDBRANCH  38  61
ENDBRANCH  12  13
ENDBRANCH   5   7
ENDBRANCH   4   5
ENDBRANCH   3   4
ENDBRANCH   2   3
ENDBRANCH   1   2
BRANCH   1  72
ATOM     72  C   UNL A   1      37.176  21.949  24.841  1.00  0.00     0.202 C 
BRANCH  72  73
ATOM     73  C   UNL A   1      36.704  22.728  26.065  1.00  0.00     0.261 C 
BRANCH  73  74
ATOM     74  O   UNL A   1      35.635  23.622  25.696  1.00  0.00    -0.463 OA
BRANCH  74  75
ATOM     75  C   UNL A   1      34.438  23.352  26.291  1.00  0.00     0.310 C 
ATOM     76  O   UNL A   1      34.308  22.905  27.423  1.00  0.00    -0.252 OA
BRANCH  75  77
ATOM     77  C   UNL A   1      33.292  23.707  25.361  1.00  0.00     0.115 C 
ATOM     78  C   UNL A   1      33.523  23.122  23.935  1.00  0.00     0.004 C 
ATOM     79  C   UNL A   1      31.934  23.090  25.755  1.00  0.00     0.096 C 
ATOM     80  C   UNL A   1      33.607  21.580  23.872  1.00  0.00     0.005 C 
ATOM     81  C   UNL A   1      32.131  23.307  23.349  1.00  0.00     0.009 C 
ATOM     82  C   UNL A   1      31.447  22.461  24.430  1.00  0.00     0.002 C 
ATOM     83  C   UNL A   1      32.188  21.124  24.236  1.00  0.00     0.005 C 
BRANCH  79  84
ATOM     84  C   UNL A   1      30.889  23.915  26.542  1.00  0.00     0.224 C 
ATOM     85  O   UNL A   1      30.215  23.331  27.405  1.00  0.00    -0.275 OA
ATOM     86  N   UNL A   1      30.588  25.227  26.400  1.00  0.00    -0.349 N 
ATOM     87  H   UNL A   1      30.085  25.609  27.155  1.00  0.00     0.164 HD
BRANCH  86  88
ATOM     88  C   UNL A   1      30.873  26.171  25.338  1.00  0.00     0.112 C 
ATOM     89  C   UNL A   1      29.607  26.361  24.492  1.00  0.00     0.030 C 
ATOM     90  C   UNL A   1      31.327  27.560  25.792  1.00  0.00    -0.022 A 
ATOM     91  C   UNL A   1      29.971  27.149  23.248  1.00  0.00     0.007 C 
ATOM     92  C   UNL A   1      31.108  28.674  24.938  1.00  0.00    -0.043 A 
ATOM     93  C   UNL A   1      32.009  27.776  27.002  1.00  0.00     0.006 A 
ATOM     94  C   UNL A   1      30.339  28.570  23.637  1.00  0.00     0.036 C 
ATOM     95  C   UNL A   1      31.544  29.952  25.315  1.00  0.00     0.004 A 
ATOM     96  C   UNL A   1      32.426  29.061  27.368  1.00  0.00     0.000 A 
ATOM     97  C   UNL A   1      32.196  30.146  26.526  1.00  0.00     0.000 A 
ENDBRANCH  86  88
ENDBRANCH  79  84
ENDBRANCH  75  77
ENDBRANCH  74  75
ENDBRANCH  73  74
ENDBRANCH  72  73
ENDBRANCH   1  72
TORSDOF 16
ENDMDL
MODEL 3
REMARK VINA RESULT:     -12.4      0.361      1.993
REMARK SMILES O=C(OCCOCCOC(=O)[C@H]1[C@H]2CC[C@H](C2)[C@@H]1C(=O)N[C@H]1CCCc2ccccc21)c1ccc(-c2c3nc(c(-c4c(F)c(F)c(F)c(F)c4F)c4ccc([nH]4)c(-c4c(F)c(F)c(F)c(F)c4F)c4nc(c(-c5c(F)c(F)c(F)c(F)c5F)c5ccc2[nH]5)C=C4)C=C3)cc1
REMARK SMILES IDX 6 1 5 2 4 3 3 4 2 5 1 6 32 7 33 8 94 9 34 10 93 11 35 12
REMARK SMILES IDX 36 13 37 14 87 15 38 16 92 17 86 18 88 19 39 20 91 21 85 22
REMARK SMILES IDX 84 23 40 25 72 26 52 27 71 28 53 29 56 30 70 31 89 32 54 33
REMARK SMILES IDX 55 34 69 36 90 37 57 38 41 39 42 40 50 41 43 42 44 43 48 44
REMARK SMILES IDX 51 45 45 46 46 47 49 48 47 49 73 50 74 51 82 52 75 53 76 54
REMARK SMILES IDX 80 55 83 56 77 57 78 58 81 59 79 60 58 61 59 62 67 63 60 64
REMARK SMILES IDX 61 65 65 66 68 67 62 68 63 69 66 70 64 71 7 72 8 73 9 74
REMARK SMILES IDX 10 75 11 76 12 77 13 78 18 79 14 80 17 81 16 82 15 83 19 84
REMARK SMILES IDX 20 85 21 86 22 88 23 89 31 90 24 91 26 92 30 93 25 94 27 95
REMARK SMILES IDX 29 96 28 97
REMARK H PARENT 88 24 56 35 21 87
REMARK Flexibility Score: inf
ROOT
ATOM      1  O   UNL A   1      32.220  30.436  27.103  1.00  0.00    -0.374 OA
ENDROOT
BRANCH   1   2
ATOM      2  C   UNL A   1      31.663  31.738  26.921  1.00  0.00     0.202 C 
BRANCH   2   3
ATOM      3  C   UNL A   1      32.681  32.878  26.940  1.00  0.00     0.261 C 
BRANCH   3   4
ATOM      4  O   UNL A   1      32.222  33.945  27.776  1.00  0.00    -0.460 OA
BRANCH   4   5
ATOM      5  C   UNL A   1      32.985  34.616  28.672  1.00  0.00     0.338 C 
ATOM      6  O   UNL A   1      32.655  35.750  29.014  1.00  0.00    -0.246 OA
BRANCH   5   7
ATOM      7  C   UNL A   1      34.165  33.998  29.341  1.00  0.00     0.060 A 
ATOM      8  C   UNL A   1      34.107  32.972  30.287  1.00  0.00     0.016 A 
ATOM      9  C   UNL A   1      35.427  34.435  28.915  1.00  0.00     0.016 A 
ATOM     10  C   UNL A   1      35.241  32.406  30.822  1.00  0.00     0.010 A 
ATOM     11  C   UNL A   1      36.586  33.852  29.428  1.00  0.00     0.010 A 
ATOM     12  C   UNL A   1      36.481  32.835  30.383  1.00  0.00    -0.014 A 
BRANCH  12  13
ATOM     13  C   UNL A   1      37.647  32.270  31.061  1.00  0.00     0.031 A 
ATOM     14  C   UNL A   1      38.460  31.272  30.312  1.00  0.00     0.074 A 
ATOM     15  C   UNL A   1      38.021  32.774  32.248  1.00  0.00     0.049 A 
ATOM     16  N   UNL A   1      39.442  30.527  30.727  1.00  0.00    -0.248 NA
ATOM     17  C   UNL A   1      38.119  31.094  28.889  1.00  0.00     0.031 C 
ATOM     18  C   UNL A   1      37.362  33.889  32.937  1.00  0.00     0.029 A 
ATOM     19  N   UNL A   1      39.058  32.439  33.070  1.00  0.00    -0.354 N 
ATOM     20  C   UNL A   1      39.798  29.748  29.637  1.00  0.00     0.074 A 
ATOM     21  C   UNL A   1      38.943  30.121  28.535  1.00  0.00     0.031 C 
ATOM     22  C   UNL A   1      38.018  34.147  34.078  1.00  0.00     0.029 A 
ATOM     23  C   UNL A   1      39.074  33.157  34.239  1.00  0.00     0.049 A 
ATOM     24  H   UNL A   1      39.725  31.751  32.847  1.00  0.00     0.167 HD
ATOM     25  C   UNL A   1      40.749  28.790  29.595  1.00  0.00     0.037 A 
ATOM     26  C   UNL A   1      39.828  32.973  35.335  1.00  0.00     0.037 A 
ATOM     27  C   UNL A   1      41.570  28.475  30.733  1.00  0.00     0.049 A 
ATOM     28  C   UNL A   1      40.812  31.834  35.303  1.00  0.00     0.074 A 
ATOM     29  C   UNL A   1      42.520  27.485  30.875  1.00  0.00     0.029 A 
ATOM     30  N   UNL A   1      41.526  29.173  31.938  1.00  0.00    -0.354 N 
ATOM     31  N   UNL A   1      41.081  31.005  34.319  1.00  0.00    -0.248 NA
ATOM     32  C   UNL A   1      41.575  31.585  36.528  1.00  0.00     0.031 C 
ATOM     33  C   UNL A   1      43.014  27.553  32.183  1.00  0.00     0.029 A 
ATOM     34  C   UNL A   1      42.421  28.625  32.836  1.00  0.00     0.049 A 
ATOM     35  H   UNL A   1      40.942  29.943  32.121  1.00  0.00     0.167 HD
ATOM     36  C   UNL A   1      42.059  30.148  34.795  1.00  0.00     0.074 A 
ATOM     37  C   UNL A   1      42.343  30.571  36.155  1.00  0.00     0.031 C 
ATOM     38  C   UNL A   1      42.668  29.105  34.176  1.00  0.00     0.037 A 
BRANCH  25  39
ATOM     39  C   UNL A   1      40.842  27.980  28.337  1.00  0.00     0.064 A 
ATOM     40  C   UNL A   1      40.179  26.752  28.182  1.00  0.00     0.173 A 
ATOM     41  C   UNL A   1      41.680  28.404  27.294  1.00  0.00     0.173 A 
ATOM     42  F   UNL A   1      39.395  26.280  29.163  1.00  0.00    -0.203 F 
ATOM     43  C   UNL A   1      40.386  25.962  27.052  1.00  0.00     0.198 A 
ATOM     44  C   UNL A   1      41.859  27.628  26.152  1.00  0.00     0.198 A 
ATOM     45  F   UNL A   1      42.348  29.563  27.394  1.00  0.00    -0.203 F 
ATOM     46  F   UNL A   1      39.805  24.758  26.962  1.00  0.00    -0.200 F 
ATOM     47  C   UNL A   1      41.223  26.402  26.038  1.00  0.00     0.200 A 
ATOM     48  F   UNL A   1      42.668  28.057  25.173  1.00  0.00    -0.200 F 
ATOM     49  F   UNL A   1      41.433  25.635  24.959  1.00  0.00    -0.200 F 
ENDBRANCH  25  39
BRANCH  26  50
ATOM     50  C   UNL A   1      39.626  33.823  36.539  1.00  0.00     0.064 A 
ATOM     51  C   UNL A   1      40.235  35.079  36.652  1.00  0.00     0.173 A 
ATOM     52  C   UNL A   1      38.804  33.404  37.598  1.00  0.00     0.173 A 
ATOM     53  F   UNL A   1      41.044  35.523  35.679  1.00  0.00    -0.203 F 
ATOM     54  C   UNL A   1      40.039  35.876  37.781  1.00  0.00     0.198 A 
ATOM     55  C   UNL A   1      38.583  34.213  38.710  1.00  0.00     0.198 A 
ATOM     56  F   UNL A   1      38.195  32.210  37.545  1.00  0.00    -0.203 F 
ATOM     57  F   UNL A   1      40.666  37.056  37.881  1.00  0.00    -0.200 F 
ATOM     58  C   UNL A   1      39.208  35.447  38.804  1.00  0.00     0.200 A 
ATOM     59  F   UNL A   1      37.765  33.800  39.688  1.00  0.00    -0.200 F 
ATOM     60  F   UNL A   1      39.015  36.216  39.884  1.00  0.00    -0.200 F 
ENDBRANCH  26  50
BRANCH  38  61
ATOM     61  C   UNL A   1      43.734  28.396  34.953  1.00  0.00     0.064 A 
ATOM     62  C   UNL A   1      43.445  27.284  35.755  1.00  0.00     0.173 A 
ATOM     63  C   UNL A   1      45.070  28.805  34.839  1.00  0.00     0.173 A 
ATOM     64  F   UNL A   1      42.177  26.870  35.906  1.00  0.00    -0.203 F 
ATOM     65  C   UNL A   1      44.458  26.616  36.432  1.00  0.00     0.198 A 
ATOM     66  C   UNL A   1      46.083  28.114  35.490  1.00  0.00     0.198 A 
ATOM     67  F   UNL A   1      45.392  29.861  34.077  1.00  0.00    -0.203 F 
ATOM     68  F   UNL A   1      44.159  25.581  37.230  1.00  0.00    -0.200 F 
ATOM     69  C   UNL A   1      45.777  27.025  36.291  1.00  0.00     0.200 A 
ATOM     70  F   UNL A   1      47.358  28.499  35.339  1.00  0.00    -0.200 F 
ATOM     71  F   UNL A   1      46.754  26.369  36.932  1.00  0.00    -0.200 F 
ENDBRANCH  38  61
ENDBRANCH  12  13
ENDBRANCH   5   7
ENDBRANCH   4   5
ENDBRANCH   3   4
ENDBRANCH   2   3
ENDBRANCH   1   2
BRANCH   1  72
ATOM     72  C   UNL A   1      33.622  30.326  26.891  1.00  0.00     0.202 C 
BRANCH  72  73
ATOM     73  C   UNL A   1      34.044  28.861  26.961  1.00  0.00     0.261 C 
BRANCH  73  74
ATOM     74  O   UNL A   1      33.098  28.042  26.245  1.00  0.00    -0.463 OA
BRANCH  74  75
ATOM     75  C   UNL A   1      33.357  27.908  24.912  1.00  0.00     0.310 C 
ATOM     76  O   UNL A   1      34.323  28.396  24.339  1.00  0.00    -0.252 OA
BRANCH  75  77
ATOM     77  C   UNL A   1      32.297  27.049  24.250  1.00  0.00     0.115 C 
ATOM     78  C   UNL A   1      30.867  27.598  24.539  1.00  0.00     0.004 C 
ATOM     79  C   UNL A   1      32.344  27.049  22.708  1.00  0.00     0.096 C 
ATOM     80  C   UNL A   1      30.599  29.024  24.005  1.00  0.00     0.005 C 
ATOM     81  C   UNL A   1      30.071  26.807  23.512  1.00  0.00     0.009 C 
ATOM     82  C   UNL A   1      30.876  27.339  22.321  1.00  0.00     0.002 C 
ATOM     83  C   UNL A   1      30.630  28.851  22.481  1.00  0.00     0.005 C 
BRANCH  79  84
ATOM     84  C   UNL A   1      33.039  25.902  21.938  1.00  0.00     0.224 C 
ATOM     85  O   UNL A   1      33.242  26.055  20.723  1.00  0.00    -0.275 OA
ATOM     86  N   UNL A   1      33.453  24.708  22.422  1.00  0.00    -0.349 N 
ATOM     87  H   UNL A   1      34.086  24.234  21.837  1.00  0.00     0.164 HD
BRANCH  86  88
ATOM     88  C   UNL A   1      33.132  24.002  23.647  1.00  0.00     0.112 C 
ATOM     89  C   UNL A   1      31.776  23.305  23.476  1.00  0.00     0.030 C 
ATOM     90  C   UNL A   1      34.140  22.933  24.076  1.00  0.00    -0.022 A 
ATOM     91  C   UNL A   1      31.330  22.778  24.827  1.00  0.00     0.007 C 
ATOM     92  C   UNL A   1      33.698  21.852  24.886  1.00  0.00    -0.043 A 
ATOM     93  C   UNL A   1      35.504  23.003  23.749  1.00  0.00     0.006 A 
ATOM     94  C   UNL A   1      32.244  21.645  25.256  1.00  0.00     0.036 C 
ATOM     95  C   UNL A   1      34.607  20.876  25.321  1.00  0.00     0.004 A 
ATOM     96  C   UNL A   1      36.395  22.014  24.182  1.00  0.00     0.000 A 
ATOM     97  C   UNL A   1      35.948  20.954  24.968  1.00  0.00     0.000 A 
ENDBRANCH  86  88
ENDBRANCH  79  84
ENDBRANCH  75  77
ENDBRANCH  74  75
ENDBRANCH  73  74
ENDBRANCH  72  73
ENDBRANCH   1  72
TORSDOF 16
ENDMDL
