MODEL 1
REMARK VINA RESULT:     -10.3      0.000      0.000
REMARK SMILES CCN(CC(C)(C)O)C(=O)N[C@@H](C(=O)OCCOCCOC(=O)c1ccc(-c2c3nc(c(-c4c(F)c(F)c(F)c(F)c4F)c4ccc([nH]4)c(-c4c(F)c(F)c(F)c(F)c4F)c4nc(c(-c5c(F)c(F)c(F)c(F)c5F)c5ccc2[nH]5)C=C4)C=C3)cc1)C(C)(C)C
REMARK SMILES IDX 16 1 15 2 13 3 14 4 12 5 11 6 9 7 10 8 3 10 2 11 1 12 4 13
REMARK SMILES IDX 5 14 6 15 7 16 8 17 87 19 88 20 89 21 90 22 17 23 18 24
REMARK SMILES IDX 19 25 20 26 21 27 22 28 23 29 24 30 25 31 86 32 26 33 85 34
REMARK SMILES IDX 27 35 28 36 29 37 79 38 30 39 84 40 78 41 80 42 31 43 83 44
REMARK SMILES IDX 77 45 76 46 32 48 64 49 44 50 63 51 45 52 48 53 62 54 81 55
REMARK SMILES IDX 46 56 47 57 61 59 82 60 49 61 33 62 34 63 42 64 35 65 36 66
REMARK SMILES IDX 40 67 43 68 37 69 38 70 41 71 39 72 65 73 66 74 74 75 67 76
REMARK SMILES IDX 68 77 72 78 75 79 69 80 70 81 73 82 71 83 50 84 51 85 59 86
REMARK SMILES IDX 52 87 53 88 57 89 60 90 54 91 55 92 58 93 56 94
REMARK H PARENT 11 9 8 18 80 47 48 58
REMARK Flexibility Score: inf
ROOT
ATOM      1  C   UNL A   1      36.210  22.584  23.384  1.00  0.00     0.261 C 
ENDROOT
BRANCH   1   2
ATOM      2  O   UNL A   1      35.406  23.746  23.128  1.00  0.00    -0.462 OA
BRANCH   2   3
ATOM      3  C   UNL A   1      34.064  23.512  23.009  1.00  0.00     0.329 C 
ATOM      4  O   UNL A   1      33.542  23.018  22.016  1.00  0.00    -0.250 OA
BRANCH   3   5
ATOM      5  C   UNL A   1      33.250  24.039  24.218  1.00  0.00     0.199 C 
BRANCH   5   6
ATOM      6  N   UNL A   1      32.270  23.057  24.717  1.00  0.00    -0.324 N 
ATOM      7  C   UNL A   1      32.249  21.915  25.423  1.00  0.00     0.318 C 
ATOM      8  O   UNL A   1      31.111  21.556  25.751  1.00  0.00    -0.249 OA
ATOM      9  H   UNL A   1      31.358  23.315  24.454  1.00  0.00     0.166 HD
BRANCH   7  10
ATOM     10  N   UNL A   1      33.353  21.181  25.759  1.00  0.00    -0.322 N 
BRANCH  10  11
ATOM     11  C   UNL A   1      33.853  21.343  27.134  1.00  0.00     0.118 C 
ATOM     12  C   UNL A   1      34.346  22.761  27.391  1.00  0.00     0.027 C 
ENDBRANCH  10  11
BRANCH  10  13
ATOM     13  C   UNL A   1      34.058  20.150  24.989  1.00  0.00     0.155 C 
BRANCH  13  14
ATOM     14  C   UNL A   1      33.200  18.894  24.643  1.00  0.00     0.077 C 
ATOM     15  C   UNL A   1      32.430  18.977  23.324  1.00  0.00     0.043 C 
ATOM     16  C   UNL A   1      34.098  17.652  24.626  1.00  0.00     0.043 C 
BRANCH  14  17
ATOM     17  O   UNL A   1      32.234  18.712  25.689  1.00  0.00    -0.389 OA
ATOM     18  H   UNL A   1      32.325  19.424  26.341  1.00  0.00     0.211 HD
ENDBRANCH  14  17
ENDBRANCH  13  14
ENDBRANCH  10  13
ENDBRANCH   7  10
ENDBRANCH   5   6
BRANCH   5  19
ATOM     19  C   UNL A   1      32.585  25.440  23.977  1.00  0.00    -0.007 C 
ATOM     20  C   UNL A   1      31.678  25.813  25.172  1.00  0.00     0.013 C 
ATOM     21  C   UNL A   1      33.657  26.547  23.867  1.00  0.00     0.013 C 
ATOM     22  C   UNL A   1      31.730  25.465  22.697  1.00  0.00     0.013 C 
ENDBRANCH   5  19
ENDBRANCH   3   5
ENDBRANCH   2   3
ENDBRANCH   1   2
BRANCH   1  23
ATOM     23  C   UNL A   1      37.013  22.637  24.687  1.00  0.00     0.202 C 
BRANCH  23  24
ATOM     24  O   UNL A   1      37.807  21.514  25.044  1.00  0.00    -0.374 OA
BRANCH  24  25
ATOM     25  C   UNL A   1      39.005  21.740  25.780  1.00  0.00     0.202 C 
BRANCH  25  26
ATOM     26  C   UNL A   1      39.671  20.561  26.505  1.00  0.00     0.261 C 
BRANCH  26  27
ATOM     27  O   UNL A   1      40.315  19.610  25.641  1.00  0.00    -0.460 OA
BRANCH  27  28
ATOM     28  C   UNL A   1      41.573  19.279  26.022  1.00  0.00     0.338 C 
ATOM     29  O   UNL A   1      42.069  18.162  26.052  1.00  0.00    -0.246 OA
BRANCH  28  30
ATOM     30  C   UNL A   1      42.384  20.477  26.295  1.00  0.00     0.060 A 
ATOM     31  C   UNL A   1      42.467  20.918  27.622  1.00  0.00     0.016 A 
ATOM     32  C   UNL A   1      42.881  21.260  25.252  1.00  0.00     0.016 A 
ATOM     33  C   UNL A   1      42.991  22.177  27.906  1.00  0.00     0.010 A 
ATOM     34  C   UNL A   1      43.395  22.531  25.539  1.00  0.00     0.010 A 
ATOM     35  C   UNL A   1      43.407  23.011  26.860  1.00  0.00    -0.014 A 
BRANCH  35  36
ATOM     36  C   UNL A   1      43.679  24.441  27.146  1.00  0.00     0.031 A 
ATOM     37  C   UNL A   1      45.057  24.988  26.887  1.00  0.00     0.074 A 
ATOM     38  C   UNL A   1      42.702  25.256  27.579  1.00  0.00     0.049 A 
ATOM     39  N   UNL A   1      45.515  26.203  27.053  1.00  0.00    -0.248 NA
ATOM     40  C   UNL A   1      46.052  24.038  26.366  1.00  0.00     0.031 C 
ATOM     41  C   UNL A   1      41.319  24.854  27.826  1.00  0.00     0.029 A 
ATOM     42  N   UNL A   1      42.727  26.592  27.886  1.00  0.00    -0.354 N 
ATOM     43  C   UNL A   1      46.845  26.163  26.658  1.00  0.00     0.074 A 
ATOM     44  C   UNL A   1      47.132  24.799  26.270  1.00  0.00     0.031 C 
ATOM     45  C   UNL A   1      40.627  25.923  28.257  1.00  0.00     0.029 A 
ATOM     46  C   UNL A   1      41.525  27.075  28.337  1.00  0.00     0.049 A 
ATOM     47  H   UNL A   1      43.531  27.152  27.792  1.00  0.00     0.167 HD
ATOM     48  C   UNL A   1      47.747  27.174  26.616  1.00  0.00     0.037 A 
ATOM     49  C   UNL A   1      41.194  28.304  28.779  1.00  0.00     0.037 A 
ATOM     50  C   UNL A   1      47.465  28.530  27.003  1.00  0.00     0.049 A 
ATOM     51  C   UNL A   1      42.231  29.396  28.783  1.00  0.00     0.074 A 
ATOM     52  C   UNL A   1      48.307  29.628  26.981  1.00  0.00     0.029 A 
ATOM     53  N   UNL A   1      46.244  28.972  27.489  1.00  0.00    -0.354 N 
ATOM     54  N   UNL A   1      43.478  29.354  28.384  1.00  0.00    -0.248 NA
ATOM     55  C   UNL A   1      41.810  30.708  29.296  1.00  0.00     0.031 C 
ATOM     56  C   UNL A   1      47.608  30.727  27.495  1.00  0.00     0.029 A 
ATOM     57  C   UNL A   1      46.317  30.321  27.795  1.00  0.00     0.049 A 
ATOM     58  H   UNL A   1      45.443  28.411  27.602  1.00  0.00     0.167 HD
ATOM     59  C   UNL A   1      43.984  30.634  28.575  1.00  0.00     0.074 A 
ATOM     60  C   UNL A   1      42.904  31.433  29.113  1.00  0.00     0.031 C 
ATOM     61  C   UNL A   1      45.231  31.104  28.325  1.00  0.00     0.037 A 
BRANCH  48  62
ATOM     62  C   UNL A   1      49.133  26.843  26.151  1.00  0.00     0.064 A 
ATOM     63  C   UNL A   1      49.518  27.005  24.811  1.00  0.00     0.173 A 
ATOM     64  C   UNL A   1      50.099  26.392  27.062  1.00  0.00     0.173 A 
ATOM     65  F   UNL A   1      48.627  27.421  23.899  1.00  0.00    -0.203 F 
ATOM     66  C   UNL A   1      50.813  26.705  24.397  1.00  0.00     0.198 A 
ATOM     67  C   UNL A   1      51.400  26.115  26.650  1.00  0.00     0.198 A 
ATOM     68  F   UNL A   1      49.783  26.226  28.355  1.00  0.00    -0.203 F 
ATOM     69  F   UNL A   1      51.148  26.830  23.106  1.00  0.00    -0.200 F 
ATOM     70  C   UNL A   1      51.754  26.266  25.317  1.00  0.00     0.200 A 
ATOM     71  F   UNL A   1      52.310  25.701  27.541  1.00  0.00    -0.200 F 
ATOM     72  F   UNL A   1      53.002  25.983  24.919  1.00  0.00    -0.200 F 
ENDBRANCH  48  62
BRANCH  49  73
ATOM     73  C   UNL A   1      39.814  28.567  29.263  1.00  0.00     0.064 A 
ATOM     74  C   UNL A   1      38.830  29.076  28.405  1.00  0.00     0.173 A 
ATOM     75  C   UNL A   1      39.457  28.328  30.598  1.00  0.00     0.173 A 
ATOM     76  F   UNL A   1      39.131  29.344  27.125  1.00  0.00    -0.203 F 
ATOM     77  C   UNL A   1      37.544  29.347  28.867  1.00  0.00     0.198 A 
ATOM     78  C   UNL A   1      38.165  28.575  31.054  1.00  0.00     0.198 A 
ATOM     79  F   UNL A   1      40.364  27.843  31.459  1.00  0.00    -0.203 F 
ATOM     80  F   UNL A   1      36.631  29.869  28.036  1.00  0.00    -0.200 F 
ATOM     81  C   UNL A   1      37.211  29.091  30.189  1.00  0.00     0.200 A 
ATOM     82  F   UNL A   1      37.845  28.316  32.329  1.00  0.00    -0.200 F 
ATOM     83  F   UNL A   1      35.973  29.348  30.632  1.00  0.00    -0.200 F 
ENDBRANCH  49  73
BRANCH  61  84
ATOM     84  C   UNL A   1      45.488  32.556  28.604  1.00  0.00     0.064 A 
ATOM     85  C   UNL A   1      46.005  32.986  29.834  1.00  0.00     0.173 A 
ATOM     86  C   UNL A   1      45.252  33.522  27.613  1.00  0.00     0.173 A 
ATOM     87  F   UNL A   1      46.232  32.102  30.817  1.00  0.00    -0.203 F 
ATOM     88  C   UNL A   1      46.257  34.336  30.070  1.00  0.00     0.198 A 
ATOM     89  C   UNL A   1      45.529  34.865  27.845  1.00  0.00     0.198 A 
ATOM     90  F   UNL A   1      44.763  33.159  26.418  1.00  0.00    -0.203 F 
ATOM     91  F   UNL A   1      46.712  34.731  31.267  1.00  0.00    -0.200 F 
ATOM     92  C   UNL A   1      46.025  35.273  29.074  1.00  0.00     0.200 A 
ATOM     93  F   UNL A   1      45.315  35.769  26.878  1.00  0.00    -0.200 F 
ATOM     94  F   UNL A   1      46.273  36.569  29.301  1.00  0.00    -0.200 F 
ENDBRANCH  61  84
ENDBRANCH  35  36
ENDBRANCH  28  30
ENDBRANCH  27  28
ENDBRANCH  26  27
ENDBRANCH  25  26
ENDBRANCH  24  25
ENDBRANCH  23  24
ENDBRANCH   1  23
TORSDOF 21
ENDMDL
MODEL 2
REMARK VINA RESULT:     -10.1      5.069     10.382
REMARK SMILES CCN(CC(C)(C)O)C(=O)N[C@@H](C(=O)OCCOCCOC(=O)c1ccc(-c2c3nc(c(-c4c(F)c(F)c(F)c(F)c4F)c4ccc([nH]4)c(-c4c(F)c(F)c(F)c(F)c4F)c4nc(c(-c5c(F)c(F)c(F)c(F)c5F)c5ccc2[nH]5)C=C4)C=C3)cc1)C(C)(C)C
REMARK SMILES IDX 16 1 15 2 13 3 14 4 12 5 11 6 9 7 10 8 3 10 2 11 1 12 4 13
REMARK SMILES IDX 5 14 6 15 7 16 8 17 87 19 88 20 89 21 90 22 17 23 18 24
REMARK SMILES IDX 19 25 20 26 21 27 22 28 23 29 24 30 25 31 86 32 26 33 85 34
REMARK SMILES IDX 27 35 28 36 29 37 79 38 30 39 84 40 78 41 80 42 31 43 83 44
REMARK SMILES IDX 77 45 76 46 32 48 64 49 44 50 63 51 45 52 48 53 62 54 81 55
REMARK SMILES IDX 46 56 47 57 61 59 82 60 49 61 33 62 34 63 42 64 35 65 36 66
REMARK SMILES IDX 40 67 43 68 37 69 38 70 41 71 39 72 65 73 66 74 74 75 67 76
REMARK SMILES IDX 68 77 72 78 75 79 69 80 70 81 73 82 71 83 50 84 51 85 59 86
REMARK SMILES IDX 52 87 53 88 57 89 60 90 54 91 55 92 58 93 56 94
REMARK H PARENT 11 9 8 18 80 47 48 58
REMARK Flexibility Score: inf
ROOT
ATOM      1  C   UNL A   1      32.603  28.723  26.994  1.00  0.00     0.261 C 
ENDROOT
BRANCH   1   2
ATOM      2  O   UNL A   1      33.233  27.469  26.684  1.00  0.00    -0.462 OA
BRANCH   2   3
ATOM      3  C   UNL A   1      33.390  27.209  25.351  1.00  0.00     0.329 C 
ATOM      4  O   UNL A   1      33.935  27.976  24.565  1.00  0.00    -0.250 OA
BRANCH   3   5
ATOM      5  C   UNL A   1      32.711  25.887  24.910  1.00  0.00     0.199 C 
BRANCH   5   6
ATOM      6  N   UNL A   1      33.462  25.186  23.853  1.00  0.00    -0.324 N 
ATOM      7  C   UNL A   1      34.144  24.043  23.682  1.00  0.00     0.318 C 
ATOM      8  O   UNL A   1      34.445  23.815  22.504  1.00  0.00    -0.249 OA
ATOM      9  H   UNL A   1      33.464  25.715  23.023  1.00  0.00     0.166 HD
BRANCH   7  10
ATOM     10  N   UNL A   1      34.504  23.187  24.687  1.00  0.00    -0.322 N 
BRANCH  10  11
ATOM     11  C   UNL A   1      33.859  21.865  24.684  1.00  0.00     0.118 C 
ATOM     12  C   UNL A   1      32.589  21.855  25.525  1.00  0.00     0.027 C 
ENDBRANCH  10  11
BRANCH  10  13
ATOM     13  C   UNL A   1      35.539  23.341  25.717  1.00  0.00     0.155 C 
BRANCH  13  14
ATOM     14  C   UNL A   1      36.985  22.997  25.245  1.00  0.00     0.077 C 
ATOM     15  C   UNL A   1      38.104  23.694  26.018  1.00  0.00     0.043 C 
ATOM     16  C   UNL A   1      37.195  21.480  25.310  1.00  0.00     0.043 C 
BRANCH  14  17
ATOM     17  O   UNL A   1      37.109  23.389  23.869  1.00  0.00    -0.389 OA
ATOM     18  H   UNL A   1      36.667  22.736  23.305  1.00  0.00     0.211 HD
ENDBRANCH  14  17
ENDBRANCH  13  14
ENDBRANCH  10  13
ENDBRANCH   7  10
ENDBRANCH   5   6
BRANCH   5  19
ATOM     19  C   UNL A   1      31.197  26.046  24.529  1.00  0.00    -0.007 C 
ATOM     20  C   UNL A   1      30.961  27.410  23.840  1.00  0.00     0.013 C 
ATOM     21  C   UNL A   1      30.765  24.957  23.522  1.00  0.00     0.013 C 
ATOM     22  C   UNL A   1      30.276  25.962  25.759  1.00  0.00     0.013 C 
ENDBRANCH   5  19
ENDBRANCH   3   5
ENDBRANCH   2   3
ENDBRANCH   1   2
BRANCH   1  23
ATOM     23  C   UNL A   1      32.773  29.804  25.923  1.00  0.00     0.202 C 
BRANCH  23  24
ATOM     24  O   UNL A   1      31.625  30.523  25.493  1.00  0.00    -0.374 OA
BRANCH  24  25
ATOM     25  C   UNL A   1      31.090  31.521  26.355  1.00  0.00     0.202 C 
BRANCH  25  26
ATOM     26  C   UNL A   1      31.934  32.763  26.676  1.00  0.00     0.261 C 
BRANCH  26  27
ATOM     27  O   UNL A   1      32.638  32.704  27.928  1.00  0.00    -0.460 OA
BRANCH  27  28
ATOM     28  C   UNL A   1      33.720  33.517  27.994  1.00  0.00     0.338 C 
ATOM     29  O   UNL A   1      33.728  34.740  28.010  1.00  0.00    -0.246 OA
BRANCH  28  30
ATOM     30  C   UNL A   1      34.960  32.748  28.184  1.00  0.00     0.060 A 
ATOM     31  C   UNL A   1      34.841  31.406  28.568  1.00  0.00     0.016 A 
ATOM     32  C   UNL A   1      36.205  33.379  28.183  1.00  0.00     0.016 A 
ATOM     33  C   UNL A   1      35.960  30.707  29.016  1.00  0.00     0.010 A 
ATOM     34  C   UNL A   1      37.326  32.679  28.645  1.00  0.00     0.010 A 
ATOM     35  C   UNL A   1      37.197  31.358  29.108  1.00  0.00    -0.014 A 
BRANCH  35  36
ATOM     36  C   UNL A   1      38.299  30.705  29.856  1.00  0.00     0.031 A 
ATOM     37  C   UNL A   1      38.513  31.065  31.301  1.00  0.00     0.074 A 
ATOM     38  C   UNL A   1      39.067  29.767  29.275  1.00  0.00     0.049 A 
ATOM     39  N   UNL A   1      39.403  30.614  32.149  1.00  0.00    -0.248 NA
ATOM     40  C   UNL A   1      37.595  32.064  31.871  1.00  0.00     0.031 C 
ATOM     41  C   UNL A   1      38.930  29.303  27.897  1.00  0.00     0.029 A 
ATOM     42  N   UNL A   1      40.113  29.036  29.777  1.00  0.00    -0.354 N 
ATOM     43  C   UNL A   1      39.153  31.272  33.346  1.00  0.00     0.074 A 
ATOM     44  C   UNL A   1      38.046  32.174  33.112  1.00  0.00     0.031 C 
ATOM     45  C   UNL A   1      39.867  28.369  27.658  1.00  0.00     0.029 A 
ATOM     46  C   UNL A   1      40.681  28.189  28.861  1.00  0.00     0.049 A 
ATOM     47  H   UNL A   1      40.427  29.113  30.707  1.00  0.00     0.167 HD
ATOM     48  C   UNL A   1      39.785  31.132  34.536  1.00  0.00     0.037 A 
ATOM     49  C   UNL A   1      41.747  27.373  28.976  1.00  0.00     0.037 A 
ATOM     50  C   UNL A   1      40.886  30.237  34.772  1.00  0.00     0.049 A 
ATOM     51  C   UNL A   1      42.473  27.283  30.293  1.00  0.00     0.074 A 
ATOM     52  C   UNL A   1      41.583  30.014  35.947  1.00  0.00     0.029 A 
ATOM     53  N   UNL A   1      41.457  29.422  33.807  1.00  0.00    -0.354 N 
ATOM     54  N   UNL A   1      42.214  27.890  31.424  1.00  0.00    -0.248 NA
ATOM     55  C   UNL A   1      43.639  26.389  30.346  1.00  0.00     0.031 C 
ATOM     56  C   UNL A   1      42.603  29.093  35.682  1.00  0.00     0.029 A 
ATOM     57  C   UNL A   1      42.513  28.711  34.353  1.00  0.00     0.049 A 
ATOM     58  H   UNL A   1      41.157  29.357  32.872  1.00  0.00     0.167 HD
ATOM     59  C   UNL A   1      43.166  27.436  32.329  1.00  0.00     0.074 A 
ATOM     60  C   UNL A   1      44.001  26.492  31.617  1.00  0.00     0.031 C 
ATOM     61  C   UNL A   1      43.332  27.770  33.632  1.00  0.00     0.037 A 
BRANCH  48  62
ATOM     62  C   UNL A   1      39.309  31.985  35.674  1.00  0.00     0.064 A 
ATOM     63  C   UNL A   1      38.350  31.524  36.588  1.00  0.00     0.173 A 
ATOM     64  C   UNL A   1      39.845  33.266  35.873  1.00  0.00     0.173 A 
ATOM     65  F   UNL A   1      37.799  30.310  36.433  1.00  0.00    -0.203 F 
ATOM     66  C   UNL A   1      37.927  32.323  37.647  1.00  0.00     0.198 A 
ATOM     67  C   UNL A   1      39.437  34.054  36.947  1.00  0.00     0.198 A 
ATOM     68  F   UNL A   1      40.768  33.751  35.031  1.00  0.00    -0.203 F 
ATOM     69  F   UNL A   1      36.982  31.878  38.485  1.00  0.00    -0.200 F 
ATOM     70  C   UNL A   1      38.475  33.585  37.828  1.00  0.00     0.200 A 
ATOM     71  F   UNL A   1      39.974  35.268  37.126  1.00  0.00    -0.200 F 
ATOM     72  F   UNL A   1      38.072  34.351  38.852  1.00  0.00    -0.200 F 
ENDBRANCH  48  62
BRANCH  49  73
ATOM     73  C   UNL A   1      42.198  26.577  27.805  1.00  0.00     0.064 A 
ATOM     74  C   UNL A   1      43.193  27.058  26.943  1.00  0.00     0.173 A 
ATOM     75  C   UNL A   1      41.632  25.327  27.518  1.00  0.00     0.173 A 
ATOM     76  F   UNL A   1      43.746  28.260  27.163  1.00  0.00    -0.203 F 
ATOM     77  C   UNL A   1      43.595  26.323  25.831  1.00  0.00     0.198 A 
ATOM     78  C   UNL A   1      42.053  24.581  26.421  1.00  0.00     0.198 A 
ATOM     79  F   UNL A   1      40.675  24.825  28.312  1.00  0.00    -0.203 F 
ATOM     80  F   UNL A   1      44.522  26.821  24.999  1.00  0.00    -0.200 F 
ATOM     81  C   UNL A   1      43.030  25.083  25.573  1.00  0.00     0.200 A 
ATOM     82  F   UNL A   1      41.512  23.379  26.182  1.00  0.00    -0.200 F 
ATOM     83  F   UNL A   1      43.421  24.374  24.506  1.00  0.00    -0.200 F 
ENDBRANCH  49  73
BRANCH  61  84
ATOM     84  C   UNL A   1      44.440  27.092  34.381  1.00  0.00     0.064 A 
ATOM     85  C   UNL A   1      45.713  27.668  34.488  1.00  0.00     0.173 A 
ATOM     86  C   UNL A   1      44.211  25.870  35.035  1.00  0.00     0.173 A 
ATOM     87  F   UNL A   1      45.985  28.826  33.868  1.00  0.00    -0.203 F 
ATOM     88  C   UNL A   1      46.726  27.034  35.205  1.00  0.00     0.198 A 
ATOM     89  C   UNL A   1      45.219  25.254  35.770  1.00  0.00     0.198 A 
ATOM     90  F   UNL A   1      43.008  25.282  34.967  1.00  0.00    -0.203 F 
ATOM     91  F   UNL A   1      47.949  27.581  35.259  1.00  0.00    -0.200 F 
ATOM     92  C   UNL A   1      46.477  25.832  35.850  1.00  0.00     0.200 A 
ATOM     93  F   UNL A   1      44.973  24.098  36.403  1.00  0.00    -0.200 F 
ATOM     94  F   UNL A   1      47.451  25.227  36.543  1.00  0.00    -0.200 F 
ENDBRANCH  61  84
ENDBRANCH  35  36
ENDBRANCH  28  30
ENDBRANCH  27  28
ENDBRANCH  26  27
ENDBRANCH  25  26
ENDBRANCH  24  25
ENDBRANCH  23  24
ENDBRANCH   1  23
TORSDOF 21
ENDMDL
MODEL 3
REMARK VINA RESULT:     -10.1      0.503      7.362
REMARK SMILES CCN(CC(C)(C)O)C(=O)N[C@@H](C(=O)OCCOCCOC(=O)c1ccc(-c2c3nc(c(-c4c(F)c(F)c(F)c(F)c4F)c4ccc([nH]4)c(-c4c(F)c(F)c(F)c(F)c4F)c4nc(c(-c5c(F)c(F)c(F)c(F)c5F)c5ccc2[nH]5)C=C4)C=C3)cc1)C(C)(C)C
REMARK SMILES IDX 16 1 15 2 13 3 14 4 12 5 11 6 9 7 10 8 3 10 2 11 1 12 4 13
REMARK SMILES IDX 5 14 6 15 7 16 8 17 87 19 88 20 89 21 90 22 17 23 18 24
REMARK SMILES IDX 19 25 20 26 21 27 22 28 23 29 24 30 25 31 86 32 26 33 85 34
REMARK SMILES IDX 27 35 28 36 29 37 79 38 30 39 84 40 78 41 80 42 31 43 83 44
REMARK SMILES IDX 77 45 76 46 32 48 64 49 44 50 63 51 45 52 48 53 62 54 81 55
REMARK SMILES IDX 46 56 47 57 61 59 82 60 49 61 33 62 34 63 42 64 35 65 36 66
REMARK SMILES IDX 40 67 43 68 37 69 38 70 41 71 39 72 65 73 66 74 74 75 67 76
REMARK SMILES IDX 68 77 72 78 75 79 69 80 70 81 73 82 71 83 50 84 51 85 59 86
REMARK SMILES IDX 52 87 53 88 57 89 60 90 54 91 55 92 58 93 56 94
REMARK H PARENT 11 9 8 18 80 47 48 58
REMARK Flexibility Score: inf
ROOT
ATOM      1  C   UNL A   1      36.218  22.678  23.314  1.00  0.00     0.261 C 
ENDROOT
BRANCH   1   2
ATOM      2  O   UNL A   1      35.386  23.770  22.891  1.00  0.00    -0.462 OA
BRANCH   2   3
ATOM      3  C   UNL A   1      34.050  23.490  22.814  1.00  0.00     0.329 C 
ATOM      4  O   UNL A   1      33.499  23.064  21.805  1.00  0.00    -0.250 OA
BRANCH   3   5
ATOM      5  C   UNL A   1      33.278  23.871  24.102  1.00  0.00     0.199 C 
BRANCH   5   6
ATOM      6  N   UNL A   1      32.330  22.826  24.528  1.00  0.00    -0.324 N 
ATOM      7  C   UNL A   1      32.329  21.686  25.237  1.00  0.00     0.318 C 
ATOM      8  O   UNL A   1      31.196  21.251  25.477  1.00  0.00    -0.249 OA
ATOM      9  H   UNL A   1      31.426  23.022  24.193  1.00  0.00     0.166 HD
BRANCH   7  10
ATOM     10  N   UNL A   1      33.450  21.028  25.664  1.00  0.00    -0.322 N 
BRANCH  10  11
ATOM     11  C   UNL A   1      33.810  21.199  27.081  1.00  0.00     0.118 C 
ATOM     12  C   UNL A   1      34.400  22.576  27.351  1.00  0.00     0.027 C 
ENDBRANCH  10  11
BRANCH  10  13
ATOM     13  C   UNL A   1      34.297  20.067  24.948  1.00  0.00     0.155 C 
BRANCH  13  14
ATOM     14  C   UNL A   1      33.622  18.691  24.660  1.00  0.00     0.077 C 
ATOM     15  C   UNL A   1      32.525  18.715  23.596  1.00  0.00     0.043 C 
ATOM     16  C   UNL A   1      34.694  17.672  24.258  1.00  0.00     0.043 C 
BRANCH  14  17
ATOM     17  O   UNL A   1      33.023  18.225  25.879  1.00  0.00    -0.389 OA
ATOM     18  H   UNL A   1      33.419  18.688  26.633  1.00  0.00     0.211 HD
ENDBRANCH  14  17
ENDBRANCH  13  14
ENDBRANCH  10  13
ENDBRANCH   7  10
ENDBRANCH   5   6
BRANCH   5  19
ATOM     19  C   UNL A   1      32.588  25.279  24.038  1.00  0.00    -0.007 C 
ATOM     20  C   UNL A   1      32.246  25.771  25.463  1.00  0.00     0.013 C 
ATOM     21  C   UNL A   1      33.536  26.330  23.419  1.00  0.00     0.013 C 
ATOM     22  C   UNL A   1      31.288  25.253  23.213  1.00  0.00     0.013 C 
ENDBRANCH   5  19
ENDBRANCH   3   5
ENDBRANCH   2   3
ENDBRANCH   1   2
BRANCH   1  23
ATOM     23  C   UNL A   1      36.973  22.920  24.624  1.00  0.00     0.202 C 
BRANCH  23  24
ATOM     24  O   UNL A   1      37.756  21.865  25.165  1.00  0.00    -0.374 OA
BRANCH  24  25
ATOM     25  C   UNL A   1      38.922  22.201  25.909  1.00  0.00     0.202 C 
BRANCH  25  26
ATOM     26  C   UNL A   1      39.694  21.088  26.633  1.00  0.00     0.261 C 
BRANCH  26  27
ATOM     27  O   UNL A   1      40.195  20.048  25.776  1.00  0.00    -0.460 OA
BRANCH  27  28
ATOM     28  C   UNL A   1      41.437  19.614  26.100  1.00  0.00     0.338 C 
ATOM     29  O   UNL A   1      41.834  18.457  26.134  1.00  0.00    -0.246 OA
BRANCH  28  30
ATOM     30  C   UNL A   1      42.365  20.740  26.299  1.00  0.00     0.060 A 
ATOM     31  C   UNL A   1      42.573  21.187  27.611  1.00  0.00     0.016 A 
ATOM     32  C   UNL A   1      42.859  21.464  25.214  1.00  0.00     0.016 A 
ATOM     33  C   UNL A   1      43.221  22.398  27.839  1.00  0.00     0.010 A 
ATOM     34  C   UNL A   1      43.499  22.688  25.445  1.00  0.00     0.010 A 
ATOM     35  C   UNL A   1      43.639  23.181  26.754  1.00  0.00    -0.014 A 
BRANCH  35  36
ATOM     36  C   UNL A   1      44.051  24.585  26.997  1.00  0.00     0.031 A 
ATOM     37  C   UNL A   1      43.025  25.573  27.481  1.00  0.00     0.074 A 
ATOM     38  C   UNL A   1      45.331  24.965  26.841  1.00  0.00     0.049 A 
ATOM     39  N   UNL A   1      43.163  26.844  27.768  1.00  0.00    -0.248 NA
ATOM     40  C   UNL A   1      41.660  25.060  27.674  1.00  0.00     0.031 C 
ATOM     41  C   UNL A   1      46.422  24.091  26.418  1.00  0.00     0.029 A 
ATOM     42  N   UNL A   1      45.926  26.188  27.021  1.00  0.00    -0.354 N 
ATOM     43  C   UNL A   1      41.908  27.278  28.172  1.00  0.00     0.074 A 
ATOM     44  C   UNL A   1      41.013  26.146  28.070  1.00  0.00     0.031 C 
ATOM     45  C   UNL A   1      47.557  24.809  26.363  1.00  0.00     0.029 A 
ATOM     46  C   UNL A   1      47.264  26.197  26.724  1.00  0.00     0.049 A 
ATOM     47  H   UNL A   1      45.437  26.983  27.335  1.00  0.00     0.167 HD
ATOM     48  C   UNL A   1      41.535  28.509  28.599  1.00  0.00     0.037 A 
ATOM     49  C   UNL A   1      48.147  27.214  26.728  1.00  0.00     0.037 A 
ATOM     50  C   UNL A   1      42.423  29.637  28.701  1.00  0.00     0.049 A 
ATOM     51  C   UNL A   1      47.694  28.589  27.144  1.00  0.00     0.074 A 
ATOM     52  C   UNL A   1      42.143  30.920  29.135  1.00  0.00     0.029 A 
ATOM     53  N   UNL A   1      43.765  29.615  28.355  1.00  0.00    -0.354 N 
ATOM     54  N   UNL A   1      46.512  28.983  27.548  1.00  0.00    -0.248 NA
ATOM     55  C   UNL A   1      48.703  29.658  27.107  1.00  0.00     0.031 C 
ATOM     56  C   UNL A   1      43.307  31.688  29.013  1.00  0.00     0.029 A 
ATOM     57  C   UNL A   1      44.322  30.869  28.543  1.00  0.00     0.049 A 
ATOM     58  H   UNL A   1      44.251  28.826  28.023  1.00  0.00     0.167 HD
ATOM     59  C   UNL A   1      46.639  30.337  27.837  1.00  0.00     0.074 A 
ATOM     60  C   UNL A   1      48.017  30.692  27.572  1.00  0.00     0.031 C 
ATOM     61  C   UNL A   1      45.698  31.206  28.281  1.00  0.00     0.037 A 
BRANCH  48  62
ATOM     62  C   UNL A   1      40.096  28.704  28.969  1.00  0.00     0.064 A 
ATOM     63  C   UNL A   1      39.639  28.499  30.280  1.00  0.00     0.173 A 
ATOM     64  C   UNL A   1      39.168  29.136  28.010  1.00  0.00     0.173 A 
ATOM     65  F   UNL A   1      40.486  28.074  31.231  1.00  0.00    -0.203 F 
ATOM     66  C   UNL A   1      38.302  28.696  30.612  1.00  0.00     0.198 A 
ATOM     67  C   UNL A   1      37.836  29.355  28.350  1.00  0.00     0.198 A 
ATOM     68  F   UNL A   1      39.555  29.351  26.744  1.00  0.00    -0.203 F 
ATOM     69  F   UNL A   1      37.879  28.458  31.860  1.00  0.00    -0.200 F 
ATOM     70  C   UNL A   1      37.402  29.130  29.648  1.00  0.00     0.200 A 
ATOM     71  F   UNL A   1      36.970  29.783  27.420  1.00  0.00    -0.200 F 
ATOM     72  F   UNL A   1      36.116  29.326  29.969  1.00  0.00    -0.200 F 
ENDBRANCH  48  62
BRANCH  49  73
ATOM     73  C   UNL A   1      49.554  26.972  26.315  1.00  0.00     0.064 A 
ATOM     74  C   UNL A   1      49.942  27.066  24.972  1.00  0.00     0.173 A 
ATOM     75  C   UNL A   1      50.535  26.626  27.256  1.00  0.00     0.173 A 
ATOM     76  F   UNL A   1      49.033  27.370  24.033  1.00  0.00    -0.203 F 
ATOM     77  C   UNL A   1      51.255  26.813  24.584  1.00  0.00     0.198 A 
ATOM     78  C   UNL A   1      51.853  26.398  26.871  1.00  0.00     0.198 A 
ATOM     79  F   UNL A   1      50.213  26.521  28.554  1.00  0.00    -0.203 F 
ATOM     80  F   UNL A   1      51.593  26.873  23.288  1.00  0.00    -0.200 F 
ATOM     81  C   UNL A   1      52.211  26.485  25.534  1.00  0.00     0.200 A 
ATOM     82  F   UNL A   1      52.775  26.092  27.794  1.00  0.00    -0.200 F 
ATOM     83  F   UNL A   1      53.475  26.246  25.161  1.00  0.00    -0.200 F 
ENDBRANCH  49  73
BRANCH  61  84
ATOM     84  C   UNL A   1      46.132  32.619  28.537  1.00  0.00     0.064 A 
ATOM     85  C   UNL A   1      46.040  33.605  27.545  1.00  0.00     0.173 A 
ATOM     86  C   UNL A   1      46.606  32.998  29.803  1.00  0.00     0.173 A 
ATOM     87  F   UNL A   1      45.608  33.288  26.315  1.00  0.00    -0.203 F 
ATOM     88  C   UNL A   1      46.428  34.918  27.805  1.00  0.00     0.198 A 
ATOM     89  C   UNL A   1      46.968  34.315  30.065  1.00  0.00     0.198 A 
ATOM     90  F   UNL A   1      46.706  32.092  30.787  1.00  0.00    -0.203 F 
ATOM     91  F   UNL A   1      46.373  35.836  26.830  1.00  0.00    -0.200 F 
ATOM     92  C   UNL A   1      46.886  35.273  29.065  1.00  0.00     0.200 A 
ATOM     93  F   UNL A   1      47.399  34.659  31.287  1.00  0.00    -0.200 F 
ATOM     94  F   UNL A   1      47.254  36.537  29.314  1.00  0.00    -0.200 F 
ENDBRANCH  61  84
ENDBRANCH  35  36
ENDBRANCH  28  30
ENDBRANCH  27  28
ENDBRANCH  26  27
ENDBRANCH  25  26
ENDBRANCH  24  25
ENDBRANCH  23  24
ENDBRANCH   1  23
TORSDOF 21
ENDMDL
