MODEL 1
REMARK VINA RESULT:     -12.1      0.000      0.000
REMARK SMILES O=C(OCCOCCOC(=O)[C@H]1CCCN(C(=O)C2CC[NH+](Cc3ccco3)CC2)C1)c1ccc(-c2c3nc(c(-c4c(F)c(F)c(F)c(F)c4F)c4ccc([nH]4)c(-c4c(F)c(F)c(F)c(F)c4F)c4nc(c(-c5c(F)c(F)c(F)c(F)c5F)c5ccc2[nH]5)C=C4)C=C3)cc1
REMARK SMILES IDX 7 1 6 2 5 3 4 4 3 5 2 6 1 7 32 8 33 9 94 10 34 11 93 12
REMARK SMILES IDX 35 13 36 14 37 15 87 16 38 17 92 18 86 19 88 20 39 21 91 22
REMARK SMILES IDX 85 23 84 24 40 26 72 27 52 28 71 29 53 30 56 31 70 32 89 33
REMARK SMILES IDX 54 34 55 35 69 37 90 38 57 39 41 40 42 41 50 42 43 43 44 44
REMARK SMILES IDX 48 45 51 46 45 47 46 48 49 49 47 50 73 51 74 52 82 53 75 54
REMARK SMILES IDX 76 55 80 56 83 57 77 58 78 59 81 60 79 61 58 62 59 63 67 64
REMARK SMILES IDX 60 65 61 66 65 67 68 68 62 69 63 70 66 71 64 72 8 73 9 74
REMARK SMILES IDX 10 75 11 76 12 77 13 78 31 79 14 80 16 81 15 82 17 83 18 84
REMARK SMILES IDX 19 85 20 86 30 87 21 88 29 89 22 90 23 92 24 93 25 94 28 95
REMARK SMILES IDX 26 96 27 97
REMARK H PARENT 88 25 56 36 22 91
REMARK Flexibility Score: inf
ROOT
ATOM      1  C   UNL A   1      38.677  21.087  25.857  1.00  0.00     0.202 C 
ENDROOT
BRANCH   1   2
ATOM      2  O   UNL A   1      39.895  21.816  26.010  1.00  0.00    -0.374 OA
BRANCH   2   3
ATOM      3  C   UNL A   1      41.054  21.049  26.340  1.00  0.00     0.202 C 
BRANCH   3   4
ATOM      4  C   UNL A   1      42.401  21.495  25.762  1.00  0.00     0.261 C 
BRANCH   4   5
ATOM      5  O   UNL A   1      42.267  22.754  25.094  1.00  0.00    -0.460 OA
BRANCH   5   6
ATOM      6  C   UNL A   1      42.987  23.863  25.369  1.00  0.00     0.338 C 
ATOM      7  O   UNL A   1      44.020  24.085  24.743  1.00  0.00    -0.246 OA
BRANCH   6   8
ATOM      8  C   UNL A   1      42.524  24.881  26.352  1.00  0.00     0.060 A 
ATOM      9  C   UNL A   1      42.976  26.201  26.418  1.00  0.00     0.016 A 
ATOM     10  C   UNL A   1      41.508  24.482  27.231  1.00  0.00     0.016 A 
ATOM     11  C   UNL A   1      42.460  27.109  27.302  1.00  0.00     0.010 A 
ATOM     12  C   UNL A   1      40.982  25.386  28.150  1.00  0.00     0.010 A 
ATOM     13  C   UNL A   1      41.472  26.695  28.173  1.00  0.00    -0.014 A 
BRANCH  13  14
ATOM     14  C   UNL A   1      41.144  27.642  29.226  1.00  0.00     0.031 A 
ATOM     15  C   UNL A   1      42.058  27.682  30.397  1.00  0.00     0.074 A 
ATOM     16  C   UNL A   1      40.180  28.545  29.001  1.00  0.00     0.049 A 
ATOM     17  N   UNL A   1      41.917  28.301  31.529  1.00  0.00    -0.248 NA
ATOM     18  C   UNL A   1      43.316  26.923  30.267  1.00  0.00     0.031 C 
ATOM     19  C   UNL A   1      39.428  28.685  27.749  1.00  0.00     0.029 A 
ATOM     20  N   UNL A   1      39.686  29.527  29.804  1.00  0.00    -0.354 N 
ATOM     21  C   UNL A   1      43.030  27.949  32.276  1.00  0.00     0.074 A 
ATOM     22  C   UNL A   1      43.859  27.097  31.460  1.00  0.00     0.031 C 
ATOM     23  C   UNL A   1      38.546  29.686  27.881  1.00  0.00     0.029 A 
ATOM     24  C   UNL A   1      38.612  30.173  29.252  1.00  0.00     0.049 A 
ATOM     25  H   UNL A   1      40.061  29.750  30.687  1.00  0.00     0.167 HD
ATOM     26  C   UNL A   1      43.282  28.295  33.557  1.00  0.00     0.037 A 
ATOM     27  C   UNL A   1      37.734  30.998  29.846  1.00  0.00     0.037 A 
ATOM     28  C   UNL A   1      42.390  29.144  34.297  1.00  0.00     0.049 A 
ATOM     29  C   UNL A   1      37.960  31.282  31.305  1.00  0.00     0.074 A 
ATOM     30  C   UNL A   1      42.439  29.522  35.621  1.00  0.00     0.029 A 
ATOM     31  N   UNL A   1      41.261  29.747  33.742  1.00  0.00    -0.354 N 
ATOM     32  N   UNL A   1      38.929  30.854  32.085  1.00  0.00    -0.248 NA
ATOM     33  C   UNL A   1      36.978  32.134  31.975  1.00  0.00     0.031 C 
ATOM     34  C   UNL A   1      41.310  30.309  35.879  1.00  0.00     0.029 A 
ATOM     35  C   UNL A   1      40.593  30.481  34.699  1.00  0.00     0.049 A 
ATOM     36  H   UNL A   1      40.981  29.660  32.801  1.00  0.00     0.167 HD
ATOM     37  C   UNL A   1      38.691  31.400  33.334  1.00  0.00     0.074 A 
ATOM     38  C   UNL A   1      37.481  32.195  33.202  1.00  0.00     0.031 C 
ATOM     39  C   UNL A   1      39.399  31.267  34.484  1.00  0.00     0.037 A 
BRANCH  26  40
ATOM     40  C   UNL A   1      44.457  27.636  34.216  1.00  0.00     0.064 A 
ATOM     41  C   UNL A   1      45.740  28.206  34.219  1.00  0.00     0.173 A 
ATOM     42  C   UNL A   1      44.315  26.351  34.761  1.00  0.00     0.173 A 
ATOM     43  F   UNL A   1      45.943  29.415  33.673  1.00  0.00    -0.203 F 
ATOM     44  C   UNL A   1      46.840  27.496  34.697  1.00  0.00     0.198 A 
ATOM     45  C   UNL A   1      45.410  25.657  35.270  1.00  0.00     0.198 A 
ATOM     46  F   UNL A   1      43.117  25.748  34.769  1.00  0.00    -0.203 F 
ATOM     47  F   UNL A   1      48.069  28.026  34.606  1.00  0.00    -0.200 F 
ATOM     48  C   UNL A   1      46.674  26.225  35.223  1.00  0.00     0.200 A 
ATOM     49  F   UNL A   1      45.247  24.428  35.776  1.00  0.00    -0.200 F 
ATOM     50  F   UNL A   1      47.737  25.535  35.663  1.00  0.00    -0.200 F 
ENDBRANCH  26  40
BRANCH  27  51
ATOM     51  C   UNL A   1      36.564  31.502  29.085  1.00  0.00     0.064 A 
ATOM     52  C   UNL A   1      35.500  30.659  28.744  1.00  0.00     0.173 A 
ATOM     53  C   UNL A   1      36.454  32.859  28.736  1.00  0.00     0.173 A 
ATOM     54  F   UNL A   1      35.558  29.353  29.045  1.00  0.00    -0.203 F 
ATOM     55  C   UNL A   1      34.374  31.151  28.082  1.00  0.00     0.198 A 
ATOM     56  C   UNL A   1      35.318  33.355  28.102  1.00  0.00     0.198 A 
ATOM     57  F   UNL A   1      37.440  33.716  29.045  1.00  0.00    -0.203 F 
ATOM     58  F   UNL A   1      33.380  30.317  27.747  1.00  0.00    -0.200 F 
ATOM     59  C   UNL A   1      34.280  32.500  27.771  1.00  0.00     0.200 A 
ATOM     60  F   UNL A   1      35.223  34.663  27.826  1.00  0.00    -0.200 F 
ATOM     61  F   UNL A   1      33.189  32.974  27.152  1.00  0.00    -0.200 F 
ENDBRANCH  27  51
BRANCH  39  62
ATOM     62  C   UNL A   1      38.917  32.054  35.660  1.00  0.00     0.064 A 
ATOM     63  C   UNL A   1      38.176  31.462  36.690  1.00  0.00     0.173 A 
ATOM     64  C   UNL A   1      39.297  33.398  35.796  1.00  0.00     0.173 A 
ATOM     65  F   UNL A   1      37.780  30.183  36.589  1.00  0.00    -0.203 F 
ATOM     66  C   UNL A   1      37.824  32.194  37.818  1.00  0.00     0.198 A 
ATOM     67  C   UNL A   1      38.972  34.115  36.939  1.00  0.00     0.198 A 
ATOM     68  F   UNL A   1      40.015  33.998  34.834  1.00  0.00    -0.203 F 
ATOM     69  F   UNL A   1      37.090  31.622  38.782  1.00  0.00    -0.200 F 
ATOM     70  C   UNL A   1      38.235  33.514  37.948  1.00  0.00     0.200 A 
ATOM     71  F   UNL A   1      39.386  35.383  37.072  1.00  0.00    -0.200 F 
ATOM     72  F   UNL A   1      37.918  34.208  39.050  1.00  0.00    -0.200 F 
ENDBRANCH  39  62
ENDBRANCH  13  14
ENDBRANCH   6   8
ENDBRANCH   5   6
ENDBRANCH   4   5
ENDBRANCH   3   4
ENDBRANCH   2   3
ENDBRANCH   1   2
BRANCH   1  73
ATOM     73  C   UNL A   1      37.718  21.798  24.906  1.00  0.00     0.261 C 
BRANCH  73  74
ATOM     74  O   UNL A   1      36.376  21.682  25.405  1.00  0.00    -0.463 OA
BRANCH  74  75
ATOM     75  C   UNL A   1      35.608  22.792  25.227  1.00  0.00     0.310 C 
ATOM     76  O   UNL A   1      35.570  23.753  25.973  1.00  0.00    -0.252 OA
BRANCH  75  77
ATOM     77  C   UNL A   1      34.844  22.698  23.924  1.00  0.00     0.119 C 
ATOM     78  C   UNL A   1      33.674  21.737  24.170  1.00  0.00     0.019 C 
ATOM     79  C   UNL A   1      34.424  24.113  23.458  1.00  0.00     0.134 C 
ATOM     80  C   UNL A   1      32.637  21.903  23.087  1.00  0.00     0.022 C 
ATOM     81  N   UNL A   1      33.238  24.175  22.623  1.00  0.00    -0.342 N 
ATOM     82  C   UNL A   1      32.191  23.346  23.138  1.00  0.00     0.119 C 
BRANCH  81  83
ATOM     83  C   UNL A   1      33.061  25.203  21.714  1.00  0.00     0.226 C 
ATOM     84  O   UNL A   1      33.279  24.998  20.512  1.00  0.00    -0.275 OA
BRANCH  83  85
ATOM     85  C   UNL A   1      32.578  26.617  22.138  1.00  0.00     0.090 C 
ATOM     86  C   UNL A   1      33.413  27.343  23.188  1.00  0.00     0.075 C 
ATOM     87  C   UNL A   1      31.086  26.837  22.378  1.00  0.00     0.075 C 
ATOM     88  C   UNL A   1      32.984  27.075  24.625  1.00  0.00     0.263 C 
ATOM     89  C   UNL A   1      30.604  26.762  23.837  1.00  0.00     0.263 C 
ATOM     90  N   UNL A   1      31.550  27.130  24.893  1.00  0.00    -0.329 N 
ATOM     91  H   UNL A   1      31.428  28.143  24.890  1.00  0.00     0.348 HD
BRANCH  90  92
ATOM     92  C   UNL A   1      31.161  26.633  26.240  1.00  0.00     0.338 C 
BRANCH  92  93
ATOM     93  C   UNL A   1      31.199  25.142  26.484  1.00  0.00     0.157 A 
ATOM     94  C   UNL A   1      32.214  24.222  26.703  1.00  0.00     0.052 A 
ATOM     95  O   UNL A   1      29.994  24.492  26.559  1.00  0.00    -0.463 OA
ATOM     96  C   UNL A   1      31.604  22.950  26.840  1.00  0.00     0.042 A 
ATOM     97  C   UNL A   1      30.251  23.172  26.773  1.00  0.00     0.195 A 
ENDBRANCH  92  93
ENDBRANCH  90  92
ENDBRANCH  83  85
ENDBRANCH  81  83
ENDBRANCH  75  77
ENDBRANCH  74  75
ENDBRANCH  73  74
ENDBRANCH   1  73
TORSDOF 18
ENDMDL
MODEL 2
REMARK VINA RESULT:     -11.5      5.232      7.682
REMARK SMILES O=C(OCCOCCOC(=O)[C@H]1CCCN(C(=O)C2CC[NH+](Cc3ccco3)CC2)C1)c1ccc(-c2c3nc(c(-c4c(F)c(F)c(F)c(F)c4F)c4ccc([nH]4)c(-c4c(F)c(F)c(F)c(F)c4F)c4nc(c(-c5c(F)c(F)c(F)c(F)c5F)c5ccc2[nH]5)C=C4)C=C3)cc1
REMARK SMILES IDX 7 1 6 2 5 3 4 4 3 5 2 6 1 7 32 8 33 9 94 10 34 11 93 12
REMARK SMILES IDX 35 13 36 14 37 15 87 16 38 17 92 18 86 19 88 20 39 21 91 22
REMARK SMILES IDX 85 23 84 24 40 26 72 27 52 28 71 29 53 30 56 31 70 32 89 33
REMARK SMILES IDX 54 34 55 35 69 37 90 38 57 39 41 40 42 41 50 42 43 43 44 44
REMARK SMILES IDX 48 45 51 46 45 47 46 48 49 49 47 50 73 51 74 52 82 53 75 54
REMARK SMILES IDX 76 55 80 56 83 57 77 58 78 59 81 60 79 61 58 62 59 63 67 64
REMARK SMILES IDX 60 65 61 66 65 67 68 68 62 69 63 70 66 71 64 72 8 73 9 74
REMARK SMILES IDX 10 75 11 76 12 77 13 78 31 79 14 80 16 81 15 82 17 83 18 84
REMARK SMILES IDX 19 85 20 86 30 87 21 88 29 89 22 90 23 92 24 93 25 94 28 95
REMARK SMILES IDX 26 96 27 97
REMARK H PARENT 88 25 56 36 22 91
REMARK Flexibility Score: inf
ROOT
ATOM      1  C   UNL A   1      40.990  20.373  27.221  1.00  0.00     0.202 C 
ENDROOT
BRANCH   1   2
ATOM      2  O   UNL A   1      41.728  19.613  26.263  1.00  0.00    -0.374 OA
BRANCH   2   3
ATOM      3  C   UNL A   1      42.646  18.654  26.788  1.00  0.00     0.202 C 
BRANCH   3   4
ATOM      4  C   UNL A   1      43.565  17.923  25.804  1.00  0.00     0.261 C 
BRANCH   4   5
ATOM      5  O   UNL A   1      43.709  18.680  24.598  1.00  0.00    -0.460 OA
BRANCH   5   6
ATOM      6  C   UNL A   1      44.751  19.488  24.303  1.00  0.00     0.338 C 
ATOM      7  O   UNL A   1      45.674  19.059  23.616  1.00  0.00    -0.246 OA
BRANCH   6   8
ATOM      8  C   UNL A   1      44.780  20.919  24.712  1.00  0.00     0.060 A 
ATOM      9  C   UNL A   1      44.474  22.001  23.883  1.00  0.00     0.016 A 
ATOM     10  C   UNL A   1      45.080  21.178  26.056  1.00  0.00     0.016 A 
ATOM     11  C   UNL A   1      44.452  23.291  24.338  1.00  0.00     0.010 A 
ATOM     12  C   UNL A   1      45.081  22.485  26.535  1.00  0.00     0.010 A 
ATOM     13  C   UNL A   1      44.767  23.529  25.661  1.00  0.00    -0.014 A 
BRANCH  13  14
ATOM     14  C   UNL A   1      44.949  24.929  26.007  1.00  0.00     0.031 A 
ATOM     15  C   UNL A   1      46.278  25.523  25.710  1.00  0.00     0.074 A 
ATOM     16  C   UNL A   1      43.877  25.645  26.375  1.00  0.00     0.049 A 
ATOM     17  N   UNL A   1      46.758  26.679  26.057  1.00  0.00    -0.248 NA
ATOM     18  C   UNL A   1      47.193  24.700  24.897  1.00  0.00     0.031 C 
ATOM     19  C   UNL A   1      42.502  25.137  26.436  1.00  0.00     0.029 A 
ATOM     20  N   UNL A   1      43.772  26.952  26.743  1.00  0.00    -0.354 N 
ATOM     21  C   UNL A   1      48.055  26.695  25.569  1.00  0.00     0.074 A 
ATOM     22  C   UNL A   1      48.279  25.454  24.868  1.00  0.00     0.031 C 
ATOM     23  C   UNL A   1      41.692  26.125  26.845  1.00  0.00     0.029 A 
ATOM     24  C   UNL A   1      42.513  27.284  27.167  1.00  0.00     0.049 A 
ATOM     25  H   UNL A   1      44.522  27.589  26.708  1.00  0.00     0.167 HD
ATOM     26  C   UNL A   1      48.973  27.668  25.753  1.00  0.00     0.037 A 
ATOM     27  C   UNL A   1      42.114  28.383  27.828  1.00  0.00     0.037 A 
ATOM     28  C   UNL A   1      48.661  28.869  26.477  1.00  0.00     0.049 A 
ATOM     29  C   UNL A   1      43.172  29.407  28.129  1.00  0.00     0.074 A 
ATOM     30  C   UNL A   1      49.485  29.915  26.834  1.00  0.00     0.029 A 
ATOM     31  N   UNL A   1      47.388  29.169  26.960  1.00  0.00    -0.354 N 
ATOM     32  N   UNL A   1      44.447  29.392  27.804  1.00  0.00    -0.248 NA
ATOM     33  C   UNL A   1      42.760  30.581  28.898  1.00  0.00     0.031 C 
ATOM     34  C   UNL A   1      48.721  30.820  27.581  1.00  0.00     0.029 A 
ATOM     35  C   UNL A   1      47.404  30.375  27.630  1.00  0.00     0.049 A 
ATOM     36  H   UNL A   1      46.591  28.602  26.841  1.00  0.00     0.167 HD
ATOM     37  C   UNL A   1      44.989  30.562  28.306  1.00  0.00     0.074 A 
ATOM     38  C   UNL A   1      43.895  31.264  28.958  1.00  0.00     0.031 C 
ATOM     39  C   UNL A   1      46.263  31.022  28.237  1.00  0.00     0.037 A 
BRANCH  26  40
ATOM     40  C   UNL A   1      50.370  27.374  25.294  1.00  0.00     0.064 A 
ATOM     41  C   UNL A   1      50.785  27.566  23.967  1.00  0.00     0.173 A 
ATOM     42  C   UNL A   1      51.281  26.784  26.182  1.00  0.00     0.173 A 
ATOM     43  F   UNL A   1      49.941  28.088  23.064  1.00  0.00    -0.203 F 
ATOM     44  C   UNL A   1      52.040  27.134  23.538  1.00  0.00     0.198 A 
ATOM     45  C   UNL A   1      52.546  26.384  25.759  1.00  0.00     0.198 A 
ATOM     46  F   UNL A   1      50.934  26.559  27.458  1.00  0.00    -0.203 F 
ATOM     47  F   UNL A   1      52.379  27.246  22.245  1.00  0.00    -0.200 F 
ATOM     48  C   UNL A   1      52.918  26.545  24.433  1.00  0.00     0.200 A 
ATOM     49  F   UNL A   1      53.393  25.814  26.627  1.00  0.00    -0.200 F 
ATOM     50  F   UNL A   1      54.116  26.110  24.014  1.00  0.00    -0.200 F 
ENDBRANCH  26  40
BRANCH  27  51
ATOM     51  C   UNL A   1      40.711  28.491  28.300  1.00  0.00     0.064 A 
ATOM     52  C   UNL A   1      40.343  28.084  29.587  1.00  0.00     0.173 A 
ATOM     53  C   UNL A   1      39.716  29.066  27.491  1.00  0.00     0.173 A 
ATOM     54  F   UNL A   1      41.251  27.520  30.396  1.00  0.00    -0.203 F 
ATOM     55  C   UNL A   1      39.035  28.244  30.047  1.00  0.00     0.198 A 
ATOM     56  C   UNL A   1      38.418  29.253  27.961  1.00  0.00     0.198 A 
ATOM     57  F   UNL A   1      40.013  29.482  26.250  1.00  0.00    -0.203 F 
ATOM     58  F   UNL A   1      38.704  27.825  31.276  1.00  0.00    -0.200 F 
ATOM     59  C   UNL A   1      38.077  28.838  29.237  1.00  0.00     0.200 A 
ATOM     60  F   UNL A   1      37.504  29.848  27.183  1.00  0.00    -0.200 F 
ATOM     61  F   UNL A   1      36.826  29.008  29.688  1.00  0.00    -0.200 F 
ENDBRANCH  27  51
BRANCH  39  62
ATOM     62  C   UNL A   1      46.517  32.376  28.822  1.00  0.00     0.064 A 
ATOM     63  C   UNL A   1      46.942  32.538  30.147  1.00  0.00     0.173 A 
ATOM     64  C   UNL A   1      46.429  33.510  28.002  1.00  0.00     0.173 A 
ATOM     65  F   UNL A   1      47.023  31.479  30.966  1.00  0.00    -0.203 F 
ATOM     66  C   UNL A   1      47.264  33.799  30.634  1.00  0.00     0.198 A 
ATOM     67  C   UNL A   1      46.785  34.763  28.484  1.00  0.00     0.198 A 
ATOM     68  F   UNL A   1      46.035  33.393  26.725  1.00  0.00    -0.203 F 
ATOM     69  F   UNL A   1      47.641  33.943  31.912  1.00  0.00    -0.200 F 
ATOM     70  C   UNL A   1      47.199  34.907  29.799  1.00  0.00     0.200 A 
ATOM     71  F   UNL A   1      46.740  35.828  27.672  1.00  0.00    -0.200 F 
ATOM     72  F   UNL A   1      47.538  36.117  30.266  1.00  0.00    -0.200 F 
ENDBRANCH  39  62
ENDBRANCH  13  14
ENDBRANCH   6   8
ENDBRANCH   5   6
ENDBRANCH   4   5
ENDBRANCH   3   4
ENDBRANCH   2   3
ENDBRANCH   1   2
BRANCH   1  73
ATOM     73  C   UNL A   1      40.523  21.703  26.638  1.00  0.00     0.261 C 
BRANCH  73  74
ATOM     74  O   UNL A   1      39.219  21.539  26.056  1.00  0.00    -0.463 OA
BRANCH  74  75
ATOM     75  C   UNL A   1      38.480  22.680  25.992  1.00  0.00     0.310 C 
ATOM     76  O   UNL A   1      38.714  23.709  26.598  1.00  0.00    -0.252 OA
BRANCH  75  77
ATOM     77  C   UNL A   1      37.347  22.517  25.002  1.00  0.00     0.119 C 
ATOM     78  C   UNL A   1      36.626  21.214  25.372  1.00  0.00     0.019 C 
ATOM     79  C   UNL A   1      36.447  23.775  25.022  1.00  0.00     0.134 C 
ATOM     80  C   UNL A   1      35.262  21.181  24.728  1.00  0.00     0.022 C 
ATOM     81  N   UNL A   1      35.063  23.567  24.629  1.00  0.00    -0.342 N 
ATOM     82  C   UNL A   1      34.517  22.394  25.239  1.00  0.00     0.119 C 
BRANCH  81  83
ATOM     83  C   UNL A   1      34.319  24.594  24.076  1.00  0.00     0.226 C 
ATOM     84  O   UNL A   1      34.204  24.669  22.845  1.00  0.00    -0.275 OA
BRANCH  83  85
ATOM     85  C   UNL A   1      33.598  25.661  24.944  1.00  0.00     0.090 C 
ATOM     86  C   UNL A   1      32.163  25.355  25.359  1.00  0.00     0.075 C 
ATOM     87  C   UNL A   1      33.758  27.133  24.572  1.00  0.00     0.075 C 
ATOM     88  C   UNL A   1      31.107  25.851  24.378  1.00  0.00     0.263 C 
ATOM     89  C   UNL A   1      32.633  27.759  23.730  1.00  0.00     0.263 C 
ATOM     90  N   UNL A   1      31.283  27.209  23.872  1.00  0.00    -0.329 N 
ATOM     91  H   UNL A   1      30.971  27.725  24.695  1.00  0.00     0.348 HD
BRANCH  90  92
ATOM     92  C   UNL A   1      30.375  27.563  22.748  1.00  0.00     0.338 C 
BRANCH  92  93
ATOM     93  C   UNL A   1      29.420  28.719  22.943  1.00  0.00     0.157 A 
ATOM     94  C   UNL A   1      28.049  28.875  22.809  1.00  0.00     0.052 A 
ATOM     95  O   UNL A   1      29.955  29.898  23.395  1.00  0.00    -0.463 OA
ATOM     96  C   UNL A   1      27.749  30.226  23.117  1.00  0.00     0.042 A 
ATOM     97  C   UNL A   1      28.938  30.799  23.495  1.00  0.00     0.195 A 
ENDBRANCH  92  93
ENDBRANCH  90  92
ENDBRANCH  83  85
ENDBRANCH  81  83
ENDBRANCH  75  77
ENDBRANCH  74  75
ENDBRANCH  73  74
ENDBRANCH   1  73
TORSDOF 18
ENDMDL
MODEL 3
REMARK VINA RESULT:     -11.4      3.187      8.691
REMARK SMILES O=C(OCCOCCOC(=O)[C@H]1CCCN(C(=O)C2CC[NH+](Cc3ccco3)CC2)C1)c1ccc(-c2c3nc(c(-c4c(F)c(F)c(F)c(F)c4F)c4ccc([nH]4)c(-c4c(F)c(F)c(F)c(F)c4F)c4nc(c(-c5c(F)c(F)c(F)c(F)c5F)c5ccc2[nH]5)C=C4)C=C3)cc1
REMARK SMILES IDX 7 1 6 2 5 3 4 4 3 5 2 6 1 7 32 8 33 9 94 10 34 11 93 12
REMARK SMILES IDX 35 13 36 14 37 15 87 16 38 17 92 18 86 19 88 20 39 21 91 22
REMARK SMILES IDX 85 23 84 24 40 26 72 27 52 28 71 29 53 30 56 31 70 32 89 33
REMARK SMILES IDX 54 34 55 35 69 37 90 38 57 39 41 40 42 41 50 42 43 43 44 44
REMARK SMILES IDX 48 45 51 46 45 47 46 48 49 49 47 50 73 51 74 52 82 53 75 54
REMARK SMILES IDX 76 55 80 56 83 57 77 58 78 59 81 60 79 61 58 62 59 63 67 64
REMARK SMILES IDX 60 65 61 66 65 67 68 68 62 69 63 70 66 71 64 72 8 73 9 74
REMARK SMILES IDX 10 75 11 76 12 77 13 78 31 79 14 80 16 81 15 82 17 83 18 84
REMARK SMILES IDX 19 85 20 86 30 87 21 88 29 89 22 90 23 92 24 93 25 94 28 95
REMARK SMILES IDX 26 96 27 97
REMARK H PARENT 88 25 56 36 22 91
REMARK Flexibility Score: inf
ROOT
ATOM      1  C   UNL A   1      33.482  30.214  27.218  1.00  0.00     0.202 C 
ENDROOT
BRANCH   1   2
ATOM      2  O   UNL A   1      33.752  31.336  28.060  1.00  0.00    -0.374 OA
BRANCH   2   3
ATOM      3  C   UNL A   1      33.692  32.621  27.440  1.00  0.00     0.202 C 
BRANCH   3   4
ATOM      4  C   UNL A   1      32.480  33.508  27.738  1.00  0.00     0.261 C 
BRANCH   4   5
ATOM      5  O   UNL A   1      32.889  34.707  28.405  1.00  0.00    -0.460 OA
BRANCH   5   6
ATOM      6  C   UNL A   1      33.212  34.799  29.714  1.00  0.00     0.338 C 
ATOM      7  O   UNL A   1      32.451  35.377  30.486  1.00  0.00    -0.246 OA
BRANCH   6   8
ATOM      8  C   UNL A   1      34.425  34.144  30.275  1.00  0.00     0.060 A 
ATOM      9  C   UNL A   1      34.423  33.149  31.255  1.00  0.00     0.016 A 
ATOM     10  C   UNL A   1      35.653  34.524  29.717  1.00  0.00     0.016 A 
ATOM     11  C   UNL A   1      35.571  32.536  31.680  1.00  0.00     0.010 A 
ATOM     12  C   UNL A   1      36.834  33.926  30.148  1.00  0.00     0.010 A 
ATOM     13  C   UNL A   1      36.774  32.935  31.133  1.00  0.00    -0.014 A 
BRANCH  13  14
ATOM     14  C   UNL A   1      37.955  32.409  31.796  1.00  0.00     0.031 A 
ATOM     15  C   UNL A   1      38.728  31.374  31.061  1.00  0.00     0.074 A 
ATOM     16  C   UNL A   1      38.390  33.013  32.911  1.00  0.00     0.049 A 
ATOM     17  N   UNL A   1      39.709  30.631  31.476  1.00  0.00    -0.248 NA
ATOM     18  C   UNL A   1      38.346  31.152  29.654  1.00  0.00     0.031 C 
ATOM     19  C   UNL A   1      37.781  34.200  33.521  1.00  0.00     0.029 A 
ATOM     20  N   UNL A   1      39.452  32.727  33.712  1.00  0.00    -0.354 N 
ATOM     21  C   UNL A   1      40.014  29.803  30.408  1.00  0.00     0.074 A 
ATOM     22  C   UNL A   1      39.146  30.157  29.311  1.00  0.00     0.031 C 
ATOM     23  C   UNL A   1      38.473  34.525  34.623  1.00  0.00     0.029 A 
ATOM     24  C   UNL A   1      39.496  33.510  34.835  1.00  0.00     0.049 A 
ATOM     25  H   UNL A   1      40.119  32.032  33.507  1.00  0.00     0.167 HD
ATOM     26  C   UNL A   1      40.924  28.805  30.397  1.00  0.00     0.037 A 
ATOM     27  C   UNL A   1      40.232  33.343  35.946  1.00  0.00     0.037 A 
ATOM     28  C   UNL A   1      41.740  28.519  31.544  1.00  0.00     0.049 A 
ATOM     29  C   UNL A   1      41.158  32.159  35.966  1.00  0.00     0.074 A 
ATOM     30  C   UNL A   1      42.644  27.497  31.742  1.00  0.00     0.029 A 
ATOM     31  N   UNL A   1      41.730  29.286  32.708  1.00  0.00    -0.354 N 
ATOM     32  N   UNL A   1      41.373  31.267  35.023  1.00  0.00    -0.248 NA
ATOM     33  C   UNL A   1      41.924  31.936  37.192  1.00  0.00     0.031 C 
ATOM     34  C   UNL A   1      43.139  27.616  33.046  1.00  0.00     0.029 A 
ATOM     35  C   UNL A   1      42.598  28.753  33.639  1.00  0.00     0.049 A 
ATOM     36  H   UNL A   1      41.182  30.092  32.847  1.00  0.00     0.167 HD
ATOM     37  C   UNL A   1      42.315  30.388  35.528  1.00  0.00     0.074 A 
ATOM     38  C   UNL A   1      42.629  30.861  36.867  1.00  0.00     0.031 C 
ATOM     39  C   UNL A   1      42.874  29.296  34.949  1.00  0.00     0.037 A 
BRANCH  26  40
ATOM     40  C   UNL A   1      40.941  27.921  29.186  1.00  0.00     0.064 A 
ATOM     41  C   UNL A   1      41.810  28.136  28.105  1.00  0.00     0.173 A 
ATOM     42  C   UNL A   1      39.989  26.897  29.062  1.00  0.00     0.173 A 
ATOM     43  F   UNL A   1      42.713  29.128  28.151  1.00  0.00    -0.203 F 
ATOM     44  C   UNL A   1      41.691  27.396  26.929  1.00  0.00     0.198 A 
ATOM     45  C   UNL A   1      39.895  26.136  27.899  1.00  0.00     0.198 A 
ATOM     46  F   UNL A   1      39.121  26.657  30.056  1.00  0.00    -0.203 F 
ATOM     47  F   UNL A   1      42.472  27.681  25.877  1.00  0.00    -0.200 F 
ATOM     48  C   UNL A   1      40.736  26.397  26.829  1.00  0.00     0.200 A 
ATOM     49  F   UNL A   1      38.970  25.172  27.805  1.00  0.00    -0.200 F 
ATOM     50  F   UNL A   1      40.609  25.700  25.690  1.00  0.00    -0.200 F 
ENDBRANCH  26  40
BRANCH  27  51
ATOM     51  C   UNL A   1      40.038  34.252  37.103  1.00  0.00     0.064 A 
ATOM     52  C   UNL A   1      39.138  33.940  38.129  1.00  0.00     0.173 A 
ATOM     53  C   UNL A   1      40.799  35.425  37.240  1.00  0.00     0.173 A 
ATOM     54  F   UNL A   1      38.381  32.837  38.043  1.00  0.00    -0.203 F 
ATOM     55  C   UNL A   1      39.004  34.767  39.245  1.00  0.00     0.198 A 
ATOM     56  C   UNL A   1      40.686  36.235  38.368  1.00  0.00     0.198 A 
ATOM     57  F   UNL A   1      41.684  35.769  36.291  1.00  0.00    -0.203 F 
ATOM     58  F   UNL A   1      38.119  34.458  40.202  1.00  0.00    -0.200 F 
ATOM     59  C   UNL A   1      39.786  35.908  39.368  1.00  0.00     0.200 A 
ATOM     60  F   UNL A   1      41.461  37.322  38.492  1.00  0.00    -0.200 F 
ATOM     61  F   UNL A   1      39.669  36.690  40.450  1.00  0.00    -0.200 F 
ENDBRANCH  27  51
BRANCH  39  62
ATOM     62  C   UNL A   1      43.930  28.589  35.738  1.00  0.00     0.064 A 
ATOM     63  C   UNL A   1      45.279  28.954  35.658  1.00  0.00     0.173 A 
ATOM     64  C   UNL A   1      43.557  27.600  36.660  1.00  0.00     0.173 A 
ATOM     65  F   UNL A   1      45.677  29.885  34.776  1.00  0.00    -0.203 F 
ATOM     66  C   UNL A   1      46.225  28.345  36.474  1.00  0.00     0.198 A 
ATOM     67  C   UNL A   1      44.501  27.019  37.497  1.00  0.00     0.198 A 
ATOM     68  F   UNL A   1      42.273  27.229  36.772  1.00  0.00    -0.203 F 
ATOM     69  F   UNL A   1      47.517  28.685  36.365  1.00  0.00    -0.200 F 
ATOM     70  C   UNL A   1      45.833  27.390  37.402  1.00  0.00     0.200 A 
ATOM     71  F   UNL A   1      44.118  26.111  38.405  1.00  0.00    -0.200 F 
ATOM     72  F   UNL A   1      46.744  26.826  38.207  1.00  0.00    -0.200 F 
ENDBRANCH  39  62
ENDBRANCH  13  14
ENDBRANCH   6   8
ENDBRANCH   5   6
ENDBRANCH   4   5
ENDBRANCH   3   4
ENDBRANCH   2   3
ENDBRANCH   1   2
BRANCH   1  73
ATOM     73  C   UNL A   1      31.982  30.021  27.011  1.00  0.00     0.261 C 
BRANCH  73  74
ATOM     74  O   UNL A   1      31.762  28.962  26.066  1.00  0.00    -0.463 OA
BRANCH  74  75
ATOM     75  C   UNL A   1      31.513  27.746  26.625  1.00  0.00     0.310 C 
ATOM     76  O   UNL A   1      31.080  27.559  27.747  1.00  0.00    -0.252 OA
BRANCH  75  77
ATOM     77  C   UNL A   1      31.789  26.642  25.627  1.00  0.00     0.119 C 
ATOM     78  C   UNL A   1      31.511  27.229  24.237  1.00  0.00     0.019 C 
ATOM     79  C   UNL A   1      33.228  26.107  25.820  1.00  0.00     0.134 C 
ATOM     80  C   UNL A   1      32.147  26.364  23.178  1.00  0.00     0.022 C 
ATOM     81  N   UNL A   1      33.847  25.524  24.642  1.00  0.00    -0.342 N 
ATOM     82  C   UNL A   1      33.628  26.332  23.482  1.00  0.00     0.119 C 
BRANCH  81  83
ATOM     83  C   UNL A   1      34.827  24.554  24.761  1.00  0.00     0.226 C 
ATOM     84  O   UNL A   1      35.612  24.594  25.718  1.00  0.00    -0.275 OA
BRANCH  83  85
ATOM     85  C   UNL A   1      34.974  23.391  23.742  1.00  0.00     0.090 C 
ATOM     86  C   UNL A   1      33.749  23.053  22.900  1.00  0.00     0.075 C 
ATOM     87  C   UNL A   1      35.701  22.122  24.184  1.00  0.00     0.075 C 
ATOM     88  C   UNL A   1      32.827  22.012  23.524  1.00  0.00     0.263 C 
ATOM     89  C   UNL A   1      34.822  20.953  24.657  1.00  0.00     0.263 C 
ATOM     90  N   UNL A   1      33.475  20.835  24.095  1.00  0.00    -0.329 N 
ATOM     91  H   UNL A   1      33.691  20.339  23.230  1.00  0.00     0.348 HD
BRANCH  90  92
ATOM     92  C   UNL A   1      32.568  19.969  24.896  1.00  0.00     0.338 C 
BRANCH  92  93
ATOM     93  C   UNL A   1      32.774  18.473  24.829  1.00  0.00     0.157 A 
ATOM     94  C   UNL A   1      33.322  17.612  23.890  1.00  0.00     0.052 A 
ATOM     95  O   UNL A   1      32.394  17.743  25.926  1.00  0.00    -0.463 OA
ATOM     96  C   UNL A   1      33.199  16.297  24.405  1.00  0.00     0.042 A 
ATOM     97  C   UNL A   1      32.655  16.433  25.658  1.00  0.00     0.195 A 
ENDBRANCH  92  93
ENDBRANCH  90  92
ENDBRANCH  83  85
ENDBRANCH  81  83
ENDBRANCH  75  77
ENDBRANCH  74  75
ENDBRANCH  73  74
ENDBRANCH   1  73
TORSDOF 18
ENDMDL
