MODEL 1
REMARK VINA RESULT:     -12.2      0.000      0.000
REMARK SMILES CCSc1ccc(-c2cc(Cl)cc3c2O[C@@H](C(F)(F)F)C(C(=O)OCCOCCOC(=O)c2ccc(-c4c5nc(c(-c6c(F)c(F)c(F)c(F)c6F)c6ccc([nH]6)c(-c6c(F)c(F)c(F)c(F)c6F)c6nc(c(-c7c(F)c(F)c(F)c(F)c7F)c7ccc4[nH]7)C=C6)C=C5)cc2)=C3)cc1
REMARK SMILES IDX 26 1 25 2 24 3 22 4 23 5 21 6 8 7 9 8 14 9 10 10 13 11 15 12
REMARK SMILES IDX 11 13 12 14 96 15 16 16 7 17 4 18 5 19 98 20 6 21 97 22 3 23
REMARK SMILES IDX 2 24 1 25 17 26 18 27 19 28 20 29 27 30 28 31 29 32 30 33
REMARK SMILES IDX 31 34 32 35 33 36 34 37 95 38 35 39 94 40 36 41 37 42 38 43
REMARK SMILES IDX 88 44 39 45 93 46 87 47 89 48 40 49 92 50 86 51 85 52 41 54
REMARK SMILES IDX 73 55 53 56 72 57 54 58 57 59 71 60 90 61 55 62 56 63 70 65
REMARK SMILES IDX 91 66 58 67 42 68 43 69 51 70 44 71 45 72 49 73 52 74 46 75
REMARK SMILES IDX 47 76 50 77 48 78 74 79 75 80 83 81 76 82 77 83 81 84 84 85
REMARK SMILES IDX 78 86 79 87 82 88 80 89 59 90 60 91 68 92 61 93 62 94 66 95
REMARK SMILES IDX 69 96 63 97 64 98 67 99 65 100
REMARK H PARENT 89 53 57 64
REMARK Flexibility Score: inf
ROOT
ATOM      1  C   UNL A   1      32.459  29.662  25.335  1.00  0.00     0.202 C 
ENDROOT
BRANCH   1   2
ATOM      2  C   UNL A   1      33.627  28.710  25.036  1.00  0.00     0.261 C 
BRANCH   2   3
ATOM      3  O   UNL A   1      33.206  27.448  24.497  1.00  0.00    -0.460 OA
BRANCH   3   4
ATOM      4  C   UNL A   1      33.096  27.394  23.156  1.00  0.00     0.338 C 
ATOM      5  O   UNL A   1      33.635  28.162  22.371  1.00  0.00    -0.246 OA
BRANCH   4   6
ATOM      6  C   UNL A   1      32.380  26.180  22.695  1.00  0.00     0.087 C 
ATOM      7  C   UNL A   1      32.978  22.718  24.912  1.00  0.00     0.026 A 
ATOM      8  C   UNL A   1      34.214  22.919  25.570  1.00  0.00     0.033 A 
ATOM      9  C   UNL A   1      32.614  23.733  24.004  1.00  0.00     0.135 A 
ATOM     10  C   UNL A   1      35.152  23.820  25.070  1.00  0.00     0.042 A 
ATOM     11  C   UNL A   1      33.628  24.439  23.337  1.00  0.00     0.019 A 
ATOM     12  O   UNL A   1      31.374  24.387  24.155  1.00  0.00    -0.475 OA
ATOM     13  Cl  UNL A   1      36.669  23.995  25.855  1.00  0.00    -0.084 Cl
ATOM     14  C   UNL A   1      34.902  24.504  23.889  1.00  0.00     0.032 A 
ATOM     15  C   UNL A   1      33.257  25.296  22.191  1.00  0.00     0.027 C 
ATOM     16  C   UNL A   1      31.126  25.566  23.281  1.00  0.00     0.316 C 
BRANCH   7  17
ATOM     17  C   UNL A   1      32.670  21.252  24.701  1.00  0.00    -0.015 A 
ATOM     18  C   UNL A   1      32.928  18.477  23.959  1.00  0.00     0.007 A 
ATOM     19  C   UNL A   1      33.257  18.928  25.243  1.00  0.00     0.015 A 
ATOM     20  C   UNL A   1      32.412  19.412  23.063  1.00  0.00     0.015 A 
ATOM     21  C   UNL A   1      33.115  20.279  25.614  1.00  0.00     0.010 A 
ATOM     22  C   UNL A   1      32.272  20.772  23.433  1.00  0.00     0.010 A 
BRANCH  18  23
ATOM     23  S   UNL A   1      33.325  16.767  23.605  1.00  0.00    -0.126 SA
BRANCH  23  24
ATOM     24  C   UNL A   1      33.807  16.005  25.193  1.00  0.00     0.071 C 
ATOM     25  C   UNL A   1      35.310  15.857  25.335  1.00  0.00     0.016 C 
ENDBRANCH  23  24
ENDBRANCH  18  23
ENDBRANCH   7  17
BRANCH  16  26
ATOM     26  C   UNL A   1      30.075  26.586  23.775  1.00  0.00     0.430 C 
ATOM     27  F   UNL A   1      28.846  25.997  23.769  1.00  0.00    -0.167 F 
ATOM     28  F   UNL A   1      30.305  26.973  25.050  1.00  0.00    -0.167 F 
ATOM     29  F   UNL A   1      29.969  27.705  23.034  1.00  0.00    -0.167 F 
ENDBRANCH  16  26
ENDBRANCH   4   6
ENDBRANCH   3   4
ENDBRANCH   2   3
ENDBRANCH   1   2
BRANCH   1  30
ATOM     30  O   UNL A   1      32.606  30.615  26.378  1.00  0.00    -0.374 OA
BRANCH  30  31
ATOM     31  C   UNL A   1      31.497  31.455  26.689  1.00  0.00     0.202 C 
BRANCH  31  32
ATOM     32  C   UNL A   1      31.745  32.952  26.898  1.00  0.00     0.261 C 
BRANCH  32  33
ATOM     33  O   UNL A   1      33.096  33.267  27.269  1.00  0.00    -0.460 OA
BRANCH  33  34
ATOM     34  C   UNL A   1      33.211  34.198  28.243  1.00  0.00     0.338 C 
ATOM     35  O   UNL A   1      32.459  35.138  28.474  1.00  0.00    -0.246 OA
BRANCH  34  36
ATOM     36  C   UNL A   1      34.325  33.856  29.134  1.00  0.00     0.060 A 
ATOM     37  C   UNL A   1      35.616  34.249  28.759  1.00  0.00     0.016 A 
ATOM     38  C   UNL A   1      34.118  33.066  30.265  1.00  0.00     0.016 A 
ATOM     39  C   UNL A   1      36.714  33.820  29.498  1.00  0.00     0.010 A 
ATOM     40  C   UNL A   1      35.222  32.630  31.001  1.00  0.00     0.010 A 
ATOM     41  C   UNL A   1      36.526  32.978  30.602  1.00  0.00    -0.014 A 
BRANCH  41  42
ATOM     42  C   UNL A   1      37.696  32.353  31.258  1.00  0.00     0.031 A 
ATOM     43  C   UNL A   1      38.440  31.263  30.541  1.00  0.00     0.074 A 
ATOM     44  C   UNL A   1      38.094  32.765  32.474  1.00  0.00     0.049 A 
ATOM     45  N   UNL A   1      39.447  30.535  30.950  1.00  0.00    -0.248 NA
ATOM     46  C   UNL A   1      37.982  30.947  29.179  1.00  0.00     0.031 C 
ATOM     47  C   UNL A   1      37.471  33.838  33.245  1.00  0.00     0.029 A 
ATOM     48  N   UNL A   1      39.114  32.318  33.276  1.00  0.00    -0.354 N 
ATOM     49  C   UNL A   1      39.738  29.672  29.902  1.00  0.00     0.074 A 
ATOM     50  C   UNL A   1      38.780  29.941  28.852  1.00  0.00     0.031 C 
ATOM     51  C   UNL A   1      38.111  33.957  34.420  1.00  0.00     0.029 A 
ATOM     52  C   UNL A   1      39.163  32.945  34.496  1.00  0.00     0.049 A 
ATOM     53  H   UNL A   1      39.748  31.616  33.004  1.00  0.00     0.167 HD
ATOM     54  C   UNL A   1      40.725  28.747  29.821  1.00  0.00     0.037 A 
ATOM     55  C   UNL A   1      39.950  32.706  35.562  1.00  0.00     0.037 A 
ATOM     56  C   UNL A   1      41.671  28.483  30.874  1.00  0.00     0.049 A 
ATOM     57  C   UNL A   1      40.992  31.621  35.476  1.00  0.00     0.074 A 
ATOM     58  C   UNL A   1      42.717  27.577  30.890  1.00  0.00     0.029 A 
ATOM     59  N   UNL A   1      41.677  29.123  32.106  1.00  0.00    -0.354 N 
ATOM     60  N   UNL A   1      41.278  30.824  34.474  1.00  0.00    -0.248 NA
ATOM     61  C   UNL A   1      41.824  31.406  36.668  1.00  0.00     0.031 C 
ATOM     62  C   UNL A   1      43.318  27.626  32.152  1.00  0.00     0.029 A 
ATOM     63  C   UNL A   1      42.691  28.611  32.900  1.00  0.00     0.049 A 
ATOM     64  H   UNL A   1      41.053  29.835  32.376  1.00  0.00     0.167 HD
ATOM     65  C   UNL A   1      42.340  30.037  34.901  1.00  0.00     0.074 A 
ATOM     66  C   UNL A   1      42.656  30.462  36.249  1.00  0.00     0.031 C 
ATOM     67  C   UNL A   1      42.995  29.051  34.239  1.00  0.00     0.037 A 
BRANCH  54  68
ATOM     68  C   UNL A   1      40.811  27.932  28.561  1.00  0.00     0.064 A 
ATOM     69  C   UNL A   1      40.131  26.712  28.421  1.00  0.00     0.173 A 
ATOM     70  C   UNL A   1      41.561  28.390  27.468  1.00  0.00     0.173 A 
ATOM     71  F   UNL A   1      39.410  26.221  29.440  1.00  0.00    -0.203 F 
ATOM     72  C   UNL A   1      40.226  25.968  27.247  1.00  0.00     0.198 A 
ATOM     73  C   UNL A   1      41.626  27.661  26.283  1.00  0.00     0.198 A 
ATOM     74  F   UNL A   1      42.227  29.553  27.543  1.00  0.00    -0.203 F 
ATOM     75  F   UNL A   1      39.612  24.779  27.158  1.00  0.00    -0.200 F 
ATOM     76  C   UNL A   1      40.967  26.446  26.177  1.00  0.00     0.200 A 
ATOM     77  F   UNL A   1      42.330  28.132  25.245  1.00  0.00    -0.200 F 
ATOM     78  F   UNL A   1      41.051  25.732  25.046  1.00  0.00    -0.200 F 
ENDBRANCH  54  68
BRANCH  55  79
ATOM     79  C   UNL A   1      39.772  33.498  36.808  1.00  0.00     0.064 A 
ATOM     80  C   UNL A   1      38.839  33.121  37.781  1.00  0.00     0.173 A 
ATOM     81  C   UNL A   1      40.527  34.658  37.044  1.00  0.00     0.173 A 
ATOM     82  F   UNL A   1      38.077  32.034  37.591  1.00  0.00    -0.203 F 
ATOM     83  C   UNL A   1      38.651  33.882  38.934  1.00  0.00     0.198 A 
ATOM     84  C   UNL A   1      40.362  35.401  38.212  1.00  0.00     0.198 A 
ATOM     85  F   UNL A   1      41.435  35.065  36.145  1.00  0.00    -0.203 F 
ATOM     86  F   UNL A   1      37.715  33.524  39.824  1.00  0.00    -0.200 F 
ATOM     87  C   UNL A   1      39.417  35.017  39.150  1.00  0.00     0.200 A 
ATOM     88  F   UNL A   1      41.115  36.488  38.424  1.00  0.00    -0.200 F 
ATOM     89  F   UNL A   1      39.240  35.746  40.261  1.00  0.00    -0.200 F 
ENDBRANCH  55  79
BRANCH  67  90
ATOM     90  C   UNL A   1      44.149  28.393  34.944  1.00  0.00     0.064 A 
ATOM     91  C   UNL A   1      43.984  27.225  35.702  1.00  0.00     0.173 A 
ATOM     92  C   UNL A   1      45.445  28.918  34.823  1.00  0.00     0.173 A 
ATOM     93  F   UNL A   1      42.764  26.689  35.861  1.00  0.00    -0.203 F 
ATOM     94  C   UNL A   1      45.068  26.626  36.338  1.00  0.00     0.198 A 
ATOM     95  C   UNL A   1      46.532  28.296  35.430  1.00  0.00     0.198 A 
ATOM     96  F   UNL A   1      45.660  30.029  34.102  1.00  0.00    -0.203 F 
ATOM     97  F   UNL A   1      44.878  25.540  37.102  1.00  0.00    -0.200 F 
ATOM     98  C   UNL A   1      46.342  27.156  36.195  1.00  0.00     0.200 A 
ATOM     99  F   UNL A   1      47.764  28.801  35.276  1.00  0.00    -0.200 F 
ATOM    100  F   UNL A   1      47.384  26.572  36.800  1.00  0.00    -0.200 F 
ENDBRANCH  67  90
ENDBRANCH  41  42
ENDBRANCH  34  36
ENDBRANCH  33  34
ENDBRANCH  32  33
ENDBRANCH  31  32
ENDBRANCH  30  31
ENDBRANCH   1  30
TORSDOF 18
ENDMDL
MODEL 2
REMARK VINA RESULT:     -12.1      1.313      2.265
REMARK SMILES CCSc1ccc(-c2cc(Cl)cc3c2O[C@@H](C(F)(F)F)C(C(=O)OCCOCCOC(=O)c2ccc(-c4c5nc(c(-c6c(F)c(F)c(F)c(F)c6F)c6ccc([nH]6)c(-c6c(F)c(F)c(F)c(F)c6F)c6nc(c(-c7c(F)c(F)c(F)c(F)c7F)c7ccc4[nH]7)C=C6)C=C5)cc2)=C3)cc1
REMARK SMILES IDX 26 1 25 2 24 3 22 4 23 5 21 6 8 7 9 8 14 9 10 10 13 11 15 12
REMARK SMILES IDX 11 13 12 14 96 15 16 16 7 17 4 18 5 19 98 20 6 21 97 22 3 23
REMARK SMILES IDX 2 24 1 25 17 26 18 27 19 28 20 29 27 30 28 31 29 32 30 33
REMARK SMILES IDX 31 34 32 35 33 36 34 37 95 38 35 39 94 40 36 41 37 42 38 43
REMARK SMILES IDX 88 44 39 45 93 46 87 47 89 48 40 49 92 50 86 51 85 52 41 54
REMARK SMILES IDX 73 55 53 56 72 57 54 58 57 59 71 60 90 61 55 62 56 63 70 65
REMARK SMILES IDX 91 66 58 67 42 68 43 69 51 70 44 71 45 72 49 73 52 74 46 75
REMARK SMILES IDX 47 76 50 77 48 78 74 79 75 80 83 81 76 82 77 83 81 84 84 85
REMARK SMILES IDX 78 86 79 87 82 88 80 89 59 90 60 91 68 92 61 93 62 94 66 95
REMARK SMILES IDX 69 96 63 97 64 98 67 99 65 100
REMARK H PARENT 89 53 57 64
REMARK Flexibility Score: inf
ROOT
ATOM      1  C   UNL A   1      33.971  29.634  27.604  1.00  0.00     0.202 C 
ENDROOT
BRANCH   1   2
ATOM      2  C   UNL A   1      32.996  28.589  27.038  1.00  0.00     0.261 C 
BRANCH   2   3
ATOM      3  O   UNL A   1      33.165  28.359  25.632  1.00  0.00    -0.460 OA
BRANCH   3   4
ATOM      4  C   UNL A   1      32.549  27.267  25.141  1.00  0.00     0.338 C 
ATOM      5  O   UNL A   1      31.337  27.120  25.051  1.00  0.00    -0.246 OA
BRANCH   4   6
ATOM      6  C   UNL A   1      33.501  26.300  24.544  1.00  0.00     0.087 C 
ATOM      7  C   UNL A   1      32.163  22.387  24.144  1.00  0.00     0.026 A 
ATOM      8  C   UNL A   1      31.127  22.260  25.097  1.00  0.00     0.033 A 
ATOM      9  C   UNL A   1      32.850  23.618  24.170  1.00  0.00     0.135 A 
ATOM     10  C   UNL A   1      31.066  23.104  26.204  1.00  0.00     0.042 A 
ATOM     11  C   UNL A   1      32.968  24.300  25.392  1.00  0.00     0.019 A 
ATOM     12  O   UNL A   1      32.929  24.393  22.995  1.00  0.00    -0.475 OA
ATOM     13  Cl  UNL A   1      29.834  22.883  27.379  1.00  0.00    -0.084 Cl
ATOM     14  C   UNL A   1      32.053  24.059  26.408  1.00  0.00     0.032 A 
ATOM     15  C   UNL A   1      33.916  25.431  25.481  1.00  0.00     0.027 C 
ATOM     16  C   UNL A   1      33.508  25.758  23.130  1.00  0.00     0.316 C 
BRANCH   7  17
ATOM     17  C   UNL A   1      32.825  21.062  23.830  1.00  0.00    -0.015 A 
ATOM     18  C   UNL A   1      33.547  18.271  23.921  1.00  0.00     0.007 A 
ATOM     19  C   UNL A   1      32.525  18.740  23.086  1.00  0.00     0.015 A 
ATOM     20  C   UNL A   1      34.248  19.216  24.669  1.00  0.00     0.015 A 
ATOM     21  C   UNL A   1      32.182  20.104  23.026  1.00  0.00     0.010 A 
ATOM     22  C   UNL A   1      33.901  20.589  24.613  1.00  0.00     0.010 A 
BRANCH  18  23
ATOM     23  S   UNL A   1      33.741  16.493  24.000  1.00  0.00    -0.126 SA
BRANCH  23  24
ATOM     24  C   UNL A   1      33.314  15.998  25.705  1.00  0.00     0.071 C 
ATOM     25  C   UNL A   1      32.200  14.970  25.752  1.00  0.00     0.016 C 
ENDBRANCH  23  24
ENDBRANCH  18  23
ENDBRANCH   7  17
BRANCH  16  26
ATOM     26  C   UNL A   1      33.121  26.786  22.041  1.00  0.00     0.430 C 
ATOM     27  F   UNL A   1      33.315  26.228  20.814  1.00  0.00    -0.167 F 
ATOM     28  F   UNL A   1      31.812  27.121  22.104  1.00  0.00    -0.167 F 
ATOM     29  F   UNL A   1      33.825  27.933  22.059  1.00  0.00    -0.167 F 
ENDBRANCH  16  26
ENDBRANCH   4   6
ENDBRANCH   3   4
ENDBRANCH   2   3
ENDBRANCH   1   2
BRANCH   1  30
ATOM     30  O   UNL A   1      33.743  31.006  27.314  1.00  0.00    -0.374 OA
BRANCH  30  31
ATOM     31  C   UNL A   1      32.403  31.437  27.091  1.00  0.00     0.202 C 
BRANCH  31  32
ATOM     32  C   UNL A   1      32.061  32.915  27.296  1.00  0.00     0.261 C 
BRANCH  32  33
ATOM     33  O   UNL A   1      33.214  33.768  27.379  1.00  0.00    -0.460 OA
BRANCH  33  34
ATOM     34  C   UNL A   1      33.238  34.580  28.460  1.00  0.00     0.338 C 
ATOM     35  O   UNL A   1      32.396  35.405  28.796  1.00  0.00    -0.246 OA
BRANCH  34  36
ATOM     36  C   UNL A   1      34.383  34.244  29.314  1.00  0.00     0.060 A 
ATOM     37  C   UNL A   1      35.671  34.455  28.805  1.00  0.00     0.016 A 
ATOM     38  C   UNL A   1      34.194  33.630  30.552  1.00  0.00     0.016 A 
ATOM     39  C   UNL A   1      36.780  34.016  29.521  1.00  0.00     0.010 A 
ATOM     40  C   UNL A   1      35.308  33.183  31.266  1.00  0.00     0.010 A 
ATOM     41  C   UNL A   1      36.603  33.345  30.738  1.00  0.00    -0.014 A 
BRANCH  41  42
ATOM     42  C   UNL A   1      37.760  32.694  31.394  1.00  0.00     0.031 A 
ATOM     43  C   UNL A   1      38.430  31.536  30.712  1.00  0.00     0.074 A 
ATOM     44  C   UNL A   1      38.210  33.142  32.578  1.00  0.00     0.049 A 
ATOM     45  N   UNL A   1      39.412  30.779  31.130  1.00  0.00    -0.248 NA
ATOM     46  C   UNL A   1      37.921  31.180  29.379  1.00  0.00     0.031 C 
ATOM     47  C   UNL A   1      37.660  34.279  33.313  1.00  0.00     0.029 A 
ATOM     48  N   UNL A   1      39.229  32.684  33.376  1.00  0.00    -0.354 N 
ATOM     49  C   UNL A   1      39.633  29.855  30.118  1.00  0.00     0.074 A 
ATOM     50  C   UNL A   1      38.660  30.121  29.081  1.00  0.00     0.031 C 
ATOM     51  C   UNL A   1      38.338  34.422  34.464  1.00  0.00     0.029 A 
ATOM     52  C   UNL A   1      39.341  33.364  34.562  1.00  0.00     0.049 A 
ATOM     53  H   UNL A   1      39.821  31.940  33.121  1.00  0.00     0.167 HD
ATOM     54  C   UNL A   1      40.571  28.880  30.056  1.00  0.00     0.037 A 
ATOM     55  C   UNL A   1      40.146  33.137  35.619  1.00  0.00     0.037 A 
ATOM     56  C   UNL A   1      41.532  28.619  31.097  1.00  0.00     0.049 A 
ATOM     57  C   UNL A   1      41.131  31.999  35.558  1.00  0.00     0.074 A 
ATOM     58  C   UNL A   1      42.533  27.665  31.130  1.00  0.00     0.029 A 
ATOM     59  N   UNL A   1      41.603  29.315  32.296  1.00  0.00    -0.354 N 
ATOM     60  N   UNL A   1      41.351  31.143  34.589  1.00  0.00    -0.248 NA
ATOM     61  C   UNL A   1      41.985  31.799  36.738  1.00  0.00     0.031 C 
ATOM     62  C   UNL A   1      43.171  27.744  32.373  1.00  0.00     0.029 A 
ATOM     63  C   UNL A   1      42.613  28.792  33.088  1.00  0.00     0.049 A 
ATOM     64  H   UNL A   1      41.021  30.069  32.548  1.00  0.00     0.167 HD
ATOM     65  C   UNL A   1      42.386  30.325  35.027  1.00  0.00     0.074 A 
ATOM     66  C   UNL A   1      42.759  30.797  36.344  1.00  0.00     0.031 C 
ATOM     67  C   UNL A   1      42.974  29.279  34.396  1.00  0.00     0.037 A 
BRANCH  54  68
ATOM     68  C   UNL A   1      40.583  28.004  28.836  1.00  0.00     0.064 A 
ATOM     69  C   UNL A   1      39.841  26.814  28.771  1.00  0.00     0.173 A 
ATOM     70  C   UNL A   1      41.326  28.372  27.703  1.00  0.00     0.173 A 
ATOM     71  F   UNL A   1      39.123  26.408  29.829  1.00  0.00    -0.203 F 
ATOM     72  C   UNL A   1      39.868  26.012  27.632  1.00  0.00     0.198 A 
ATOM     73  C   UNL A   1      41.323  27.585  26.554  1.00  0.00     0.198 A 
ATOM     74  F   UNL A   1      42.050  29.502  27.707  1.00  0.00    -0.203 F 
ATOM     75  F   UNL A   1      39.194  24.853  27.615  1.00  0.00    -0.200 F 
ATOM     76  C   UNL A   1      40.603  26.402  26.523  1.00  0.00     0.200 A 
ATOM     77  F   UNL A   1      42.022  27.971  25.478  1.00  0.00    -0.200 F 
ATOM     78  F   UNL A   1      40.622  25.633  25.426  1.00  0.00    -0.200 F 
ENDBRANCH  54  68
BRANCH  55  79
ATOM     79  C   UNL A   1      40.040  33.994  36.828  1.00  0.00     0.064 A 
ATOM     80  C   UNL A   1      40.847  35.128  36.988  1.00  0.00     0.173 A 
ATOM     81  C   UNL A   1      39.134  33.690  37.857  1.00  0.00     0.173 A 
ATOM     82  F   UNL A   1      41.745  35.448  36.045  1.00  0.00    -0.203 F 
ATOM     83  C   UNL A   1      40.768  35.913  38.136  1.00  0.00     0.198 A 
ATOM     84  C   UNL A   1      39.032  34.494  38.990  1.00  0.00     0.198 A 
ATOM     85  F   UNL A   1      38.337  32.616  37.755  1.00  0.00    -0.203 F 
ATOM     86  F   UNL A   1      41.588  36.962  38.285  1.00  0.00    -0.200 F 
ATOM     87  C   UNL A   1      39.856  35.599  39.133  1.00  0.00     0.200 A 
ATOM     88  F   UNL A   1      38.140  34.195  39.943  1.00  0.00    -0.200 F 
ATOM     89  F   UNL A   1      39.778  36.357  40.235  1.00  0.00    -0.200 F 
ENDBRANCH  55  79
BRANCH  67  90
ATOM     90  C   UNL A   1      44.114  28.599  35.102  1.00  0.00     0.064 A 
ATOM     91  C   UNL A   1      45.438  29.042  34.969  1.00  0.00     0.173 A 
ATOM     92  C   UNL A   1      43.870  27.512  35.958  1.00  0.00     0.173 A 
ATOM     93  F   UNL A   1      45.729  30.067  34.153  1.00  0.00    -0.203 F 
ATOM     94  C   UNL A   1      46.478  28.403  35.640  1.00  0.00     0.198 A 
ATOM     95  C   UNL A   1      44.907  26.899  36.655  1.00  0.00     0.198 A 
ATOM     96  F   UNL A   1      42.621  27.054  36.128  1.00  0.00    -0.203 F 
ATOM     97  F   UNL A   1      47.742  28.810  35.455  1.00  0.00    -0.200 F 
ATOM     98  C   UNL A   1      46.211  27.339  36.489  1.00  0.00     0.200 A 
ATOM     99  F   UNL A   1      44.643  25.883  37.488  1.00  0.00    -0.200 F 
ATOM    100  F   UNL A   1      47.212  26.733  37.141  1.00  0.00    -0.200 F 
ENDBRANCH  67  90
ENDBRANCH  41  42
ENDBRANCH  34  36
ENDBRANCH  33  34
ENDBRANCH  32  33
ENDBRANCH  31  32
ENDBRANCH  30  31
ENDBRANCH   1  30
TORSDOF 18
ENDMDL
MODEL 3
REMARK VINA RESULT:     -12.1      1.276      7.166
REMARK SMILES CCSc1ccc(-c2cc(Cl)cc3c2O[C@@H](C(F)(F)F)C(C(=O)OCCOCCOC(=O)c2ccc(-c4c5nc(c(-c6c(F)c(F)c(F)c(F)c6F)c6ccc([nH]6)c(-c6c(F)c(F)c(F)c(F)c6F)c6nc(c(-c7c(F)c(F)c(F)c(F)c7F)c7ccc4[nH]7)C=C6)C=C5)cc2)=C3)cc1
REMARK SMILES IDX 26 1 25 2 24 3 22 4 23 5 21 6 8 7 9 8 14 9 10 10 13 11 15 12
REMARK SMILES IDX 11 13 12 14 96 15 16 16 7 17 4 18 5 19 98 20 6 21 97 22 3 23
REMARK SMILES IDX 2 24 1 25 17 26 18 27 19 28 20 29 27 30 28 31 29 32 30 33
REMARK SMILES IDX 31 34 32 35 33 36 34 37 95 38 35 39 94 40 36 41 37 42 38 43
REMARK SMILES IDX 88 44 39 45 93 46 87 47 89 48 40 49 92 50 86 51 85 52 41 54
REMARK SMILES IDX 73 55 53 56 72 57 54 58 57 59 71 60 90 61 55 62 56 63 70 65
REMARK SMILES IDX 91 66 58 67 42 68 43 69 51 70 44 71 45 72 49 73 52 74 46 75
REMARK SMILES IDX 47 76 50 77 48 78 74 79 75 80 83 81 76 82 77 83 81 84 84 85
REMARK SMILES IDX 78 86 79 87 82 88 80 89 59 90 60 91 68 92 61 93 62 94 66 95
REMARK SMILES IDX 69 96 63 97 64 98 67 99 65 100
REMARK H PARENT 89 53 57 64
REMARK Flexibility Score: inf
ROOT
ATOM      1  C   UNL A   1      34.075  29.999  27.161  1.00  0.00     0.202 C 
ENDROOT
BRANCH   1   2
ATOM      2  C   UNL A   1      32.980  28.994  26.774  1.00  0.00     0.261 C 
BRANCH   2   3
ATOM      3  O   UNL A   1      33.129  28.477  25.443  1.00  0.00    -0.460 OA
BRANCH   3   4
ATOM      4  C   UNL A   1      32.555  27.280  25.214  1.00  0.00     0.338 C 
ATOM      5  O   UNL A   1      31.362  27.034  25.334  1.00  0.00    -0.246 OA
BRANCH   4   6
ATOM      6  C   UNL A   1      33.500  26.303  24.624  1.00  0.00     0.087 C 
ATOM      7  C   UNL A   1      32.098  22.422  24.142  1.00  0.00     0.026 A 
ATOM      8  C   UNL A   1      31.040  22.302  25.072  1.00  0.00     0.033 A 
ATOM      9  C   UNL A   1      32.807  23.640  24.199  1.00  0.00     0.135 A 
ATOM     10  C   UNL A   1      30.972  23.133  26.189  1.00  0.00     0.042 A 
ATOM     11  C   UNL A   1      32.913  24.302  25.433  1.00  0.00     0.019 A 
ATOM     12  O   UNL A   1      32.925  24.429  23.037  1.00  0.00    -0.475 OA
ATOM     13  Cl  UNL A   1      29.711  22.919  27.335  1.00  0.00    -0.084 Cl
ATOM     14  C   UNL A   1      31.972  24.066  26.427  1.00  0.00     0.032 A 
ATOM     15  C   UNL A   1      33.879  25.414  25.557  1.00  0.00     0.027 C 
ATOM     16  C   UNL A   1      33.527  25.781  23.203  1.00  0.00     0.316 C 
BRANCH   7  17
ATOM     17  C   UNL A   1      32.740  21.090  23.824  1.00  0.00    -0.015 A 
ATOM     18  C   UNL A   1      33.342  18.269  23.825  1.00  0.00     0.007 A 
ATOM     19  C   UNL A   1      32.439  18.827  22.912  1.00  0.00     0.015 A 
ATOM     20  C   UNL A   1      33.990  19.139  24.701  1.00  0.00     0.015 A 
ATOM     21  C   UNL A   1      32.156  20.207  22.898  1.00  0.00     0.010 A 
ATOM     22  C   UNL A   1      33.704  20.526  24.690  1.00  0.00     0.010 A 
BRANCH  18  23
ATOM     23  S   UNL A   1      33.460  16.483  23.817  1.00  0.00    -0.126 SA
BRANCH  23  24
ATOM     24  C   UNL A   1      34.121  15.997  25.448  1.00  0.00     0.071 C 
ATOM     25  C   UNL A   1      35.625  15.801  25.433  1.00  0.00     0.016 C 
ENDBRANCH  23  24
ENDBRANCH  18  23
ENDBRANCH   7  17
BRANCH  16  26
ATOM     26  C   UNL A   1      33.182  26.830  22.121  1.00  0.00     0.430 C 
ATOM     27  F   UNL A   1      31.889  27.228  22.284  1.00  0.00    -0.167 F 
ATOM     28  F   UNL A   1      33.940  27.944  22.237  1.00  0.00    -0.167 F 
ATOM     29  F   UNL A   1      33.296  26.403  20.850  1.00  0.00    -0.167 F 
ENDBRANCH  16  26
ENDBRANCH   4   6
ENDBRANCH   3   4
ENDBRANCH   2   3
ENDBRANCH   1   2
BRANCH   1  30
ATOM     30  O   UNL A   1      33.693  31.320  27.517  1.00  0.00    -0.374 OA
BRANCH  30  31
ATOM     31  C   UNL A   1      32.360  31.738  27.235  1.00  0.00     0.202 C 
BRANCH  31  32
ATOM     32  C   UNL A   1      32.044  33.236  27.228  1.00  0.00     0.261 C 
BRANCH  32  33
ATOM     33  O   UNL A   1      33.205  34.072  27.364  1.00  0.00    -0.460 OA
BRANCH  33  34
ATOM     34  C   UNL A   1      33.271  34.760  28.526  1.00  0.00     0.338 C 
ATOM     35  O   UNL A   1      32.495  35.615  28.936  1.00  0.00    -0.246 OA
BRANCH  34  36
ATOM     36  C   UNL A   1      34.363  34.237  29.356  1.00  0.00     0.060 A 
ATOM     37  C   UNL A   1      35.679  34.542  28.986  1.00  0.00     0.016 A 
ATOM     38  C   UNL A   1      34.100  33.371  30.417  1.00  0.00     0.016 A 
ATOM     39  C   UNL A   1      36.743  33.948  29.656  1.00  0.00     0.010 A 
ATOM     40  C   UNL A   1      35.170  32.770  31.085  1.00  0.00     0.010 A 
ATOM     41  C   UNL A   1      36.494  33.031  30.686  1.00  0.00    -0.014 A 
BRANCH  41  42
ATOM     42  C   UNL A   1      37.611  32.244  31.255  1.00  0.00     0.031 A 
ATOM     43  C   UNL A   1      38.108  32.574  32.634  1.00  0.00     0.074 A 
ATOM     44  C   UNL A   1      38.165  31.242  30.552  1.00  0.00     0.049 A 
ATOM     45  N   UNL A   1      39.111  32.062  33.301  1.00  0.00    -0.248 NA
ATOM     46  C   UNL A   1      37.378  33.627  33.357  1.00  0.00     0.031 C 
ATOM     47  C   UNL A   1      37.739  30.812  29.222  1.00  0.00     0.029 A 
ATOM     48  N   UNL A   1      39.213  30.411  30.859  1.00  0.00    -0.354 N 
ATOM     49  C   UNL A   1      39.137  32.734  34.516  1.00  0.00     0.074 A 
ATOM     50  C   UNL A   1      38.074  33.715  34.481  1.00  0.00     0.031 C 
ATOM     51  C   UNL A   1      38.532  29.805  28.817  1.00  0.00     0.029 A 
ATOM     52  C   UNL A   1      39.540  29.547  29.843  1.00  0.00     0.049 A 
ATOM     53  H   UNL A   1      39.685  30.433  31.722  1.00  0.00     0.167 HD
ATOM     54  C   UNL A   1      39.966  32.540  35.569  1.00  0.00     0.037 A 
ATOM     55  C   UNL A   1      40.557  28.670  29.745  1.00  0.00     0.037 A 
ATOM     56  C   UNL A   1      41.026  31.564  35.591  1.00  0.00     0.049 A 
ATOM     57  C   UNL A   1      41.514  28.525  30.900  1.00  0.00     0.074 A 
ATOM     58  C   UNL A   1      41.916  31.277  36.611  1.00  0.00     0.029 A 
ATOM     59  N   UNL A   1      41.342  30.721  34.535  1.00  0.00    -0.354 N 
ATOM     60  N   UNL A   1      41.519  29.146  32.055  1.00  0.00    -0.248 NA
ATOM     61  C   UNL A   1      42.603  27.551  30.739  1.00  0.00     0.031 C 
ATOM     62  C   UNL A   1      42.808  30.303  36.151  1.00  0.00     0.029 A 
ATOM     63  C   UNL A   1      42.432  29.933  34.870  1.00  0.00     0.049 A 
ATOM     64  H   UNL A   1      40.863  30.687  33.676  1.00  0.00     0.167 HD
ATOM     65  C   UNL A   1      42.588  28.619  32.769  1.00  0.00     0.074 A 
ATOM     66  C   UNL A   1      43.200  27.617  31.921  1.00  0.00     0.031 C 
ATOM     67  C   UNL A   1      43.025  28.934  34.014  1.00  0.00     0.037 A 
BRANCH  54  68
ATOM     68  C   UNL A   1      39.781  33.422  36.771  1.00  0.00     0.064 A 
ATOM     69  C   UNL A   1      40.453  34.647  36.902  1.00  0.00     0.173 A 
ATOM     70  C   UNL A   1      38.897  33.050  37.796  1.00  0.00     0.173 A 
ATOM     71  F   UNL A   1      41.319  35.045  35.958  1.00  0.00    -0.203 F 
ATOM     72  C   UNL A   1      40.271  35.449  38.026  1.00  0.00     0.198 A 
ATOM     73  C   UNL A   1      38.692  33.871  38.902  1.00  0.00     0.198 A 
ATOM     74  F   UNL A   1      38.223  31.892  37.722  1.00  0.00    -0.203 F 
ATOM     75  F   UNL A   1      40.966  36.589  38.153  1.00  0.00    -0.200 F 
ATOM     76  C   UNL A   1      39.386  35.065  39.021  1.00  0.00     0.200 A 
ATOM     77  F   UNL A   1      37.824  33.504  39.855  1.00  0.00    -0.200 F 
ATOM     78  F   UNL A   1      39.207  35.841  40.098  1.00  0.00    -0.200 F 
ENDBRANCH  54  68
BRANCH  55  79
ATOM     79  C   UNL A   1      40.733  27.875  28.502  1.00  0.00     0.064 A 
ATOM     80  C   UNL A   1      40.108  26.632  28.341  1.00  0.00     0.173 A 
ATOM     81  C   UNL A   1      41.539  28.339  27.451  1.00  0.00     0.173 A 
ATOM     82  F   UNL A   1      39.346  26.133  29.326  1.00  0.00    -0.203 F 
ATOM     83  C   UNL A   1      40.298  25.873  27.187  1.00  0.00     0.198 A 
ATOM     84  C   UNL A   1      41.703  27.595  26.284  1.00  0.00     0.198 A 
ATOM     85  F   UNL A   1      42.160  29.523  27.553  1.00  0.00    -0.203 F 
ATOM     86  F   UNL A   1      39.728  24.664  27.082  1.00  0.00    -0.200 F 
ATOM     87  C   UNL A   1      41.089  26.359  26.158  1.00  0.00     0.200 A 
ATOM     88  F   UNL A   1      42.456  28.075  25.286  1.00  0.00    -0.200 F 
ATOM     89  F   UNL A   1      41.268  25.631  25.046  1.00  0.00    -0.200 F 
ENDBRANCH  55  79
BRANCH  67  90
ATOM     90  C   UNL A   1      44.194  28.159  34.554  1.00  0.00     0.064 A 
ATOM     91  C   UNL A   1      44.027  26.937  35.222  1.00  0.00     0.173 A 
ATOM     92  C   UNL A   1      45.503  28.627  34.363  1.00  0.00     0.173 A 
ATOM     93  F   UNL A   1      42.796  26.450  35.444  1.00  0.00    -0.203 F 
ATOM     94  C   UNL A   1      45.124  26.229  35.706  1.00  0.00     0.198 A 
ATOM     95  C   UNL A   1      46.600  27.900  34.816  1.00  0.00     0.198 A 
ATOM     96  F   UNL A   1      45.720  29.786  33.723  1.00  0.00    -0.203 F 
ATOM     97  F   UNL A   1      44.937  25.091  36.388  1.00  0.00    -0.200 F 
ATOM     98  C   UNL A   1      46.410  26.706  35.495  1.00  0.00     0.200 A 
ATOM     99  F   UNL A   1      47.842  28.354  34.595  1.00  0.00    -0.200 F 
ATOM    100  F   UNL A   1      47.464  26.018  35.952  1.00  0.00    -0.200 F 
ENDBRANCH  67  90
ENDBRANCH  41  42
ENDBRANCH  34  36
ENDBRANCH  33  34
ENDBRANCH  32  33
ENDBRANCH  31  32
ENDBRANCH  30  31
ENDBRANCH   1  30
TORSDOF 18
ENDMDL
