MODEL 1
REMARK VINA RESULT:     -11.7      0.000      0.000
REMARK SMILES O=C(Nc1cccc(F)c1C(=O)OCCOCCOC(=O)c1ccc(-c2c3nc(c(-c4c(F)c(F)c(F)c(F)c4F)c4ccc([nH]4)c(-c4c(F)c(F)c(F)c(F)c4F)c4nc(c(-c5c(F)c(F)c(F)c(F)c5F)c5ccc2[nH]5)C=C4)C=C3)cc1)c1ccc(Cl)nc1
REMARK SMILES IDX 16 1 15 2 14 3 13 4 11 5 12 6 10 7 4 8 5 9 6 10 8 11 7 12
REMARK SMILES IDX 9 13 3 14 1 15 2 16 85 18 86 19 91 20 87 21 90 22 88 23
REMARK SMILES IDX 89 24 17 25 18 26 19 27 20 28 21 29 22 30 23 31 84 32 24 33
REMARK SMILES IDX 83 34 25 35 26 36 27 37 77 38 28 39 82 40 76 41 78 42 29 43
REMARK SMILES IDX 81 44 75 45 74 46 30 48 62 49 42 50 61 51 43 52 46 53 60 54
REMARK SMILES IDX 79 55 44 56 45 57 59 59 80 60 47 61 31 62 32 63 40 64 33 65
REMARK SMILES IDX 34 66 38 67 41 68 35 69 36 70 39 71 37 72 63 73 64 74 72 75
REMARK SMILES IDX 65 76 66 77 70 78 73 79 67 80 68 81 71 82 69 83 48 84 49 85
REMARK SMILES IDX 57 86 50 87 51 88 55 89 58 90 52 91 53 92 56 93 54 94
REMARK H PARENT 3 17 78 47 46 58
REMARK Flexibility Score: inf
ROOT
ATOM      1  O   UNL A   1      33.059  30.936  27.627  1.00  0.00    -0.374 OA
ENDROOT
BRANCH   1   2
ATOM      2  C   UNL A   1      34.014  30.165  26.896  1.00  0.00     0.202 C 
BRANCH   2   3
ATOM      3  C   UNL A   1      34.045  28.673  27.229  1.00  0.00     0.261 C 
BRANCH   3   4
ATOM      4  O   UNL A   1      33.219  27.948  26.303  1.00  0.00    -0.460 OA
BRANCH   4   5
ATOM      5  C   UNL A   1      31.955  27.723  26.716  1.00  0.00     0.343 C 
ATOM      6  O   UNL A   1      31.510  27.877  27.846  1.00  0.00    -0.246 OA
BRANCH   5   7
ATOM      7  C   UNL A   1      31.088  27.483  25.555  1.00  0.00     0.119 A 
ATOM      8  C   UNL A   1      30.399  26.261  25.441  1.00  0.00     0.059 A 
ATOM      9  C   UNL A   1      29.644  26.013  24.286  1.00  0.00     0.027 A 
ATOM     10  C   UNL A   1      29.592  26.955  23.255  1.00  0.00     0.005 A 
ATOM     11  C   UNL A   1      31.028  28.417  24.524  1.00  0.00     0.139 A 
ATOM     12  C   UNL A   1      30.285  28.158  23.375  1.00  0.00     0.040 A 
ATOM     13  F   UNL A   1      31.709  29.570  24.599  1.00  0.00    -0.206 F 
BRANCH   8  14
ATOM     14  N   UNL A   1      30.420  25.322  26.499  1.00  0.00    -0.321 N 
ATOM     15  O   UNL A   1      30.670  23.224  27.332  1.00  0.00    -0.269 OA
ATOM     16  C   UNL A   1      31.034  24.090  26.542  1.00  0.00     0.257 C 
ATOM     17  H   UNL A   1      29.932  25.584  27.312  1.00  0.00     0.170 HD
BRANCH  16  18
ATOM     18  C   UNL A   1      32.232  23.852  25.712  1.00  0.00     0.058 A 
ATOM     19  C   UNL A   1      33.453  24.438  26.043  1.00  0.00     0.018 A 
ATOM     20  C   UNL A   1      32.160  23.092  24.548  1.00  0.00     0.126 A 
ATOM     21  C   UNL A   1      34.564  24.181  25.241  1.00  0.00     0.042 A 
ATOM     22  N   UNL A   1      33.225  22.811  23.762  1.00  0.00    -0.244 NA
ATOM     23  C   UNL A   1      34.397  23.360  24.135  1.00  0.00     0.129 A 
ATOM     24  Cl  UNL A   1      35.723  22.956  23.128  1.00  0.00    -0.062 Cl
ENDBRANCH  16  18
ENDBRANCH   8  14
ENDBRANCH   5   7
ENDBRANCH   4   5
ENDBRANCH   3   4
ENDBRANCH   2   3
ENDBRANCH   1   2
BRANCH   1  25
ATOM     25  C   UNL A   1      32.030  31.590  26.883  1.00  0.00     0.202 C 
BRANCH  25  26
ATOM     26  C   UNL A   1      31.865  33.096  27.121  1.00  0.00     0.261 C 
BRANCH  26  27
ATOM     27  O   UNL A   1      33.135  33.759  27.261  1.00  0.00    -0.460 OA
BRANCH  27  28
ATOM     28  C   UNL A   1      33.261  34.512  28.375  1.00  0.00     0.338 C 
ATOM     29  O   UNL A   1      32.528  35.418  28.747  1.00  0.00    -0.246 OA
BRANCH  28  30
ATOM     30  C   UNL A   1      34.343  33.982  29.226  1.00  0.00     0.060 A 
ATOM     31  C   UNL A   1      35.653  34.370  28.918  1.00  0.00     0.016 A 
ATOM     32  C   UNL A   1      34.094  33.071  30.255  1.00  0.00     0.016 A 
ATOM     33  C   UNL A   1      36.725  33.808  29.604  1.00  0.00     0.010 A 
ATOM     34  C   UNL A   1      35.174  32.498  30.935  1.00  0.00     0.010 A 
ATOM     35  C   UNL A   1      36.493  32.838  30.588  1.00  0.00    -0.014 A 
BRANCH  35  36
ATOM     36  C   UNL A   1      37.638  32.079  31.143  1.00  0.00     0.031 A 
ATOM     37  C   UNL A   1      38.084  32.357  32.550  1.00  0.00     0.074 A 
ATOM     38  C   UNL A   1      38.241  31.120  30.420  1.00  0.00     0.049 A 
ATOM     39  N   UNL A   1      39.062  31.820  33.235  1.00  0.00    -0.248 NA
ATOM     40  C   UNL A   1      37.320  33.376  33.289  1.00  0.00     0.031 C 
ATOM     41  C   UNL A   1      37.863  30.725  29.066  1.00  0.00     0.029 A 
ATOM     42  N   UNL A   1      39.297  30.300  30.732  1.00  0.00    -0.354 N 
ATOM     43  C   UNL A   1      39.026  32.428  34.481  1.00  0.00     0.074 A 
ATOM     44  C   UNL A   1      37.956  33.402  34.451  1.00  0.00     0.031 C 
ATOM     45  C   UNL A   1      38.674  29.734  28.661  1.00  0.00     0.029 A 
ATOM     46  C   UNL A   1      39.646  29.446  29.716  1.00  0.00     0.049 A 
ATOM     47  H   UNL A   1      39.759  30.324  31.600  1.00  0.00     0.167 HD
ATOM     48  C   UNL A   1      39.809  32.186  35.559  1.00  0.00     0.037 A 
ATOM     49  C   UNL A   1      40.644  28.545  29.645  1.00  0.00     0.037 A 
ATOM     50  C   UNL A   1      40.878  31.223  35.586  1.00  0.00     0.049 A 
ATOM     51  C   UNL A   1      41.560  28.357  30.823  1.00  0.00     0.074 A 
ATOM     52  C   UNL A   1      41.730  30.909  36.629  1.00  0.00     0.029 A 
ATOM     53  N   UNL A   1      41.243  30.421  34.514  1.00  0.00    -0.354 N 
ATOM     54  N   UNL A   1      41.525  28.938  31.997  1.00  0.00    -0.248 NA
ATOM     55  C   UNL A   1      42.657  27.390  30.666  1.00  0.00     0.031 C 
ATOM     56  C   UNL A   1      42.641  29.950  36.175  1.00  0.00     0.029 A 
ATOM     57  C   UNL A   1      42.324  29.630  34.864  1.00  0.00     0.049 A 
ATOM     58  H   UNL A   1      40.800  30.417  33.635  1.00  0.00     0.167 HD
ATOM     59  C   UNL A   1      42.576  28.397  32.725  1.00  0.00     0.074 A 
ATOM     60  C   UNL A   1      43.229  27.433  31.862  1.00  0.00     0.031 C 
ATOM     61  C   UNL A   1      42.963  28.674  33.994  1.00  0.00     0.037 A 
BRANCH  48  62
ATOM     62  C   UNL A   1      39.546  32.988  36.799  1.00  0.00     0.064 A 
ATOM     63  C   UNL A   1      38.546  32.599  37.701  1.00  0.00     0.173 A 
ATOM     64  C   UNL A   1      40.258  34.166  37.074  1.00  0.00     0.173 A 
ATOM     65  F   UNL A   1      37.834  31.483  37.482  1.00  0.00    -0.203 F 
ATOM     66  C   UNL A   1      38.262  33.362  38.830  1.00  0.00     0.198 A 
ATOM     67  C   UNL A   1      39.989  34.913  38.218  1.00  0.00     0.198 A 
ATOM     68  F   UNL A   1      41.235  34.573  36.249  1.00  0.00    -0.203 F 
ATOM     69  F   UNL A   1      37.287  32.982  39.667  1.00  0.00    -0.200 F 
ATOM     70  C   UNL A   1      38.988  34.515  39.091  1.00  0.00     0.200 A 
ATOM     71  F   UNL A   1      40.709  36.013  38.482  1.00  0.00    -0.200 F 
ATOM     72  F   UNL A   1      38.726  35.240  40.188  1.00  0.00    -0.200 F 
ENDBRANCH  48  62
BRANCH  49  73
ATOM     73  C   UNL A   1      40.814  27.745  28.405  1.00  0.00     0.064 A 
ATOM     74  C   UNL A   1      40.210  26.488  28.261  1.00  0.00     0.173 A 
ATOM     75  C   UNL A   1      41.616  28.209  27.355  1.00  0.00     0.173 A 
ATOM     76  F   UNL A   1      39.430  26.002  29.239  1.00  0.00    -0.203 F 
ATOM     77  C   UNL A   1      40.423  25.713  27.124  1.00  0.00     0.198 A 
ATOM     78  C   UNL A   1      41.813  27.443  26.208  1.00  0.00     0.198 A 
ATOM     79  F   UNL A   1      42.195  29.417  27.438  1.00  0.00    -0.203 F 
ATOM     80  F   UNL A   1      39.862  24.500  27.026  1.00  0.00    -0.200 F 
ATOM     81  C   UNL A   1      41.224  26.192  26.097  1.00  0.00     0.200 A 
ATOM     82  F   UNL A   1      42.569  27.918  25.209  1.00  0.00    -0.200 F 
ATOM     83  F   UNL A   1      41.427  25.448  25.001  1.00  0.00    -0.200 F 
ENDBRANCH  49  73
BRANCH  61  84
ATOM     84  C   UNL A   1      44.137  27.919  34.547  1.00  0.00     0.064 A 
ATOM     85  C   UNL A   1      43.948  26.693  35.203  1.00  0.00     0.173 A 
ATOM     86  C   UNL A   1      45.434  28.450  34.503  1.00  0.00     0.173 A 
ATOM     87  F   UNL A   1      42.725  26.149  35.278  1.00  0.00    -0.203 F 
ATOM     88  C   UNL A   1      45.014  26.034  35.809  1.00  0.00     0.198 A 
ATOM     89  C   UNL A   1      46.502  27.774  35.089  1.00  0.00     0.198 A 
ATOM     90  F   UNL A   1      45.667  29.613  33.878  1.00  0.00    -0.203 F 
ATOM     91  F   UNL A   1      44.803  24.881  36.460  1.00  0.00    -0.200 F 
ATOM     92  C   UNL A   1      46.289  26.574  35.750  1.00  0.00     0.200 A 
ATOM     93  F   UNL A   1      47.738  28.286  35.014  1.00  0.00    -0.200 F 
ATOM     94  F   UNL A   1      47.316  25.935  36.329  1.00  0.00    -0.200 F 
ENDBRANCH  61  84
ENDBRANCH  35  36
ENDBRANCH  28  30
ENDBRANCH  27  28
ENDBRANCH  26  27
ENDBRANCH  25  26
ENDBRANCH   1  25
TORSDOF 16
ENDMDL
MODEL 2
REMARK VINA RESULT:     -11.6      4.388      7.312
REMARK SMILES O=C(Nc1cccc(F)c1C(=O)OCCOCCOC(=O)c1ccc(-c2c3nc(c(-c4c(F)c(F)c(F)c(F)c4F)c4ccc([nH]4)c(-c4c(F)c(F)c(F)c(F)c4F)c4nc(c(-c5c(F)c(F)c(F)c(F)c5F)c5ccc2[nH]5)C=C4)C=C3)cc1)c1ccc(Cl)nc1
REMARK SMILES IDX 16 1 15 2 14 3 13 4 11 5 12 6 10 7 4 8 5 9 6 10 8 11 7 12
REMARK SMILES IDX 9 13 3 14 1 15 2 16 85 18 86 19 91 20 87 21 90 22 88 23
REMARK SMILES IDX 89 24 17 25 18 26 19 27 20 28 21 29 22 30 23 31 84 32 24 33
REMARK SMILES IDX 83 34 25 35 26 36 27 37 77 38 28 39 82 40 76 41 78 42 29 43
REMARK SMILES IDX 81 44 75 45 74 46 30 48 62 49 42 50 61 51 43 52 46 53 60 54
REMARK SMILES IDX 79 55 44 56 45 57 59 59 80 60 47 61 31 62 32 63 40 64 33 65
REMARK SMILES IDX 34 66 38 67 41 68 35 69 36 70 39 71 37 72 63 73 64 74 72 75
REMARK SMILES IDX 65 76 66 77 70 78 73 79 67 80 68 81 71 82 69 83 48 84 49 85
REMARK SMILES IDX 57 86 50 87 51 88 55 89 58 90 52 91 53 92 56 93 54 94
REMARK H PARENT 3 17 78 47 46 58
REMARK Flexibility Score: inf
ROOT
ATOM      1  O   UNL A   1      32.653  34.944  29.195  1.00  0.00    -0.374 OA
ENDROOT
BRANCH   1   2
ATOM      2  C   UNL A   1      33.207  35.731  30.250  1.00  0.00     0.202 C 
BRANCH   2   3
ATOM      3  C   UNL A   1      33.589  34.958  31.513  1.00  0.00     0.261 C 
BRANCH   3   4
ATOM      4  O   UNL A   1      35.018  34.955  31.671  1.00  0.00    -0.460 OA
BRANCH   4   5
ATOM      5  C   UNL A   1      35.626  33.789  31.372  1.00  0.00     0.343 C 
ATOM      6  O   UNL A   1      35.086  32.717  31.127  1.00  0.00    -0.246 OA
BRANCH   5   7
ATOM      7  C   UNL A   1      37.057  34.019  31.138  1.00  0.00     0.119 A 
ATOM      8  C   UNL A   1      37.909  34.272  32.229  1.00  0.00     0.059 A 
ATOM      9  C   UNL A   1      39.255  34.576  31.982  1.00  0.00     0.027 A 
ATOM     10  C   UNL A   1      39.740  34.646  30.673  1.00  0.00     0.005 A 
ATOM     11  C   UNL A   1      37.549  34.089  29.837  1.00  0.00     0.139 A 
ATOM     12  C   UNL A   1      38.885  34.402  29.600  1.00  0.00     0.040 A 
ATOM     13  F   UNL A   1      36.743  33.889  28.784  1.00  0.00    -0.206 F 
BRANCH   8  14
ATOM     14  N   UNL A   1      37.430  34.166  33.556  1.00  0.00    -0.321 N 
ATOM     15  O   UNL A   1      36.349  33.078  35.231  1.00  0.00    -0.269 OA
ATOM     16  C   UNL A   1      37.101  33.030  34.261  1.00  0.00     0.257 C 
ATOM     17  H   UNL A   1      37.317  35.016  34.038  1.00  0.00     0.170 HD
BRANCH  16  18
ATOM     18  C   UNL A   1      37.762  31.753  33.923  1.00  0.00     0.058 A 
ATOM     19  C   UNL A   1      39.073  31.505  34.328  1.00  0.00     0.018 A 
ATOM     20  C   UNL A   1      37.120  30.797  33.143  1.00  0.00     0.126 A 
ATOM     21  C   UNL A   1      39.660  30.284  33.999  1.00  0.00     0.042 A 
ATOM     22  N   UNL A   1      37.658  29.597  32.825  1.00  0.00    -0.244 NA
ATOM     23  C   UNL A   1      38.911  29.373  33.267  1.00  0.00     0.129 A 
ATOM     24  Cl  UNL A   1      39.543  27.832  32.866  1.00  0.00    -0.062 Cl
ENDBRANCH  16  18
ENDBRANCH   8  14
ENDBRANCH   5   7
ENDBRANCH   4   5
ENDBRANCH   3   4
ENDBRANCH   2   3
ENDBRANCH   1   2
BRANCH   1  25
ATOM     25  C   UNL A   1      33.563  34.326  28.284  1.00  0.00     0.202 C 
BRANCH  25  26
ATOM     26  C   UNL A   1      33.341  32.835  27.999  1.00  0.00     0.261 C 
BRANCH  26  27
ATOM     27  O   UNL A   1      34.573  32.093  28.035  1.00  0.00    -0.460 OA
BRANCH  27  28
ATOM     28  C   UNL A   1      34.432  30.755  27.911  1.00  0.00     0.338 C 
ATOM     29  O   UNL A   1      33.427  30.140  27.580  1.00  0.00    -0.246 OA
BRANCH  28  30
ATOM     30  C   UNL A   1      35.740  30.090  28.063  1.00  0.00     0.060 A 
ATOM     31  C   UNL A   1      36.036  29.528  29.312  1.00  0.00     0.016 A 
ATOM     32  C   UNL A   1      36.686  30.079  27.035  1.00  0.00     0.016 A 
ATOM     33  C   UNL A   1      37.299  28.998  29.555  1.00  0.00     0.010 A 
ATOM     34  C   UNL A   1      37.959  29.555  27.286  1.00  0.00     0.010 A 
ATOM     35  C   UNL A   1      38.281  29.046  28.557  1.00  0.00    -0.014 A 
BRANCH  35  36
ATOM     36  C   UNL A   1      39.680  28.698  28.898  1.00  0.00     0.031 A 
ATOM     37  C   UNL A   1      40.481  29.646  29.745  1.00  0.00     0.074 A 
ATOM     38  C   UNL A   1      40.213  27.531  28.500  1.00  0.00     0.049 A 
ATOM     39  N   UNL A   1      41.719  29.549  30.158  1.00  0.00    -0.248 NA
ATOM     40  C   UNL A   1      39.791  30.867  30.191  1.00  0.00     0.031 C 
ATOM     41  C   UNL A   1      39.517  26.510  27.722  1.00  0.00     0.029 A 
ATOM     42  N   UNL A   1      41.465  27.008  28.705  1.00  0.00    -0.354 N 
ATOM     43  C   UNL A   1      41.953  30.688  30.915  1.00  0.00     0.074 A 
ATOM     44  C   UNL A   1      40.744  31.482  30.876  1.00  0.00     0.031 C 
ATOM     45  C   UNL A   1      40.352  25.478  27.516  1.00  0.00     0.029 A 
ATOM     46  C   UNL A   1      41.648  25.780  28.122  1.00  0.00     0.049 A 
ATOM     47  H   UNL A   1      42.165  27.471  29.220  1.00  0.00     0.167 HD
ATOM     48  C   UNL A   1      43.073  31.033  31.593  1.00  0.00     0.037 A 
ATOM     49  C   UNL A   1      42.742  24.995  28.075  1.00  0.00     0.037 A 
ATOM     50  C   UNL A   1      44.277  30.246  31.625  1.00  0.00     0.049 A 
ATOM     51  C   UNL A   1      44.006  25.442  28.759  1.00  0.00     0.074 A 
ATOM     52  C   UNL A   1      45.466  30.514  32.280  1.00  0.00     0.029 A 
ATOM     53  N   UNL A   1      44.445  29.036  30.967  1.00  0.00    -0.354 N 
ATOM     54  N   UNL A   1      44.222  26.522  29.469  1.00  0.00    -0.248 NA
ATOM     55  C   UNL A   1      45.178  24.563  28.633  1.00  0.00     0.031 C 
ATOM     56  C   UNL A   1      46.370  29.489  31.981  1.00  0.00     0.029 A 
ATOM     57  C   UNL A   1      45.727  28.557  31.182  1.00  0.00     0.049 A 
ATOM     58  H   UNL A   1      43.756  28.585  30.428  1.00  0.00     0.167 HD
ATOM     59  C   UNL A   1      45.543  26.445  29.891  1.00  0.00     0.074 A 
ATOM     60  C   UNL A   1      46.079  25.207  29.363  1.00  0.00     0.031 C 
ATOM     61  C   UNL A   1      46.246  27.322  30.649  1.00  0.00     0.037 A 
BRANCH  48  62
ATOM     62  C   UNL A   1      43.053  32.329  32.347  1.00  0.00     0.064 A 
ATOM     63  C   UNL A   1      42.835  32.345  33.733  1.00  0.00     0.173 A 
ATOM     64  C   UNL A   1      43.209  33.560  31.692  1.00  0.00     0.173 A 
ATOM     65  F   UNL A   1      42.676  31.195  34.405  1.00  0.00    -0.203 F 
ATOM     66  C   UNL A   1      42.768  33.545  34.434  1.00  0.00     0.198 A 
ATOM     67  C   UNL A   1      43.167  34.758  32.401  1.00  0.00     0.198 A 
ATOM     68  F   UNL A   1      43.434  33.598  30.370  1.00  0.00    -0.203 F 
ATOM     69  F   UNL A   1      42.538  33.537  35.754  1.00  0.00    -0.200 F 
ATOM     70  C   UNL A   1      42.940  34.750  33.770  1.00  0.00     0.200 A 
ATOM     71  F   UNL A   1      43.358  35.920  31.761  1.00  0.00    -0.200 F 
ATOM     72  F   UNL A   1      42.892  35.905  34.449  1.00  0.00    -0.200 F 
ENDBRANCH  48  62
BRANCH  49  73
ATOM     73  C   UNL A   1      42.676  23.698  27.356  1.00  0.00     0.064 A 
ATOM     74  C   UNL A   1      42.235  22.532  27.997  1.00  0.00     0.173 A 
ATOM     75  C   UNL A   1      43.090  23.595  26.022  1.00  0.00     0.173 A 
ATOM     76  F   UNL A   1      41.826  22.582  29.274  1.00  0.00    -0.203 F 
ATOM     77  C   UNL A   1      42.235  21.305  27.338  1.00  0.00     0.198 A 
ATOM     78  C   UNL A   1      43.070  22.371  25.356  1.00  0.00     0.198 A 
ATOM     79  F   UNL A   1      43.497  24.688  25.360  1.00  0.00    -0.203 F 
ATOM     80  F   UNL A   1      41.841  20.199  27.985  1.00  0.00    -0.200 F 
ATOM     81  C   UNL A   1      42.652  21.225  26.018  1.00  0.00     0.200 A 
ATOM     82  F   UNL A   1      43.452  22.301  24.074  1.00  0.00    -0.200 F 
ATOM     83  F   UNL A   1      42.649  20.045  25.382  1.00  0.00    -0.200 F 
ENDBRANCH  49  73
BRANCH  61  84
ATOM     84  C   UNL A   1      47.670  26.978  30.976  1.00  0.00     0.064 A 
ATOM     85  C   UNL A   1      48.720  27.482  30.193  1.00  0.00     0.173 A 
ATOM     86  C   UNL A   1      47.988  26.084  32.008  1.00  0.00     0.173 A 
ATOM     87  F   UNL A   1      48.466  28.334  29.189  1.00  0.00    -0.203 F 
ATOM     88  C   UNL A   1      50.036  27.089  30.421  1.00  0.00     0.198 A 
ATOM     89  C   UNL A   1      49.309  25.713  32.250  1.00  0.00     0.198 A 
ATOM     90  F   UNL A   1      47.021  25.585  32.791  1.00  0.00    -0.203 F 
ATOM     91  F   UNL A   1      51.018  27.556  29.639  1.00  0.00    -0.200 F 
ATOM     92  C   UNL A   1      50.329  26.207  31.450  1.00  0.00     0.200 A 
ATOM     93  F   UNL A   1      49.594  24.877  33.257  1.00  0.00    -0.200 F 
ATOM     94  F   UNL A   1      51.597  25.835  31.674  1.00  0.00    -0.200 F 
ENDBRANCH  61  84
ENDBRANCH  35  36
ENDBRANCH  28  30
ENDBRANCH  27  28
ENDBRANCH  26  27
ENDBRANCH  25  26
ENDBRANCH   1  25
TORSDOF 16
ENDMDL
MODEL 3
REMARK VINA RESULT:     -11.5      0.834      7.327
REMARK SMILES O=C(Nc1cccc(F)c1C(=O)OCCOCCOC(=O)c1ccc(-c2c3nc(c(-c4c(F)c(F)c(F)c(F)c4F)c4ccc([nH]4)c(-c4c(F)c(F)c(F)c(F)c4F)c4nc(c(-c5c(F)c(F)c(F)c(F)c5F)c5ccc2[nH]5)C=C4)C=C3)cc1)c1ccc(Cl)nc1
REMARK SMILES IDX 16 1 15 2 14 3 13 4 11 5 12 6 10 7 4 8 5 9 6 10 8 11 7 12
REMARK SMILES IDX 9 13 3 14 1 15 2 16 85 18 86 19 91 20 87 21 90 22 88 23
REMARK SMILES IDX 89 24 17 25 18 26 19 27 20 28 21 29 22 30 23 31 84 32 24 33
REMARK SMILES IDX 83 34 25 35 26 36 27 37 77 38 28 39 82 40 76 41 78 42 29 43
REMARK SMILES IDX 81 44 75 45 74 46 30 48 62 49 42 50 61 51 43 52 46 53 60 54
REMARK SMILES IDX 79 55 44 56 45 57 59 59 80 60 47 61 31 62 32 63 40 64 33 65
REMARK SMILES IDX 34 66 38 67 41 68 35 69 36 70 39 71 37 72 63 73 64 74 72 75
REMARK SMILES IDX 65 76 66 77 70 78 73 79 67 80 68 81 71 82 69 83 48 84 49 85
REMARK SMILES IDX 57 86 50 87 51 88 55 89 58 90 52 91 53 92 56 93 54 94
REMARK H PARENT 3 17 78 47 46 58
REMARK Flexibility Score: inf
ROOT
ATOM      1  O   UNL A   1      33.986  31.185  27.735  1.00  0.00    -0.374 OA
ENDROOT
BRANCH   1   2
ATOM      2  C   UNL A   1      34.626  29.999  27.262  1.00  0.00     0.202 C 
BRANCH   2   3
ATOM      3  C   UNL A   1      33.919  28.689  27.612  1.00  0.00     0.261 C 
BRANCH   3   4
ATOM      4  O   UNL A   1      33.116  28.255  26.501  1.00  0.00    -0.460 OA
BRANCH   4   5
ATOM      5  C   UNL A   1      31.875  27.835  26.818  1.00  0.00     0.343 C 
ATOM      6  O   UNL A   1      31.352  27.850  27.926  1.00  0.00    -0.246 OA
BRANCH   5   7
ATOM      7  C   UNL A   1      31.113  27.563  25.593  1.00  0.00     0.119 A 
ATOM      8  C   UNL A   1      30.509  26.305  25.413  1.00  0.00     0.059 A 
ATOM      9  C   UNL A   1      29.860  26.031  24.202  1.00  0.00     0.027 A 
ATOM     10  C   UNL A   1      29.828  26.984  23.180  1.00  0.00     0.005 A 
ATOM     11  C   UNL A   1      31.075  28.508  24.570  1.00  0.00     0.139 A 
ATOM     12  C   UNL A   1      30.437  28.224  23.365  1.00  0.00     0.040 A 
ATOM     13  F   UNL A   1      31.677  29.697  24.710  1.00  0.00    -0.206 F 
BRANCH   8  14
ATOM     14  N   UNL A   1      30.508  25.352  26.459  1.00  0.00    -0.321 N 
ATOM     15  O   UNL A   1      30.775  23.250  27.276  1.00  0.00    -0.269 OA
ATOM     16  C   UNL A   1      31.152  24.136  26.514  1.00  0.00     0.257 C 
ATOM     17  H   UNL A   1      29.977  25.590  27.252  1.00  0.00     0.170 HD
BRANCH  16  18
ATOM     18  C   UNL A   1      32.391  23.939  25.736  1.00  0.00     0.058 A 
ATOM     19  C   UNL A   1      33.574  24.575  26.114  1.00  0.00     0.018 A 
ATOM     20  C   UNL A   1      32.397  23.172  24.575  1.00  0.00     0.126 A 
ATOM     21  C   UNL A   1      34.726  24.357  25.360  1.00  0.00     0.042 A 
ATOM     22  N   UNL A   1      33.504  22.928  23.836  1.00  0.00    -0.244 NA
ATOM     23  C   UNL A   1      34.638  23.524  24.254  1.00  0.00     0.129 A 
ATOM     24  Cl  UNL A   1      36.019  23.167  23.306  1.00  0.00    -0.062 Cl
ENDBRANCH  16  18
ENDBRANCH   8  14
ENDBRANCH   5   7
ENDBRANCH   4   5
ENDBRANCH   3   4
ENDBRANCH   2   3
ENDBRANCH   1   2
BRANCH   1  25
ATOM     25  C   UNL A   1      32.672  31.464  27.251  1.00  0.00     0.202 C 
BRANCH  25  26
ATOM     26  C   UNL A   1      32.193  32.917  27.367  1.00  0.00     0.261 C 
BRANCH  26  27
ATOM     27  O   UNL A   1      33.294  33.843  27.401  1.00  0.00    -0.460 OA
BRANCH  27  28
ATOM     28  C   UNL A   1      33.306  34.670  28.469  1.00  0.00     0.338 C 
ATOM     29  O   UNL A   1      32.490  35.539  28.746  1.00  0.00    -0.246 OA
BRANCH  28  30
ATOM     30  C   UNL A   1      34.378  34.277  29.403  1.00  0.00     0.060 A 
ATOM     31  C   UNL A   1      35.701  34.448  28.974  1.00  0.00     0.016 A 
ATOM     32  C   UNL A   1      34.101  33.688  30.639  1.00  0.00     0.016 A 
ATOM     33  C   UNL A   1      36.752  33.982  29.757  1.00  0.00     0.010 A 
ATOM     34  C   UNL A   1      35.160  33.211  31.420  1.00  0.00     0.010 A 
ATOM     35  C   UNL A   1      36.485  33.324  30.965  1.00  0.00    -0.014 A 
BRANCH  35  36
ATOM     36  C   UNL A   1      37.586  32.628  31.672  1.00  0.00     0.031 A 
ATOM     37  C   UNL A   1      38.241  31.446  31.015  1.00  0.00     0.074 A 
ATOM     38  C   UNL A   1      38.030  33.074  32.859  1.00  0.00     0.049 A 
ATOM     39  N   UNL A   1      39.214  30.686  31.451  1.00  0.00    -0.248 NA
ATOM     40  C   UNL A   1      37.734  31.072  29.685  1.00  0.00     0.031 C 
ATOM     41  C   UNL A   1      37.510  34.241  33.566  1.00  0.00     0.029 A 
ATOM     42  N   UNL A   1      39.026  32.598  33.673  1.00  0.00    -0.354 N 
ATOM     43  C   UNL A   1      39.439  29.753  30.449  1.00  0.00     0.074 A 
ATOM     44  C   UNL A   1      38.479  30.015  29.399  1.00  0.00     0.031 C 
ATOM     45  C   UNL A   1      38.194  34.394  34.712  1.00  0.00     0.029 A 
ATOM     46  C   UNL A   1      39.179  33.318  34.831  1.00  0.00     0.049 A 
ATOM     47  H   UNL A   1      39.577  31.814  33.449  1.00  0.00     0.167 HD
ATOM     48  C   UNL A   1      40.372  28.773  30.405  1.00  0.00     0.037 A 
ATOM     49  C   UNL A   1      40.011  33.123  35.872  1.00  0.00     0.037 A 
ATOM     50  C   UNL A   1      41.321  28.509  31.454  1.00  0.00     0.049 A 
ATOM     51  C   UNL A   1      40.979  31.971  35.842  1.00  0.00     0.074 A 
ATOM     52  C   UNL A   1      42.303  27.535  31.504  1.00  0.00     0.029 A 
ATOM     53  N   UNL A   1      41.401  29.222  32.642  1.00  0.00    -0.354 N 
ATOM     54  N   UNL A   1      41.184  31.090  34.895  1.00  0.00    -0.248 NA
ATOM     55  C   UNL A   1      41.829  31.786  37.028  1.00  0.00     0.031 C 
ATOM     56  C   UNL A   1      42.948  27.629  32.741  1.00  0.00     0.029 A 
ATOM     57  C   UNL A   1      42.402  28.693  33.441  1.00  0.00     0.049 A 
ATOM     58  H   UNL A   1      40.832  29.988  32.880  1.00  0.00     0.167 HD
ATOM     59  C   UNL A   1      42.196  30.258  35.357  1.00  0.00     0.074 A 
ATOM     60  C   UNL A   1      42.571  30.746  36.668  1.00  0.00     0.031 C 
ATOM     61  C   UNL A   1      42.763  29.189  34.746  1.00  0.00     0.037 A 
BRANCH  48  62
ATOM     62  C   UNL A   1      40.403  27.902  29.185  1.00  0.00     0.064 A 
ATOM     63  C   UNL A   1      41.173  28.264  28.070  1.00  0.00     0.173 A 
ATOM     64  C   UNL A   1      39.639  26.728  29.103  1.00  0.00     0.173 A 
ATOM     65  F   UNL A   1      41.918  29.380  28.096  1.00  0.00    -0.203 F 
ATOM     66  C   UNL A   1      41.172  27.488  26.915  1.00  0.00     0.198 A 
ATOM     67  C   UNL A   1      39.661  25.939  27.955  1.00  0.00     0.198 A 
ATOM     68  F   UNL A   1      38.898  26.331  30.148  1.00  0.00    -0.203 F 
ATOM     69  F   UNL A   1      41.898  27.864  25.854  1.00  0.00    -0.200 F 
ATOM     70  C   UNL A   1      40.421  26.323  26.861  1.00  0.00     0.200 A 
ATOM     71  F   UNL A   1      38.954  24.801  27.914  1.00  0.00    -0.200 F 
ATOM     72  F   UNL A   1      40.434  25.566  25.754  1.00  0.00    -0.200 F 
ENDBRANCH  48  62
BRANCH  49  73
ATOM     73  C   UNL A   1      39.964  34.057  37.026  1.00  0.00     0.064 A 
ATOM     74  C   UNL A   1      39.100  33.835  38.107  1.00  0.00     0.173 A 
ATOM     75  C   UNL A   1      40.758  35.211  37.049  1.00  0.00     0.173 A 
ATOM     76  F   UNL A   1      38.322  32.742  38.131  1.00  0.00    -0.203 F 
ATOM     77  C   UNL A   1      39.012  34.746  39.157  1.00  0.00     0.198 A 
ATOM     78  C   UNL A   1      40.686  36.111  38.110  1.00  0.00     0.198 A 
ATOM     79  F   UNL A   1      41.618  35.453  36.048  1.00  0.00    -0.203 F 
ATOM     80  F   UNL A   1      38.153  34.526  40.161  1.00  0.00    -0.200 F 
ATOM     81  C   UNL A   1      39.806  35.883  39.158  1.00  0.00     0.200 A 
ATOM     82  F   UNL A   1      41.470  37.197  38.118  1.00  0.00    -0.200 F 
ATOM     83  F   UNL A   1      39.724  36.758  40.170  1.00  0.00    -0.200 F 
ENDBRANCH  49  73
BRANCH  61  84
ATOM     84  C   UNL A   1      43.864  28.473  35.472  1.00  0.00     0.064 A 
ATOM     85  C   UNL A   1      45.206  28.812  35.241  1.00  0.00     0.173 A 
ATOM     86  C   UNL A   1      43.595  27.397  36.331  1.00  0.00     0.173 A 
ATOM     87  F   UNL A   1      45.515  29.828  34.422  1.00  0.00    -0.203 F 
ATOM     88  C   UNL A   1      46.240  28.088  35.829  1.00  0.00     0.198 A 
ATOM     89  C   UNL A   1      44.631  26.692  36.937  1.00  0.00     0.198 A 
ATOM     90  F   UNL A   1      42.329  27.043  36.592  1.00  0.00    -0.203 F 
ATOM     91  F   UNL A   1      47.513  28.408  35.566  1.00  0.00    -0.200 F 
ATOM     92  C   UNL A   1      45.951  27.031  36.678  1.00  0.00     0.200 A 
ATOM     93  F   UNL A   1      44.352  25.683  37.774  1.00  0.00    -0.200 F 
ATOM     94  F   UNL A   1      46.947  26.338  37.249  1.00  0.00    -0.200 F 
ENDBRANCH  61  84
ENDBRANCH  35  36
ENDBRANCH  28  30
ENDBRANCH  27  28
ENDBRANCH  26  27
ENDBRANCH  25  26
ENDBRANCH   1  25
TORSDOF 16
ENDMDL
