MODEL 1
REMARK VINA RESULT:     -11.6      0.000      0.000
REMARK SMILES CCc1cccc2c3c([nH]c12)[C@](CC)(CC(=O)OCCOCCOC(=O)c1ccc(-c2c4nc(c(-c5c(F)c(F)c(F)c(F)c5F)c5ccc([nH]5)c(-c5c(F)c(F)c(F)c(F)c5F)c5nc(c(-c6c(F)c(F)c(F)c(F)c6F)c6ccc2[nH]6)C=C5)C=C4)cc1)OCC3
REMARK SMILES IDX 21 1 20 2 19 3 18 4 16 5 17 6 15 7 12 8 3 9 4 10 11 11 5 12
REMARK SMILES IDX 7 13 10 14 6 15 8 16 9 17 92 19 91 20 90 21 2 22 1 23 13 24
REMARK SMILES IDX 14 25 22 26 23 27 24 28 25 29 26 30 27 31 28 32 89 33 29 34
REMARK SMILES IDX 88 35 30 36 31 37 32 38 82 39 33 40 87 41 81 42 83 43 34 44
REMARK SMILES IDX 86 45 80 46 79 47 35 49 67 50 47 51 66 52 48 53 51 54 65 55
REMARK SMILES IDX 84 56 49 57 50 58 64 60 85 61 52 62 36 63 37 64 45 65 38 66
REMARK SMILES IDX 39 67 43 68 46 69 40 70 41 71 44 72 42 73 68 74 69 75 77 76
REMARK SMILES IDX 70 77 71 78 75 79 78 80 72 81 73 82 76 83 74 84 53 85 54 86
REMARK SMILES IDX 62 87 55 88 56 89 60 90 63 91 57 92 58 93 61 94 59 95
REMARK H PARENT 10 18 83 48 51 59
REMARK Flexibility Score: inf
ROOT
ATOM      1  O   UNL A   1      41.601  20.560  27.426  1.00  0.00    -0.374 OA
ENDROOT
BRANCH   1   2
ATOM      2  C   UNL A   1      40.826  21.713  27.126  1.00  0.00     0.202 C 
BRANCH   2   3
ATOM      3  C   UNL A   1      39.603  21.556  26.211  1.00  0.00     0.261 C 
BRANCH   3   4
ATOM      4  O   UNL A   1      38.632  22.630  26.247  1.00  0.00    -0.463 OA
BRANCH   4   5
ATOM      5  C   UNL A   1      37.519  22.397  25.514  1.00  0.00     0.309 C 
ATOM      6  O   UNL A   1      37.309  21.335  24.927  1.00  0.00    -0.252 OA
BRANCH   5   7
ATOM      7  C   UNL A   1      36.576  23.554  25.281  1.00  0.00     0.164 C 
BRANCH   7   8
ATOM      8  C   UNL A   1      35.045  23.568  25.121  1.00  0.00     0.118 C 
ATOM      9  C   UNL A   1      33.447  28.374  25.460  1.00  0.00    -0.024 A 
ATOM     10  C   UNL A   1      32.824  29.218  24.509  1.00  0.00     0.006 A 
ATOM     11  C   UNL A   1      33.711  27.056  25.023  1.00  0.00     0.049 A 
ATOM     12  C   UNL A   1      32.427  28.773  23.253  1.00  0.00     0.001 A 
ATOM     13  C   UNL A   1      33.252  26.565  23.792  1.00  0.00     0.003 A 
ATOM     14  N   UNL A   1      34.403  26.012  25.616  1.00  0.00    -0.356 N 
ATOM     15  C   UNL A   1      32.588  27.434  22.904  1.00  0.00     0.010 A 
ATOM     16  C   UNL A   1      33.600  25.190  23.734  1.00  0.00    -0.014 A 
ATOM     17  C   UNL A   1      34.413  24.904  24.808  1.00  0.00     0.052 A 
ATOM     18  H   UNL A   1      34.832  26.060  26.501  1.00  0.00     0.166 HD
ATOM     19  C   UNL A   1      33.243  24.132  22.762  1.00  0.00     0.066 C 
ATOM     20  C   UNL A   1      34.306  23.031  22.836  1.00  0.00     0.166 C 
ATOM     21  O   UNL A   1      34.579  22.580  24.168  1.00  0.00    -0.368 OA
BRANCH   9  22
ATOM     22  C   UNL A   1      33.651  28.957  26.845  1.00  0.00     0.034 C 
ATOM     23  C   UNL A   1      33.029  30.306  27.157  1.00  0.00     0.009 C 
ENDBRANCH   9  22
BRANCH   8  24
ATOM     24  C   UNL A   1      34.435  23.077  26.483  1.00  0.00     0.039 C 
ATOM     25  C   UNL A   1      33.020  22.506  26.394  1.00  0.00     0.007 C 
ENDBRANCH   8  24
ENDBRANCH   7   8
ENDBRANCH   5   7
ENDBRANCH   4   5
ENDBRANCH   3   4
ENDBRANCH   2   3
ENDBRANCH   1   2
BRANCH   1  26
ATOM     26  C   UNL A   1      41.650  19.520  26.446  1.00  0.00     0.202 C 
BRANCH  26  27
ATOM     27  C   UNL A   1      42.997  19.276  25.753  1.00  0.00     0.261 C 
BRANCH  27  28
ATOM     28  O   UNL A   1      43.311  20.344  24.847  1.00  0.00    -0.460 OA
BRANCH  28  29
ATOM     29  C   UNL A   1      44.624  20.710  24.843  1.00  0.00     0.338 C 
ATOM     30  O   UNL A   1      45.545  20.167  24.294  1.00  0.00    -0.246 OA
BRANCH  29  31
ATOM     31  C   UNL A   1      44.596  22.122  25.279  1.00  0.00     0.060 A 
ATOM     32  C   UNL A   1      45.343  22.553  26.375  1.00  0.00     0.016 A 
ATOM     33  C   UNL A   1      43.550  22.897  24.761  1.00  0.00     0.016 A 
ATOM     34  C   UNL A   1      44.955  23.711  27.033  1.00  0.00     0.010 A 
ATOM     35  C   UNL A   1      43.161  24.053  25.425  1.00  0.00     0.010 A 
ATOM     36  C   UNL A   1      43.833  24.431  26.588  1.00  0.00    -0.014 A 
BRANCH  36  37
ATOM     37  C   UNL A   1      43.537  25.688  27.274  1.00  0.00     0.031 A 
ATOM     38  C   UNL A   1      44.532  26.750  26.984  1.00  0.00     0.074 A 
ATOM     39  C   UNL A   1      42.438  25.967  28.005  1.00  0.00     0.049 A 
ATOM     40  N   UNL A   1      45.304  27.370  27.814  1.00  0.00    -0.248 NA
ATOM     41  C   UNL A   1      44.774  27.076  25.570  1.00  0.00     0.031 C 
ATOM     42  C   UNL A   1      41.229  25.157  28.147  1.00  0.00     0.029 A 
ATOM     43  N   UNL A   1      42.138  27.106  28.708  1.00  0.00    -0.354 N 
ATOM     44  C   UNL A   1      46.018  28.284  27.047  1.00  0.00     0.074 A 
ATOM     45  C   UNL A   1      45.759  27.966  25.668  1.00  0.00     0.031 C 
ATOM     46  C   UNL A   1      40.256  25.907  28.712  1.00  0.00     0.029 A 
ATOM     47  C   UNL A   1      40.805  27.203  29.082  1.00  0.00     0.049 A 
ATOM     48  H   UNL A   1      42.808  27.792  28.926  1.00  0.00     0.167 HD
ATOM     49  C   UNL A   1      46.569  29.392  27.606  1.00  0.00     0.037 A 
ATOM     50  C   UNL A   1      40.183  28.286  29.610  1.00  0.00     0.037 A 
ATOM     51  C   UNL A   1      46.692  29.266  29.031  1.00  0.00     0.049 A 
ATOM     52  C   UNL A   1      41.210  29.162  30.221  1.00  0.00     0.074 A 
ATOM     53  C   UNL A   1      47.483  28.557  29.906  1.00  0.00     0.029 A 
ATOM     54  N   UNL A   1      45.637  29.762  29.747  1.00  0.00    -0.354 N 
ATOM     55  N   UNL A   1      41.879  28.864  31.298  1.00  0.00    -0.248 NA
ATOM     56  C   UNL A   1      41.694  30.326  29.486  1.00  0.00     0.031 C 
ATOM     57  C   UNL A   1      46.734  28.447  31.114  1.00  0.00     0.029 A 
ATOM     58  C   UNL A   1      45.512  29.093  30.932  1.00  0.00     0.049 A 
ATOM     59  H   UNL A   1      45.052  30.495  29.449  1.00  0.00     0.167 HD
ATOM     60  C   UNL A   1      43.081  29.523  31.145  1.00  0.00     0.074 A 
ATOM     61  C   UNL A   1      42.838  30.543  30.139  1.00  0.00     0.031 C 
ATOM     62  C   UNL A   1      44.237  28.964  31.599  1.00  0.00     0.037 A 
BRANCH  49  63
ATOM     63  C   UNL A   1      46.565  30.750  26.941  1.00  0.00     0.064 A 
ATOM     64  C   UNL A   1      47.765  31.487  26.885  1.00  0.00     0.173 A 
ATOM     65  C   UNL A   1      45.388  31.481  26.670  1.00  0.00     0.173 A 
ATOM     66  F   UNL A   1      48.940  30.901  27.160  1.00  0.00    -0.203 F 
ATOM     67  C   UNL A   1      47.774  32.863  26.641  1.00  0.00     0.198 A 
ATOM     68  C   UNL A   1      45.406  32.841  26.372  1.00  0.00     0.198 A 
ATOM     69  F   UNL A   1      44.169  30.944  26.805  1.00  0.00    -0.203 F 
ATOM     70  F   UNL A   1      48.924  33.547  26.723  1.00  0.00    -0.200 F 
ATOM     71  C   UNL A   1      46.594  33.539  26.387  1.00  0.00     0.200 A 
ATOM     72  F   UNL A   1      44.249  33.483  26.157  1.00  0.00    -0.200 F 
ATOM     73  F   UNL A   1      46.593  34.867  26.212  1.00  0.00    -0.200 F 
ENDBRANCH  49  63
BRANCH  50  74
ATOM     74  C   UNL A   1      38.771  28.729  29.485  1.00  0.00     0.064 A 
ATOM     75  C   UNL A   1      37.965  28.907  30.625  1.00  0.00     0.173 A 
ATOM     76  C   UNL A   1      38.271  29.261  28.282  1.00  0.00     0.173 A 
ATOM     77  F   UNL A   1      38.377  28.463  31.822  1.00  0.00    -0.203 F 
ATOM     78  C   UNL A   1      36.761  29.616  30.574  1.00  0.00     0.198 A 
ATOM     79  C   UNL A   1      37.061  29.956  28.229  1.00  0.00     0.198 A 
ATOM     80  F   UNL A   1      38.990  29.204  27.152  1.00  0.00    -0.203 F 
ATOM     81  F   UNL A   1      36.066  29.834  31.699  1.00  0.00    -0.200 F 
ATOM     82  C   UNL A   1      36.317  30.151  29.377  1.00  0.00     0.200 A 
ATOM     83  F   UNL A   1      36.656  30.495  27.070  1.00  0.00    -0.200 F 
ATOM     84  F   UNL A   1      35.199  30.889  29.339  1.00  0.00    -0.200 F 
ENDBRANCH  50  74
BRANCH  62  85
ATOM     85  C   UNL A   1      44.132  27.973  32.713  1.00  0.00     0.064 A 
ATOM     86  C   UNL A   1      43.953  26.593  32.528  1.00  0.00     0.173 A 
ATOM     87  C   UNL A   1      44.329  28.438  34.021  1.00  0.00     0.173 A 
ATOM     88  F   UNL A   1      43.839  26.069  31.301  1.00  0.00    -0.203 F 
ATOM     89  C   UNL A   1      43.943  25.723  33.617  1.00  0.00     0.198 A 
ATOM     90  C   UNL A   1      44.356  27.563  35.100  1.00  0.00     0.198 A 
ATOM     91  F   UNL A   1      44.545  29.744  34.244  1.00  0.00    -0.203 F 
ATOM     92  F   UNL A   1      43.759  24.409  33.423  1.00  0.00    -0.200 F 
ATOM     93  C   UNL A   1      44.154  26.206  34.899  1.00  0.00     0.200 A 
ATOM     94  F   UNL A   1      44.606  28.030  36.331  1.00  0.00    -0.200 F 
ATOM     95  F   UNL A   1      44.190  25.363  35.940  1.00  0.00    -0.200 F 
ENDBRANCH  62  85
ENDBRANCH  36  37
ENDBRANCH  29  31
ENDBRANCH  28  29
ENDBRANCH  27  28
ENDBRANCH  26  27
ENDBRANCH   1  26
TORSDOF 17
ENDMDL
MODEL 2
REMARK VINA RESULT:     -11.5      2.227      3.656
REMARK SMILES CCc1cccc2c3c([nH]c12)[C@](CC)(CC(=O)OCCOCCOC(=O)c1ccc(-c2c4nc(c(-c5c(F)c(F)c(F)c(F)c5F)c5ccc([nH]5)c(-c5c(F)c(F)c(F)c(F)c5F)c5nc(c(-c6c(F)c(F)c(F)c(F)c6F)c6ccc2[nH]6)C=C5)C=C4)cc1)OCC3
REMARK SMILES IDX 21 1 20 2 19 3 18 4 16 5 17 6 15 7 12 8 3 9 4 10 11 11 5 12
REMARK SMILES IDX 7 13 10 14 6 15 8 16 9 17 92 19 91 20 90 21 2 22 1 23 13 24
REMARK SMILES IDX 14 25 22 26 23 27 24 28 25 29 26 30 27 31 28 32 89 33 29 34
REMARK SMILES IDX 88 35 30 36 31 37 32 38 82 39 33 40 87 41 81 42 83 43 34 44
REMARK SMILES IDX 86 45 80 46 79 47 35 49 67 50 47 51 66 52 48 53 51 54 65 55
REMARK SMILES IDX 84 56 49 57 50 58 64 60 85 61 52 62 36 63 37 64 45 65 38 66
REMARK SMILES IDX 39 67 43 68 46 69 40 70 41 71 44 72 42 73 68 74 69 75 77 76
REMARK SMILES IDX 70 77 71 78 75 79 78 80 72 81 73 82 76 83 74 84 53 85 54 86
REMARK SMILES IDX 62 87 55 88 56 89 60 90 63 91 57 92 58 93 61 94 59 95
REMARK H PARENT 10 18 83 48 51 59
REMARK Flexibility Score: inf
ROOT
ATOM      1  O   UNL A   1      35.351  20.700  25.122  1.00  0.00    -0.374 OA
ENDROOT
BRANCH   1   2
ATOM      2  C   UNL A   1      34.547  21.287  24.109  1.00  0.00     0.202 C 
BRANCH   2   3
ATOM      3  C   UNL A   1      34.759  22.770  23.771  1.00  0.00     0.261 C 
BRANCH   3   4
ATOM      4  O   UNL A   1      34.045  23.276  22.618  1.00  0.00    -0.463 OA
BRANCH   4   5
ATOM      5  C   UNL A   1      33.875  24.617  22.614  1.00  0.00     0.309 C 
ATOM      6  O   UNL A   1      33.731  25.275  21.582  1.00  0.00    -0.252 OA
BRANCH   5   7
ATOM      7  C   UNL A   1      34.032  25.351  23.925  1.00  0.00     0.164 C 
BRANCH   7   8
ATOM      8  C   UNL A   1      33.001  25.627  25.036  1.00  0.00     0.118 C 
ATOM      9  C   UNL A   1      34.348  29.890  27.441  1.00  0.00    -0.024 A 
ATOM     10  C   UNL A   1      33.705  31.148  27.538  1.00  0.00     0.006 A 
ATOM     11  C   UNL A   1      33.644  28.901  26.715  1.00  0.00     0.049 A 
ATOM     12  C   UNL A   1      32.435  31.386  27.024  1.00  0.00     0.001 A 
ATOM     13  C   UNL A   1      32.334  29.095  26.256  1.00  0.00     0.003 A 
ATOM     14  N   UNL A   1      34.004  27.624  26.314  1.00  0.00    -0.356 N 
ATOM     15  C   UNL A   1      31.719  30.351  26.428  1.00  0.00     0.010 A 
ATOM     16  C   UNL A   1      31.908  27.871  25.677  1.00  0.00    -0.014 A 
ATOM     17  C   UNL A   1      32.991  27.023  25.612  1.00  0.00     0.052 A 
ATOM     18  H   UNL A   1      34.874  27.205  26.507  1.00  0.00     0.166 HD
ATOM     19  C   UNL A   1      30.585  27.435  25.177  1.00  0.00     0.066 C 
ATOM     20  C   UNL A   1      30.800  26.301  24.168  1.00  0.00     0.166 C 
ATOM     21  O   UNL A   1      31.655  25.257  24.647  1.00  0.00    -0.368 OA
BRANCH   9  22
ATOM     22  C   UNL A   1      35.647  29.737  28.209  1.00  0.00     0.034 C 
ATOM     23  C   UNL A   1      36.944  29.666  27.425  1.00  0.00     0.009 C 
ENDBRANCH   9  22
BRANCH   8  24
ATOM     24  C   UNL A   1      33.323  24.642  26.217  1.00  0.00     0.039 C 
ATOM     25  C   UNL A   1      32.111  23.936  26.824  1.00  0.00     0.007 C 
ENDBRANCH   8  24
ENDBRANCH   7   8
ENDBRANCH   5   7
ENDBRANCH   4   5
ENDBRANCH   3   4
ENDBRANCH   2   3
ENDBRANCH   1   2
BRANCH   1  26
ATOM     26  C   UNL A   1      36.322  21.531  25.763  1.00  0.00     0.202 C 
BRANCH  26  27
ATOM     27  C   UNL A   1      37.799  21.210  25.503  1.00  0.00     0.261 C 
BRANCH  27  28
ATOM     28  O   UNL A   1      38.630  22.348  25.778  1.00  0.00    -0.460 OA
BRANCH  28  29
ATOM     29  C   UNL A   1      39.633  22.109  26.669  1.00  0.00     0.338 C 
ATOM     30  O   UNL A   1      40.193  21.070  26.897  1.00  0.00    -0.246 OA
BRANCH  29  31
ATOM     31  C   UNL A   1      40.168  23.455  26.964  1.00  0.00     0.060 A 
ATOM     32  C   UNL A   1      41.251  23.628  27.824  1.00  0.00     0.016 A 
ATOM     33  C   UNL A   1      39.337  24.528  26.615  1.00  0.00     0.016 A 
ATOM     34  C   UNL A   1      41.427  24.860  28.437  1.00  0.00     0.010 A 
ATOM     35  C   UNL A   1      39.512  25.758  27.234  1.00  0.00     0.010 A 
ATOM     36  C   UNL A   1      40.526  25.908  28.181  1.00  0.00    -0.014 A 
BRANCH  36  37
ATOM     37  C   UNL A   1      40.824  27.202  28.793  1.00  0.00     0.031 A 
ATOM     38  C   UNL A   1      42.074  27.811  28.271  1.00  0.00     0.074 A 
ATOM     39  C   UNL A   1      40.040  27.889  29.648  1.00  0.00     0.049 A 
ATOM     40  N   UNL A   1      43.144  28.121  28.924  1.00  0.00    -0.248 NA
ATOM     41  C   UNL A   1      42.178  27.986  26.814  1.00  0.00     0.031 C 
ATOM     42  C   UNL A   1      38.661  27.590  30.033  1.00  0.00     0.029 A 
ATOM     43  N   UNL A   1      40.294  29.075  30.286  1.00  0.00    -0.354 N 
ATOM     44  C   UNL A   1      44.003  28.684  27.986  1.00  0.00     0.074 A 
ATOM     45  C   UNL A   1      43.421  28.449  26.691  1.00  0.00     0.031 C 
ATOM     46  C   UNL A   1      38.134  28.662  30.667  1.00  0.00     0.029 A 
ATOM     47  C   UNL A   1      39.169  29.671  30.840  1.00  0.00     0.049 A 
ATOM     48  H   UNL A   1      41.193  29.470  30.346  1.00  0.00     0.167 HD
ATOM     49  C   UNL A   1      45.002  29.523  28.362  1.00  0.00     0.037 A 
ATOM     50  C   UNL A   1      39.078  30.921  31.358  1.00  0.00     0.037 A 
ATOM     51  C   UNL A   1      45.307  29.397  29.759  1.00  0.00     0.049 A 
ATOM     52  C   UNL A   1      40.439  31.368  31.736  1.00  0.00     0.074 A 
ATOM     53  C   UNL A   1      45.921  28.468  30.568  1.00  0.00     0.029 A 
ATOM     54  N   UNL A   1      44.638  30.268  30.575  1.00  0.00    -0.354 N 
ATOM     55  N   UNL A   1      41.124  30.871  32.726  1.00  0.00    -0.248 NA
ATOM     56  C   UNL A   1      41.182  32.250  30.841  1.00  0.00     0.031 C 
ATOM     57  C   UNL A   1      45.395  28.677  31.877  1.00  0.00     0.029 A 
ATOM     58  C   UNL A   1      44.478  29.725  31.820  1.00  0.00     0.049 A 
ATOM     59  H   UNL A   1      44.317  31.159  30.304  1.00  0.00     0.167 HD
ATOM     60  C   UNL A   1      42.440  31.033  32.345  1.00  0.00     0.074 A 
ATOM     61  C   UNL A   1      42.419  32.044  31.300  1.00  0.00     0.031 C 
ATOM     62  C   UNL A   1      43.373  30.097  32.673  1.00  0.00     0.037 A 
BRANCH  49  63
ATOM     63  C   UNL A   1      45.380  30.767  27.591  1.00  0.00     0.064 A 
ATOM     64  C   UNL A   1      46.714  30.930  27.166  1.00  0.00     0.173 A 
ATOM     65  C   UNL A   1      44.582  31.931  27.552  1.00  0.00     0.173 A 
ATOM     66  F   UNL A   1      47.571  29.897  27.196  1.00  0.00    -0.203 F 
ATOM     67  C   UNL A   1      47.223  32.177  26.795  1.00  0.00     0.198 A 
ATOM     68  C   UNL A   1      45.078  33.162  27.128  1.00  0.00     0.198 A 
ATOM     69  F   UNL A   1      43.335  31.956  28.037  1.00  0.00    -0.203 F 
ATOM     70  F   UNL A   1      48.528  32.310  26.521  1.00  0.00    -0.200 F 
ATOM     71  C   UNL A   1      46.405  33.292  26.779  1.00  0.00     0.200 A 
ATOM     72  F   UNL A   1      44.277  34.236  27.146  1.00  0.00    -0.200 F 
ATOM     73  F   UNL A   1      46.903  34.500  26.482  1.00  0.00    -0.200 F 
ENDBRANCH  49  63
BRANCH  50  74
ATOM     74  C   UNL A   1      37.924  31.853  31.401  1.00  0.00     0.064 A 
ATOM     75  C   UNL A   1      37.429  32.448  30.225  1.00  0.00     0.173 A 
ATOM     76  C   UNL A   1      37.104  31.956  32.541  1.00  0.00     0.173 A 
ATOM     77  F   UNL A   1      38.126  32.370  29.082  1.00  0.00    -0.203 F 
ATOM     78  C   UNL A   1      36.173  33.061  30.181  1.00  0.00     0.198 A 
ATOM     79  C   UNL A   1      35.857  32.582  32.499  1.00  0.00     0.198 A 
ATOM     80  F   UNL A   1      37.451  31.367  33.694  1.00  0.00    -0.203 F 
ATOM     81  F   UNL A   1      35.706  33.541  29.020  1.00  0.00    -0.200 F 
ATOM     82  C   UNL A   1      35.383  33.116  31.315  1.00  0.00     0.200 A 
ATOM     83  F   UNL A   1      35.087  32.602  33.597  1.00  0.00    -0.200 F 
ATOM     84  F   UNL A   1      34.151  33.641  31.258  1.00  0.00    -0.200 F 
ENDBRANCH  50  74
BRANCH  62  85
ATOM     85  C   UNL A   1      43.103  29.245  33.871  1.00  0.00     0.064 A 
ATOM     86  C   UNL A   1      42.350  28.061  33.845  1.00  0.00     0.173 A 
ATOM     87  C   UNL A   1      43.729  29.596  35.075  1.00  0.00     0.173 A 
ATOM     88  F   UNL A   1      41.790  27.623  32.710  1.00  0.00    -0.203 F 
ATOM     89  C   UNL A   1      42.208  27.280  34.991  1.00  0.00     0.198 A 
ATOM     90  C   UNL A   1      43.617  28.795  36.205  1.00  0.00     0.198 A 
ATOM     91  F   UNL A   1      44.493  30.698  35.139  1.00  0.00    -0.203 F 
ATOM     92  F   UNL A   1      41.475  26.158  34.951  1.00  0.00    -0.200 F 
ATOM     93  C   UNL A   1      42.849  27.642  36.166  1.00  0.00     0.200 A 
ATOM     94  F   UNL A   1      44.275  29.127  37.325  1.00  0.00    -0.200 F 
ATOM     95  F   UNL A   1      42.750  26.867  37.255  1.00  0.00    -0.200 F 
ENDBRANCH  62  85
ENDBRANCH  36  37
ENDBRANCH  29  31
ENDBRANCH  28  29
ENDBRANCH  27  28
ENDBRANCH  26  27
ENDBRANCH   1  26
TORSDOF 17
ENDMDL
MODEL 3
REMARK VINA RESULT:     -11.2      4.105      9.634
REMARK SMILES CCc1cccc2c3c([nH]c12)[C@](CC)(CC(=O)OCCOCCOC(=O)c1ccc(-c2c4nc(c(-c5c(F)c(F)c(F)c(F)c5F)c5ccc([nH]5)c(-c5c(F)c(F)c(F)c(F)c5F)c5nc(c(-c6c(F)c(F)c(F)c(F)c6F)c6ccc2[nH]6)C=C5)C=C4)cc1)OCC3
REMARK SMILES IDX 21 1 20 2 19 3 18 4 16 5 17 6 15 7 12 8 3 9 4 10 11 11 5 12
REMARK SMILES IDX 7 13 10 14 6 15 8 16 9 17 92 19 91 20 90 21 2 22 1 23 13 24
REMARK SMILES IDX 14 25 22 26 23 27 24 28 25 29 26 30 27 31 28 32 89 33 29 34
REMARK SMILES IDX 88 35 30 36 31 37 32 38 82 39 33 40 87 41 81 42 83 43 34 44
REMARK SMILES IDX 86 45 80 46 79 47 35 49 67 50 47 51 66 52 48 53 51 54 65 55
REMARK SMILES IDX 84 56 49 57 50 58 64 60 85 61 52 62 36 63 37 64 45 65 38 66
REMARK SMILES IDX 39 67 43 68 46 69 40 70 41 71 44 72 42 73 68 74 69 75 77 76
REMARK SMILES IDX 70 77 71 78 75 79 78 80 72 81 73 82 76 83 74 84 53 85 54 86
REMARK SMILES IDX 62 87 55 88 56 89 60 90 63 91 57 92 58 93 61 94 59 95
REMARK H PARENT 10 18 83 48 51 59
REMARK Flexibility Score: inf
ROOT
ATOM      1  O   UNL A   1      33.577  33.368  29.364  1.00  0.00    -0.374 OA
ENDROOT
BRANCH   1   2
ATOM      2  C   UNL A   1      34.350  32.534  28.513  1.00  0.00     0.202 C 
BRANCH   2   3
ATOM      3  C   UNL A   1      33.624  31.486  27.656  1.00  0.00     0.261 C 
BRANCH   3   4
ATOM      4  O   UNL A   1      34.457  30.495  27.011  1.00  0.00    -0.463 OA
BRANCH   4   5
ATOM      5  C   UNL A   1      33.877  29.280  26.881  1.00  0.00     0.309 C 
ATOM      6  O   UNL A   1      33.331  28.691  27.816  1.00  0.00    -0.252 OA
BRANCH   5   7
ATOM      7  C   UNL A   1      34.055  28.551  25.570  1.00  0.00     0.164 C 
BRANCH   7   8
ATOM      8  C   UNL A   1      33.237  27.399  24.958  1.00  0.00     0.118 C 
ATOM      9  C   UNL A   1      35.691  23.046  25.856  1.00  0.00    -0.024 A 
ATOM     10  C   UNL A   1      35.332  21.918  26.633  1.00  0.00     0.006 A 
ATOM     11  C   UNL A   1      34.721  24.074  25.793  1.00  0.00     0.049 A 
ATOM     12  C   UNL A   1      34.087  21.784  27.237  1.00  0.00     0.001 A 
ATOM     13  C   UNL A   1      33.434  23.928  26.328  1.00  0.00     0.003 A 
ATOM     14  N   UNL A   1      34.766  25.347  25.247  1.00  0.00    -0.356 N 
ATOM     15  C   UNL A   1      33.111  22.760  27.046  1.00  0.00     0.010 A 
ATOM     16  C   UNL A   1      32.704  25.097  25.988  1.00  0.00    -0.014 A 
ATOM     17  C   UNL A   1      33.577  26.006  25.433  1.00  0.00     0.052 A 
ATOM     18  H   UNL A   1      35.548  25.728  24.786  1.00  0.00     0.166 HD
ATOM     19  C   UNL A   1      31.272  25.434  26.144  1.00  0.00     0.066 C 
ATOM     20  C   UNL A   1      31.134  26.961  26.157  1.00  0.00     0.166 C 
ATOM     21  O   UNL A   1      31.808  27.611  25.074  1.00  0.00    -0.368 OA
BRANCH   9  22
ATOM     22  C   UNL A   1      37.011  22.960  25.114  1.00  0.00     0.034 C 
ATOM     23  C   UNL A   1      37.896  21.752  25.358  1.00  0.00     0.009 C 
ENDBRANCH   9  22
BRANCH   8  24
ATOM     24  C   UNL A   1      33.486  27.431  23.406  1.00  0.00     0.039 C 
ATOM     25  C   UNL A   1      33.631  28.827  22.800  1.00  0.00     0.007 C 
ENDBRANCH   8  24
ENDBRANCH   7   8
ENDBRANCH   5   7
ENDBRANCH   4   5
ENDBRANCH   3   4
ENDBRANCH   2   3
ENDBRANCH   1   2
BRANCH   1  26
ATOM     26  C   UNL A   1      33.718  34.783  29.215  1.00  0.00     0.202 C 
BRANCH  26  27
ATOM     27  C   UNL A   1      32.992  35.670  30.235  1.00  0.00     0.261 C 
BRANCH  27  28
ATOM     28  O   UNL A   1      33.799  35.876  31.403  1.00  0.00    -0.460 OA
BRANCH  28  29
ATOM     29  C   UNL A   1      33.528  35.025  32.432  1.00  0.00     0.338 C 
ATOM     30  O   UNL A   1      32.456  34.720  32.882  1.00  0.00    -0.246 OA
BRANCH  29  31
ATOM     31  C   UNL A   1      34.772  34.240  32.577  1.00  0.00     0.060 A 
ATOM     32  C   UNL A   1      36.023  34.844  32.459  1.00  0.00     0.016 A 
ATOM     33  C   UNL A   1      34.626  32.849  32.497  1.00  0.00     0.016 A 
ATOM     34  C   UNL A   1      37.117  34.056  32.133  1.00  0.00     0.010 A 
ATOM     35  C   UNL A   1      35.722  32.063  32.166  1.00  0.00     0.010 A 
ATOM     36  C   UNL A   1      36.956  32.674  31.936  1.00  0.00    -0.014 A 
BRANCH  36  37
ATOM     37  C   UNL A   1      38.166  31.894  31.683  1.00  0.00     0.031 A 
ATOM     38  C   UNL A   1      38.966  31.659  32.911  1.00  0.00     0.074 A 
ATOM     39  C   UNL A   1      38.521  31.313  30.519  1.00  0.00     0.049 A 
ATOM     40  N   UNL A   1      40.179  32.027  33.157  1.00  0.00    -0.248 NA
ATOM     41  C   UNL A   1      38.278  31.033  34.051  1.00  0.00     0.031 C 
ATOM     42  C   UNL A   1      37.721  31.186  29.302  1.00  0.00     0.029 A 
ATOM     43  N   UNL A   1      39.664  30.618  30.217  1.00  0.00    -0.354 N 
ATOM     44  C   UNL A   1      40.467  31.537  34.426  1.00  0.00     0.074 A 
ATOM     45  C   UNL A   1      39.229  31.062  34.983  1.00  0.00     0.031 C 
ATOM     46  C   UNL A   1      38.310  30.294  28.474  1.00  0.00     0.029 A 
ATOM     47  C   UNL A   1      39.583  29.881  29.044  1.00  0.00     0.049 A 
ATOM     48  H   UNL A   1      40.470  30.640  30.782  1.00  0.00     0.167 HD
ATOM     49  C   UNL A   1      41.749  31.328  34.825  1.00  0.00     0.037 A 
ATOM     50  C   UNL A   1      40.472  28.958  28.597  1.00  0.00     0.037 A 
ATOM     51  C   UNL A   1      42.686  32.044  34.006  1.00  0.00     0.049 A 
ATOM     52  C   UNL A   1      41.780  29.222  29.241  1.00  0.00     0.074 A 
ATOM     53  C   UNL A   1      43.062  33.356  33.833  1.00  0.00     0.029 A 
ATOM     54  N   UNL A   1      43.187  31.335  32.948  1.00  0.00    -0.354 N 
ATOM     55  N   UNL A   1      42.529  30.255  28.981  1.00  0.00    -0.248 NA
ATOM     56  C   UNL A   1      42.185  28.430  30.399  1.00  0.00     0.031 C 
ATOM     57  C   UNL A   1      43.597  33.443  32.513  1.00  0.00     0.029 A 
ATOM     58  C   UNL A   1      43.526  32.179  31.928  1.00  0.00     0.049 A 
ATOM     59  H   UNL A   1      43.287  30.355  32.926  1.00  0.00     0.167 HD
ATOM     60  C   UNL A   1      43.222  30.478  30.154  1.00  0.00     0.074 A 
ATOM     61  C   UNL A   1      43.125  29.235  30.902  1.00  0.00     0.031 C 
ATOM     62  C   UNL A   1      43.516  31.746  30.550  1.00  0.00     0.037 A 
BRANCH  49  63
ATOM     63  C   UNL A   1      42.182  30.132  35.642  1.00  0.00     0.064 A 
ATOM     64  C   UNL A   1      43.135  30.312  36.664  1.00  0.00     0.173 A 
ATOM     65  C   UNL A   1      41.961  28.795  35.244  1.00  0.00     0.173 A 
ATOM     66  F   UNL A   1      43.451  31.543  37.094  1.00  0.00    -0.203 F 
ATOM     67  C   UNL A   1      43.855  29.240  37.198  1.00  0.00     0.198 A 
ATOM     68  C   UNL A   1      42.640  27.724  35.818  1.00  0.00     0.198 A 
ATOM     69  F   UNL A   1      41.176  28.482  34.206  1.00  0.00    -0.203 F 
ATOM     70  F   UNL A   1      44.841  29.471  38.077  1.00  0.00    -0.200 F 
ATOM     71  C   UNL A   1      43.609  27.947  36.772  1.00  0.00     0.200 A 
ATOM     72  F   UNL A   1      42.407  26.482  35.372  1.00  0.00    -0.200 F 
ATOM     73  F   UNL A   1      44.338  26.925  37.239  1.00  0.00    -0.200 F 
ENDBRANCH  49  63
BRANCH  50  74
ATOM     74  C   UNL A   1      40.250  27.741  27.777  1.00  0.00     0.064 A 
ATOM     75  C   UNL A   1      41.010  27.502  26.617  1.00  0.00     0.173 A 
ATOM     76  C   UNL A   1      39.500  26.654  28.263  1.00  0.00     0.173 A 
ATOM     77  F   UNL A   1      41.783  28.470  26.101  1.00  0.00    -0.203 F 
ATOM     78  C   UNL A   1      41.055  26.243  26.012  1.00  0.00     0.198 A 
ATOM     79  C   UNL A   1      39.534  25.400  27.649  1.00  0.00     0.198 A 
ATOM     80  F   UNL A   1      38.795  26.756  29.398  1.00  0.00    -0.203 F 
ATOM     81  F   UNL A   1      41.857  26.037  24.957  1.00  0.00    -0.200 F 
ATOM     82  C   UNL A   1      40.327  25.189  26.536  1.00  0.00     0.200 A 
ATOM     83  F   UNL A   1      38.848  24.381  28.184  1.00  0.00    -0.200 F 
ATOM     84  F   UNL A   1      40.423  23.965  25.999  1.00  0.00    -0.200 F 
ENDBRANCH  50  74
BRANCH  62  85
ATOM     85  C   UNL A   1      43.600  32.798  29.491  1.00  0.00     0.064 A 
ATOM     86  C   UNL A   1      42.577  33.713  29.204  1.00  0.00     0.173 A 
ATOM     87  C   UNL A   1      44.818  32.944  28.813  1.00  0.00     0.173 A 
ATOM     88  F   UNL A   1      41.415  33.683  29.870  1.00  0.00    -0.203 F 
ATOM     89  C   UNL A   1      42.762  34.715  28.252  1.00  0.00     0.198 A 
ATOM     90  C   UNL A   1      45.012  33.967  27.893  1.00  0.00     0.198 A 
ATOM     91  F   UNL A   1      45.842  32.117  29.082  1.00  0.00    -0.203 F 
ATOM     92  F   UNL A   1      41.768  35.575  27.982  1.00  0.00    -0.200 F 
ATOM     93  C   UNL A   1      43.981  34.847  27.606  1.00  0.00     0.200 A 
ATOM     94  F   UNL A   1      46.207  34.117  27.305  1.00  0.00    -0.200 F 
ATOM     95  F   UNL A   1      44.173  35.839  26.725  1.00  0.00    -0.200 F 
ENDBRANCH  62  85
ENDBRANCH  36  37
ENDBRANCH  29  31
ENDBRANCH  28  29
ENDBRANCH  27  28
ENDBRANCH  26  27
ENDBRANCH   1  26
TORSDOF 17
ENDMDL
