MODEL 1
REMARK VINA RESULT:     -11.0      0.000      0.000
REMARK SMILES CCn1cccc1C(=O)N(C)c1snc(C)c1C(=O)OCCOCCOC(=O)c1ccc(-c2c3nc(c(-c4c(F)c(F)c(F)c(F)c4F)c4ccc([nH]4)c(-c4c(F)c(F)c(F)c(F)c4F)c4nc(c(-c5c(F)c(F)c(F)c(F)c5F)c5ccc2[nH]5)C=C4)C=C3)cc1
REMARK SMILES IDX 22 1 21 2 20 3 18 4 19 5 17 6 12 7 13 8 14 9 15 10 16 11
REMARK SMILES IDX 10 12 11 13 8 14 9 15 7 16 3 17 4 18 5 19 6 20 2 21 1 22
REMARK SMILES IDX 23 23 24 24 25 25 26 26 27 27 28 28 29 29 30 30 91 31 31 32
REMARK SMILES IDX 90 33 32 34 33 35 34 36 84 37 35 38 89 39 83 40 85 41 36 42
REMARK SMILES IDX 88 43 82 44 81 45 37 47 69 48 49 49 68 50 50 51 53 52 67 53
REMARK SMILES IDX 86 54 51 55 52 56 66 58 87 59 54 60 38 61 39 62 47 63 40 64
REMARK SMILES IDX 41 65 45 66 48 67 42 68 43 69 46 70 44 71 70 72 71 73 79 74
REMARK SMILES IDX 72 75 73 76 77 77 80 78 74 79 75 80 78 81 76 82 55 83 56 84
REMARK SMILES IDX 64 85 57 86 58 87 62 88 65 89 59 90 60 91 63 92 61 93
REMARK H PARENT 85 46 53 57
REMARK Flexibility Score: inf
ROOT
ATOM      1  C   UNL A   1      33.797  29.216  26.955  1.00  0.00     0.202 C 
ENDROOT
BRANCH   1   2
ATOM      2  C   UNL A   1      33.707  28.281  25.749  1.00  0.00     0.261 C 
BRANCH   2   3
ATOM      3  O   UNL A   1      33.896  26.908  26.129  1.00  0.00    -0.460 OA
BRANCH   3   4
ATOM      4  C   UNL A   1      33.429  25.990  25.224  1.00  0.00     0.343 C 
ATOM      5  O   UNL A   1      33.901  25.817  24.115  1.00  0.00    -0.246 OA
BRANCH   4   6
ATOM      6  C   UNL A   1      32.461  25.067  25.805  1.00  0.00     0.117 A 
ATOM      7  C   UNL A   1      32.667  23.762  26.224  1.00  0.00     0.133 A 
ATOM      8  S   UNL A   1      31.201  23.162  26.881  1.00  0.00    -0.017 S 
ATOM      9  N   UNL A   1      30.260  24.427  26.413  1.00  0.00    -0.195 NA
ATOM     10  C   UNL A   1      31.030  25.337  25.817  1.00  0.00     0.068 A 
ATOM     11  C   UNL A   1      30.322  26.455  25.117  1.00  0.00     0.069 C 
BRANCH   7  12
ATOM     12  N   UNL A   1      33.753  22.868  26.165  1.00  0.00    -0.300 N 
ATOM     13  C   UNL A   1      34.288  22.382  27.429  1.00  0.00     0.154 C 
BRANCH  12  14
ATOM     14  C   UNL A   1      34.152  22.416  24.892  1.00  0.00     0.275 C 
ATOM     15  O   UNL A   1      35.235  22.792  24.427  1.00  0.00    -0.267 OA
BRANCH  14  16
ATOM     16  C   UNL A   1      33.298  21.559  24.044  1.00  0.00     0.107 A 
ATOM     17  N   UNL A   1      33.009  20.191  24.019  1.00  0.00    -0.344 N 
ATOM     18  C   UNL A   1      32.171  19.919  22.956  1.00  0.00     0.086 A 
ATOM     19  C   UNL A   1      31.978  21.065  22.232  1.00  0.00     0.020 A 
ATOM     20  C   UNL A   1      32.679  22.080  22.902  1.00  0.00     0.033 A 
BRANCH  17  21
ATOM     21  C   UNL A   1      33.507  19.151  24.907  1.00  0.00     0.119 C 
ATOM     22  C   UNL A   1      34.280  17.993  24.287  1.00  0.00     0.027 C 
ENDBRANCH  17  21
ENDBRANCH  14  16
ENDBRANCH  12  14
ENDBRANCH   7  12
ENDBRANCH   4   6
ENDBRANCH   3   4
ENDBRANCH   2   3
ENDBRANCH   1   2
BRANCH   1  23
ATOM     23  O   UNL A   1      33.332  30.560  26.809  1.00  0.00    -0.374 OA
BRANCH  23  24
ATOM     24  C   UNL A   1      33.798  31.584  27.678  1.00  0.00     0.202 C 
BRANCH  24  25
ATOM     25  C   UNL A   1      33.261  33.002  27.530  1.00  0.00     0.261 C 
BRANCH  25  26
ATOM     26  O   UNL A   1      32.657  33.507  28.709  1.00  0.00    -0.460 OA
BRANCH  26  27
ATOM     27  C   UNL A   1      33.078  34.767  28.954  1.00  0.00     0.338 C 
ATOM     28  O   UNL A   1      32.712  35.796  28.408  1.00  0.00    -0.246 OA
BRANCH  27  29
ATOM     29  C   UNL A   1      34.240  34.743  29.832  1.00  0.00     0.060 A 
ATOM     30  C   UNL A   1      35.462  34.819  29.162  1.00  0.00     0.016 A 
ATOM     31  C   UNL A   1      34.086  34.128  31.081  1.00  0.00     0.016 A 
ATOM     32  C   UNL A   1      36.491  34.047  29.629  1.00  0.00     0.010 A 
ATOM     33  C   UNL A   1      35.107  33.332  31.535  1.00  0.00     0.010 A 
ATOM     34  C   UNL A   1      36.277  33.265  30.771  1.00  0.00    -0.014 A 
BRANCH  34  35
ATOM     35  C   UNL A   1      37.426  32.515  31.259  1.00  0.00     0.031 A 
ATOM     36  C   UNL A   1      37.612  31.275  30.378  1.00  0.00     0.074 A 
ATOM     37  C   UNL A   1      38.001  32.999  32.402  1.00  0.00     0.049 A 
ATOM     38  N   UNL A   1      38.100  30.114  30.673  1.00  0.00    -0.248 NA
ATOM     39  C   UNL A   1      37.095  31.295  28.975  1.00  0.00     0.031 C 
ATOM     40  C   UNL A   1      37.640  34.273  33.072  1.00  0.00     0.029 A 
ATOM     41  N   UNL A   1      38.977  32.523  33.246  1.00  0.00    -0.354 N 
ATOM     42  C   UNL A   1      38.154  29.370  29.478  1.00  0.00     0.074 A 
ATOM     43  C   UNL A   1      37.397  30.087  28.505  1.00  0.00     0.031 C 
ATOM     44  C   UNL A   1      38.311  34.415  34.238  1.00  0.00     0.029 A 
ATOM     45  C   UNL A   1      39.177  33.270  34.440  1.00  0.00     0.049 A 
ATOM     46  H   UNL A   1      39.503  31.716  33.037  1.00  0.00     0.167 HD
ATOM     47  C   UNL A   1      38.958  28.282  29.326  1.00  0.00     0.037 A 
ATOM     48  C   UNL A   1      39.949  32.946  35.526  1.00  0.00     0.037 A 
ATOM     49  C   UNL A   1      39.593  27.976  30.563  1.00  0.00     0.049 A 
ATOM     50  C   UNL A   1      40.652  31.722  35.118  1.00  0.00     0.074 A 
ATOM     51  C   UNL A   1      39.100  27.456  31.730  1.00  0.00     0.029 A 
ATOM     52  N   UNL A   1      40.793  28.597  30.816  1.00  0.00    -0.354 N 
ATOM     53  N   UNL A   1      41.624  31.683  34.257  1.00  0.00    -0.248 NA
ATOM     54  C   UNL A   1      40.161  30.431  35.615  1.00  0.00     0.031 C 
ATOM     55  C   UNL A   1      39.781  28.185  32.726  1.00  0.00     0.029 A 
ATOM     56  C   UNL A   1      40.804  28.944  32.143  1.00  0.00     0.049 A 
ATOM     57  H   UNL A   1      41.512  28.762  30.163  1.00  0.00     0.167 HD
ATOM     58  C   UNL A   1      41.620  30.363  33.878  1.00  0.00     0.074 A 
ATOM     59  C   UNL A   1      40.975  29.626  34.940  1.00  0.00     0.031 C 
ATOM     60  C   UNL A   1      41.640  30.046  32.557  1.00  0.00     0.037 A 
BRANCH  47  61
ATOM     61  C   UNL A   1      39.440  27.577  28.096  1.00  0.00     0.064 A 
ATOM     62  C   UNL A   1      39.494  26.164  28.124  1.00  0.00     0.173 A 
ATOM     63  C   UNL A   1      40.165  28.209  27.077  1.00  0.00     0.173 A 
ATOM     64  F   UNL A   1      38.791  25.468  29.033  1.00  0.00    -0.203 F 
ATOM     65  C   UNL A   1      40.339  25.444  27.286  1.00  0.00     0.198 A 
ATOM     66  C   UNL A   1      40.971  27.476  26.202  1.00  0.00     0.198 A 
ATOM     67  F   UNL A   1      40.199  29.542  26.964  1.00  0.00    -0.203 F 
ATOM     68  F   UNL A   1      40.472  24.120  27.452  1.00  0.00    -0.200 F 
ATOM     69  C   UNL A   1      41.093  26.104  26.337  1.00  0.00     0.200 A 
ATOM     70  F   UNL A   1      41.695  28.121  25.276  1.00  0.00    -0.200 F 
ATOM     71  F   UNL A   1      41.965  25.426  25.579  1.00  0.00    -0.200 F 
ENDBRANCH  47  61
BRANCH  48  72
ATOM     72  C   UNL A   1      40.191  33.409  36.949  1.00  0.00     0.064 A 
ATOM     73  C   UNL A   1      41.308  34.110  37.418  1.00  0.00     0.173 A 
ATOM     74  C   UNL A   1      39.186  33.199  37.942  1.00  0.00     0.173 A 
ATOM     75  F   UNL A   1      42.390  34.277  36.651  1.00  0.00    -0.203 F 
ATOM     76  C   UNL A   1      41.358  34.653  38.720  1.00  0.00     0.198 A 
ATOM     77  C   UNL A   1      39.209  33.781  39.210  1.00  0.00     0.198 A 
ATOM     78  F   UNL A   1      38.125  32.412  37.720  1.00  0.00    -0.203 F 
ATOM     79  F   UNL A   1      42.449  35.320  39.122  1.00  0.00    -0.200 F 
ATOM     80  C   UNL A   1      40.292  34.525  39.596  1.00  0.00     0.200 A 
ATOM     81  F   UNL A   1      38.160  33.621  40.032  1.00  0.00    -0.200 F 
ATOM     82  F   UNL A   1      40.315  35.101  40.806  1.00  0.00    -0.200 F 
ENDBRANCH  48  72
BRANCH  60  83
ATOM     83  C   UNL A   1      42.215  31.137  31.670  1.00  0.00     0.064 A 
ATOM     84  C   UNL A   1      43.580  31.455  31.750  1.00  0.00     0.173 A 
ATOM     85  C   UNL A   1      41.445  31.968  30.841  1.00  0.00     0.173 A 
ATOM     86  F   UNL A   1      44.398  30.699  32.498  1.00  0.00    -0.203 F 
ATOM     87  C   UNL A   1      44.125  32.547  31.066  1.00  0.00     0.198 A 
ATOM     88  C   UNL A   1      41.981  33.062  30.156  1.00  0.00     0.198 A 
ATOM     89  F   UNL A   1      40.149  31.734  30.663  1.00  0.00    -0.203 F 
ATOM     90  F   UNL A   1      45.434  32.815  31.171  1.00  0.00    -0.200 F 
ATOM     91  C   UNL A   1      43.324  33.354  30.274  1.00  0.00     0.200 A 
ATOM     92  F   UNL A   1      41.193  33.820  29.379  1.00  0.00    -0.200 F 
ATOM     93  F   UNL A   1      43.847  34.396  29.613  1.00  0.00    -0.200 F 
ENDBRANCH  60  83
ENDBRANCH  34  35
ENDBRANCH  27  29
ENDBRANCH  26  27
ENDBRANCH  25  26
ENDBRANCH  24  25
ENDBRANCH  23  24
ENDBRANCH   1  23
TORSDOF 18
ENDMDL
MODEL 2
REMARK VINA RESULT:     -10.9      3.144      7.879
REMARK SMILES CCn1cccc1C(=O)N(C)c1snc(C)c1C(=O)OCCOCCOC(=O)c1ccc(-c2c3nc(c(-c4c(F)c(F)c(F)c(F)c4F)c4ccc([nH]4)c(-c4c(F)c(F)c(F)c(F)c4F)c4nc(c(-c5c(F)c(F)c(F)c(F)c5F)c5ccc2[nH]5)C=C4)C=C3)cc1
REMARK SMILES IDX 22 1 21 2 20 3 18 4 19 5 17 6 12 7 13 8 14 9 15 10 16 11
REMARK SMILES IDX 10 12 11 13 8 14 9 15 7 16 3 17 4 18 5 19 6 20 2 21 1 22
REMARK SMILES IDX 23 23 24 24 25 25 26 26 27 27 28 28 29 29 30 30 91 31 31 32
REMARK SMILES IDX 90 33 32 34 33 35 34 36 84 37 35 38 89 39 83 40 85 41 36 42
REMARK SMILES IDX 88 43 82 44 81 45 37 47 69 48 49 49 68 50 50 51 53 52 67 53
REMARK SMILES IDX 86 54 51 55 52 56 66 58 87 59 54 60 38 61 39 62 47 63 40 64
REMARK SMILES IDX 41 65 45 66 48 67 42 68 43 69 46 70 44 71 70 72 71 73 79 74
REMARK SMILES IDX 72 75 73 76 77 77 80 78 74 79 75 80 78 81 76 82 55 83 56 84
REMARK SMILES IDX 64 85 57 86 58 87 62 88 65 89 59 90 60 91 63 92 61 93
REMARK H PARENT 85 46 53 57
REMARK Flexibility Score: inf
ROOT
ATOM      1  C   UNL A   1      36.072  21.288  25.692  1.00  0.00     0.202 C 
ENDROOT
BRANCH   1   2
ATOM      2  C   UNL A   1      35.157  22.041  26.657  1.00  0.00     0.261 C 
BRANCH   2   3
ATOM      3  O   UNL A   1      33.820  21.515  26.640  1.00  0.00    -0.460 OA
BRANCH   3   4
ATOM      4  C   UNL A   1      32.833  22.451  26.461  1.00  0.00     0.343 C 
ATOM      5  O   UNL A   1      32.151  22.909  27.359  1.00  0.00    -0.246 OA
BRANCH   4   6
ATOM      6  C   UNL A   1      32.840  23.030  25.123  1.00  0.00     0.117 A 
ATOM      7  C   UNL A   1      32.852  24.370  24.769  1.00  0.00     0.133 A 
ATOM      8  S   UNL A   1      32.915  24.484  23.059  1.00  0.00    -0.017 S 
ATOM      9  N   UNL A   1      32.672  22.884  22.762  1.00  0.00    -0.195 NA
ATOM     10  C   UNL A   1      32.601  22.237  23.925  1.00  0.00     0.068 A 
ATOM     11  C   UNL A   1      32.153  20.810  23.868  1.00  0.00     0.069 C 
BRANCH   7  12
ATOM     12  N   UNL A   1      32.766  25.579  25.486  1.00  0.00    -0.300 N 
ATOM     13  C   UNL A   1      34.009  26.286  25.756  1.00  0.00     0.154 C 
BRANCH  12  14
ATOM     14  C   UNL A   1      31.478  26.072  25.773  1.00  0.00     0.275 C 
ATOM     15  O   UNL A   1      30.970  25.836  26.875  1.00  0.00    -0.267 OA
BRANCH  14  16
ATOM     16  C   UNL A   1      30.665  26.808  24.783  1.00  0.00     0.107 A 
ATOM     17  N   UNL A   1      30.785  28.050  24.153  1.00  0.00    -0.344 N 
ATOM     18  C   UNL A   1      29.688  28.262  23.343  1.00  0.00     0.086 A 
ATOM     19  C   UNL A   1      28.808  27.225  23.499  1.00  0.00     0.020 A 
ATOM     20  C   UNL A   1      29.410  26.327  24.394  1.00  0.00     0.033 A 
BRANCH  17  21
ATOM     21  C   UNL A   1      31.844  29.037  24.306  1.00  0.00     0.119 C 
ATOM     22  C   UNL A   1      31.782  29.969  25.512  1.00  0.00     0.027 C 
ENDBRANCH  17  21
ENDBRANCH  14  16
ENDBRANCH  12  14
ENDBRANCH   7  12
ENDBRANCH   4   6
ENDBRANCH   3   4
ENDBRANCH   2   3
ENDBRANCH   1   2
BRANCH   1  23
ATOM     23  O   UNL A   1      37.185  21.984  25.127  1.00  0.00    -0.374 OA
BRANCH  23  24
ATOM     24  C   UNL A   1      37.605  23.231  25.663  1.00  0.00     0.202 C 
BRANCH  24  25
ATOM     25  C   UNL A   1      38.861  23.299  26.522  1.00  0.00     0.261 C 
BRANCH  25  26
ATOM     26  O   UNL A   1      39.633  24.470  26.308  1.00  0.00    -0.460 OA
BRANCH  26  27
ATOM     27  C   UNL A   1      40.194  24.884  27.465  1.00  0.00     0.338 C 
ATOM     28  O   UNL A   1      40.965  24.268  28.185  1.00  0.00    -0.246 OA
BRANCH  27  29
ATOM     29  C   UNL A   1      39.575  26.127  27.903  1.00  0.00     0.060 A 
ATOM     30  C   UNL A   1      40.030  27.261  27.228  1.00  0.00     0.016 A 
ATOM     31  C   UNL A   1      39.067  26.163  29.209  1.00  0.00     0.016 A 
ATOM     32  C   UNL A   1      40.216  28.403  27.958  1.00  0.00     0.010 A 
ATOM     33  C   UNL A   1      39.280  27.298  29.949  1.00  0.00     0.010 A 
ATOM     34  C   UNL A   1      39.900  28.384  29.323  1.00  0.00    -0.014 A 
BRANCH  34  35
ATOM     35  C   UNL A   1      40.058  29.646  30.034  1.00  0.00     0.031 A 
ATOM     36  C   UNL A   1      38.824  30.515  29.770  1.00  0.00     0.074 A 
ATOM     37  C   UNL A   1      41.257  29.815  30.670  1.00  0.00     0.049 A 
ATOM     38  N   UNL A   1      38.711  31.803  29.726  1.00  0.00    -0.248 NA
ATOM     39  C   UNL A   1      37.532  29.854  29.408  1.00  0.00     0.031 C 
ATOM     40  C   UNL A   1      42.312  28.781  30.805  1.00  0.00     0.029 A 
ATOM     41  N   UNL A   1      41.848  30.881  31.308  1.00  0.00    -0.354 N 
ATOM     42  C   UNL A   1      37.342  32.094  29.563  1.00  0.00     0.074 A 
ATOM     43  C   UNL A   1      36.690  30.869  29.232  1.00  0.00     0.031 C 
ATOM     44  C   UNL A   1      43.420  29.291  31.389  1.00  0.00     0.029 A 
ATOM     45  C   UNL A   1      43.201  30.689  31.704  1.00  0.00     0.049 A 
ATOM     46  H   UNL A   1      41.366  31.724  31.478  1.00  0.00     0.167 HD
ATOM     47  C   UNL A   1      36.809  33.308  29.870  1.00  0.00     0.037 A 
ATOM     48  C   UNL A   1      44.081  31.616  32.199  1.00  0.00     0.037 A 
ATOM     49  C   UNL A   1      37.847  34.212  30.236  1.00  0.00     0.049 A 
ATOM     50  C   UNL A   1      43.269  32.828  32.377  1.00  0.00     0.074 A 
ATOM     51  C   UNL A   1      38.821  34.822  29.492  1.00  0.00     0.029 A 
ATOM     52  N   UNL A   1      38.206  34.241  31.562  1.00  0.00    -0.354 N 
ATOM     53  N   UNL A   1      42.381  32.987  33.311  1.00  0.00    -0.248 NA
ATOM     54  C   UNL A   1      43.368  33.894  31.373  1.00  0.00     0.031 C 
ATOM     55  C   UNL A   1      39.951  34.778  30.334  1.00  0.00     0.029 A 
ATOM     56  C   UNL A   1      39.572  34.358  31.615  1.00  0.00     0.049 A 
ATOM     57  H   UNL A   1      37.595  34.188  32.333  1.00  0.00     0.167 HD
ATOM     58  C   UNL A   1      41.609  34.004  32.805  1.00  0.00     0.074 A 
ATOM     59  C   UNL A   1      42.426  34.707  31.842  1.00  0.00     0.031 C 
ATOM     60  C   UNL A   1      40.257  33.876  32.792  1.00  0.00     0.037 A 
BRANCH  47  61
ATOM     61  C   UNL A   1      35.393  33.729  30.116  1.00  0.00     0.064 A 
ATOM     62  C   UNL A   1      34.726  34.436  29.087  1.00  0.00     0.173 A 
ATOM     63  C   UNL A   1      34.816  33.793  31.392  1.00  0.00     0.173 A 
ATOM     64  F   UNL A   1      35.176  34.392  27.823  1.00  0.00    -0.203 F 
ATOM     65  C   UNL A   1      33.646  35.271  29.351  1.00  0.00     0.198 A 
ATOM     66  C   UNL A   1      33.697  34.592  31.640  1.00  0.00     0.198 A 
ATOM     67  F   UNL A   1      35.370  33.176  32.443  1.00  0.00    -0.203 F 
ATOM     68  F   UNL A   1      33.144  36.038  28.373  1.00  0.00    -0.200 F 
ATOM     69  C   UNL A   1      33.144  35.364  30.633  1.00  0.00     0.200 A 
ATOM     70  F   UNL A   1      33.208  34.671  32.885  1.00  0.00    -0.200 F 
ATOM     71  F   UNL A   1      32.154  36.224  30.908  1.00  0.00    -0.200 F 
ENDBRANCH  47  61
BRANCH  48  72
ATOM     72  C   UNL A   1      45.560  31.757  32.502  1.00  0.00     0.064 A 
ATOM     73  C   UNL A   1      46.594  31.874  31.567  1.00  0.00     0.173 A 
ATOM     74  C   UNL A   1      45.998  31.853  33.859  1.00  0.00     0.173 A 
ATOM     75  F   UNL A   1      46.371  31.680  30.263  1.00  0.00    -0.203 F 
ATOM     76  C   UNL A   1      47.918  32.181  31.949  1.00  0.00     0.198 A 
ATOM     77  C   UNL A   1      47.293  32.210  34.236  1.00  0.00     0.198 A 
ATOM     78  F   UNL A   1      45.177  31.604  34.886  1.00  0.00    -0.203 F 
ATOM     79  F   UNL A   1      48.873  32.288  31.015  1.00  0.00    -0.200 F 
ATOM     80  C   UNL A   1      48.255  32.391  33.277  1.00  0.00     0.200 A 
ATOM     81  F   UNL A   1      47.580  32.390  35.534  1.00  0.00    -0.200 F 
ATOM     82  F   UNL A   1      49.497  32.750  33.630  1.00  0.00    -0.200 F 
ENDBRANCH  48  72
BRANCH  60  83
ATOM     83  C   UNL A   1      39.721  32.895  33.820  1.00  0.00     0.064 A 
ATOM     84  C   UNL A   1      39.057  31.733  33.398  1.00  0.00     0.173 A 
ATOM     85  C   UNL A   1      39.723  33.124  35.206  1.00  0.00     0.173 A 
ATOM     86  F   UNL A   1      39.027  31.419  32.093  1.00  0.00    -0.203 F 
ATOM     87  C   UNL A   1      38.416  30.878  34.302  1.00  0.00     0.198 A 
ATOM     88  C   UNL A   1      39.084  32.276  36.114  1.00  0.00     0.198 A 
ATOM     89  F   UNL A   1      40.355  34.175  35.718  1.00  0.00    -0.203 F 
ATOM     90  F   UNL A   1      37.794  29.780  33.854  1.00  0.00    -0.200 F 
ATOM     91  C   UNL A   1      38.425  31.154  35.659  1.00  0.00     0.200 A 
ATOM     92  F   UNL A   1      39.120  32.550  37.428  1.00  0.00    -0.200 F 
ATOM     93  F   UNL A   1      37.819  30.331  36.527  1.00  0.00    -0.200 F 
ENDBRANCH  60  83
ENDBRANCH  34  35
ENDBRANCH  27  29
ENDBRANCH  26  27
ENDBRANCH  25  26
ENDBRANCH  24  25
ENDBRANCH  23  24
ENDBRANCH   1  23
TORSDOF 18
ENDMDL
MODEL 3
REMARK VINA RESULT:     -10.9      4.336      6.701
REMARK SMILES CCn1cccc1C(=O)N(C)c1snc(C)c1C(=O)OCCOCCOC(=O)c1ccc(-c2c3nc(c(-c4c(F)c(F)c(F)c(F)c4F)c4ccc([nH]4)c(-c4c(F)c(F)c(F)c(F)c4F)c4nc(c(-c5c(F)c(F)c(F)c(F)c5F)c5ccc2[nH]5)C=C4)C=C3)cc1
REMARK SMILES IDX 22 1 21 2 20 3 18 4 19 5 17 6 12 7 13 8 14 9 15 10 16 11
REMARK SMILES IDX 10 12 11 13 8 14 9 15 7 16 3 17 4 18 5 19 6 20 2 21 1 22
REMARK SMILES IDX 23 23 24 24 25 25 26 26 27 27 28 28 29 29 30 30 91 31 31 32
REMARK SMILES IDX 90 33 32 34 33 35 34 36 84 37 35 38 89 39 83 40 85 41 36 42
REMARK SMILES IDX 88 43 82 44 81 45 37 47 69 48 49 49 68 50 50 51 53 52 67 53
REMARK SMILES IDX 86 54 51 55 52 56 66 58 87 59 54 60 38 61 39 62 47 63 40 64
REMARK SMILES IDX 41 65 45 66 48 67 42 68 43 69 46 70 44 71 70 72 71 73 79 74
REMARK SMILES IDX 72 75 73 76 77 77 80 78 74 79 75 80 78 81 76 82 55 83 56 84
REMARK SMILES IDX 64 85 57 86 58 87 62 88 65 89 59 90 60 91 63 92 61 93
REMARK H PARENT 85 46 53 57
REMARK Flexibility Score: inf
ROOT
ATOM      1  C   UNL A   1      32.308  29.984  25.476  1.00  0.00     0.202 C 
ENDROOT
BRANCH   1   2
ATOM      2  C   UNL A   1      33.203  28.915  24.849  1.00  0.00     0.261 C 
BRANCH   2   3
ATOM      3  O   UNL A   1      33.117  28.926  23.415  1.00  0.00    -0.460 OA
BRANCH   3   4
ATOM      4  C   UNL A   1      32.809  27.717  22.846  1.00  0.00     0.343 C 
ATOM      5  O   UNL A   1      33.524  27.127  22.057  1.00  0.00    -0.246 OA
BRANCH   4   6
ATOM      6  C   UNL A   1      31.648  27.083  23.460  1.00  0.00     0.117 A 
ATOM      7  C   UNL A   1      31.577  25.847  24.084  1.00  0.00     0.133 A 
ATOM      8  S   UNL A   1      29.983  25.627  24.679  1.00  0.00    -0.017 S 
ATOM      9  N   UNL A   1      29.330  26.945  23.942  1.00  0.00    -0.195 NA
ATOM     10  C   UNL A   1      30.296  27.599  23.296  1.00  0.00     0.068 A 
ATOM     11  C   UNL A   1      29.859  28.695  22.375  1.00  0.00     0.069 C 
BRANCH   7  12
ATOM     12  N   UNL A   1      32.477  24.780  24.261  1.00  0.00    -0.300 N 
ATOM     13  C   UNL A   1      32.708  23.905  23.122  1.00  0.00     0.154 C 
BRANCH  12  14
ATOM     14  C   UNL A   1      33.176  24.718  25.483  1.00  0.00     0.275 C 
ATOM     15  O   UNL A   1      33.351  25.754  26.134  1.00  0.00    -0.267 OA
BRANCH  14  16
ATOM     16  C   UNL A   1      33.779  23.471  25.997  1.00  0.00     0.107 A 
ATOM     17  N   UNL A   1      34.995  22.815  25.781  1.00  0.00    -0.344 N 
ATOM     18  C   UNL A   1      35.010  21.633  26.493  1.00  0.00     0.086 A 
ATOM     19  C   UNL A   1      33.795  21.458  27.100  1.00  0.00     0.020 A 
ATOM     20  C   UNL A   1      33.031  22.593  26.789  1.00  0.00     0.033 A 
BRANCH  17  21
ATOM     21  C   UNL A   1      36.097  23.225  24.924  1.00  0.00     0.119 C 
ATOM     22  C   UNL A   1      37.382  23.702  25.593  1.00  0.00     0.027 C 
ENDBRANCH  17  21
ENDBRANCH  14  16
ENDBRANCH  12  14
ENDBRANCH   7  12
ENDBRANCH   4   6
ENDBRANCH   3   4
ENDBRANCH   2   3
ENDBRANCH   1   2
BRANCH   1  23
ATOM     23  O   UNL A   1      32.482  30.290  26.861  1.00  0.00    -0.374 OA
BRANCH  23  24
ATOM     24  C   UNL A   1      33.678  30.904  27.321  1.00  0.00     0.202 C 
BRANCH  24  25
ATOM     25  C   UNL A   1      34.859  30.038  27.737  1.00  0.00     0.261 C 
BRANCH  25  26
ATOM     26  O   UNL A   1      36.120  30.632  27.475  1.00  0.00    -0.460 OA
BRANCH  26  27
ATOM     27  C   UNL A   1      36.949  30.468  28.530  1.00  0.00     0.338 C 
ATOM     28  O   UNL A   1      37.134  31.236  29.461  1.00  0.00    -0.246 OA
BRANCH  27  29
ATOM     29  C   UNL A   1      37.812  29.316  28.311  1.00  0.00     0.060 A 
ATOM     30  C   UNL A   1      38.056  28.560  29.459  1.00  0.00     0.016 A 
ATOM     31  C   UNL A   1      38.701  29.379  27.230  1.00  0.00     0.016 A 
ATOM     32  C   UNL A   1      39.318  28.063  29.636  1.00  0.00     0.010 A 
ATOM     33  C   UNL A   1      39.975  28.906  27.418  1.00  0.00     0.010 A 
ATOM     34  C   UNL A   1      40.277  28.300  28.642  1.00  0.00    -0.014 A 
BRANCH  34  35
ATOM     35  C   UNL A   1      41.584  27.693  28.855  1.00  0.00     0.031 A 
ATOM     36  C   UNL A   1      41.534  26.241  28.369  1.00  0.00     0.074 A 
ATOM     37  C   UNL A   1      42.498  28.478  29.502  1.00  0.00     0.049 A 
ATOM     38  N   UNL A   1      42.191  25.205  28.781  1.00  0.00    -0.248 NA
ATOM     39  C   UNL A   1      40.534  25.856  27.325  1.00  0.00     0.031 C 
ATOM     40  C   UNL A   1      42.306  29.906  29.858  1.00  0.00     0.029 A 
ATOM     41  N   UNL A   1      43.754  28.244  30.013  1.00  0.00    -0.354 N 
ATOM     42  C   UNL A   1      41.861  24.136  27.925  1.00  0.00     0.074 A 
ATOM     43  C   UNL A   1      40.740  24.554  27.147  1.00  0.00     0.031 C 
ATOM     44  C   UNL A   1      43.347  30.368  30.588  1.00  0.00     0.029 A 
ATOM     45  C   UNL A   1      44.318  29.308  30.770  1.00  0.00     0.049 A 
ATOM     46  H   UNL A   1      44.230  27.395  29.865  1.00  0.00     0.167 HD
ATOM     47  C   UNL A   1      42.640  23.027  27.803  1.00  0.00     0.037 A 
ATOM     48  C   UNL A   1      45.462  29.299  31.527  1.00  0.00     0.037 A 
ATOM     49  C   UNL A   1      43.711  23.084  28.739  1.00  0.00     0.049 A 
ATOM     50  C   UNL A   1      46.063  27.985  31.258  1.00  0.00     0.074 A 
ATOM     51  C   UNL A   1      43.731  22.955  30.102  1.00  0.00     0.029 A 
ATOM     52  N   UNL A   1      44.863  23.711  28.328  1.00  0.00    -0.354 N 
ATOM     53  N   UNL A   1      46.647  27.658  30.145  1.00  0.00    -0.248 NA
ATOM     54  C   UNL A   1      45.901  26.920  32.255  1.00  0.00     0.031 C 
ATOM     55  C   UNL A   1      44.668  23.926  30.509  1.00  0.00     0.029 A 
ATOM     56  C   UNL A   1      45.335  24.440  29.390  1.00  0.00     0.049 A 
ATOM     57  H   UNL A   1      45.273  23.648  27.435  1.00  0.00     0.167 HD
ATOM     58  C   UNL A   1      46.614  26.285  30.195  1.00  0.00     0.074 A 
ATOM     59  C   UNL A   1      46.472  25.923  31.587  1.00  0.00     0.031 C 
ATOM     60  C   UNL A   1      46.170  25.586  29.119  1.00  0.00     0.037 A 
BRANCH  47  61
ATOM     61  C   UNL A   1      42.690  21.969  26.744  1.00  0.00     0.064 A 
ATOM     62  C   UNL A   1      42.047  20.737  27.010  1.00  0.00     0.173 A 
ATOM     63  C   UNL A   1      43.609  21.977  25.686  1.00  0.00     0.173 A 
ATOM     64  F   UNL A   1      41.113  20.644  27.971  1.00  0.00    -0.203 F 
ATOM     65  C   UNL A   1      42.414  19.562  26.363  1.00  0.00     0.198 A 
ATOM     66  C   UNL A   1      43.936  20.803  25.003  1.00  0.00     0.198 A 
ATOM     67  F   UNL A   1      44.288  23.083  25.356  1.00  0.00    -0.203 F 
ATOM     68  F   UNL A   1      41.888  18.393  26.756  1.00  0.00    -0.200 F 
ATOM     69  C   UNL A   1      43.374  19.593  25.372  1.00  0.00     0.200 A 
ATOM     70  F   UNL A   1      44.862  20.839  24.035  1.00  0.00    -0.200 F 
ATOM     71  F   UNL A   1      43.787  18.454  24.799  1.00  0.00    -0.200 F 
ENDBRANCH  47  61
BRANCH  48  72
ATOM     72  C   UNL A   1      46.174  30.159  32.553  1.00  0.00     0.064 A 
ATOM     73  C   UNL A   1      45.772  30.383  33.874  1.00  0.00     0.173 A 
ATOM     74  C   UNL A   1      47.420  30.772  32.219  1.00  0.00     0.173 A 
ATOM     75  F   UNL A   1      44.571  29.986  34.307  1.00  0.00    -0.203 F 
ATOM     76  C   UNL A   1      46.596  31.053  34.804  1.00  0.00     0.198 A 
ATOM     77  C   UNL A   1      48.260  31.386  33.149  1.00  0.00     0.198 A 
ATOM     78  F   UNL A   1      47.880  30.800  30.962  1.00  0.00    -0.203 F 
ATOM     79  F   UNL A   1      46.168  31.240  36.060  1.00  0.00    -0.200 F 
ATOM     80  C   UNL A   1      47.854  31.513  34.451  1.00  0.00     0.200 A 
ATOM     81  F   UNL A   1      49.466  31.830  32.761  1.00  0.00    -0.200 F 
ATOM     82  F   UNL A   1      48.662  32.087  35.354  1.00  0.00    -0.200 F 
ENDBRANCH  48  72
BRANCH  60  83
ATOM     83  C   UNL A   1      46.283  26.341  27.805  1.00  0.00     0.064 A 
ATOM     84  C   UNL A   1      47.546  26.714  27.320  1.00  0.00     0.173 A 
ATOM     85  C   UNL A   1      45.184  26.824  27.075  1.00  0.00     0.173 A 
ATOM     86  F   UNL A   1      48.653  26.276  27.938  1.00  0.00    -0.203 F 
ATOM     87  C   UNL A   1      47.692  27.536  26.197  1.00  0.00     0.198 A 
ATOM     88  C   UNL A   1      45.322  27.647  25.955  1.00  0.00     0.198 A 
ATOM     89  F   UNL A   1      43.943  26.500  27.425  1.00  0.00    -0.203 F 
ATOM     90  F   UNL A   1      48.917  27.867  25.768  1.00  0.00    -0.200 F 
ATOM     91  C   UNL A   1      46.580  28.007  25.519  1.00  0.00     0.200 A 
ATOM     92  F   UNL A   1      44.233  28.078  25.299  1.00  0.00    -0.200 F 
ATOM     93  F   UNL A   1      46.720  28.789  24.438  1.00  0.00    -0.200 F 
ENDBRANCH  60  83
ENDBRANCH  34  35
ENDBRANCH  27  29
ENDBRANCH  26  27
ENDBRANCH  25  26
ENDBRANCH  24  25
ENDBRANCH  23  24
ENDBRANCH   1  23
TORSDOF 18
ENDMDL
