MODEL 1
REMARK VINA RESULT:     -11.5      0.000      0.000
REMARK SMILES [NH3+][C@H]1CCCN(C(=O)NC[C@H]2CC[C@@H](C(=O)OCCOCCOC(=O)c3ccc(-c4c5nc(c(-c6c(F)c(F)c(F)c(F)c6F)c6ccc([nH]6)c(-c6c(F)c(F)c(F)c(F)c6F)c6nc(c(-c7c(F)c(F)c(F)c(F)c7F)c7ccc4[nH]7)C=C6)C=C5)cc3)CC2)C1
REMARK SMILES IDX 19 1 18 2 17 3 15 4 16 5 14 6 11 7 12 8 90 9 13 10 89 11
REMARK SMILES IDX 10 12 9 13 7 14 8 15 6 17 2 18 3 19 91 20 4 21 5 22 1 23
REMARK SMILES IDX 20 27 21 28 22 29 23 30 24 31 25 32 26 33 27 34 88 35 28 36
REMARK SMILES IDX 87 37 29 38 30 39 31 40 81 41 32 42 86 43 80 44 82 45 33 46
REMARK SMILES IDX 85 47 79 48 78 49 34 51 66 52 46 53 65 54 47 55 50 56 64 57
REMARK SMILES IDX 83 58 48 59 49 60 63 62 84 63 51 64 35 65 36 66 44 67 37 68
REMARK SMILES IDX 38 69 42 70 45 71 39 72 40 73 43 74 41 75 67 76 68 77 76 78
REMARK SMILES IDX 69 79 70 80 74 81 77 82 71 83 72 84 75 85 73 86 52 87 53 88
REMARK SMILES IDX 61 89 54 90 55 91 59 92 62 93 56 94 57 95 60 96 58 97
REMARK H PARENT 9 16 1 24 1 25 1 26 82 50 50 61
REMARK Flexibility Score: inf
ROOT
ATOM      1  C   UNL A   1      40.467  20.353  26.157  1.00  0.00     0.202 C 
ENDROOT
BRANCH   1   2
ATOM      2  C   UNL A   1      39.019  20.737  25.839  1.00  0.00     0.261 C 
BRANCH   2   3
ATOM      3  O   UNL A   1      38.906  22.097  25.391  1.00  0.00    -0.463 OA
BRANCH   3   4
ATOM      4  C   UNL A   1      37.728  22.722  25.652  1.00  0.00     0.309 C 
ATOM      5  O   UNL A   1      37.582  23.621  26.472  1.00  0.00    -0.252 OA
BRANCH   4   6
ATOM      6  C   UNL A   1      36.557  22.149  24.858  1.00  0.00     0.099 C 
ATOM      7  C   UNL A   1      33.649  22.441  24.142  1.00  0.00     0.008 C 
ATOM      8  C   UNL A   1      34.763  22.967  23.235  1.00  0.00     0.006 C 
ATOM      9  C   UNL A   1      34.154  21.234  24.943  1.00  0.00     0.006 C 
ATOM     10  C   UNL A   1      36.040  23.286  23.984  1.00  0.00     0.015 C 
ATOM     11  C   UNL A   1      35.460  21.476  25.701  1.00  0.00     0.015 C 
BRANCH   7  12
ATOM     12  C   UNL A   1      32.936  23.551  24.956  1.00  0.00     0.121 C 
BRANCH  12  13
ATOM     13  N   UNL A   1      31.842  24.246  24.298  1.00  0.00    -0.338 N 
ATOM     14  C   UNL A   1      31.315  25.467  24.153  1.00  0.00     0.317 C 
ATOM     15  O   UNL A   1      30.261  25.473  23.504  1.00  0.00    -0.249 OA
ATOM     16  H   UNL A   1      31.306  23.598  23.787  1.00  0.00     0.165 HD
BRANCH  14  17
ATOM     17  N   UNL A   1      31.827  26.613  24.680  1.00  0.00    -0.319 N 
ATOM     18  C   UNL A   1      33.805  28.008  24.054  1.00  0.00     0.200 C 
ATOM     19  C   UNL A   1      33.867  28.539  25.489  1.00  0.00     0.068 C 
ATOM     20  C   UNL A   1      32.357  27.595  23.724  1.00  0.00     0.186 C 
ATOM     21  C   UNL A   1      33.323  27.490  26.456  1.00  0.00     0.028 C 
ATOM     22  C   UNL A   1      31.912  27.047  26.073  1.00  0.00     0.122 C 
BRANCH  18  23
ATOM     23  N   UNL A   1      34.323  29.023  23.130  1.00  0.00    -0.354 N 
ATOM     24  H   UNL A   1      33.806  28.976  22.251  1.00  0.00     0.344 HD
ATOM     25  H   UNL A   1      35.312  28.848  22.952  1.00  0.00     0.344 HD
ATOM     26  H   UNL A   1      34.210  29.948  23.542  1.00  0.00     0.344 HD
ENDBRANCH  18  23
ENDBRANCH  14  17
ENDBRANCH  12  13
ENDBRANCH   7  12
ENDBRANCH   4   6
ENDBRANCH   3   4
ENDBRANCH   2   3
ENDBRANCH   1   2
BRANCH   1  27
ATOM     27  O   UNL A   1      41.427  21.407  26.128  1.00  0.00    -0.374 OA
BRANCH  27  28
ATOM     28  C   UNL A   1      42.805  21.044  26.072  1.00  0.00     0.202 C 
BRANCH  28  29
ATOM     29  C   UNL A   1      43.699  21.847  25.120  1.00  0.00     0.261 C 
BRANCH  29  30
ATOM     30  O   UNL A   1      43.066  23.037  24.610  1.00  0.00    -0.460 OA
BRANCH  30  31
ATOM     31  C   UNL A   1      43.739  24.183  24.866  1.00  0.00     0.338 C 
ATOM     32  O   UNL A   1      44.837  24.508  24.429  1.00  0.00    -0.246 OA
BRANCH  31  33
ATOM     33  C   UNL A   1      42.937  25.119  25.676  1.00  0.00     0.060 A 
ATOM     34  C   UNL A   1      43.433  26.419  25.837  1.00  0.00     0.016 A 
ATOM     35  C   UNL A   1      41.826  24.690  26.404  1.00  0.00     0.016 A 
ATOM     36  C   UNL A   1      42.865  27.273  26.781  1.00  0.00     0.010 A 
ATOM     37  C   UNL A   1      41.260  25.547  27.357  1.00  0.00     0.010 A 
ATOM     38  C   UNL A   1      41.807  26.823  27.583  1.00  0.00    -0.014 A 
BRANCH  38  39
ATOM     39  C   UNL A   1      41.395  27.628  28.761  1.00  0.00     0.031 A 
ATOM     40  C   UNL A   1      42.192  27.519  30.034  1.00  0.00     0.074 A 
ATOM     41  C   UNL A   1      40.363  28.486  28.687  1.00  0.00     0.049 A 
ATOM     42  N   UNL A   1      42.001  28.106  31.190  1.00  0.00    -0.248 NA
ATOM     43  C   UNL A   1      43.369  26.636  29.998  1.00  0.00     0.031 C 
ATOM     44  C   UNL A   1      39.547  28.724  27.499  1.00  0.00     0.029 A 
ATOM     45  N   UNL A   1      39.828  29.320  29.638  1.00  0.00    -0.354 N 
ATOM     46  C   UNL A   1      43.031  27.667  32.012  1.00  0.00     0.074 A 
ATOM     47  C   UNL A   1      43.829  26.743  31.237  1.00  0.00     0.031 C 
ATOM     48  C   UNL A   1      38.609  29.642  27.792  1.00  0.00     0.029 A 
ATOM     49  C   UNL A   1      38.740  30.030  29.196  1.00  0.00     0.049 A 
ATOM     50  H   UNL A   1      40.191  29.402  30.549  1.00  0.00     0.167 HD
ATOM     51  C   UNL A   1      43.295  28.012  33.295  1.00  0.00     0.037 A 
ATOM     52  C   UNL A   1      37.929  30.878  29.859  1.00  0.00     0.037 A 
ATOM     53  C   UNL A   1      42.501  28.925  34.074  1.00  0.00     0.049 A 
ATOM     54  C   UNL A   1      38.193  31.172  31.314  1.00  0.00     0.074 A 
ATOM     55  C   UNL A   1      42.673  29.313  35.392  1.00  0.00     0.029 A 
ATOM     56  N   UNL A   1      41.383  29.595  33.602  1.00  0.00    -0.354 N 
ATOM     57  N   UNL A   1      39.164  30.748  32.086  1.00  0.00    -0.248 NA
ATOM     58  C   UNL A   1      37.242  32.068  31.992  1.00  0.00     0.031 C 
ATOM     59  C   UNL A   1      41.640  30.195  35.726  1.00  0.00     0.029 A 
ATOM     60  C   UNL A   1      40.849  30.387  34.606  1.00  0.00     0.049 A 
ATOM     61  H   UNL A   1      41.023  29.519  32.689  1.00  0.00     0.167 HD
ATOM     62  C   UNL A   1      38.962  31.348  33.322  1.00  0.00     0.074 A 
ATOM     63  C   UNL A   1      37.780  32.174  33.199  1.00  0.00     0.031 C 
ATOM     64  C   UNL A   1      39.689  31.224  34.459  1.00  0.00     0.037 A 
BRANCH  51  65
ATOM     65  C   UNL A   1      44.494  27.390  33.948  1.00  0.00     0.064 A 
ATOM     66  C   UNL A   1      44.407  26.154  34.606  1.00  0.00     0.173 A 
ATOM     67  C   UNL A   1      45.751  28.008  33.869  1.00  0.00     0.173 A 
ATOM     68  F   UNL A   1      43.225  25.531  34.717  1.00  0.00    -0.203 F 
ATOM     69  C   UNL A   1      45.534  25.565  35.172  1.00  0.00     0.198 A 
ATOM     70  C   UNL A   1      46.879  27.405  34.417  1.00  0.00     0.198 A 
ATOM     71  F   UNL A   1      45.887  29.188  33.246  1.00  0.00    -0.203 F 
ATOM     72  F   UNL A   1      45.424  24.399  35.823  1.00  0.00    -0.200 F 
ATOM     73  C   UNL A   1      46.770  26.187  35.072  1.00  0.00     0.200 A 
ATOM     74  F   UNL A   1      48.075  28.001  34.309  1.00  0.00    -0.200 F 
ATOM     75  F   UNL A   1      47.856  25.613  35.607  1.00  0.00    -0.200 F 
ENDBRANCH  51  65
BRANCH  52  76
ATOM     76  C   UNL A   1      36.771  31.501  29.168  1.00  0.00     0.064 A 
ATOM     77  C   UNL A   1      36.760  32.871  28.869  1.00  0.00     0.173 A 
ATOM     78  C   UNL A   1      35.632  30.752  28.839  1.00  0.00     0.173 A 
ATOM     79  F   UNL A   1      37.814  33.635  29.193  1.00  0.00    -0.203 F 
ATOM     80  C   UNL A   1      35.644  33.471  28.288  1.00  0.00     0.198 A 
ATOM     81  C   UNL A   1      34.529  31.347  28.234  1.00  0.00     0.198 A 
ATOM     82  F   UNL A   1      35.588  29.440  29.114  1.00  0.00    -0.203 F 
ATOM     83  F   UNL A   1      35.637  34.793  28.068  1.00  0.00    -0.200 F 
ATOM     84  C   UNL A   1      34.531  32.709  27.968  1.00  0.00     0.200 A 
ATOM     85  F   UNL A   1      33.456  30.607  27.923  1.00  0.00    -0.200 F 
ATOM     86  F   UNL A   1      33.455  33.288  27.421  1.00  0.00    -0.200 F 
ENDBRANCH  52  76
BRANCH  64  87
ATOM     87  C   UNL A   1      39.263  32.039  35.645  1.00  0.00     0.064 A 
ATOM     88  C   UNL A   1      39.682  33.364  35.818  1.00  0.00     0.173 A 
ATOM     89  C   UNL A   1      38.386  31.495  36.597  1.00  0.00     0.173 A 
ATOM     90  F   UNL A   1      40.531  33.924  34.942  1.00  0.00    -0.203 F 
ATOM     91  C   UNL A   1      39.258  34.112  36.914  1.00  0.00     0.198 A 
ATOM     92  C   UNL A   1      37.944  32.253  37.678  1.00  0.00     0.198 A 
ATOM     93  F   UNL A   1      37.950  30.233  36.473  1.00  0.00    -0.203 F 
ATOM     94  F   UNL A   1      39.704  35.364  37.082  1.00  0.00    -0.200 F 
ATOM     95  C   UNL A   1      38.385  33.557  37.839  1.00  0.00     0.200 A 
ATOM     96  F   UNL A   1      37.091  31.721  38.565  1.00  0.00    -0.200 F 
ATOM     97  F   UNL A   1      37.974  34.280  38.889  1.00  0.00    -0.200 F 
ENDBRANCH  64  87
ENDBRANCH  38  39
ENDBRANCH  31  33
ENDBRANCH  30  31
ENDBRANCH  29  30
ENDBRANCH  28  29
ENDBRANCH  27  28
ENDBRANCH   1  27
TORSDOF 18
ENDMDL
MODEL 2
REMARK VINA RESULT:     -11.1      5.097     10.447
REMARK SMILES [NH3+][C@H]1CCCN(C(=O)NC[C@H]2CC[C@@H](C(=O)OCCOCCOC(=O)c3ccc(-c4c5nc(c(-c6c(F)c(F)c(F)c(F)c6F)c6ccc([nH]6)c(-c6c(F)c(F)c(F)c(F)c6F)c6nc(c(-c7c(F)c(F)c(F)c(F)c7F)c7ccc4[nH]7)C=C6)C=C5)cc3)CC2)C1
REMARK SMILES IDX 19 1 18 2 17 3 15 4 16 5 14 6 11 7 12 8 90 9 13 10 89 11
REMARK SMILES IDX 10 12 9 13 7 14 8 15 6 17 2 18 3 19 91 20 4 21 5 22 1 23
REMARK SMILES IDX 20 27 21 28 22 29 23 30 24 31 25 32 26 33 27 34 88 35 28 36
REMARK SMILES IDX 87 37 29 38 30 39 31 40 81 41 32 42 86 43 80 44 82 45 33 46
REMARK SMILES IDX 85 47 79 48 78 49 34 51 66 52 46 53 65 54 47 55 50 56 64 57
REMARK SMILES IDX 83 58 48 59 49 60 63 62 84 63 51 64 35 65 36 66 44 67 37 68
REMARK SMILES IDX 38 69 42 70 45 71 39 72 40 73 43 74 41 75 67 76 68 77 76 78
REMARK SMILES IDX 69 79 70 80 74 81 77 82 71 83 72 84 75 85 73 86 52 87 53 88
REMARK SMILES IDX 61 89 54 90 55 91 59 92 62 93 56 94 57 95 60 96 58 97
REMARK H PARENT 9 16 1 24 1 25 1 26 82 50 50 61
REMARK Flexibility Score: inf
ROOT
ATOM      1  C   UNL A   1      34.702  32.983  28.000  1.00  0.00     0.202 C 
ENDROOT
BRANCH   1   2
ATOM      2  C   UNL A   1      34.222  31.583  28.390  1.00  0.00     0.261 C 
BRANCH   2   3
ATOM      3  O   UNL A   1      33.459  30.961  27.344  1.00  0.00    -0.463 OA
BRANCH   3   4
ATOM      4  C   UNL A   1      33.945  29.789  26.858  1.00  0.00     0.309 C 
ATOM      5  O   UNL A   1      34.966  29.238  27.255  1.00  0.00    -0.252 OA
BRANCH   4   6
ATOM      6  C   UNL A   1      33.118  29.232  25.702  1.00  0.00     0.099 C 
ATOM      7  C   UNL A   1      32.122  26.754  24.316  1.00  0.00     0.008 C 
ATOM      8  C   UNL A   1      31.264  27.516  25.328  1.00  0.00     0.006 C 
ATOM      9  C   UNL A   1      33.091  27.720  23.621  1.00  0.00     0.006 C 
ATOM     10  C   UNL A   1      32.083  28.304  26.329  1.00  0.00     0.015 C 
ATOM     11  C   UNL A   1      33.929  28.573  24.574  1.00  0.00     0.015 C 
BRANCH   7  12
ATOM     12  C   UNL A   1      32.744  25.453  24.883  1.00  0.00     0.121 C 
BRANCH  12  13
ATOM     13  N   UNL A   1      32.059  24.834  26.005  1.00  0.00    -0.338 N 
ATOM     14  C   UNL A   1      31.823  23.638  26.557  1.00  0.00     0.317 C 
ATOM     15  O   UNL A   1      31.055  23.687  27.526  1.00  0.00    -0.249 OA
ATOM     16  H   UNL A   1      31.617  25.532  26.541  1.00  0.00     0.165 HD
BRANCH  14  17
ATOM     17  N   UNL A   1      32.322  22.453  26.110  1.00  0.00    -0.319 N 
ATOM     18  C   UNL A   1      34.656  21.686  25.642  1.00  0.00     0.200 C 
ATOM     19  C   UNL A   1      34.102  20.643  24.667  1.00  0.00     0.068 C 
ATOM     20  C   UNL A   1      33.588  22.007  26.707  1.00  0.00     0.186 C 
ATOM     21  C   UNL A   1      32.796  21.143  24.054  1.00  0.00     0.028 C 
ATOM     22  C   UNL A   1      31.776  21.518  25.129  1.00  0.00     0.122 C 
BRANCH  18  23
ATOM     23  N   UNL A   1      35.906  21.196  26.232  1.00  0.00    -0.354 N 
ATOM     24  H   UNL A   1      36.256  21.881  26.903  1.00  0.00     0.344 HD
ATOM     25  H   UNL A   1      36.598  21.058  25.495  1.00  0.00     0.344 HD
ATOM     26  H   UNL A   1      35.734  20.311  26.707  1.00  0.00     0.344 HD
ENDBRANCH  18  23
ENDBRANCH  14  17
ENDBRANCH  12  13
ENDBRANCH   7  12
ENDBRANCH   4   6
ENDBRANCH   3   4
ENDBRANCH   2   3
ENDBRANCH   1   2
BRANCH   1  27
ATOM     27  O   UNL A   1      35.230  33.792  29.049  1.00  0.00    -0.374 OA
BRANCH  27  28
ATOM     28  C   UNL A   1      34.344  34.177  30.098  1.00  0.00     0.202 C 
BRANCH  28  29
ATOM     29  C   UNL A   1      34.739  33.781  31.526  1.00  0.00     0.261 C 
BRANCH  29  30
ATOM     30  O   UNL A   1      34.825  32.355  31.719  1.00  0.00    -0.460 OA
BRANCH  30  31
ATOM     31  C   UNL A   1      35.839  31.959  32.523  1.00  0.00     0.338 C 
ATOM     32  O   UNL A   1      35.962  32.184  33.721  1.00  0.00    -0.246 OA
BRANCH  31  33
ATOM     33  C   UNL A   1      36.787  31.080  31.814  1.00  0.00     0.060 A 
ATOM     34  C   UNL A   1      37.879  30.590  32.544  1.00  0.00     0.016 A 
ATOM     35  C   UNL A   1      36.714  30.885  30.433  1.00  0.00     0.016 A 
ATOM     36  C   UNL A   1      38.937  29.965  31.885  1.00  0.00     0.010 A 
ATOM     37  C   UNL A   1      37.781  30.263  29.773  1.00  0.00     0.010 A 
ATOM     38  C   UNL A   1      38.917  29.844  30.488  1.00  0.00    -0.014 A 
BRANCH  38  39
ATOM     39  C   UNL A   1      40.155  29.435  29.777  1.00  0.00     0.031 A 
ATOM     40  C   UNL A   1      41.269  30.436  29.617  1.00  0.00     0.074 A 
ATOM     41  C   UNL A   1      40.312  28.178  29.328  1.00  0.00     0.049 A 
ATOM     42  N   UNL A   1      42.424  30.308  29.011  1.00  0.00    -0.248 NA
ATOM     43  C   UNL A   1      41.057  31.757  30.229  1.00  0.00     0.031 C 
ATOM     44  C   UNL A   1      39.333  27.103  29.468  1.00  0.00     0.029 A 
ATOM     45  N   UNL A   1      41.362  27.595  28.662  1.00  0.00    -0.354 N 
ATOM     46  C   UNL A   1      43.074  31.525  29.174  1.00  0.00     0.074 A 
ATOM     47  C   UNL A   1      42.176  32.390  29.907  1.00  0.00     0.031 C 
ATOM     48  C   UNL A   1      39.827  25.988  28.901  1.00  0.00     0.029 A 
ATOM     49  C   UNL A   1      41.141  26.282  28.330  1.00  0.00     0.049 A 
ATOM     50  H   UNL A   1      42.195  28.073  28.445  1.00  0.00     0.167 HD
ATOM     51  C   UNL A   1      44.311  31.885  28.758  1.00  0.00     0.037 A 
ATOM     52  C   UNL A   1      41.905  25.424  27.625  1.00  0.00     0.037 A 
ATOM     53  C   UNL A   1      45.205  31.031  28.022  1.00  0.00     0.049 A 
ATOM     54  C   UNL A   1      43.240  25.882  27.095  1.00  0.00     0.074 A 
ATOM     55  C   UNL A   1      46.468  31.318  27.531  1.00  0.00     0.029 A 
ATOM     56  N   UNL A   1      44.929  29.718  27.671  1.00  0.00    -0.354 N 
ATOM     57  N   UNL A   1      43.843  27.036  27.246  1.00  0.00    -0.248 NA
ATOM     58  C   UNL A   1      44.002  24.913  26.292  1.00  0.00     0.031 C 
ATOM     59  C   UNL A   1      46.943  30.189  26.857  1.00  0.00     0.029 A 
ATOM     60  C   UNL A   1      45.993  29.186  26.963  1.00  0.00     0.049 A 
ATOM     61  H   UNL A   1      44.100  29.237  27.893  1.00  0.00     0.167 HD
ATOM     62  C   UNL A   1      45.063  26.920  26.591  1.00  0.00     0.074 A 
ATOM     63  C   UNL A   1      45.121  25.581  26.046  1.00  0.00     0.031 C 
ATOM     64  C   UNL A   1      46.046  27.842  26.451  1.00  0.00     0.037 A 
BRANCH  51  65
ATOM     65  C   UNL A   1      44.775  33.274  29.083  1.00  0.00     0.064 A 
ATOM     66  C   UNL A   1      45.537  33.539  30.230  1.00  0.00     0.173 A 
ATOM     67  C   UNL A   1      44.502  34.339  28.213  1.00  0.00     0.173 A 
ATOM     68  F   UNL A   1      45.814  32.555  31.099  1.00  0.00    -0.203 F 
ATOM     69  C   UNL A   1      45.998  34.825  30.501  1.00  0.00     0.198 A 
ATOM     70  C   UNL A   1      44.984  35.619  28.475  1.00  0.00     0.198 A 
ATOM     71  F   UNL A   1      43.781  34.137  27.099  1.00  0.00    -0.203 F 
ATOM     72  F   UNL A   1      46.699  35.062  31.618  1.00  0.00    -0.200 F 
ATOM     73  C   UNL A   1      45.728  35.861  29.620  1.00  0.00     0.200 A 
ATOM     74  F   UNL A   1      44.733  36.617  27.617  1.00  0.00    -0.200 F 
ATOM     75  F   UNL A   1      46.182  37.096  29.876  1.00  0.00    -0.200 F 
ENDBRANCH  51  65
BRANCH  52  76
ATOM     76  C   UNL A   1      41.426  24.044  27.354  1.00  0.00     0.064 A 
ATOM     77  C   UNL A   1      40.334  23.813  26.505  1.00  0.00     0.173 A 
ATOM     78  C   UNL A   1      42.016  22.935  27.976  1.00  0.00     0.173 A 
ATOM     79  F   UNL A   1      39.717  24.845  25.911  1.00  0.00    -0.203 F 
ATOM     80  C   UNL A   1      39.837  22.526  26.308  1.00  0.00     0.198 A 
ATOM     81  C   UNL A   1      41.535  21.647  27.758  1.00  0.00     0.198 A 
ATOM     82  F   UNL A   1      43.055  23.105  28.806  1.00  0.00    -0.203 F 
ATOM     83  F   UNL A   1      38.755  22.339  25.539  1.00  0.00    -0.200 F 
ATOM     84  C   UNL A   1      40.439  21.444  26.932  1.00  0.00     0.200 A 
ATOM     85  F   UNL A   1      42.121  20.604  28.359  1.00  0.00    -0.200 F 
ATOM     86  F   UNL A   1      39.953  20.209  26.752  1.00  0.00    -0.200 F 
ENDBRANCH  52  76
BRANCH  64  87
ATOM     87  C   UNL A   1      47.292  27.420  25.728  1.00  0.00     0.064 A 
ATOM     88  C   UNL A   1      47.439  27.603  24.346  1.00  0.00     0.173 A 
ATOM     89  C   UNL A   1      48.368  26.866  26.438  1.00  0.00     0.173 A 
ATOM     90  F   UNL A   1      46.432  28.116  23.622  1.00  0.00    -0.203 F 
ATOM     91  C   UNL A   1      48.611  27.225  23.696  1.00  0.00     0.198 A 
ATOM     92  C   UNL A   1      49.548  26.513  25.789  1.00  0.00     0.198 A 
ATOM     93  F   UNL A   1      48.280  26.678  27.762  1.00  0.00    -0.203 F 
ATOM     94  F   UNL A   1      48.715  27.369  22.368  1.00  0.00    -0.200 F 
ATOM     95  C   UNL A   1      49.666  26.686  24.418  1.00  0.00     0.200 A 
ATOM     96  F   UNL A   1      50.571  26.004  26.489  1.00  0.00    -0.200 F 
ATOM     97  F   UNL A   1      50.794  26.329  23.791  1.00  0.00    -0.200 F 
ENDBRANCH  64  87
ENDBRANCH  38  39
ENDBRANCH  31  33
ENDBRANCH  30  31
ENDBRANCH  29  30
ENDBRANCH  28  29
ENDBRANCH  27  28
ENDBRANCH   1  27
TORSDOF 18
ENDMDL
MODEL 3
REMARK VINA RESULT:     -11.1      4.379      6.553
REMARK SMILES [NH3+][C@H]1CCCN(C(=O)NC[C@H]2CC[C@@H](C(=O)OCCOCCOC(=O)c3ccc(-c4c5nc(c(-c6c(F)c(F)c(F)c(F)c6F)c6ccc([nH]6)c(-c6c(F)c(F)c(F)c(F)c6F)c6nc(c(-c7c(F)c(F)c(F)c(F)c7F)c7ccc4[nH]7)C=C6)C=C5)cc3)CC2)C1
REMARK SMILES IDX 19 1 18 2 17 3 15 4 16 5 14 6 11 7 12 8 90 9 13 10 89 11
REMARK SMILES IDX 10 12 9 13 7 14 8 15 6 17 2 18 3 19 91 20 4 21 5 22 1 23
REMARK SMILES IDX 20 27 21 28 22 29 23 30 24 31 25 32 26 33 27 34 88 35 28 36
REMARK SMILES IDX 87 37 29 38 30 39 31 40 81 41 32 42 86 43 80 44 82 45 33 46
REMARK SMILES IDX 85 47 79 48 78 49 34 51 66 52 46 53 65 54 47 55 50 56 64 57
REMARK SMILES IDX 83 58 48 59 49 60 63 62 84 63 51 64 35 65 36 66 44 67 37 68
REMARK SMILES IDX 38 69 42 70 45 71 39 72 40 73 43 74 41 75 67 76 68 77 76 78
REMARK SMILES IDX 69 79 70 80 74 81 77 82 71 83 72 84 75 85 73 86 52 87 53 88
REMARK SMILES IDX 61 89 54 90 55 91 59 92 62 93 56 94 57 95 60 96 58 97
REMARK H PARENT 9 16 1 24 1 25 1 26 82 50 50 61
REMARK Flexibility Score: inf
ROOT
ATOM      1  C   UNL A   1      36.698  22.134  25.121  1.00  0.00     0.202 C 
ENDROOT
BRANCH   1   2
ATOM      2  C   UNL A   1      35.606  21.503  25.990  1.00  0.00     0.261 C 
BRANCH   2   3
ATOM      3  O   UNL A   1      34.290  21.904  25.580  1.00  0.00    -0.463 OA
BRANCH   3   4
ATOM      4  C   UNL A   1      33.726  21.185  24.575  1.00  0.00     0.309 C 
ATOM      5  O   UNL A   1      33.895  19.984  24.395  1.00  0.00    -0.252 OA
BRANCH   4   6
ATOM      6  C   UNL A   1      32.887  22.038  23.626  1.00  0.00     0.099 C 
ATOM      7  C   UNL A   1      31.901  24.804  22.973  1.00  0.00     0.008 C 
ATOM      8  C   UNL A   1      33.122  24.196  22.280  1.00  0.00     0.006 C 
ATOM      9  C   UNL A   1      30.931  23.693  23.394  1.00  0.00     0.006 C 
ATOM     10  C   UNL A   1      33.812  23.136  23.113  1.00  0.00     0.015 C 
ATOM     11  C   UNL A   1      31.570  22.570  24.214  1.00  0.00     0.015 C 
BRANCH   7  12
ATOM     12  C   UNL A   1      32.261  25.846  24.062  1.00  0.00     0.121 C 
BRANCH  12  13
ATOM     13  N   UNL A   1      33.090  26.966  23.650  1.00  0.00    -0.338 N 
ATOM     14  C   UNL A   1      33.612  28.108  24.112  1.00  0.00     0.317 C 
ATOM     15  O   UNL A   1      34.213  28.759  23.248  1.00  0.00    -0.249 OA
ATOM     16  H   UNL A   1      33.359  26.843  22.711  1.00  0.00     0.165 HD
BRANCH  14  17
ATOM     17  N   UNL A   1      33.488  28.571  25.387  1.00  0.00    -0.319 N 
ATOM     18  C   UNL A   1      32.715  30.763  26.307  1.00  0.00     0.200 C 
ATOM     19  C   UNL A   1      33.530  30.502  27.577  1.00  0.00     0.068 C 
ATOM     20  C   UNL A   1      32.320  29.418  25.666  1.00  0.00     0.186 C 
ATOM     21  C   UNL A   1      34.742  29.632  27.249  1.00  0.00     0.028 C 
ATOM     22  C   UNL A   1      34.332  28.333  26.555  1.00  0.00     0.122 C 
BRANCH  18  23
ATOM     23  N   UNL A   1      31.550  31.593  26.631  1.00  0.00    -0.354 N 
ATOM     24  H   UNL A   1      31.065  31.849  25.770  1.00  0.00     0.344 HD
ATOM     25  H   UNL A   1      31.858  32.439  27.111  1.00  0.00     0.344 HD
ATOM     26  H   UNL A   1      30.917  31.071  27.236  1.00  0.00     0.344 HD
ENDBRANCH  18  23
ENDBRANCH  14  17
ENDBRANCH  12  13
ENDBRANCH   7  12
ENDBRANCH   4   6
ENDBRANCH   3   4
ENDBRANCH   2   3
ENDBRANCH   1   2
BRANCH   1  27
ATOM     27  O   UNL A   1      37.453  21.245  24.300  1.00  0.00    -0.374 OA
BRANCH  27  28
ATOM     28  C   UNL A   1      37.565  19.888  24.725  1.00  0.00     0.202 C 
BRANCH  28  29
ATOM     29  C   UNL A   1      38.852  19.491  25.458  1.00  0.00     0.261 C 
BRANCH  29  30
ATOM     30  O   UNL A   1      39.771  20.588  25.632  1.00  0.00    -0.460 OA
BRANCH  30  31
ATOM     31  C   UNL A   1      40.490  20.540  26.778  1.00  0.00     0.338 C 
ATOM     32  O   UNL A   1      41.042  19.559  27.263  1.00  0.00    -0.246 OA
BRANCH  31  33
ATOM     33  C   UNL A   1      40.661  21.878  27.372  1.00  0.00     0.060 A 
ATOM     34  C   UNL A   1      39.887  22.921  26.844  1.00  0.00     0.016 A 
ATOM     35  C   UNL A   1      41.674  22.147  28.295  1.00  0.00     0.016 A 
ATOM     36  C   UNL A   1      40.171  24.243  27.181  1.00  0.00     0.010 A 
ATOM     37  C   UNL A   1      41.962  23.477  28.627  1.00  0.00     0.010 A 
ATOM     38  C   UNL A   1      41.243  24.532  28.036  1.00  0.00    -0.014 A 
BRANCH  38  39
ATOM     39  C   UNL A   1      41.710  25.935  28.168  1.00  0.00     0.031 A 
ATOM     40  C   UNL A   1      43.058  26.313  27.613  1.00  0.00     0.074 A 
ATOM     41  C   UNL A   1      40.925  26.876  28.723  1.00  0.00     0.049 A 
ATOM     42  N   UNL A   1      43.677  27.467  27.639  1.00  0.00    -0.248 NA
ATOM     43  C   UNL A   1      43.808  25.246  26.930  1.00  0.00     0.031 C 
ATOM     44  C   UNL A   1      39.580  26.652  29.248  1.00  0.00     0.029 A 
ATOM     45  N   UNL A   1      41.152  28.214  28.933  1.00  0.00    -0.354 N 
ATOM     46  C   UNL A   1      44.880  27.267  26.975  1.00  0.00     0.074 A 
ATOM     47  C   UNL A   1      44.922  25.875  26.583  1.00  0.00     0.031 C 
ATOM     48  C   UNL A   1      39.100  27.813  29.724  1.00  0.00     0.029 A 
ATOM     49  C   UNL A   1      40.116  28.853  29.569  1.00  0.00     0.049 A 
ATOM     50  H   UNL A   1      41.978  28.671  28.654  1.00  0.00     0.167 HD
ATOM     51  C   UNL A   1      45.858  28.165  26.706  1.00  0.00     0.037 A 
ATOM     52  C   UNL A   1      40.014  30.127  29.995  1.00  0.00     0.037 A 
ATOM     53  C   UNL A   1      45.825  29.549  27.100  1.00  0.00     0.049 A 
ATOM     54  C   UNL A   1      41.158  31.082  29.763  1.00  0.00     0.074 A 
ATOM     55  C   UNL A   1      46.783  30.528  26.899  1.00  0.00     0.029 A 
ATOM     56  N   UNL A   1      44.775  30.149  27.776  1.00  0.00    -0.354 N 
ATOM     57  N   UNL A   1      42.294  30.883  29.142  1.00  0.00    -0.248 NA
ATOM     58  C   UNL A   1      41.002  32.445  30.297  1.00  0.00     0.031 C 
ATOM     59  C   UNL A   1      46.325  31.714  27.481  1.00  0.00     0.029 A 
ATOM     60  C   UNL A   1      45.065  31.484  28.008  1.00  0.00     0.049 A 
ATOM     61  H   UNL A   1      43.946  29.695  28.050  1.00  0.00     0.167 HD
ATOM     62  C   UNL A   1      42.969  32.096  29.178  1.00  0.00     0.074 A 
ATOM     63  C   UNL A   1      42.114  33.031  29.877  1.00  0.00     0.031 C 
ATOM     64  C   UNL A   1      44.191  32.408  28.680  1.00  0.00     0.037 A 
BRANCH  51  65
ATOM     65  C   UNL A   1      47.060  27.677  25.953  1.00  0.00     0.064 A 
ATOM     66  C   UNL A   1      47.117  27.737  24.553  1.00  0.00     0.173 A 
ATOM     67  C   UNL A   1      48.185  27.196  26.638  1.00  0.00     0.173 A 
ATOM     68  F   UNL A   1      46.061  28.178  23.852  1.00  0.00    -0.203 F 
ATOM     69  C   UNL A   1      48.254  27.321  23.865  1.00  0.00     0.198 A 
ATOM     70  C   UNL A   1      49.328  26.802  25.948  1.00  0.00     0.198 A 
ATOM     71  F   UNL A   1      48.182  27.124  27.978  1.00  0.00    -0.203 F 
ATOM     72  F   UNL A   1      48.276  27.358  22.526  1.00  0.00    -0.200 F 
ATOM     73  C   UNL A   1      49.360  26.860  24.563  1.00  0.00     0.200 A 
ATOM     74  F   UNL A   1      50.401  26.369  26.624  1.00  0.00    -0.200 F 
ATOM     75  F   UNL A   1      50.458  26.471  23.900  1.00  0.00    -0.200 F 
ENDBRANCH  51  65
BRANCH  52  76
ATOM     76  C   UNL A   1      38.792  30.582  30.707  1.00  0.00     0.064 A 
ATOM     77  C   UNL A   1      37.683  31.067  30.000  1.00  0.00     0.173 A 
ATOM     78  C   UNL A   1      38.728  30.590  32.108  1.00  0.00     0.173 A 
ATOM     79  F   UNL A   1      37.709  31.109  28.660  1.00  0.00    -0.203 F 
ATOM     80  C   UNL A   1      36.566  31.564  30.669  1.00  0.00     0.198 A 
ATOM     81  C   UNL A   1      37.600  31.061  32.774  1.00  0.00     0.198 A 
ATOM     82  F   UNL A   1      39.768  30.146  32.830  1.00  0.00    -0.203 F 
ATOM     83  F   UNL A   1      35.544  32.078  29.970  1.00  0.00    -0.200 F 
ATOM     84  C   UNL A   1      36.524  31.558  32.055  1.00  0.00     0.200 A 
ATOM     85  F   UNL A   1      37.562  31.050  34.113  1.00  0.00    -0.200 F 
ATOM     86  F   UNL A   1      35.454  32.046  32.697  1.00  0.00    -0.200 F 
ENDBRANCH  52  76
BRANCH  64  87
ATOM     87  C   UNL A   1      44.654  33.828  28.822  1.00  0.00     0.064 A 
ATOM     88  C   UNL A   1      44.317  34.811  27.883  1.00  0.00     0.173 A 
ATOM     89  C   UNL A   1      45.411  34.216  29.940  1.00  0.00     0.173 A 
ATOM     90  F   UNL A   1      43.607  34.486  26.791  1.00  0.00    -0.203 F 
ATOM     91  C   UNL A   1      44.738  36.129  28.044  1.00  0.00     0.198 A 
ATOM     92  C   UNL A   1      45.809  35.539  30.110  1.00  0.00     0.198 A 
ATOM     93  F   UNL A   1      45.753  33.314  30.871  1.00  0.00    -0.203 F 
ATOM     94  F   UNL A   1      44.439  37.045  27.112  1.00  0.00    -0.200 F 
ATOM     95  C   UNL A   1      45.478  36.492  29.160  1.00  0.00     0.200 A 
ATOM     96  F   UNL A   1      46.513  35.892  31.195  1.00  0.00    -0.200 F 
ATOM     97  F   UNL A   1      45.876  37.762  29.315  1.00  0.00    -0.200 F 
ENDBRANCH  64  87
ENDBRANCH  38  39
ENDBRANCH  31  33
ENDBRANCH  30  31
ENDBRANCH  29  30
ENDBRANCH  28  29
ENDBRANCH  27  28
ENDBRANCH   1  27
TORSDOF 18
ENDMDL
