MODEL 1
REMARK VINA RESULT:     -10.3      0.000      0.000
REMARK SMILES CCN(Cc1ccc(Br)s1)C(=O)C[N@@H+](C)CC(=O)OCCOCCOC(=O)c1ccc(-c2c3nc(c(-c4c(F)c(F)c(F)c(F)c4F)c4ccc([nH]4)c(-c4c(F)c(F)c(F)c(F)c4F)c4nc(c(-c5c(F)c(F)c(F)c(F)c5F)c5ccc2[nH]5)C=C4)C=C3)cc1
REMARK SMILES IDX 20 1 19 2 17 3 18 4 16 5 14 6 15 7 13 9 11 10 12 11 3 12
REMARK SMILES IDX 2 13 1 14 4 15 5 16 6 17 10 18 7 19 8 20 9 21 21 22 22 23
REMARK SMILES IDX 23 24 24 25 25 26 26 27 27 28 28 29 29 30 90 31 30 32 89 33
REMARK SMILES IDX 31 34 32 35 33 36 83 37 34 38 88 39 82 40 84 41 35 42 87 43
REMARK SMILES IDX 81 44 80 45 36 47 68 48 48 49 67 50 49 51 52 52 66 53 85 54
REMARK SMILES IDX 50 55 51 56 65 58 86 59 53 60 37 61 38 62 46 63 39 64 40 65
REMARK SMILES IDX 44 66 47 67 41 68 42 69 45 70 43 71 69 72 70 73 78 74 71 75
REMARK SMILES IDX 72 76 76 77 79 78 73 79 74 80 77 81 75 82 54 83 55 84 63 85
REMARK SMILES IDX 56 86 57 87 61 88 64 89 58 90 59 91 62 92 60 93
REMARK H PARENT 14 8 84 46 52 57
REMARK Flexibility Score: inf
ROOT
ATOM      1  C   UNL A   1      30.906  27.374  22.392  1.00  0.00     0.261 C 
ENDROOT
BRANCH   1   2
ATOM      2  O   UNL A   1      32.335  27.153  22.440  1.00  0.00    -0.459 OA
BRANCH   2   3
ATOM      3  C   UNL A   1      32.757  25.909  22.095  1.00  0.00     0.361 C 
ATOM      4  O   UNL A   1      33.282  25.640  21.017  1.00  0.00    -0.245 OA
BRANCH   3   5
ATOM      5  C   UNL A   1      32.413  24.810  23.095  1.00  0.00     0.386 C 
BRANCH   5   6
ATOM      6  N   UNL A   1      33.230  24.612  24.315  1.00  0.00    -0.320 N 
ATOM      7  C   UNL A   1      32.769  25.392  25.460  1.00  0.00     0.333 C 
ATOM      8  H   UNL A   1      33.078  23.623  24.514  1.00  0.00     0.348 HD
BRANCH   6   9
ATOM      9  C   UNL A   1      34.685  24.767  24.142  1.00  0.00     0.364 C 
BRANCH   9  10
ATOM     10  C   UNL A   1      35.443  23.448  23.928  1.00  0.00     0.278 C 
ATOM     11  O   UNL A   1      35.602  23.038  22.773  1.00  0.00    -0.268 OA
BRANCH  10  12
ATOM     12  N   UNL A   1      35.958  22.755  25.017  1.00  0.00    -0.333 N 
BRANCH  12  13
ATOM     13  C   UNL A   1      37.394  22.863  25.284  1.00  0.00     0.116 C 
ATOM     14  C   UNL A   1      37.727  23.983  26.263  1.00  0.00     0.027 C 
ENDBRANCH  12  13
BRANCH  12  15
ATOM     15  C   UNL A   1      35.159  21.940  25.934  1.00  0.00     0.166 C 
BRANCH  15  16
ATOM     16  C   UNL A   1      34.414  20.850  25.210  1.00  0.00     0.025 A 
ATOM     17  C   UNL A   1      33.094  20.877  24.791  1.00  0.00     0.018 A 
ATOM     18  S   UNL A   1      35.153  19.348  24.817  1.00  0.00    -0.131 S 
ATOM     19  C   UNL A   1      32.666  19.628  24.251  1.00  0.00     0.028 A 
ATOM     20  C   UNL A   1      33.689  18.716  24.245  1.00  0.00     0.070 A 
ATOM     21  Br  UNL A   1      33.493  16.946  23.667  1.00  0.00    -0.039 Br
ENDBRANCH  15  16
ENDBRANCH  12  15
ENDBRANCH  10  12
ENDBRANCH   9  10
ENDBRANCH   6   9
ENDBRANCH   5   6
ENDBRANCH   3   5
ENDBRANCH   2   3
ENDBRANCH   1   2
BRANCH   1  22
ATOM     22  C   UNL A   1      30.494  28.615  23.186  1.00  0.00     0.202 C 
BRANCH  22  23
ATOM     23  O   UNL A   1      31.542  29.293  23.879  1.00  0.00    -0.374 OA
BRANCH  23  24
ATOM     24  C   UNL A   1      31.487  29.262  25.304  1.00  0.00     0.202 C 
BRANCH  24  25
ATOM     25  C   UNL A   1      31.634  30.627  25.992  1.00  0.00     0.261 C 
BRANCH  25  26
ATOM     26  O   UNL A   1      32.514  30.567  27.136  1.00  0.00    -0.460 OA
BRANCH  26  27
ATOM     27  C   UNL A   1      33.225  31.695  27.367  1.00  0.00     0.338 C 
ATOM     28  O   UNL A   1      32.814  32.847  27.379  1.00  0.00    -0.246 OA
BRANCH  27  29
ATOM     29  C   UNL A   1      34.598  31.357  27.791  1.00  0.00     0.060 A 
ATOM     30  C   UNL A   1      34.876  30.009  28.057  1.00  0.00     0.016 A 
ATOM     31  C   UNL A   1      35.569  32.335  28.010  1.00  0.00     0.016 A 
ATOM     32  C   UNL A   1      36.105  29.638  28.597  1.00  0.00     0.010 A 
ATOM     33  C   UNL A   1      36.801  31.963  28.564  1.00  0.00     0.010 A 
ATOM     34  C   UNL A   1      37.057  30.619  28.898  1.00  0.00    -0.014 A 
BRANCH  34  35
ATOM     35  C   UNL A   1      38.237  30.270  29.729  1.00  0.00     0.031 A 
ATOM     36  C   UNL A   1      39.233  29.282  29.187  1.00  0.00     0.074 A 
ATOM     37  C   UNL A   1      38.434  30.826  30.935  1.00  0.00     0.049 A 
ATOM     38  N   UNL A   1      40.283  28.753  29.764  1.00  0.00    -0.248 NA
ATOM     39  C   UNL A   1      39.011  28.827  27.805  1.00  0.00     0.031 C 
ATOM     40  C   UNL A   1      37.577  31.835  31.548  1.00  0.00     0.029 A 
ATOM     41  N   UNL A   1      39.417  30.601  31.868  1.00  0.00    -0.354 N 
ATOM     42  C   UNL A   1      40.832  27.890  28.826  1.00  0.00     0.074 A 
ATOM     43  C   UNL A   1      39.990  27.949  27.650  1.00  0.00     0.031 C 
ATOM     44  C   UNL A   1      38.055  32.126  32.770  1.00  0.00     0.029 A 
ATOM     45  C   UNL A   1      39.227  31.293  33.037  1.00  0.00     0.049 A 
ATOM     46  H   UNL A   1      40.182  30.001  31.713  1.00  0.00     0.167 HD
ATOM     47  C   UNL A   1      41.939  27.116  28.934  1.00  0.00     0.037 A 
ATOM     48  C   UNL A   1      39.903  31.234  34.203  1.00  0.00     0.037 A 
ATOM     49  C   UNL A   1      42.780  27.065  30.100  1.00  0.00     0.049 A 
ATOM     50  C   UNL A   1      41.093  30.320  34.330  1.00  0.00     0.074 A 
ATOM     51  C   UNL A   1      43.938  26.335  30.298  1.00  0.00     0.029 A 
ATOM     52  N   UNL A   1      42.544  27.768  31.273  1.00  0.00    -0.354 N 
ATOM     53  N   UNL A   1      41.614  29.513  33.438  1.00  0.00    -0.248 NA
ATOM     54  C   UNL A   1      41.789  30.309  35.624  1.00  0.00     0.031 C 
ATOM     55  C   UNL A   1      44.373  26.552  31.610  1.00  0.00     0.029 A 
ATOM     56  C   UNL A   1      43.519  27.464  32.211  1.00  0.00     0.049 A 
ATOM     57  H   UNL A   1      41.795  28.389  31.419  1.00  0.00     0.167 HD
ATOM     58  C   UNL A   1      42.712  28.921  34.049  1.00  0.00     0.074 A 
ATOM     59  C   UNL A   1      42.783  29.462  35.391  1.00  0.00     0.031 C 
ATOM     60  C   UNL A   1      43.584  28.015  33.541  1.00  0.00     0.037 A 
BRANCH  47  61
ATOM     61  C   UNL A   1      42.272  26.227  27.771  1.00  0.00     0.064 A 
ATOM     62  C   UNL A   1      43.241  26.577  26.820  1.00  0.00     0.173 A 
ATOM     63  C   UNL A   1      41.606  25.002  27.609  1.00  0.00     0.173 A 
ATOM     64  F   UNL A   1      43.896  27.744  26.921  1.00  0.00    -0.203 F 
ATOM     65  C   UNL A   1      43.503  25.753  25.728  1.00  0.00     0.198 A 
ATOM     66  C   UNL A   1      41.893  24.166  26.533  1.00  0.00     0.198 A 
ATOM     67  F   UNL A   1      40.674  24.616  28.493  1.00  0.00    -0.203 F 
ATOM     68  F   UNL A   1      44.389  26.137  24.798  1.00  0.00    -0.200 F 
ATOM     69  C   UNL A   1      42.832  24.547  25.588  1.00  0.00     0.200 A 
ATOM     70  F   UNL A   1      41.253  22.996  26.408  1.00  0.00    -0.200 F 
ATOM     71  F   UNL A   1      43.083  23.758  24.534  1.00  0.00    -0.200 F 
ENDBRANCH  47  61
BRANCH  48  72
ATOM     72  C   UNL A   1      39.442  32.055  35.352  1.00  0.00     0.064 A 
ATOM     73  C   UNL A   1      38.510  31.561  36.272  1.00  0.00     0.173 A 
ATOM     74  C   UNL A   1      39.948  33.347  35.564  1.00  0.00     0.173 A 
ATOM     75  F   UNL A   1      37.978  30.342  36.098  1.00  0.00    -0.203 F 
ATOM     76  C   UNL A   1      38.101  32.326  37.363  1.00  0.00     0.198 A 
ATOM     77  C   UNL A   1      39.558  34.101  36.668  1.00  0.00     0.198 A 
ATOM     78  F   UNL A   1      40.842  33.867  34.708  1.00  0.00    -0.203 F 
ATOM     79  F   UNL A   1      37.188  31.840  38.216  1.00  0.00    -0.200 F 
ATOM     80  C   UNL A   1      38.632  33.592  37.565  1.00  0.00     0.200 A 
ATOM     81  F   UNL A   1      40.084  35.317  36.865  1.00  0.00    -0.200 F 
ATOM     82  F   UNL A   1      38.251  34.321  38.622  1.00  0.00    -0.200 F 
ENDBRANCH  48  72
BRANCH  60  83
ATOM     83  C   UNL A   1      44.723  27.576  34.416  1.00  0.00     0.064 A 
ATOM     84  C   UNL A   1      45.963  28.228  34.395  1.00  0.00     0.173 A 
ATOM     85  C   UNL A   1      44.543  26.533  35.339  1.00  0.00     0.173 A 
ATOM     86  F   UNL A   1      46.190  29.221  33.523  1.00  0.00    -0.203 F 
ATOM     87  C   UNL A   1      46.988  27.844  35.258  1.00  0.00     0.198 A 
ATOM     88  C   UNL A   1      45.559  26.171  36.219  1.00  0.00     0.198 A 
ATOM     89  F   UNL A   1      43.372  25.882  35.404  1.00  0.00    -0.203 F 
ATOM     90  F   UNL A   1      48.177  28.459  35.200  1.00  0.00    -0.200 F 
ATOM     91  C   UNL A   1      46.781  26.823  36.175  1.00  0.00     0.200 A 
ATOM     92  F   UNL A   1      45.353  25.195  37.114  1.00  0.00    -0.200 F 
ATOM     93  F   UNL A   1      47.763  26.466  37.015  1.00  0.00    -0.200 F 
ENDBRANCH  60  83
ENDBRANCH  34  35
ENDBRANCH  27  29
ENDBRANCH  26  27
ENDBRANCH  25  26
ENDBRANCH  24  25
ENDBRANCH  23  24
ENDBRANCH  22  23
ENDBRANCH   1  22
TORSDOF 21
ENDMDL
MODEL 2
REMARK VINA RESULT:     -10.0      3.250      8.335
REMARK SMILES CCN(Cc1ccc(Br)s1)C(=O)C[N@@H+](C)CC(=O)OCCOCCOC(=O)c1ccc(-c2c3nc(c(-c4c(F)c(F)c(F)c(F)c4F)c4ccc([nH]4)c(-c4c(F)c(F)c(F)c(F)c4F)c4nc(c(-c5c(F)c(F)c(F)c(F)c5F)c5ccc2[nH]5)C=C4)C=C3)cc1
REMARK SMILES IDX 20 1 19 2 17 3 18 4 16 5 14 6 15 7 13 9 11 10 12 11 3 12
REMARK SMILES IDX 2 13 1 14 4 15 5 16 6 17 10 18 7 19 8 20 9 21 21 22 22 23
REMARK SMILES IDX 23 24 24 25 25 26 26 27 27 28 28 29 29 30 90 31 30 32 89 33
REMARK SMILES IDX 31 34 32 35 33 36 83 37 34 38 88 39 82 40 84 41 35 42 87 43
REMARK SMILES IDX 81 44 80 45 36 47 68 48 48 49 67 50 49 51 52 52 66 53 85 54
REMARK SMILES IDX 50 55 51 56 65 58 86 59 53 60 37 61 38 62 46 63 39 64 40 65
REMARK SMILES IDX 44 66 47 67 41 68 42 69 45 70 43 71 69 72 70 73 78 74 71 75
REMARK SMILES IDX 72 76 76 77 79 78 73 79 74 80 77 81 75 82 54 83 55 84 63 85
REMARK SMILES IDX 56 86 57 87 61 88 64 89 58 90 59 91 62 92 60 93
REMARK H PARENT 14 8 84 46 52 57
REMARK Flexibility Score: inf
ROOT
ATOM      1  C   UNL A   1      40.348  20.597  26.403  1.00  0.00     0.261 C 
ENDROOT
BRANCH   1   2
ATOM      2  O   UNL A   1      39.917  21.795  25.718  1.00  0.00    -0.459 OA
BRANCH   2   3
ATOM      3  C   UNL A   1      39.282  22.722  26.481  1.00  0.00     0.361 C 
ATOM      4  O   UNL A   1      39.629  23.024  27.620  1.00  0.00    -0.245 OA
BRANCH   3   5
ATOM      5  C   UNL A   1      37.999  23.286  25.878  1.00  0.00     0.386 C 
BRANCH   5   6
ATOM      6  N   UNL A   1      36.699  22.605  26.086  1.00  0.00    -0.320 N 
ATOM      7  C   UNL A   1      36.606  21.310  25.417  1.00  0.00     0.333 C 
ATOM      8  H   UNL A   1      36.699  22.449  27.093  1.00  0.00     0.348 HD
BRANCH   6   9
ATOM      9  C   UNL A   1      35.502  23.415  25.805  1.00  0.00     0.364 C 
BRANCH   9  10
ATOM     10  C   UNL A   1      34.285  23.072  26.678  1.00  0.00     0.278 C 
ATOM     11  O   UNL A   1      34.476  22.722  27.847  1.00  0.00    -0.268 OA
BRANCH  10  12
ATOM     12  N   UNL A   1      33.000  23.186  26.159  1.00  0.00    -0.333 N 
BRANCH  12  13
ATOM     13  C   UNL A   1      31.996  23.894  26.957  1.00  0.00     0.116 C 
ATOM     14  C   UNL A   1      30.682  24.090  26.210  1.00  0.00     0.027 C 
ENDBRANCH  12  13
BRANCH  12  15
ATOM     15  C   UNL A   1      32.584  22.666  24.856  1.00  0.00     0.166 C 
BRANCH  15  16
ATOM     16  C   UNL A   1      32.667  21.164  24.800  1.00  0.00     0.025 A 
ATOM     17  C   UNL A   1      32.771  20.293  25.873  1.00  0.00     0.018 A 
ATOM     18  S   UNL A   1      32.667  20.306  23.310  1.00  0.00    -0.131 S 
ATOM     19  C   UNL A   1      32.961  18.940  25.461  1.00  0.00     0.028 A 
ATOM     20  C   UNL A   1      32.953  18.833  24.095  1.00  0.00     0.070 A 
ATOM     21  Br  UNL A   1      33.234  17.223  23.181  1.00  0.00    -0.039 Br
ENDBRANCH  15  16
ENDBRANCH  12  15
ENDBRANCH  10  12
ENDBRANCH   9  10
ENDBRANCH   6   9
ENDBRANCH   5   6
ENDBRANCH   3   5
ENDBRANCH   2   3
ENDBRANCH   1   2
BRANCH   1  22
ATOM     22  C   UNL A   1      41.831  20.308  26.167  1.00  0.00     0.202 C 
BRANCH  22  23
ATOM     23  O   UNL A   1      42.703  21.437  26.193  1.00  0.00    -0.374 OA
BRANCH  23  24
ATOM     24  C   UNL A   1      43.919  21.321  25.456  1.00  0.00     0.202 C 
BRANCH  24  25
ATOM     25  C   UNL A   1      44.108  22.363  24.344  1.00  0.00     0.261 C 
BRANCH  25  26
ATOM     26  O   UNL A   1      43.336  23.559  24.583  1.00  0.00    -0.460 OA
BRANCH  26  27
ATOM     27  C   UNL A   1      44.054  24.626  25.005  1.00  0.00     0.338 C 
ATOM     28  O   UNL A   1      45.165  24.973  24.629  1.00  0.00    -0.246 OA
BRANCH  27  29
ATOM     29  C   UNL A   1      43.240  25.471  25.901  1.00  0.00     0.060 A 
ATOM     30  C   UNL A   1      43.499  26.849  25.895  1.00  0.00     0.016 A 
ATOM     31  C   UNL A   1      42.307  24.931  26.786  1.00  0.00     0.016 A 
ATOM     32  C   UNL A   1      42.871  27.685  26.816  1.00  0.00     0.010 A 
ATOM     33  C   UNL A   1      41.684  25.770  27.718  1.00  0.00     0.010 A 
ATOM     34  C   UNL A   1      41.995  27.144  27.763  1.00  0.00    -0.014 A 
BRANCH  34  35
ATOM     35  C   UNL A   1      41.551  27.971  28.913  1.00  0.00     0.031 A 
ATOM     36  C   UNL A   1      42.314  27.876  30.206  1.00  0.00     0.074 A 
ATOM     37  C   UNL A   1      40.502  28.804  28.814  1.00  0.00     0.049 A 
ATOM     38  N   UNL A   1      42.059  28.425  31.367  1.00  0.00    -0.248 NA
ATOM     39  C   UNL A   1      43.528  27.045  30.185  1.00  0.00     0.031 C 
ATOM     40  C   UNL A   1      39.717  29.030  27.605  1.00  0.00     0.029 A 
ATOM     41  N   UNL A   1      39.908  29.602  29.761  1.00  0.00    -0.354 N 
ATOM     42  C   UNL A   1      43.067  27.989  32.217  1.00  0.00     0.074 A 
ATOM     43  C   UNL A   1      43.924  27.115  31.446  1.00  0.00     0.031 C 
ATOM     44  C   UNL A   1      38.724  29.890  27.888  1.00  0.00     0.029 A 
ATOM     45  C   UNL A   1      38.783  30.242  29.307  1.00  0.00     0.049 A 
ATOM     46  H   UNL A   1      40.256  29.704  30.676  1.00  0.00     0.167 HD
ATOM     47  C   UNL A   1      43.259  28.290  33.524  1.00  0.00     0.037 A 
ATOM     48  C   UNL A   1      37.882  30.996  29.970  1.00  0.00     0.037 A 
ATOM     49  C   UNL A   1      42.411  29.166  34.287  1.00  0.00     0.049 A 
ATOM     50  C   UNL A   1      38.075  31.268  31.439  1.00  0.00     0.074 A 
ATOM     51  C   UNL A   1      42.538  29.556  35.608  1.00  0.00     0.029 A 
ATOM     52  N   UNL A   1      41.268  29.781  33.796  1.00  0.00    -0.354 N 
ATOM     53  N   UNL A   1      39.034  30.861  32.236  1.00  0.00    -0.248 NA
ATOM     54  C   UNL A   1      37.063  32.103  32.100  1.00  0.00     0.031 C 
ATOM     55  C   UNL A   1      41.442  30.362  35.933  1.00  0.00     0.029 A 
ATOM     56  C   UNL A   1      40.662  30.523  34.798  1.00  0.00     0.049 A 
ATOM     57  H   UNL A   1      40.936  29.702  32.873  1.00  0.00     0.167 HD
ATOM     58  C   UNL A   1      38.758  31.412  33.481  1.00  0.00     0.074 A 
ATOM     59  C   UNL A   1      37.540  32.183  33.335  1.00  0.00     0.031 C 
ATOM     60  C   UNL A   1      39.455  31.293  34.638  1.00  0.00     0.037 A 
BRANCH  47  61
ATOM     61  C   UNL A   1      44.411  27.624  34.219  1.00  0.00     0.064 A 
ATOM     62  C   UNL A   1      44.328  26.312  34.709  1.00  0.00     0.173 A 
ATOM     63  C   UNL A   1      45.620  28.314  34.396  1.00  0.00     0.173 A 
ATOM     64  F   UNL A   1      43.189  25.614  34.578  1.00  0.00    -0.203 F 
ATOM     65  C   UNL A   1      45.397  25.731  35.386  1.00  0.00     0.198 A 
ATOM     66  C   UNL A   1      46.699  27.718  35.045  1.00  0.00     0.198 A 
ATOM     67  F   UNL A   1      45.756  29.569  33.942  1.00  0.00    -0.203 F 
ATOM     68  F   UNL A   1      45.273  24.499  35.900  1.00  0.00    -0.200 F 
ATOM     69  C   UNL A   1      46.583  26.432  35.549  1.00  0.00     0.200 A 
ATOM     70  F   UNL A   1      47.847  28.394  35.190  1.00  0.00    -0.200 F 
ATOM     71  F   UNL A   1      47.609  25.872  36.204  1.00  0.00    -0.200 F 
ENDBRANCH  47  61
BRANCH  48  72
ATOM     72  C   UNL A   1      36.700  31.523  29.242  1.00  0.00     0.064 A 
ATOM     73  C   UNL A   1      35.632  30.690  28.888  1.00  0.00     0.173 A 
ATOM     74  C   UNL A   1      36.606  32.883  28.909  1.00  0.00     0.173 A 
ATOM     75  F   UNL A   1      35.688  29.378  29.161  1.00  0.00    -0.203 F 
ATOM     76  C   UNL A   1      34.514  31.196  28.227  1.00  0.00     0.198 A 
ATOM     77  C   UNL A   1      35.477  33.393  28.272  1.00  0.00     0.198 A 
ATOM     78  F   UNL A   1      37.604  33.723  29.226  1.00  0.00    -0.203 F 
ATOM     79  F   UNL A   1      33.517  30.373  27.875  1.00  0.00    -0.200 F 
ATOM     80  C   UNL A   1      34.433  32.548  27.929  1.00  0.00     0.200 A 
ATOM     81  F   UNL A   1      35.399  34.702  27.999  1.00  0.00    -0.200 F 
ATOM     82  F   UNL A   1      33.351  33.037  27.309  1.00  0.00    -0.200 F 
ENDBRANCH  48  72
BRANCH  60  83
ATOM     83  C   UNL A   1      38.951  32.044  35.837  1.00  0.00     0.064 A 
ATOM     84  C   UNL A   1      38.182  31.421  36.830  1.00  0.00     0.173 A 
ATOM     85  C   UNL A   1      39.307  33.389  36.029  1.00  0.00     0.173 A 
ATOM     86  F   UNL A   1      37.804  30.142  36.687  1.00  0.00    -0.203 F 
ATOM     87  C   UNL A   1      37.776  32.120  37.964  1.00  0.00     0.198 A 
ATOM     88  C   UNL A   1      38.924  34.076  37.177  1.00  0.00     0.198 A 
ATOM     89  F   UNL A   1      40.049  34.029  35.112  1.00  0.00    -0.203 F 
ATOM     90  F   UNL A   1      37.014  31.515  38.885  1.00  0.00    -0.200 F 
ATOM     91  C   UNL A   1      38.155  33.443  38.141  1.00  0.00     0.200 A 
ATOM     92  F   UNL A   1      39.304  35.349  37.353  1.00  0.00    -0.200 F 
ATOM     93  F   UNL A   1      37.777  34.109  39.241  1.00  0.00    -0.200 F 
ENDBRANCH  60  83
ENDBRANCH  34  35
ENDBRANCH  27  29
ENDBRANCH  26  27
ENDBRANCH  25  26
ENDBRANCH  24  25
ENDBRANCH  23  24
ENDBRANCH  22  23
ENDBRANCH   1  22
TORSDOF 21
ENDMDL
MODEL 3
REMARK VINA RESULT:     -10.0      3.461      8.408
REMARK SMILES CCN(Cc1ccc(Br)s1)C(=O)C[N@@H+](C)CC(=O)OCCOCCOC(=O)c1ccc(-c2c3nc(c(-c4c(F)c(F)c(F)c(F)c4F)c4ccc([nH]4)c(-c4c(F)c(F)c(F)c(F)c4F)c4nc(c(-c5c(F)c(F)c(F)c(F)c5F)c5ccc2[nH]5)C=C4)C=C3)cc1
REMARK SMILES IDX 20 1 19 2 17 3 18 4 16 5 14 6 15 7 13 9 11 10 12 11 3 12
REMARK SMILES IDX 2 13 1 14 4 15 5 16 6 17 10 18 7 19 8 20 9 21 21 22 22 23
REMARK SMILES IDX 23 24 24 25 25 26 26 27 27 28 28 29 29 30 90 31 30 32 89 33
REMARK SMILES IDX 31 34 32 35 33 36 83 37 34 38 88 39 82 40 84 41 35 42 87 43
REMARK SMILES IDX 81 44 80 45 36 47 68 48 48 49 67 50 49 51 52 52 66 53 85 54
REMARK SMILES IDX 50 55 51 56 65 58 86 59 53 60 37 61 38 62 46 63 39 64 40 65
REMARK SMILES IDX 44 66 47 67 41 68 42 69 45 70 43 71 69 72 70 73 78 74 71 75
REMARK SMILES IDX 72 76 76 77 79 78 73 79 74 80 77 81 75 82 54 83 55 84 63 85
REMARK SMILES IDX 56 86 57 87 61 88 64 89 58 90 59 91 62 92 60 93
REMARK H PARENT 14 8 84 46 52 57
REMARK Flexibility Score: inf
ROOT
ATOM      1  C   UNL A   1      40.726  19.929  26.426  1.00  0.00     0.261 C 
ENDROOT
BRANCH   1   2
ATOM      2  O   UNL A   1      40.178  21.072  25.731  1.00  0.00    -0.459 OA
BRANCH   2   3
ATOM      3  C   UNL A   1      39.655  22.051  26.514  1.00  0.00     0.361 C 
ATOM      4  O   UNL A   1      40.084  22.337  27.629  1.00  0.00    -0.245 OA
BRANCH   3   5
ATOM      5  C   UNL A   1      38.388  22.704  25.971  1.00  0.00     0.386 C 
BRANCH   5   6
ATOM      6  N   UNL A   1      37.119  21.944  25.887  1.00  0.00    -0.320 N 
ATOM      7  C   UNL A   1      37.144  20.876  24.892  1.00  0.00     0.333 C 
ATOM      8  H   UNL A   1      37.062  21.522  26.813  1.00  0.00     0.348 HD
BRANCH   6   9
ATOM      9  C   UNL A   1      35.898  22.754  25.739  1.00  0.00     0.364 C 
BRANCH   9  10
ATOM     10  C   UNL A   1      34.617  22.069  26.239  1.00  0.00     0.278 C 
ATOM     11  O   UNL A   1      34.618  21.565  27.367  1.00  0.00    -0.268 OA
BRANCH  10  12
ATOM     12  N   UNL A   1      33.480  22.048  25.441  1.00  0.00    -0.333 N 
BRANCH  12  13
ATOM     13  C   UNL A   1      33.494  21.202  24.245  1.00  0.00     0.116 C 
ATOM     14  C   UNL A   1      32.346  20.199  24.220  1.00  0.00     0.027 C 
ENDBRANCH  12  13
BRANCH  12  15
ATOM     15  C   UNL A   1      32.254  22.796  25.724  1.00  0.00     0.166 C 
BRANCH  15  16
ATOM     16  C   UNL A   1      32.136  24.024  24.861  1.00  0.00     0.025 A 
ATOM     17  C   UNL A   1      31.159  24.289  23.914  1.00  0.00     0.018 A 
ATOM     18  S   UNL A   1      33.280  25.305  24.937  1.00  0.00    -0.131 S 
ATOM     19  C   UNL A   1      31.418  25.485  23.182  1.00  0.00     0.028 A 
ATOM     20  C   UNL A   1      32.557  26.102  23.629  1.00  0.00     0.070 A 
ATOM     21  Br  UNL A   1      33.252  27.667  22.872  1.00  0.00    -0.039 Br
ENDBRANCH  15  16
ENDBRANCH  12  15
ENDBRANCH  10  12
ENDBRANCH   9  10
ENDBRANCH   6   9
ENDBRANCH   5   6
ENDBRANCH   3   5
ENDBRANCH   2   3
ENDBRANCH   1   2
BRANCH   1  22
ATOM     22  C   UNL A   1      42.219  19.752  26.144  1.00  0.00     0.202 C 
BRANCH  22  23
ATOM     23  O   UNL A   1      43.006  20.942  26.159  1.00  0.00    -0.374 OA
BRANCH  23  24
ATOM     24  C   UNL A   1      44.175  20.943  25.340  1.00  0.00     0.202 C 
BRANCH  24  25
ATOM     25  C   UNL A   1      44.275  22.113  24.350  1.00  0.00     0.261 C 
BRANCH  25  26
ATOM     26  O   UNL A   1      43.450  23.231  24.744  1.00  0.00    -0.460 OA
BRANCH  26  27
ATOM     27  C   UNL A   1      44.129  24.361  25.048  1.00  0.00     0.338 C 
ATOM     28  O   UNL A   1      45.187  24.747  24.569  1.00  0.00    -0.246 OA
BRANCH  27  29
ATOM     29  C   UNL A   1      43.331  25.213  25.951  1.00  0.00     0.060 A 
ATOM     30  C   UNL A   1      43.580  26.592  25.920  1.00  0.00     0.016 A 
ATOM     31  C   UNL A   1      42.425  24.678  26.867  1.00  0.00     0.016 A 
ATOM     32  C   UNL A   1      42.968  27.437  26.844  1.00  0.00     0.010 A 
ATOM     33  C   UNL A   1      41.818  25.526  27.802  1.00  0.00     0.010 A 
ATOM     34  C   UNL A   1      42.120  26.902  27.821  1.00  0.00    -0.014 A 
BRANCH  34  35
ATOM     35  C   UNL A   1      41.699  27.742  28.970  1.00  0.00     0.031 A 
ATOM     36  C   UNL A   1      42.466  27.638  30.259  1.00  0.00     0.074 A 
ATOM     37  C   UNL A   1      40.665  28.595  28.873  1.00  0.00     0.049 A 
ATOM     38  N   UNL A   1      42.228  28.196  31.419  1.00  0.00    -0.248 NA
ATOM     39  C   UNL A   1      43.663  26.783  30.234  1.00  0.00     0.031 C 
ATOM     40  C   UNL A   1      39.878  28.832  27.667  1.00  0.00     0.029 A 
ATOM     41  N   UNL A   1      40.091  29.408  29.820  1.00  0.00    -0.354 N 
ATOM     42  C   UNL A   1      43.231  27.743  32.266  1.00  0.00     0.074 A 
ATOM     43  C   UNL A   1      44.068  26.850  31.493  1.00  0.00     0.031 C 
ATOM     44  C   UNL A   1      38.903  29.713  27.952  1.00  0.00     0.029 A 
ATOM     45  C   UNL A   1      38.976  30.068  29.369  1.00  0.00     0.049 A 
ATOM     46  H   UNL A   1      40.446  29.507  30.733  1.00  0.00     0.167 HD
ATOM     47  C   UNL A   1      43.437  28.045  33.570  1.00  0.00     0.037 A 
ATOM     48  C   UNL A   1      38.095  30.842  30.034  1.00  0.00     0.037 A 
ATOM     49  C   UNL A   1      42.609  28.940  34.334  1.00  0.00     0.049 A 
ATOM     50  C   UNL A   1      38.301  31.116  31.501  1.00  0.00     0.074 A 
ATOM     51  C   UNL A   1      42.751  29.333  35.653  1.00  0.00     0.029 A 
ATOM     52  N   UNL A   1      41.477  29.576  33.847  1.00  0.00    -0.354 N 
ATOM     53  N   UNL A   1      39.255  30.694  32.294  1.00  0.00    -0.248 NA
ATOM     54  C   UNL A   1      37.308  31.973  32.164  1.00  0.00     0.031 C 
ATOM     55  C   UNL A   1      41.672  30.161  35.981  1.00  0.00     0.029 A 
ATOM     56  C   UNL A   1      40.890  30.333  34.849  1.00  0.00     0.049 A 
ATOM     57  H   UNL A   1      41.138  29.499  32.926  1.00  0.00     0.167 HD
ATOM     58  C   UNL A   1      38.997  31.254  33.539  1.00  0.00     0.074 A 
ATOM     59  C   UNL A   1      37.793  32.048  33.396  1.00  0.00     0.031 C 
ATOM     60  C   UNL A   1      39.697  31.126  34.693  1.00  0.00     0.037 A 
BRANCH  47  61
ATOM     61  C   UNL A   1      44.579  27.359  34.262  1.00  0.00     0.064 A 
ATOM     62  C   UNL A   1      45.886  27.866  34.222  1.00  0.00     0.173 A 
ATOM     63  C   UNL A   1      44.358  26.172  34.978  1.00  0.00     0.173 A 
ATOM     64  F   UNL A   1      46.154  28.990  33.539  1.00  0.00    -0.203 F 
ATOM     65  C   UNL A   1      46.936  27.189  34.838  1.00  0.00     0.198 A 
ATOM     66  C   UNL A   1      45.404  25.515  35.619  1.00  0.00     0.198 A 
ATOM     67  F   UNL A   1      43.126  25.647  35.053  1.00  0.00    -0.203 F 
ATOM     68  F   UNL A   1      48.188  27.660  34.734  1.00  0.00    -0.200 F 
ATOM     69  C   UNL A   1      46.694  26.018  35.539  1.00  0.00     0.200 A 
ATOM     70  F   UNL A   1      45.165  24.391  36.307  1.00  0.00    -0.200 F 
ATOM     71  F   UNL A   1      47.706  25.366  36.129  1.00  0.00    -0.200 F 
ENDBRANCH  47  61
BRANCH  48  72
ATOM     72  C   UNL A   1      36.919  31.389  29.310  1.00  0.00     0.064 A 
ATOM     73  C   UNL A   1      35.823  30.581  28.986  1.00  0.00     0.173 A 
ATOM     74  C   UNL A   1      36.861  32.745  28.951  1.00  0.00     0.173 A 
ATOM     75  F   UNL A   1      35.843  29.274  29.286  1.00  0.00    -0.203 F 
ATOM     76  C   UNL A   1      34.711  31.107  28.330  1.00  0.00     0.198 A 
ATOM     77  C   UNL A   1      35.739  33.275  28.317  1.00  0.00     0.198 A 
ATOM     78  F   UNL A   1      37.888  33.560  29.237  1.00  0.00    -0.203 F 
ATOM     79  F   UNL A   1      33.685  30.307  28.007  1.00  0.00    -0.200 F 
ATOM     80  C   UNL A   1      34.667  32.455  28.005  1.00  0.00     0.200 A 
ATOM     81  F   UNL A   1      35.696  34.580  28.018  1.00  0.00    -0.200 F 
ATOM     82  F   UNL A   1      33.591  32.963  27.388  1.00  0.00    -0.200 F 
ENDBRANCH  48  72
BRANCH  60  83
ATOM     83  C   UNL A   1      39.215  31.891  35.891  1.00  0.00     0.064 A 
ATOM     84  C   UNL A   1      39.644  33.200  36.153  1.00  0.00     0.173 A 
ATOM     85  C   UNL A   1      38.252  31.332  36.747  1.00  0.00     0.173 A 
ATOM     86  F   UNL A   1      40.572  33.775  35.374  1.00  0.00    -0.203 F 
ATOM     87  C   UNL A   1      39.138  33.915  37.237  1.00  0.00     0.198 A 
ATOM     88  C   UNL A   1      37.728  32.060  37.811  1.00  0.00     0.198 A 
ATOM     89  F   UNL A   1      37.802  30.086  36.535  1.00  0.00    -0.203 F 
ATOM     90  F   UNL A   1      39.587  35.152  37.489  1.00  0.00    -0.200 F 
ATOM     91  C   UNL A   1      38.174  33.348  38.058  1.00  0.00     0.200 A 
ATOM     92  F   UNL A   1      36.786  31.515  38.595  1.00  0.00    -0.200 F 
ATOM     93  F   UNL A   1      37.677  34.044  39.090  1.00  0.00    -0.200 F 
ENDBRANCH  60  83
ENDBRANCH  34  35
ENDBRANCH  27  29
ENDBRANCH  26  27
ENDBRANCH  25  26
ENDBRANCH  24  25
ENDBRANCH  23  24
ENDBRANCH  22  23
ENDBRANCH   1  22
TORSDOF 21
ENDMDL
