MODEL 1
REMARK VINA RESULT:     -11.3      0.000      0.000
REMARK SMILES CCN1C(=O)C[C@H](C(=O)OCCOCCOC(=O)c2ccc(-c3c4nc(c(-c5c(F)c(F)c(F)c(F)c5F)c5ccc([nH]5)c(-c5c(F)c(F)c(F)c(F)c5F)c5nc(c(-c6c(F)c(F)c(F)c(F)c6F)c6ccc3[nH]6)C=C5)C=C4)cc2)[C@H]1c1ccccc1C1CC1
REMARK SMILES IDX 13 1 12 2 11 3 10 4 8 5 9 6 7 7 3 8 4 9 82 10 5 11 6 12 2 13
REMARK SMILES IDX 1 14 83 15 84 16 88 17 85 18 87 19 86 20 89 21 90 22 91 23
REMARK SMILES IDX 14 24 15 25 16 26 17 27 18 28 19 29 20 30 81 31 21 32 80 33
REMARK SMILES IDX 22 34 23 35 24 36 74 37 25 38 79 39 73 40 75 41 26 42 78 43
REMARK SMILES IDX 72 44 71 45 27 47 59 48 39 49 58 50 40 51 43 52 57 53 76 54
REMARK SMILES IDX 41 55 42 56 56 58 77 59 44 60 28 61 29 62 37 63 30 64 31 65
REMARK SMILES IDX 35 66 38 67 32 68 33 69 36 70 34 71 60 72 61 73 69 74 62 75
REMARK SMILES IDX 63 76 67 77 70 78 64 79 65 80 68 81 66 82 45 83 46 84 54 85
REMARK SMILES IDX 47 86 48 87 52 88 55 89 49 90 50 91 53 92 51 93
REMARK H PARENT 75 46 43 57
REMARK Flexibility Score: inf
ROOT
ATOM      1  O   UNL A   1      32.109  30.613  25.865  1.00  0.00    -0.374 OA
ENDROOT
BRANCH   1   2
ATOM      2  C   UNL A   1      33.328  29.894  25.999  1.00  0.00     0.202 C 
BRANCH   2   3
ATOM      3  C   UNL A   1      33.416  28.806  27.073  1.00  0.00     0.261 C 
BRANCH   3   4
ATOM      4  O   UNL A   1      33.265  27.473  26.562  1.00  0.00    -0.463 OA
BRANCH   4   5
ATOM      5  C   UNL A   1      31.977  27.044  26.502  1.00  0.00     0.312 C 
ATOM      6  O   UNL A   1      31.141  27.228  27.379  1.00  0.00    -0.252 OA
BRANCH   5   7
ATOM      7  C   UNL A   1      31.656  26.303  25.235  1.00  0.00     0.135 C 
ATOM      8  N   UNL A   1      32.541  25.202  23.385  1.00  0.00    -0.335 N 
ATOM      9  C   UNL A   1      31.668  26.176  22.882  1.00  0.00     0.224 C 
ATOM     10  C   UNL A   1      32.883  25.509  24.769  1.00  0.00     0.130 C 
ATOM     11  O   UNL A   1      31.330  26.318  21.718  1.00  0.00    -0.275 OA
ATOM     12  C   UNL A   1      31.279  27.109  24.002  1.00  0.00     0.118 C 
BRANCH   8  13
ATOM     13  C   UNL A   1      33.353  24.445  22.439  1.00  0.00     0.117 C 
ATOM     14  C   UNL A   1      33.072  22.963  22.292  1.00  0.00     0.027 C 
ENDBRANCH   8  13
BRANCH  10  15
ATOM     15  C   UNL A   1      33.163  24.336  25.690  1.00  0.00    -0.021 A 
ATOM     16  C   UNL A   1      32.039  23.780  26.361  1.00  0.00     0.006 A 
ATOM     17  C   UNL A   1      34.468  23.862  25.997  1.00  0.00    -0.040 A 
ATOM     18  C   UNL A   1      32.173  22.844  27.379  1.00  0.00     0.000 A 
ATOM     19  C   UNL A   1      34.547  22.915  27.054  1.00  0.00     0.004 A 
ATOM     20  C   UNL A   1      33.436  22.423  27.742  1.00  0.00     0.000 A 
BRANCH  17  21
ATOM     21  C   UNL A   1      35.818  24.203  25.360  1.00  0.00     0.019 C 
ATOM     22  C   UNL A   1      37.167  23.597  25.622  1.00  0.00     0.009 C 
ATOM     23  C   UNL A   1      36.446  23.294  24.337  1.00  0.00     0.009 C 
ENDBRANCH  17  21
ENDBRANCH  10  15
ENDBRANCH   5   7
ENDBRANCH   4   5
ENDBRANCH   3   4
ENDBRANCH   2   3
ENDBRANCH   1   2
BRANCH   1  24
ATOM     24  C   UNL A   1      31.643  31.396  26.962  1.00  0.00     0.202 C 
BRANCH  24  25
ATOM     25  C   UNL A   1      31.826  32.916  26.902  1.00  0.00     0.261 C 
BRANCH  25  26
ATOM     26  O   UNL A   1      33.209  33.316  26.894  1.00  0.00    -0.460 OA
BRANCH  26  27
ATOM     27  C   UNL A   1      33.712  33.608  28.117  1.00  0.00     0.338 C 
ATOM     28  O   UNL A   1      33.193  34.297  28.988  1.00  0.00    -0.246 OA
BRANCH  27  29
ATOM     29  C   UNL A   1      34.940  32.841  28.377  1.00  0.00     0.060 A 
ATOM     30  C   UNL A   1      34.798  31.522  28.825  1.00  0.00     0.016 A 
ATOM     31  C   UNL A   1      36.198  33.444  28.325  1.00  0.00     0.016 A 
ATOM     32  C   UNL A   1      35.908  30.816  29.280  1.00  0.00     0.010 A 
ATOM     33  C   UNL A   1      37.312  32.738  28.793  1.00  0.00     0.010 A 
ATOM     34  C   UNL A   1      37.163  31.438  29.312  1.00  0.00    -0.014 A 
BRANCH  34  35
ATOM     35  C   UNL A   1      38.277  30.782  30.038  1.00  0.00     0.031 A 
ATOM     36  C   UNL A   1      38.505  31.122  31.485  1.00  0.00     0.074 A 
ATOM     37  C   UNL A   1      39.050  29.868  29.428  1.00  0.00     0.049 A 
ATOM     38  N   UNL A   1      39.422  30.682  32.309  1.00  0.00    -0.248 NA
ATOM     39  C   UNL A   1      37.570  32.086  32.086  1.00  0.00     0.031 C 
ATOM     40  C   UNL A   1      38.899  29.424  28.045  1.00  0.00     0.029 A 
ATOM     41  N   UNL A   1      40.120  29.150  29.900  1.00  0.00    -0.354 N 
ATOM     42  C   UNL A   1      39.181  31.319  33.519  1.00  0.00     0.074 A 
ATOM     43  C   UNL A   1      38.046  32.195  33.318  1.00  0.00     0.031 C 
ATOM     44  C   UNL A   1      39.849  28.512  27.775  1.00  0.00     0.029 A 
ATOM     45  C   UNL A   1      40.690  28.332  28.957  1.00  0.00     0.049 A 
ATOM     46  H   UNL A   1      40.447  29.215  30.826  1.00  0.00     0.167 HD
ATOM     47  C   UNL A   1      39.841  31.180  34.693  1.00  0.00     0.037 A 
ATOM     48  C   UNL A   1      41.778  27.542  29.038  1.00  0.00     0.037 A 
ATOM     49  C   UNL A   1      40.964  30.304  34.893  1.00  0.00     0.049 A 
ATOM     50  C   UNL A   1      42.536  27.458  30.337  1.00  0.00     0.074 A 
ATOM     51  C   UNL A   1      41.683  30.071  36.053  1.00  0.00     0.029 A 
ATOM     52  N   UNL A   1      41.538  29.520  33.903  1.00  0.00    -0.354 N 
ATOM     53  N   UNL A   1      42.284  28.040  31.484  1.00  0.00    -0.248 NA
ATOM     54  C   UNL A   1      43.732  26.603  30.351  1.00  0.00     0.031 C 
ATOM     55  C   UNL A   1      42.721  29.183  35.754  1.00  0.00     0.029 A 
ATOM     56  C   UNL A   1      42.620  28.824  34.419  1.00  0.00     0.049 A 
ATOM     57  H   UNL A   1      41.224  29.466  32.972  1.00  0.00     0.167 HD
ATOM     58  C   UNL A   1      43.267  27.602  32.361  1.00  0.00     0.074 A 
ATOM     59  C   UNL A   1      44.117  26.695  31.616  1.00  0.00     0.031 C 
ATOM     60  C   UNL A   1      43.451  27.920  33.666  1.00  0.00     0.037 A 
BRANCH  47  61
ATOM     61  C   UNL A   1      39.380  32.015  35.851  1.00  0.00     0.064 A 
ATOM     62  C   UNL A   1      39.876  33.308  36.073  1.00  0.00     0.173 A 
ATOM     63  C   UNL A   1      38.403  31.527  36.731  1.00  0.00     0.173 A 
ATOM     64  F   UNL A   1      40.822  33.816  35.268  1.00  0.00    -0.203 F 
ATOM     65  C   UNL A   1      39.425  34.074  37.145  1.00  0.00     0.198 A 
ATOM     66  C   UNL A   1      37.936  32.304  37.787  1.00  0.00     0.198 A 
ATOM     67  F   UNL A   1      37.894  30.297  36.560  1.00  0.00    -0.203 F 
ATOM     68  F   UNL A   1      39.942  35.291  37.362  1.00  0.00    -0.200 F 
ATOM     69  C   UNL A   1      38.451  33.574  37.997  1.00  0.00     0.200 A 
ATOM     70  F   UNL A   1      36.987  31.824  38.602  1.00  0.00    -0.200 F 
ATOM     71  F   UNL A   1      38.013  34.314  39.024  1.00  0.00    -0.200 F 
ENDBRANCH  47  61
BRANCH  48  72
ATOM     72  C   UNL A   1      42.224  26.771  27.849  1.00  0.00     0.064 A 
ATOM     73  C   UNL A   1      43.133  27.317  26.933  1.00  0.00     0.173 A 
ATOM     74  C   UNL A   1      41.738  25.479  27.598  1.00  0.00     0.173 A 
ATOM     75  F   UNL A   1      43.605  28.558  27.117  1.00  0.00    -0.203 F 
ATOM     76  C   UNL A   1      43.528  26.605  25.802  1.00  0.00     0.198 A 
ATOM     77  C   UNL A   1      42.154  24.759  26.481  1.00  0.00     0.198 A 
ATOM     78  F   UNL A   1      40.865  24.914  28.444  1.00  0.00    -0.203 F 
ATOM     79  F   UNL A   1      44.364  27.166  24.919  1.00  0.00    -0.200 F 
ATOM     80  C   UNL A   1      43.042  25.324  25.580  1.00  0.00     0.200 A 
ATOM     81  F   UNL A   1      41.691  23.517  26.277  1.00  0.00    -0.200 F 
ATOM     82  F   UNL A   1      43.424  24.640  24.494  1.00  0.00    -0.200 F 
ENDBRANCH  48  72
BRANCH  60  83
ATOM     83  C   UNL A   1      44.590  27.258  34.384  1.00  0.00     0.064 A 
ATOM     84  C   UNL A   1      45.859  27.854  34.456  1.00  0.00     0.173 A 
ATOM     85  C   UNL A   1      44.400  26.035  35.044  1.00  0.00     0.173 A 
ATOM     86  F   UNL A   1      46.095  29.016  33.829  1.00  0.00    -0.203 F 
ATOM     87  C   UNL A   1      46.900  27.235  35.142  1.00  0.00     0.198 A 
ATOM     88  C   UNL A   1      45.436  25.434  35.752  1.00  0.00     0.198 A 
ATOM     89  F   UNL A   1      43.204  25.428  35.010  1.00  0.00    -0.203 F 
ATOM     90  F   UNL A   1      48.116  27.800  35.161  1.00  0.00    -0.200 F 
ATOM     91  C   UNL A   1      46.687  26.031  35.795  1.00  0.00     0.200 A 
ATOM     92  F   UNL A   1      45.225  24.276  36.393  1.00  0.00    -0.200 F 
ATOM     93  F   UNL A   1      47.689  25.442  36.462  1.00  0.00    -0.200 F 
ENDBRANCH  60  83
ENDBRANCH  34  35
ENDBRANCH  27  29
ENDBRANCH  26  27
ENDBRANCH  25  26
ENDBRANCH  24  25
ENDBRANCH   1  24
TORSDOF 17
ENDMDL
MODEL 2
REMARK VINA RESULT:     -10.9      5.141     10.543
REMARK SMILES CCN1C(=O)C[C@H](C(=O)OCCOCCOC(=O)c2ccc(-c3c4nc(c(-c5c(F)c(F)c(F)c(F)c5F)c5ccc([nH]5)c(-c5c(F)c(F)c(F)c(F)c5F)c5nc(c(-c6c(F)c(F)c(F)c(F)c6F)c6ccc3[nH]6)C=C5)C=C4)cc2)[C@H]1c1ccccc1C1CC1
REMARK SMILES IDX 13 1 12 2 11 3 10 4 8 5 9 6 7 7 3 8 4 9 82 10 5 11 6 12 2 13
REMARK SMILES IDX 1 14 83 15 84 16 88 17 85 18 87 19 86 20 89 21 90 22 91 23
REMARK SMILES IDX 14 24 15 25 16 26 17 27 18 28 19 29 20 30 81 31 21 32 80 33
REMARK SMILES IDX 22 34 23 35 24 36 74 37 25 38 79 39 73 40 75 41 26 42 78 43
REMARK SMILES IDX 72 44 71 45 27 47 59 48 39 49 58 50 40 51 43 52 57 53 76 54
REMARK SMILES IDX 41 55 42 56 56 58 77 59 44 60 28 61 29 62 37 63 30 64 31 65
REMARK SMILES IDX 35 66 38 67 32 68 33 69 36 70 34 71 60 72 61 73 69 74 62 75
REMARK SMILES IDX 63 76 67 77 70 78 64 79 65 80 68 81 66 82 45 83 46 84 54 85
REMARK SMILES IDX 47 86 48 87 52 88 55 89 49 90 50 91 53 92 51 93
REMARK H PARENT 75 46 43 57
REMARK Flexibility Score: inf
ROOT
ATOM      1  O   UNL A   1      37.763  20.937  24.799  1.00  0.00    -0.374 OA
ENDROOT
BRANCH   1   2
ATOM      2  C   UNL A   1      37.195  21.820  25.757  1.00  0.00     0.202 C 
BRANCH   2   3
ATOM      3  C   UNL A   1      37.191  23.320  25.449  1.00  0.00     0.261 C 
BRANCH   3   4
ATOM      4  O   UNL A   1      35.938  23.805  24.943  1.00  0.00    -0.463 OA
BRANCH   4   5
ATOM      5  C   UNL A   1      35.594  23.293  23.731  1.00  0.00     0.312 C 
ATOM      6  O   UNL A   1      36.329  23.271  22.751  1.00  0.00    -0.252 OA
BRANCH   5   7
ATOM      7  C   UNL A   1      34.198  22.739  23.695  1.00  0.00     0.135 C 
ATOM      8  N   UNL A   1      32.085  22.812  24.670  1.00  0.00    -0.335 N 
ATOM      9  C   UNL A   1      32.476  21.466  24.680  1.00  0.00     0.224 C 
ATOM     10  C   UNL A   1      33.250  23.666  24.467  1.00  0.00     0.130 C 
ATOM     11  O   UNL A   1      31.788  20.511  25.000  1.00  0.00    -0.275 OA
ATOM     12  C   UNL A   1      33.941  21.381  24.328  1.00  0.00     0.118 C 
BRANCH   8  13
ATOM     13  C   UNL A   1      30.849  23.178  25.352  1.00  0.00     0.117 C 
ATOM     14  C   UNL A   1      30.937  24.167  26.497  1.00  0.00     0.027 C 
ENDBRANCH   8  13
BRANCH  10  15
ATOM     15  C   UNL A   1      33.029  24.972  23.726  1.00  0.00    -0.021 A 
ATOM     16  C   UNL A   1      32.615  24.863  22.369  1.00  0.00     0.006 A 
ATOM     17  C   UNL A   1      33.326  26.253  24.267  1.00  0.00    -0.040 A 
ATOM     18  C   UNL A   1      32.573  25.961  21.518  1.00  0.00     0.000 A 
ATOM     19  C   UNL A   1      33.280  27.336  23.349  1.00  0.00     0.004 A 
ATOM     20  C   UNL A   1      32.926  27.202  22.005  1.00  0.00     0.000 A 
BRANCH  17  21
ATOM     21  C   UNL A   1      33.683  26.660  25.700  1.00  0.00     0.019 C 
ATOM     22  C   UNL A   1      34.024  28.020  26.239  1.00  0.00     0.009 C 
ATOM     23  C   UNL A   1      32.696  27.395  26.568  1.00  0.00     0.009 C 
ENDBRANCH  17  21
ENDBRANCH  10  15
ENDBRANCH   5   7
ENDBRANCH   4   5
ENDBRANCH   3   4
ENDBRANCH   2   3
ENDBRANCH   1   2
BRANCH   1  24
ATOM     24  C   UNL A   1      38.636  19.901  25.243  1.00  0.00     0.202 C 
BRANCH  24  25
ATOM     25  C   UNL A   1      39.992  20.296  25.836  1.00  0.00     0.261 C 
BRANCH  25  26
ATOM     26  O   UNL A   1      40.650  19.207  26.511  1.00  0.00    -0.460 OA
BRANCH  26  27
ATOM     27  C   UNL A   1      41.970  19.093  26.231  1.00  0.00     0.338 C 
ATOM     28  O   UNL A   1      42.539  18.141  25.711  1.00  0.00    -0.246 OA
BRANCH  27  29
ATOM     29  C   UNL A   1      42.670  20.364  26.476  1.00  0.00     0.060 A 
ATOM     30  C   UNL A   1      42.604  20.900  27.769  1.00  0.00     0.016 A 
ATOM     31  C   UNL A   1      43.252  21.086  25.434  1.00  0.00     0.016 A 
ATOM     32  C   UNL A   1      43.069  22.190  28.013  1.00  0.00     0.010 A 
ATOM     33  C   UNL A   1      43.709  22.386  25.678  1.00  0.00     0.010 A 
ATOM     34  C   UNL A   1      43.579  22.957  26.958  1.00  0.00    -0.014 A 
BRANCH  34  35
ATOM     35  C   UNL A   1      43.821  24.405  27.167  1.00  0.00     0.031 A 
ATOM     36  C   UNL A   1      45.194  24.961  26.907  1.00  0.00     0.074 A 
ATOM     37  C   UNL A   1      42.822  25.220  27.545  1.00  0.00     0.049 A 
ATOM     38  N   UNL A   1      45.634  26.187  27.036  1.00  0.00    -0.248 NA
ATOM     39  C   UNL A   1      46.209  24.005  26.435  1.00  0.00     0.031 C 
ATOM     40  C   UNL A   1      41.442  24.807  27.783  1.00  0.00     0.029 A 
ATOM     41  N   UNL A   1      42.820  26.569  27.795  1.00  0.00    -0.354 N 
ATOM     42  C   UNL A   1      46.973  26.149  26.670  1.00  0.00     0.074 A 
ATOM     43  C   UNL A   1      47.283  24.775  26.336  1.00  0.00     0.031 C 
ATOM     44  C   UNL A   1      40.725  25.882  28.155  1.00  0.00     0.029 A 
ATOM     45  C   UNL A   1      41.603  27.049  28.207  1.00  0.00     0.049 A 
ATOM     46  H   UNL A   1      43.617  27.138  27.689  1.00  0.00     0.167 HD
ATOM     47  C   UNL A   1      47.861  27.170  26.609  1.00  0.00     0.037 A 
ATOM     48  C   UNL A   1      41.246  28.288  28.599  1.00  0.00     0.037 A 
ATOM     49  C   UNL A   1      47.550  28.536  26.934  1.00  0.00     0.049 A 
ATOM     50  C   UNL A   1      42.272  29.391  28.588  1.00  0.00     0.074 A 
ATOM     51  C   UNL A   1      48.374  29.647  26.876  1.00  0.00     0.029 A 
ATOM     52  N   UNL A   1      46.315  28.977  27.385  1.00  0.00    -0.354 N 
ATOM     53  N   UNL A   1      43.527  29.354  28.212  1.00  0.00    -0.248 NA
ATOM     54  C   UNL A   1      41.827  30.712  29.056  1.00  0.00     0.031 C 
ATOM     55  C   UNL A   1      47.651  30.752  27.338  1.00  0.00     0.029 A 
ATOM     56  C   UNL A   1      46.362  30.338  27.638  1.00  0.00     0.049 A 
ATOM     57  H   UNL A   1      45.522  28.407  27.508  1.00  0.00     0.167 HD
ATOM     58  C   UNL A   1      44.013  30.645  28.370  1.00  0.00     0.074 A 
ATOM     59  C   UNL A   1      42.914  31.447  28.866  1.00  0.00     0.031 C 
ATOM     60  C   UNL A   1      45.257  31.124  28.124  1.00  0.00     0.037 A 
BRANCH  47  61
ATOM     61  C   UNL A   1      49.267  26.842  26.199  1.00  0.00     0.064 A 
ATOM     62  C   UNL A   1      50.216  26.378  27.120  1.00  0.00     0.173 A 
ATOM     63  C   UNL A   1      49.658  26.962  24.857  1.00  0.00     0.173 A 
ATOM     64  F   UNL A   1      49.896  26.259  28.418  1.00  0.00    -0.203 F 
ATOM     65  C   UNL A   1      51.512  26.066  26.718  1.00  0.00     0.198 A 
ATOM     66  C   UNL A   1      50.946  26.625  24.453  1.00  0.00     0.198 A 
ATOM     67  F   UNL A   1      48.786  27.398  23.935  1.00  0.00    -0.203 F 
ATOM     68  F   UNL A   1      52.415  25.662  27.622  1.00  0.00    -0.200 F 
ATOM     69  C   UNL A   1      51.874  26.183  25.383  1.00  0.00     0.200 A 
ATOM     70  F   UNL A   1      51.291  26.728  23.162  1.00  0.00    -0.200 F 
ATOM     71  F   UNL A   1      53.119  25.876  24.996  1.00  0.00    -0.200 F 
ENDBRANCH  47  61
BRANCH  48  72
ATOM     72  C   UNL A   1      39.854  28.552  29.043  1.00  0.00     0.064 A 
ATOM     73  C   UNL A   1      38.896  29.061  28.156  1.00  0.00     0.173 A 
ATOM     74  C   UNL A   1      39.457  28.314  30.368  1.00  0.00     0.173 A 
ATOM     75  F   UNL A   1      39.235  29.329  26.886  1.00  0.00    -0.203 F 
ATOM     76  C   UNL A   1      37.598  29.338  28.581  1.00  0.00     0.198 A 
ATOM     77  C   UNL A   1      38.152  28.566  30.784  1.00  0.00     0.198 A 
ATOM     78  F   UNL A   1      40.337  27.828  31.255  1.00  0.00    -0.203 F 
ATOM     79  F   UNL A   1      36.714  29.866  27.724  1.00  0.00    -0.200 F 
ATOM     80  C   UNL A   1      37.225  29.085  29.893  1.00  0.00     0.200 A 
ATOM     81  F   UNL A   1      37.793  28.309  32.050  1.00  0.00    -0.200 F 
ATOM     82  F   UNL A   1      35.977  29.349  30.300  1.00  0.00    -0.200 F 
ENDBRANCH  48  72
BRANCH  60  83
ATOM     83  C   UNL A   1      45.490  32.589  28.354  1.00  0.00     0.064 A 
ATOM     84  C   UNL A   1      46.008  33.070  29.565  1.00  0.00     0.173 A 
ATOM     85  C   UNL A   1      45.232  33.517  27.334  1.00  0.00     0.173 A 
ATOM     86  F   UNL A   1      46.257  32.224  30.576  1.00  0.00    -0.203 F 
ATOM     87  C   UNL A   1      46.236  34.430  29.755  1.00  0.00     0.198 A 
ATOM     88  C   UNL A   1      45.488  34.873  27.517  1.00  0.00     0.198 A 
ATOM     89  F   UNL A   1      44.742  33.106  26.154  1.00  0.00    -0.203 F 
ATOM     90  F   UNL A   1      46.689  34.873  30.936  1.00  0.00    -0.200 F 
ATOM     91  C   UNL A   1      45.983  35.329  28.730  1.00  0.00     0.200 A 
ATOM     92  F   UNL A   1      45.254  35.738  26.521  1.00  0.00    -0.200 F 
ATOM     93  F   UNL A   1      46.210  36.637  28.912  1.00  0.00    -0.200 F 
ENDBRANCH  60  83
ENDBRANCH  34  35
ENDBRANCH  27  29
ENDBRANCH  26  27
ENDBRANCH  25  26
ENDBRANCH  24  25
ENDBRANCH   1  24
TORSDOF 17
ENDMDL
MODEL 3
REMARK VINA RESULT:     -10.9      0.934      2.662
REMARK SMILES CCN1C(=O)C[C@H](C(=O)OCCOCCOC(=O)c2ccc(-c3c4nc(c(-c5c(F)c(F)c(F)c(F)c5F)c5ccc([nH]5)c(-c5c(F)c(F)c(F)c(F)c5F)c5nc(c(-c6c(F)c(F)c(F)c(F)c6F)c6ccc3[nH]6)C=C5)C=C4)cc2)[C@H]1c1ccccc1C1CC1
REMARK SMILES IDX 13 1 12 2 11 3 10 4 8 5 9 6 7 7 3 8 4 9 82 10 5 11 6 12 2 13
REMARK SMILES IDX 1 14 83 15 84 16 88 17 85 18 87 19 86 20 89 21 90 22 91 23
REMARK SMILES IDX 14 24 15 25 16 26 17 27 18 28 19 29 20 30 81 31 21 32 80 33
REMARK SMILES IDX 22 34 23 35 24 36 74 37 25 38 79 39 73 40 75 41 26 42 78 43
REMARK SMILES IDX 72 44 71 45 27 47 59 48 39 49 58 50 40 51 43 52 57 53 76 54
REMARK SMILES IDX 41 55 42 56 56 58 77 59 44 60 28 61 29 62 37 63 30 64 31 65
REMARK SMILES IDX 35 66 38 67 32 68 33 69 36 70 34 71 60 72 61 73 69 74 62 75
REMARK SMILES IDX 63 76 67 77 70 78 64 79 65 80 68 81 66 82 45 83 46 84 54 85
REMARK SMILES IDX 47 86 48 87 52 88 55 89 49 90 50 91 53 92 51 93
REMARK H PARENT 75 46 43 57
REMARK Flexibility Score: inf
ROOT
ATOM      1  O   UNL A   1      31.883  30.028  26.948  1.00  0.00    -0.374 OA
ENDROOT
BRANCH   1   2
ATOM      2  C   UNL A   1      31.544  28.777  26.365  1.00  0.00     0.202 C 
BRANCH   2   3
ATOM      3  C   UNL A   1      32.155  28.419  25.007  1.00  0.00     0.261 C 
BRANCH   3   4
ATOM      4  O   UNL A   1      32.299  27.008  24.790  1.00  0.00    -0.463 OA
BRANCH   4   5
ATOM      5  C   UNL A   1      33.261  26.424  25.553  1.00  0.00     0.312 C 
ATOM      6  O   UNL A   1      34.403  26.849  25.679  1.00  0.00    -0.252 OA
BRANCH   5   7
ATOM      7  C   UNL A   1      32.791  25.178  26.250  1.00  0.00     0.135 C 
ATOM      8  N   UNL A   1      32.034  22.996  25.965  1.00  0.00    -0.335 N 
ATOM      9  C   UNL A   1      31.078  23.642  26.759  1.00  0.00     0.224 C 
ATOM     10  C   UNL A   1      32.870  23.983  25.292  1.00  0.00     0.130 C 
ATOM     11  O   UNL A   1      30.120  23.125  27.310  1.00  0.00    -0.275 OA
ATOM     12  C   UNL A   1      31.356  25.125  26.748  1.00  0.00     0.118 C 
BRANCH   8  13
ATOM     13  C   UNL A   1      31.749  21.641  25.503  1.00  0.00     0.117 C 
ATOM     14  C   UNL A   1      32.892  20.646  25.479  1.00  0.00     0.027 C 
ENDBRANCH   8  13
BRANCH  10  15
ATOM     15  C   UNL A   1      34.310  23.595  25.011  1.00  0.00    -0.021 A 
ATOM     16  C   UNL A   1      35.190  23.588  26.129  1.00  0.00     0.006 A 
ATOM     17  C   UNL A   1      34.831  23.364  23.708  1.00  0.00    -0.040 A 
ATOM     18  C   UNL A   1      36.565  23.452  25.988  1.00  0.00     0.000 A 
ATOM     19  C   UNL A   1      36.245  23.245  23.622  1.00  0.00     0.004 A 
ATOM     20  C   UNL A   1      37.098  23.300  24.725  1.00  0.00     0.000 A 
BRANCH  17  21
ATOM     21  C   UNL A   1      34.106  23.213  22.367  1.00  0.00     0.019 C 
ATOM     22  C   UNL A   1      32.701  22.755  22.100  1.00  0.00     0.009 C 
ATOM     23  C   UNL A   1      33.060  24.206  21.933  1.00  0.00     0.009 C 
ENDBRANCH  17  21
ENDBRANCH  10  15
ENDBRANCH   5   7
ENDBRANCH   4   5
ENDBRANCH   3   4
ENDBRANCH   2   3
ENDBRANCH   1   2
BRANCH   1  24
ATOM     24  C   UNL A   1      31.461  31.229  26.305  1.00  0.00     0.202 C 
BRANCH  24  25
ATOM     25  C   UNL A   1      31.736  32.564  27.005  1.00  0.00     0.261 C 
BRANCH  25  26
ATOM     26  O   UNL A   1      33.086  33.029  26.821  1.00  0.00    -0.460 OA
BRANCH  26  27
ATOM     27  C   UNL A   1      33.669  33.505  27.946  1.00  0.00     0.338 C 
ATOM     28  O   UNL A   1      33.198  34.306  28.746  1.00  0.00    -0.246 OA
BRANCH  27  29
ATOM     29  C   UNL A   1      34.934  32.805  28.218  1.00  0.00     0.060 A 
ATOM     30  C   UNL A   1      34.874  31.427  28.460  1.00  0.00     0.016 A 
ATOM     31  C   UNL A   1      36.132  33.505  28.379  1.00  0.00     0.016 A 
ATOM     32  C   UNL A   1      35.998  30.749  28.921  1.00  0.00     0.010 A 
ATOM     33  C   UNL A   1      37.259  32.824  28.854  1.00  0.00     0.010 A 
ATOM     34  C   UNL A   1      37.184  31.455  29.167  1.00  0.00    -0.014 A 
BRANCH  34  35
ATOM     35  C   UNL A   1      38.284  30.786  29.902  1.00  0.00     0.031 A 
ATOM     36  C   UNL A   1      38.505  31.125  31.351  1.00  0.00     0.074 A 
ATOM     37  C   UNL A   1      39.051  29.861  29.299  1.00  0.00     0.049 A 
ATOM     38  N   UNL A   1      39.411  30.675  32.182  1.00  0.00    -0.248 NA
ATOM     39  C   UNL A   1      37.577  32.101  31.944  1.00  0.00     0.031 C 
ATOM     40  C   UNL A   1      38.905  29.418  27.916  1.00  0.00     0.029 A 
ATOM     41  N   UNL A   1      40.108  29.131  29.781  1.00  0.00    -0.354 N 
ATOM     42  C   UNL A   1      39.168  31.317  33.389  1.00  0.00     0.074 A 
ATOM     43  C   UNL A   1      38.045  32.206  33.179  1.00  0.00     0.031 C 
ATOM     44  C   UNL A   1      39.846  28.494  27.655  1.00  0.00     0.029 A 
ATOM     45  C   UNL A   1      40.675  28.305  28.844  1.00  0.00     0.049 A 
ATOM     46  H   UNL A   1      40.428  29.193  30.709  1.00  0.00     0.167 HD
ATOM     47  C   UNL A   1      39.817  31.171  34.569  1.00  0.00     0.037 A 
ATOM     48  C   UNL A   1      41.753  27.502  28.934  1.00  0.00     0.037 A 
ATOM     49  C   UNL A   1      40.928  30.282  34.779  1.00  0.00     0.049 A 
ATOM     50  C   UNL A   1      42.500  27.410  30.239  1.00  0.00     0.074 A 
ATOM     51  C   UNL A   1      41.634  30.041  35.945  1.00  0.00     0.029 A 
ATOM     52  N   UNL A   1      41.499  29.489  33.795  1.00  0.00    -0.354 N 
ATOM     53  N   UNL A   1      42.246  27.996  31.383  1.00  0.00    -0.248 NA
ATOM     54  C   UNL A   1      43.685  26.540  30.263  1.00  0.00     0.031 C 
ATOM     55  C   UNL A   1      42.664  29.140  35.655  1.00  0.00     0.029 A 
ATOM     56  C   UNL A   1      42.569  28.781  34.319  1.00  0.00     0.049 A 
ATOM     57  H   UNL A   1      41.192  29.438  32.861  1.00  0.00     0.167 HD
ATOM     58  C   UNL A   1      43.217  27.548  32.269  1.00  0.00     0.074 A 
ATOM     59  C   UNL A   1      44.061  26.630  31.531  1.00  0.00     0.031 C 
ATOM     60  C   UNL A   1      43.394  27.865  33.574  1.00  0.00     0.037 A 
BRANCH  47  61
ATOM     61  C   UNL A   1      39.357  32.014  35.722  1.00  0.00     0.064 A 
ATOM     62  C   UNL A   1      38.391  31.557  36.631  1.00  0.00     0.173 A 
ATOM     63  C   UNL A   1      39.917  33.282  35.940  1.00  0.00     0.173 A 
ATOM     64  F   UNL A   1      37.816  30.357  36.459  1.00  0.00    -0.203 F 
ATOM     65  C   UNL A   1      37.987  32.348  37.703  1.00  0.00     0.198 A 
ATOM     66  C   UNL A   1      39.530  34.059  37.027  1.00  0.00     0.198 A 
ATOM     67  F   UNL A   1      40.848  33.762  35.102  1.00  0.00    -0.203 F 
ATOM     68  F   UNL A   1      37.034  31.909  38.536  1.00  0.00    -0.200 F 
ATOM     69  C   UNL A   1      38.562  33.595  37.905  1.00  0.00     0.200 A 
ATOM     70  F   UNL A   1      40.093  35.258  37.227  1.00  0.00    -0.200 F 
ATOM     71  F   UNL A   1      38.177  34.352  38.941  1.00  0.00    -0.200 F 
ENDBRANCH  47  61
BRANCH  48  72
ATOM     72  C   UNL A   1      42.198  26.724  27.750  1.00  0.00     0.064 A 
ATOM     73  C   UNL A   1      41.659  25.462  27.469  1.00  0.00     0.173 A 
ATOM     74  C   UNL A   1      43.184  27.222  26.883  1.00  0.00     0.173 A 
ATOM     75  F   UNL A   1      40.734  24.933  28.283  1.00  0.00    -0.203 F 
ATOM     76  C   UNL A   1      42.100  24.718  26.376  1.00  0.00     0.198 A 
ATOM     77  C   UNL A   1      43.603  26.489  25.775  1.00  0.00     0.198 A 
ATOM     78  F   UNL A   1      43.731  28.424  27.109  1.00  0.00    -0.203 F 
ATOM     79  F   UNL A   1      41.599  23.496  26.154  1.00  0.00    -0.200 F 
ATOM     80  C   UNL A   1      43.067  25.235  25.526  1.00  0.00     0.200 A 
ATOM     81  F   UNL A   1      44.530  26.997  24.951  1.00  0.00    -0.200 F 
ATOM     82  F   UNL A   1      43.488  24.522  24.474  1.00  0.00    -0.200 F 
ENDBRANCH  48  72
BRANCH  60  83
ATOM     83  C   UNL A   1      44.520  27.191  34.302  1.00  0.00     0.064 A 
ATOM     84  C   UNL A   1      44.369  25.919  34.873  1.00  0.00     0.173 A 
ATOM     85  C   UNL A   1      45.778  27.807  34.391  1.00  0.00     0.173 A 
ATOM     86  F   UNL A   1      43.183  25.295  34.827  1.00  0.00    -0.203 F 
ATOM     87  C   UNL A   1      45.431  25.300  35.528  1.00  0.00     0.198 A 
ATOM     88  C   UNL A   1      46.843  27.173  35.022  1.00  0.00     0.198 A 
ATOM     89  F   UNL A   1      45.975  29.021  33.855  1.00  0.00    -0.203 F 
ATOM     90  F   UNL A   1      45.252  24.103  36.105  1.00  0.00    -0.200 F 
ATOM     91  C   UNL A   1      46.667  25.923  35.596  1.00  0.00     0.200 A 
ATOM     92  F   UNL A   1      48.041  27.771  35.076  1.00  0.00    -0.200 F 
ATOM     93  F   UNL A   1      47.689  25.321  36.221  1.00  0.00    -0.200 F 
ENDBRANCH  60  83
ENDBRANCH  34  35
ENDBRANCH  27  29
ENDBRANCH  26  27
ENDBRANCH  25  26
ENDBRANCH  24  25
ENDBRANCH   1  24
TORSDOF 17
ENDMDL
