MODEL 1
REMARK VINA RESULT:     -11.5      0.000      0.000
REMARK SMILES C[C@H](Oc1ccc(-c2ccccc2)cc1)C(=O)N[C@H](C)C(=O)OCCOCCOC(=O)c1ccc(-c2c3nc(c(-c4c(F)c(F)c(F)c(F)c4F)c4ccc([nH]4)c(-c4c(F)c(F)c(F)c(F)c4F)c4nc(c(-c5c(F)c(F)c(F)c(F)c5F)c5ccc2[nH]5)C=C4)C=C3)cc1
REMARK SMILES IDX 24 1 23 2 21 3 22 4 19 5 20 6 18 7 16 8 17 9 2 11 1 12 3 13
REMARK SMILES IDX 4 14 5 15 15 16 6 17 14 18 7 19 8 20 9 21 13 22 10 23 12 24
REMARK SMILES IDX 11 25 25 26 26 27 27 28 28 29 29 30 30 31 31 32 32 33 33 34
REMARK SMILES IDX 94 35 34 36 93 37 35 38 36 39 37 40 87 41 38 42 92 43 86 44
REMARK SMILES IDX 88 45 39 46 91 47 85 48 84 49 40 51 72 52 52 53 71 54 53 55
REMARK SMILES IDX 56 56 70 57 89 58 54 59 55 60 69 62 90 63 57 64 41 65 42 66
REMARK SMILES IDX 50 67 43 68 44 69 48 70 51 71 45 72 46 73 49 74 47 75 73 76
REMARK SMILES IDX 74 77 82 78 75 79 76 80 80 81 83 82 77 83 78 84 81 85 79 86
REMARK SMILES IDX 58 87 59 88 67 89 60 90 61 91 65 92 68 93 62 94 63 95 66 96
REMARK SMILES IDX 64 97
REMARK H PARENT 18 10 88 50 56 61
REMARK Flexibility Score: inf
ROOT
ATOM      1  C   UNL A   1      36.714  23.636  25.000  1.00  0.00     0.261 C 
ENDROOT
BRANCH   1   2
ATOM      2  O   UNL A   1      35.461  24.177  24.550  1.00  0.00    -0.462 OA
BRANCH   2   3
ATOM      3  C   UNL A   1      34.582  24.582  25.506  1.00  0.00     0.328 C 
ATOM      4  O   UNL A   1      34.214  23.888  26.446  1.00  0.00    -0.250 OA
BRANCH   3   5
ATOM      5  C   UNL A   1      34.017  25.988  25.206  1.00  0.00     0.189 C 
ATOM      6  C   UNL A   1      33.726  26.162  23.716  1.00  0.00     0.043 C 
BRANCH   5   7
ATOM      7  N   UNL A   1      32.889  26.181  26.130  1.00  0.00    -0.340 N 
ATOM      8  C   UNL A   1      31.539  26.238  25.938  1.00  0.00     0.261 C 
ATOM      9  O   UNL A   1      30.851  26.649  26.877  1.00  0.00    -0.271 OA
ATOM     10  H   UNL A   1      33.161  26.290  27.071  1.00  0.00     0.164 HD
BRANCH   8  11
ATOM     11  C   UNL A   1      30.878  25.688  24.667  1.00  0.00     0.258 C 
ATOM     12  C   UNL A   1      29.824  26.713  24.222  1.00  0.00     0.064 C 
BRANCH  11  13
ATOM     13  O   UNL A   1      30.422  24.369  24.971  1.00  0.00    -0.481 OA
BRANCH  13  14
ATOM     14  C   UNL A   1      31.164  23.274  24.641  1.00  0.00     0.120 A 
ATOM     15  C   UNL A   1      31.715  22.995  23.397  1.00  0.00     0.047 A 
ATOM     16  C   UNL A   1      31.300  22.333  25.664  1.00  0.00     0.047 A 
ATOM     17  C   UNL A   1      32.307  21.751  23.154  1.00  0.00     0.012 A 
ATOM     18  C   UNL A   1      31.927  21.103  25.430  1.00  0.00     0.012 A 
ATOM     19  C   UNL A   1      32.417  20.775  24.159  1.00  0.00    -0.018 A 
BRANCH  19  20
ATOM     20  C   UNL A   1      33.010  19.455  23.867  1.00  0.00    -0.018 A 
ATOM     21  C   UNL A   1      32.450  18.610  22.892  1.00  0.00     0.009 A 
ATOM     22  C   UNL A   1      34.126  18.979  24.577  1.00  0.00     0.009 A 
ATOM     23  C   UNL A   1      32.971  17.337  22.649  1.00  0.00     0.001 A 
ATOM     24  C   UNL A   1      34.652  17.707  24.331  1.00  0.00     0.001 A 
ATOM     25  C   UNL A   1      34.071  16.884  23.371  1.00  0.00     0.000 A 
ENDBRANCH  19  20
ENDBRANCH  13  14
ENDBRANCH  11  13
ENDBRANCH   8  11
ENDBRANCH   5   7
ENDBRANCH   3   5
ENDBRANCH   2   3
ENDBRANCH   1   2
BRANCH   1  26
ATOM     26  C   UNL A   1      36.795  22.168  24.568  1.00  0.00     0.202 C 
BRANCH  26  27
ATOM     27  O   UNL A   1      37.903  21.431  25.096  1.00  0.00    -0.374 OA
BRANCH  27  28
ATOM     28  C   UNL A   1      37.876  20.013  24.952  1.00  0.00     0.202 C 
BRANCH  28  29
ATOM     29  C   UNL A   1      39.162  19.268  25.340  1.00  0.00     0.261 C 
BRANCH  29  30
ATOM     30  O   UNL A   1      39.969  19.989  26.288  1.00  0.00    -0.460 OA
BRANCH  30  31
ATOM     31  C   UNL A   1      41.289  19.690  26.232  1.00  0.00     0.338 C 
ATOM     32  O   UNL A   1      41.799  18.644  25.858  1.00  0.00    -0.246 OA
BRANCH  31  33
ATOM     33  C   UNL A   1      42.106  20.873  26.554  1.00  0.00     0.060 A 
ATOM     34  C   UNL A   1      42.108  21.303  27.886  1.00  0.00     0.016 A 
ATOM     35  C   UNL A   1      42.759  21.614  25.567  1.00  0.00     0.016 A 
ATOM     36  C   UNL A   1      42.719  22.506  28.230  1.00  0.00     0.010 A 
ATOM     37  C   UNL A   1      43.368  22.827  25.914  1.00  0.00     0.010 A 
ATOM     38  C   UNL A   1      43.317  23.297  27.239  1.00  0.00    -0.014 A 
BRANCH  38  39
ATOM     39  C   UNL A   1      43.748  24.675  27.583  1.00  0.00     0.031 A 
ATOM     40  C   UNL A   1      42.709  25.704  27.930  1.00  0.00     0.074 A 
ATOM     41  C   UNL A   1      45.052  24.992  27.640  1.00  0.00     0.049 A 
ATOM     42  N   UNL A   1      42.862  26.955  28.283  1.00  0.00    -0.248 NA
ATOM     43  C   UNL A   1      41.307  25.262  27.873  1.00  0.00     0.031 C 
ATOM     44  C   UNL A   1      46.155  24.078  27.358  1.00  0.00     0.029 A 
ATOM     45  N   UNL A   1      45.666  26.179  27.956  1.00  0.00    -0.354 N 
ATOM     46  C   UNL A   1      41.581  27.448  28.492  1.00  0.00     0.074 A 
ATOM     47  C   UNL A   1      40.660  26.373  28.191  1.00  0.00     0.031 C 
ATOM     48  C   UNL A   1      47.316  24.739  27.506  1.00  0.00     0.029 A 
ATOM     49  C   UNL A   1      47.035  26.128  27.869  1.00  0.00     0.049 A 
ATOM     50  H   UNL A   1      45.173  26.988  28.220  1.00  0.00     0.167 HD
ATOM     51  C   UNL A   1      41.206  28.681  28.908  1.00  0.00     0.037 A 
ATOM     52  C   UNL A   1      47.955  27.095  28.047  1.00  0.00     0.037 A 
ATOM     53  C   UNL A   1      42.119  29.753  29.205  1.00  0.00     0.049 A 
ATOM     54  C   UNL A   1      47.513  28.477  28.450  1.00  0.00     0.074 A 
ATOM     55  C   UNL A   1      41.837  31.030  29.657  1.00  0.00     0.029 A 
ATOM     56  N   UNL A   1      43.498  29.674  29.069  1.00  0.00    -0.354 N 
ATOM     57  N   UNL A   1      46.302  28.925  28.677  1.00  0.00    -0.248 NA
ATOM     58  C   UNL A   1      48.568  29.485  28.627  1.00  0.00     0.031 C 
ATOM     59  C   UNL A   1      43.039  31.740  29.747  1.00  0.00     0.029 A 
ATOM     60  C   UNL A   1      44.077  30.890  29.400  1.00  0.00     0.049 A 
ATOM     61  H   UNL A   1      43.992  28.873  28.780  1.00  0.00     0.167 HD
ATOM     62  C   UNL A   1      46.449  30.258  29.040  1.00  0.00     0.074 A 
ATOM     63  C   UNL A   1      47.869  30.543  29.018  1.00  0.00     0.031 C 
ATOM     64  C   UNL A   1      45.492  31.162  29.366  1.00  0.00     0.037 A 
BRANCH  51  65
ATOM     65  C   UNL A   1      39.733  28.942  29.039  1.00  0.00     0.064 A 
ATOM     66  C   UNL A   1      38.964  29.393  27.956  1.00  0.00     0.173 A 
ATOM     67  C   UNL A   1      39.082  28.733  30.264  1.00  0.00     0.173 A 
ATOM     68  F   UNL A   1      39.542  29.622  26.767  1.00  0.00    -0.203 F 
ATOM     69  C   UNL A   1      37.605  29.656  28.102  1.00  0.00     0.198 A 
ATOM     70  C   UNL A   1      37.718  28.969  30.400  1.00  0.00     0.198 A 
ATOM     71  F   UNL A   1      39.771  28.298  31.330  1.00  0.00    -0.203 F 
ATOM     72  F   UNL A   1      36.901  30.137  27.068  1.00  0.00    -0.200 F 
ATOM     73  C   UNL A   1      36.982  29.439  29.323  1.00  0.00     0.200 A 
ATOM     74  F   UNL A   1      37.115  28.750  31.578  1.00  0.00    -0.200 F 
ATOM     75  F   UNL A   1      35.674  29.694  29.463  1.00  0.00    -0.200 F 
ENDBRANCH  51  65
BRANCH  52  76
ATOM     76  C   UNL A   1      49.392  26.784  27.835  1.00  0.00     0.064 A 
ATOM     77  C   UNL A   1      49.970  26.856  26.561  1.00  0.00     0.173 A 
ATOM     78  C   UNL A   1      50.216  26.420  28.909  1.00  0.00     0.173 A 
ATOM     79  F   UNL A   1      49.214  27.176  25.500  1.00  0.00    -0.203 F 
ATOM     80  C   UNL A   1      51.321  26.572  26.369  1.00  0.00     0.198 A 
ATOM     81  C   UNL A   1      51.571  26.160  28.720  1.00  0.00     0.198 A 
ATOM     82  F   UNL A   1      49.707  26.335  30.147  1.00  0.00    -0.203 F 
ATOM     83  F   UNL A   1      51.844  26.618  25.137  1.00  0.00    -0.200 F 
ATOM     84  C   UNL A   1      52.121  26.231  27.449  1.00  0.00     0.200 A 
ATOM     85  F   UNL A   1      52.343  25.841  29.768  1.00  0.00    -0.200 F 
ATOM     86  F   UNL A   1      53.422  25.968  27.266  1.00  0.00    -0.200 F 
ENDBRANCH  52  76
BRANCH  64  87
ATOM     87  C   UNL A   1      45.947  32.543  29.743  1.00  0.00     0.064 A 
ATOM     88  C   UNL A   1      46.051  33.567  28.791  1.00  0.00     0.173 A 
ATOM     89  C   UNL A   1      46.238  32.856  31.080  1.00  0.00     0.173 A 
ATOM     90  F   UNL A   1      45.797  33.314  27.498  1.00  0.00    -0.203 F 
ATOM     91  C   UNL A   1      46.451  34.849  29.160  1.00  0.00     0.198 A 
ATOM     92  C   UNL A   1      46.612  34.146  31.449  1.00  0.00     0.198 A 
ATOM     93  F   UNL A   1      46.147  31.914  32.031  1.00  0.00    -0.203 F 
ATOM     94  F   UNL A   1      46.584  35.802  28.226  1.00  0.00    -0.200 F 
ATOM     95  C   UNL A   1      46.724  35.139  30.488  1.00  0.00     0.200 A 
ATOM     96  F   UNL A   1      46.863  34.426  32.735  1.00  0.00    -0.200 F 
ATOM     97  F   UNL A   1      47.101  36.376  30.842  1.00  0.00    -0.200 F 
ENDBRANCH  64  87
ENDBRANCH  38  39
ENDBRANCH  31  33
ENDBRANCH  30  31
ENDBRANCH  29  30
ENDBRANCH  28  29
ENDBRANCH  27  28
ENDBRANCH  26  27
ENDBRANCH   1  26
TORSDOF 19
ENDMDL
MODEL 2
REMARK VINA RESULT:     -11.4      2.009      8.381
REMARK SMILES C[C@H](Oc1ccc(-c2ccccc2)cc1)C(=O)N[C@H](C)C(=O)OCCOCCOC(=O)c1ccc(-c2c3nc(c(-c4c(F)c(F)c(F)c(F)c4F)c4ccc([nH]4)c(-c4c(F)c(F)c(F)c(F)c4F)c4nc(c(-c5c(F)c(F)c(F)c(F)c5F)c5ccc2[nH]5)C=C4)C=C3)cc1
REMARK SMILES IDX 24 1 23 2 21 3 22 4 19 5 20 6 18 7 16 8 17 9 2 11 1 12 3 13
REMARK SMILES IDX 4 14 5 15 15 16 6 17 14 18 7 19 8 20 9 21 13 22 10 23 12 24
REMARK SMILES IDX 11 25 25 26 26 27 27 28 28 29 29 30 30 31 31 32 32 33 33 34
REMARK SMILES IDX 94 35 34 36 93 37 35 38 36 39 37 40 87 41 38 42 92 43 86 44
REMARK SMILES IDX 88 45 39 46 91 47 85 48 84 49 40 51 72 52 52 53 71 54 53 55
REMARK SMILES IDX 56 56 70 57 89 58 54 59 55 60 69 62 90 63 57 64 41 65 42 66
REMARK SMILES IDX 50 67 43 68 44 69 48 70 51 71 45 72 46 73 49 74 47 75 73 76
REMARK SMILES IDX 74 77 82 78 75 79 76 80 80 81 83 82 77 83 78 84 81 85 79 86
REMARK SMILES IDX 58 87 59 88 67 89 60 90 61 91 65 92 68 93 62 94 63 95 66 96
REMARK SMILES IDX 64 97
REMARK H PARENT 18 10 88 50 56 61
REMARK Flexibility Score: inf
ROOT
ATOM      1  C   UNL A   1      35.080  21.637  24.794  1.00  0.00     0.261 C 
ENDROOT
BRANCH   1   2
ATOM      2  O   UNL A   1      34.288  20.456  25.000  1.00  0.00    -0.462 OA
BRANCH   2   3
ATOM      3  C   UNL A   1      32.940  20.587  24.889  1.00  0.00     0.328 C 
ATOM      4  O   UNL A   1      32.142  19.665  25.009  1.00  0.00    -0.250 OA
BRANCH   3   5
ATOM      5  C   UNL A   1      32.534  22.023  24.485  1.00  0.00     0.189 C 
ATOM      6  C   UNL A   1      31.909  22.049  23.091  1.00  0.00     0.043 C 
BRANCH   5   7
ATOM      7  N   UNL A   1      31.716  22.543  25.590  1.00  0.00    -0.340 N 
ATOM      8  C   UNL A   1      31.635  23.771  26.179  1.00  0.00     0.261 C 
ATOM      9  O   UNL A   1      31.024  23.847  27.248  1.00  0.00    -0.271 OA
ATOM     10  H   UNL A   1      31.108  21.874  25.983  1.00  0.00     0.164 HD
BRANCH   8  11
ATOM     11  C   UNL A   1      32.156  25.037  25.486  1.00  0.00     0.258 C 
ATOM     12  C   UNL A   1      33.684  25.047  25.642  1.00  0.00     0.064 C 
BRANCH  11  13
ATOM     13  O   UNL A   1      31.435  26.141  26.034  1.00  0.00    -0.481 OA
BRANCH  13  14
ATOM     14  C   UNL A   1      31.049  27.188  25.251  1.00  0.00     0.120 A 
ATOM     15  C   UNL A   1      31.466  28.507  25.373  1.00  0.00     0.047 A 
ATOM     16  C   UNL A   1      30.084  26.873  24.292  1.00  0.00     0.047 A 
ATOM     17  C   UNL A   1      30.857  29.510  24.611  1.00  0.00     0.012 A 
ATOM     18  C   UNL A   1      29.501  27.873  23.504  1.00  0.00     0.012 A 
ATOM     19  C   UNL A   1      29.856  29.219  23.670  1.00  0.00    -0.018 A 
BRANCH  19  20
ATOM     20  C   UNL A   1      29.199  30.300  22.907  1.00  0.00    -0.018 A 
ATOM     21  C   UNL A   1      28.669  30.062  21.626  1.00  0.00     0.009 A 
ATOM     22  C   UNL A   1      29.116  31.608  23.413  1.00  0.00     0.009 A 
ATOM     23  C   UNL A   1      28.097  31.091  20.874  1.00  0.00     0.001 A 
ATOM     24  C   UNL A   1      28.539  32.639  22.664  1.00  0.00     0.001 A 
ATOM     25  C   UNL A   1      28.035  32.381  21.393  1.00  0.00     0.000 A 
ENDBRANCH  19  20
ENDBRANCH  13  14
ENDBRANCH  11  13
ENDBRANCH   8  11
ENDBRANCH   5   7
ENDBRANCH   3   5
ENDBRANCH   2   3
ENDBRANCH   1   2
BRANCH   1  26
ATOM     26  C   UNL A   1      36.555  21.279  25.001  1.00  0.00     0.202 C 
BRANCH  26  27
ATOM     27  O   UNL A   1      36.855  19.879  25.002  1.00  0.00    -0.374 OA
BRANCH  27  28
ATOM     28  C   UNL A   1      38.230  19.502  25.007  1.00  0.00     0.202 C 
BRANCH  28  29
ATOM     29  C   UNL A   1      39.189  20.452  25.740  1.00  0.00     0.261 C 
BRANCH  29  30
ATOM     30  O   UNL A   1      40.044  19.777  26.680  1.00  0.00    -0.460 OA
BRANCH  30  31
ATOM     31  C   UNL A   1      41.336  19.683  26.285  1.00  0.00     0.338 C 
ATOM     32  O   UNL A   1      41.875  18.740  25.724  1.00  0.00    -0.246 OA
BRANCH  31  33
ATOM     33  C   UNL A   1      42.037  20.963  26.486  1.00  0.00     0.060 A 
ATOM     34  C   UNL A   1      42.232  21.384  27.806  1.00  0.00     0.016 A 
ATOM     35  C   UNL A   1      42.393  21.788  25.417  1.00  0.00     0.016 A 
ATOM     36  C   UNL A   1      42.734  22.656  28.066  1.00  0.00     0.010 A 
ATOM     37  C   UNL A   1      42.893  23.070  25.681  1.00  0.00     0.010 A 
ATOM     38  C   UNL A   1      43.028  23.524  27.006  1.00  0.00    -0.014 A 
BRANCH  38  39
ATOM     39  C   UNL A   1      43.333  24.945  27.303  1.00  0.00     0.031 A 
ATOM     40  C   UNL A   1      44.694  25.490  26.969  1.00  0.00     0.074 A 
ATOM     41  C   UNL A   1      42.393  25.758  27.812  1.00  0.00     0.049 A 
ATOM     42  N   UNL A   1      45.166  26.701  27.119  1.00  0.00    -0.248 NA
ATOM     43  C   UNL A   1      45.653  24.539  26.385  1.00  0.00     0.031 C 
ATOM     44  C   UNL A   1      41.028  25.360  28.148  1.00  0.00     0.029 A 
ATOM     45  N   UNL A   1      42.447  27.091  28.135  1.00  0.00    -0.354 N 
ATOM     46  C   UNL A   1      46.471  26.659  26.648  1.00  0.00     0.074 A 
ATOM     47  C   UNL A   1      46.730  25.295  26.241  1.00  0.00     0.031 C 
ATOM     48  C   UNL A   1      40.373  26.426  28.639  1.00  0.00     0.029 A 
ATOM     49  C   UNL A   1      41.281  27.573  28.673  1.00  0.00     0.049 A 
ATOM     50  H   UNL A   1      43.246  27.648  27.994  1.00  0.00     0.167 HD
ATOM     51  C   UNL A   1      47.370  27.669  26.553  1.00  0.00     0.037 A 
ATOM     52  C   UNL A   1      40.984  28.797  29.153  1.00  0.00     0.037 A 
ATOM     53  C   UNL A   1      47.116  29.026  26.959  1.00  0.00     0.049 A 
ATOM     54  C   UNL A   1      42.018  29.890  29.094  1.00  0.00     0.074 A 
ATOM     55  C   UNL A   1      47.954  30.124  26.879  1.00  0.00     0.029 A 
ATOM     56  N   UNL A   1      45.934  29.468  27.535  1.00  0.00    -0.354 N 
ATOM     57  N   UNL A   1      43.238  29.850  28.617  1.00  0.00    -0.248 NA
ATOM     58  C   UNL A   1      41.629  31.200  29.635  1.00  0.00     0.031 C 
ATOM     59  C   UNL A   1      47.297  31.219  27.451  1.00  0.00     0.029 A 
ATOM     60  C   UNL A   1      46.031  30.816  27.842  1.00  0.00     0.049 A 
ATOM     61  H   UNL A   1      45.141  28.907  27.701  1.00  0.00     0.167 HD
ATOM     62  C   UNL A   1      43.756  31.128  28.782  1.00  0.00     0.074 A 
ATOM     63  C   UNL A   1      42.712  31.926  29.391  1.00  0.00     0.031 C 
ATOM     64  C   UNL A   1      44.986  31.598  28.455  1.00  0.00     0.037 A 
BRANCH  51  65
ATOM     65  C   UNL A   1      48.727  27.330  26.008  1.00  0.00     0.064 A 
ATOM     66  C   UNL A   1      49.782  26.941  26.845  1.00  0.00     0.173 A 
ATOM     67  C   UNL A   1      48.971  27.389  24.627  1.00  0.00     0.173 A 
ATOM     68  F   UNL A   1      49.604  26.883  28.174  1.00  0.00    -0.203 F 
ATOM     69  C   UNL A   1      51.042  26.656  26.325  1.00  0.00     0.198 A 
ATOM     70  C   UNL A   1      50.224  27.076  24.108  1.00  0.00     0.198 A 
ATOM     71  F   UNL A   1      47.994  27.751  23.783  1.00  0.00    -0.203 F 
ATOM     72  F   UNL A   1      52.051  26.339  27.149  1.00  0.00    -0.200 F 
ATOM     73  C   UNL A   1      51.261  26.720  24.956  1.00  0.00     0.200 A 
ATOM     74  F   UNL A   1      50.430  27.128  22.784  1.00  0.00    -0.200 F 
ATOM     75  F   UNL A   1      52.474  26.447  24.457  1.00  0.00    -0.200 F 
ENDBRANCH  51  65
BRANCH  52  76
ATOM     76  C   UNL A   1      39.643  29.045  29.740  1.00  0.00     0.064 A 
ATOM     77  C   UNL A   1      39.414  28.898  31.115  1.00  0.00     0.173 A 
ATOM     78  C   UNL A   1      38.567  29.445  28.936  1.00  0.00     0.173 A 
ATOM     79  F   UNL A   1      40.407  28.493  31.920  1.00  0.00    -0.203 F 
ATOM     80  C   UNL A   1      38.155  29.141  31.662  1.00  0.00     0.198 A 
ATOM     81  C   UNL A   1      37.316  29.711  29.487  1.00  0.00     0.198 A 
ATOM     82  F   UNL A   1      38.736  29.596  27.614  1.00  0.00    -0.203 F 
ATOM     83  F   UNL A   1      37.953  28.965  32.974  1.00  0.00    -0.200 F 
ATOM     84  C   UNL A   1      37.110  29.554  30.849  1.00  0.00     0.200 A 
ATOM     85  F   UNL A   1      36.311  30.119  28.699  1.00  0.00    -0.200 F 
ATOM     86  F   UNL A   1      35.902  29.797  31.378  1.00  0.00    -0.200 F 
ENDBRANCH  52  76
BRANCH  64  87
ATOM     87  C   UNL A   1      45.268  33.046  28.732  1.00  0.00     0.064 A 
ATOM     88  C   UNL A   1      45.890  33.460  29.918  1.00  0.00     0.173 A 
ATOM     89  C   UNL A   1      44.952  34.027  27.779  1.00  0.00     0.173 A 
ATOM     90  F   UNL A   1      46.199  32.562  30.867  1.00  0.00    -0.203 F 
ATOM     91  C   UNL A   1      46.166  34.805  30.151  1.00  0.00     0.198 A 
ATOM     92  C   UNL A   1      45.255  35.368  28.004  1.00  0.00     0.198 A 
ATOM     93  F   UNL A   1      44.362  33.684  26.624  1.00  0.00    -0.203 F 
ATOM     94  F   UNL A   1      46.725  35.182  31.310  1.00  0.00    -0.200 F 
ATOM     95  C   UNL A   1      45.856  35.756  29.191  1.00  0.00     0.200 A 
ATOM     96  F   UNL A   1      44.964  36.284  27.069  1.00  0.00    -0.200 F 
ATOM     97  F   UNL A   1      46.130  37.049  29.413  1.00  0.00    -0.200 F 
ENDBRANCH  64  87
ENDBRANCH  38  39
ENDBRANCH  31  33
ENDBRANCH  30  31
ENDBRANCH  29  30
ENDBRANCH  28  29
ENDBRANCH  27  28
ENDBRANCH  26  27
ENDBRANCH   1  26
TORSDOF 19
ENDMDL
MODEL 3
REMARK VINA RESULT:     -11.2      0.558      7.021
REMARK SMILES C[C@H](Oc1ccc(-c2ccccc2)cc1)C(=O)N[C@H](C)C(=O)OCCOCCOC(=O)c1ccc(-c2c3nc(c(-c4c(F)c(F)c(F)c(F)c4F)c4ccc([nH]4)c(-c4c(F)c(F)c(F)c(F)c4F)c4nc(c(-c5c(F)c(F)c(F)c(F)c5F)c5ccc2[nH]5)C=C4)C=C3)cc1
REMARK SMILES IDX 24 1 23 2 21 3 22 4 19 5 20 6 18 7 16 8 17 9 2 11 1 12 3 13
REMARK SMILES IDX 4 14 5 15 15 16 6 17 14 18 7 19 8 20 9 21 13 22 10 23 12 24
REMARK SMILES IDX 11 25 25 26 26 27 27 28 28 29 29 30 30 31 31 32 32 33 33 34
REMARK SMILES IDX 94 35 34 36 93 37 35 38 36 39 37 40 87 41 38 42 92 43 86 44
REMARK SMILES IDX 88 45 39 46 91 47 85 48 84 49 40 51 72 52 52 53 71 54 53 55
REMARK SMILES IDX 56 56 70 57 89 58 54 59 55 60 69 62 90 63 57 64 41 65 42 66
REMARK SMILES IDX 50 67 43 68 44 69 48 70 51 71 45 72 46 73 49 74 47 75 73 76
REMARK SMILES IDX 74 77 82 78 75 79 76 80 80 81 83 82 77 83 78 84 81 85 79 86
REMARK SMILES IDX 58 87 59 88 67 89 60 90 61 91 65 92 68 93 62 94 63 95 66 96
REMARK SMILES IDX 64 97
REMARK H PARENT 18 10 88 50 56 61
REMARK Flexibility Score: inf
ROOT
ATOM      1  C   UNL A   1      36.490  23.287  24.569  1.00  0.00     0.261 C 
ENDROOT
BRANCH   1   2
ATOM      2  O   UNL A   1      35.107  23.670  24.486  1.00  0.00    -0.462 OA
BRANCH   2   3
ATOM      3  C   UNL A   1      34.571  24.293  25.568  1.00  0.00     0.328 C 
ATOM      4  O   UNL A   1      34.384  23.757  26.654  1.00  0.00    -0.250 OA
BRANCH   3   5
ATOM      5  C   UNL A   1      34.122  25.735  25.237  1.00  0.00     0.189 C 
ATOM      6  C   UNL A   1      33.871  25.905  23.739  1.00  0.00     0.043 C 
BRANCH   5   7
ATOM      7  N   UNL A   1      32.997  26.030  26.137  1.00  0.00    -0.340 N 
ATOM      8  C   UNL A   1      31.666  26.229  25.915  1.00  0.00     0.261 C 
ATOM      9  O   UNL A   1      31.001  26.696  26.844  1.00  0.00    -0.271 OA
ATOM     10  H   UNL A   1      33.256  26.098  27.086  1.00  0.00     0.164 HD
BRANCH   8  11
ATOM     11  C   UNL A   1      30.983  25.767  24.621  1.00  0.00     0.258 C 
ATOM     12  C   UNL A   1      29.981  26.860  24.219  1.00  0.00     0.064 C 
BRANCH  11  13
ATOM     13  O   UNL A   1      30.464  24.460  24.866  1.00  0.00    -0.481 OA
BRANCH  13  14
ATOM     14  C   UNL A   1      31.189  23.346  24.562  1.00  0.00     0.120 A 
ATOM     15  C   UNL A   1      31.695  23.006  23.314  1.00  0.00     0.047 A 
ATOM     16  C   UNL A   1      31.355  22.452  25.622  1.00  0.00     0.047 A 
ATOM     17  C   UNL A   1      32.273  21.748  23.109  1.00  0.00     0.012 A 
ATOM     18  C   UNL A   1      31.966  21.208  25.424  1.00  0.00     0.012 A 
ATOM     19  C   UNL A   1      32.412  20.819  24.154  1.00  0.00    -0.018 A 
BRANCH  19  20
ATOM     20  C   UNL A   1      32.988  19.483  23.903  1.00  0.00    -0.018 A 
ATOM     21  C   UNL A   1      32.418  18.615  22.955  1.00  0.00     0.009 A 
ATOM     22  C   UNL A   1      34.098  19.015  24.628  1.00  0.00     0.009 A 
ATOM     23  C   UNL A   1      32.921  17.328  22.751  1.00  0.00     0.001 A 
ATOM     24  C   UNL A   1      34.607  17.729  24.422  1.00  0.00     0.001 A 
ATOM     25  C   UNL A   1      34.015  16.884  23.487  1.00  0.00     0.000 A 
ENDBRANCH  19  20
ENDBRANCH  13  14
ENDBRANCH  11  13
ENDBRANCH   8  11
ENDBRANCH   5   7
ENDBRANCH   3   5
ENDBRANCH   2   3
ENDBRANCH   1   2
BRANCH   1  26
ATOM     26  C   UNL A   1      36.566  21.843  25.077  1.00  0.00     0.202 C 
BRANCH  26  27
ATOM     27  O   UNL A   1      37.763  21.134  24.740  1.00  0.00    -0.374 OA
BRANCH  27  28
ATOM     28  C   UNL A   1      37.770  19.723  24.946  1.00  0.00     0.202 C 
BRANCH  28  29
ATOM     29  C   UNL A   1      39.108  19.110  25.381  1.00  0.00     0.261 C 
BRANCH  29  30
ATOM     30  O   UNL A   1      39.890  19.987  26.211  1.00  0.00    -0.460 OA
BRANCH  30  31
ATOM     31  C   UNL A   1      41.227  19.785  26.125  1.00  0.00     0.338 C 
ATOM     32  O   UNL A   1      41.804  18.773  25.754  1.00  0.00    -0.246 OA
BRANCH  31  33
ATOM     33  C   UNL A   1      41.962  21.030  26.409  1.00  0.00     0.060 A 
ATOM     34  C   UNL A   1      42.169  21.355  27.755  1.00  0.00     0.016 A 
ATOM     35  C   UNL A   1      42.337  21.916  25.397  1.00  0.00     0.016 A 
ATOM     36  C   UNL A   1      42.705  22.593  28.099  1.00  0.00     0.010 A 
ATOM     37  C   UNL A   1      42.870  23.164  25.746  1.00  0.00     0.010 A 
ATOM     38  C   UNL A   1      43.020  23.523  27.098  1.00  0.00    -0.014 A 
BRANCH  38  39
ATOM     39  C   UNL A   1      43.362  24.913  27.490  1.00  0.00     0.031 A 
ATOM     40  C   UNL A   1      44.792  25.368  27.405  1.00  0.00     0.074 A 
ATOM     41  C   UNL A   1      42.404  25.777  27.863  1.00  0.00     0.049 A 
ATOM     42  N   UNL A   1      45.310  26.540  27.673  1.00  0.00    -0.248 NA
ATOM     43  C   UNL A   1      45.772  24.366  26.957  1.00  0.00     0.031 C 
ATOM     44  C   UNL A   1      40.980  25.469  27.953  1.00  0.00     0.029 A 
ATOM     45  N   UNL A   1      42.491  27.096  28.235  1.00  0.00    -0.354 N 
ATOM     46  C   UNL A   1      46.670  26.418  27.424  1.00  0.00     0.074 A 
ATOM     47  C   UNL A   1      46.905  25.048  27.020  1.00  0.00     0.031 C 
ATOM     48  C   UNL A   1      40.323  26.566  28.364  1.00  0.00     0.029 A 
ATOM     49  C   UNL A   1      41.284  27.646  28.588  1.00  0.00     0.049 A 
ATOM     50  H   UNL A   1      43.336  27.599  28.248  1.00  0.00     0.167 HD
ATOM     51  C   UNL A   1      47.636  27.364  27.514  1.00  0.00     0.037 A 
ATOM     52  C   UNL A   1      40.991  28.876  29.053  1.00  0.00     0.037 A 
ATOM     53  C   UNL A   1      47.406  28.726  27.918  1.00  0.00     0.049 A 
ATOM     54  C   UNL A   1      42.089  29.896  29.204  1.00  0.00     0.074 A 
ATOM     55  C   UNL A   1      48.315  29.765  28.015  1.00  0.00     0.029 A 
ATOM     56  N   UNL A   1      46.175  29.237  28.304  1.00  0.00    -0.354 N 
ATOM     57  N   UNL A   1      43.367  29.781  28.935  1.00  0.00    -0.248 NA
ATOM     58  C   UNL A   1      41.701  31.217  29.716  1.00  0.00     0.031 C 
ATOM     59  C   UNL A   1      47.645  30.890  28.508  1.00  0.00     0.029 A 
ATOM     60  C   UNL A   1      46.307  30.568  28.669  1.00  0.00     0.049 A 
ATOM     61  H   UNL A   1      45.332  28.728  28.317  1.00  0.00     0.167 HD
ATOM     62  C   UNL A   1      43.932  31.016  29.227  1.00  0.00     0.074 A 
ATOM     63  C   UNL A   1      42.854  31.871  29.681  1.00  0.00     0.031 C 
ATOM     64  C   UNL A   1      45.227  31.406  29.125  1.00  0.00     0.037 A 
BRANCH  51  65
ATOM     65  C   UNL A   1      49.040  26.943  27.191  1.00  0.00     0.064 A 
ATOM     66  C   UNL A   1      49.502  26.867  25.869  1.00  0.00     0.173 A 
ATOM     67  C   UNL A   1      49.938  26.618  28.219  1.00  0.00     0.173 A 
ATOM     68  F   UNL A   1      48.679  27.153  24.849  1.00  0.00    -0.203 F 
ATOM     69  C   UNL A   1      50.800  26.449  25.585  1.00  0.00     0.198 A 
ATOM     70  C   UNL A   1      51.243  26.228  27.935  1.00  0.00     0.198 A 
ATOM     71  F   UNL A   1      49.547  26.680  29.501  1.00  0.00    -0.203 F 
ATOM     72  F   UNL A   1      51.203  26.331  24.313  1.00  0.00    -0.200 F 
ATOM     73  C   UNL A   1      51.670  26.134  26.619  1.00  0.00     0.200 A 
ATOM     74  F   UNL A   1      52.086  25.934  28.935  1.00  0.00    -0.200 F 
ATOM     75  F   UNL A   1      52.918  25.730  26.346  1.00  0.00    -0.200 F 
ENDBRANCH  51  65
BRANCH  52  76
ATOM     76  C   UNL A   1      39.589  29.204  29.416  1.00  0.00     0.064 A 
ATOM     77  C   UNL A   1      38.658  29.589  28.442  1.00  0.00     0.173 A 
ATOM     78  C   UNL A   1      39.152  29.125  30.746  1.00  0.00     0.173 A 
ATOM     79  F   UNL A   1      39.036  29.702  27.161  1.00  0.00    -0.203 F 
ATOM     80  C   UNL A   1      37.341  29.886  28.788  1.00  0.00     0.198 A 
ATOM     81  C   UNL A   1      37.830  29.399  31.086  1.00  0.00     0.198 A 
ATOM     82  F   UNL A   1      40.008  28.764  31.714  1.00  0.00    -0.203 F 
ATOM     83  F   UNL A   1      36.476  30.282  27.844  1.00  0.00    -0.200 F 
ATOM     84  C   UNL A   1      36.926  29.784  30.107  1.00  0.00     0.200 A 
ATOM     85  F   UNL A   1      37.431  29.290  32.361  1.00  0.00    -0.200 F 
ATOM     86  F   UNL A   1      35.657  30.061  30.437  1.00  0.00    -0.200 F 
ENDBRANCH  52  76
BRANCH  64  87
ATOM     87  C   UNL A   1      45.552  32.825  29.494  1.00  0.00     0.064 A 
ATOM     88  C   UNL A   1      45.451  33.867  28.562  1.00  0.00     0.173 A 
ATOM     89  C   UNL A   1      45.924  33.151  30.807  1.00  0.00     0.173 A 
ATOM     90  F   UNL A   1      45.112  33.604  27.290  1.00  0.00    -0.203 F 
ATOM     91  C   UNL A   1      45.732  35.182  28.924  1.00  0.00     0.198 A 
ATOM     92  C   UNL A   1      46.178  34.471  31.172  1.00  0.00     0.198 A 
ATOM     93  F   UNL A   1      46.029  32.193  31.739  1.00  0.00    -0.203 F 
ATOM     94  F   UNL A   1      45.668  36.157  28.006  1.00  0.00    -0.200 F 
ATOM     95  C   UNL A   1      46.088  35.484  30.230  1.00  0.00     0.200 A 
ATOM     96  F   UNL A   1      46.511  34.762  32.438  1.00  0.00    -0.200 F 
ATOM     97  F   UNL A   1      46.349  36.751  30.579  1.00  0.00    -0.200 F 
ENDBRANCH  64  87
ENDBRANCH  38  39
ENDBRANCH  31  33
ENDBRANCH  30  31
ENDBRANCH  29  30
ENDBRANCH  28  29
ENDBRANCH  27  28
ENDBRANCH  26  27
ENDBRANCH   1  26
TORSDOF 19
ENDMDL
