MODEL 1
REMARK VINA RESULT:     -13.1      0.000      0.000
REMARK SMILES O=C(OCCOCCOC(=O)c1cc([C@@H]2C=NN=C2c2ccc(F)cc2)c2c(ccc3ccccc32)n1)c1ccc(-c2c3nc(c(-c4c(F)c(F)c(F)c(F)c4F)c4ccc([nH]4)c(-c4c(F)c(F)c(F)c(F)c4F)c4nc(c(-c5c(F)c(F)c(F)c(F)c5F)c5ccc2[nH]5)C=C4)C=C3)cc1
REMARK SMILES IDX 6 1 5 2 4 3 3 4 2 5 1 6 38 7 39 8 100 9 40 10 99 11 41 12
REMARK SMILES IDX 42 13 43 14 93 15 44 16 98 17 92 18 94 19 45 20 97 21 91 22
REMARK SMILES IDX 90 23 46 25 78 26 58 27 77 28 59 29 62 30 76 31 95 32 60 33
REMARK SMILES IDX 61 34 75 36 96 37 63 38 47 39 48 40 56 41 49 42 50 43 54 44
REMARK SMILES IDX 57 45 51 46 52 47 55 48 53 49 79 50 80 51 88 52 81 53 82 54
REMARK SMILES IDX 86 55 89 56 83 57 84 58 87 59 85 60 64 61 65 62 73 63 66 64
REMARK SMILES IDX 67 65 71 66 74 67 68 68 69 69 72 70 70 71 7 72 8 73 9 74
REMARK SMILES IDX 10 75 11 76 12 77 13 78 37 79 14 80 28 81 27 82 29 83 36 84
REMARK SMILES IDX 30 85 31 86 35 87 32 88 34 89 33 90 15 91 16 92 19 93 17 94
REMARK SMILES IDX 18 95 20 96 21 97 26 98 22 99 25 100 23 101 24 102
REMARK H PARENT 94 24 62 35
REMARK Flexibility Score: inf
ROOT
ATOM      1  O   UNL A   1      39.812  21.018  26.050  1.00  0.00    -0.374 OA
ENDROOT
BRANCH   1   2
ATOM      2  C   UNL A   1      41.011  21.511  26.654  1.00  0.00     0.202 C 
BRANCH   2   3
ATOM      3  C   UNL A   1      41.711  22.734  26.056  1.00  0.00     0.261 C 
BRANCH   3   4
ATOM      4  O   UNL A   1      41.131  23.979  26.493  1.00  0.00    -0.460 OA
BRANCH   4   5
ATOM      5  C   UNL A   1      41.527  25.181  26.018  1.00  0.00     0.338 C 
ATOM      6  O   UNL A   1      42.189  25.276  24.991  1.00  0.00    -0.246 OA
BRANCH   5   7
ATOM      7  C   UNL A   1      40.890  26.382  26.615  1.00  0.00     0.060 A 
ATOM      8  C   UNL A   1      41.226  27.695  26.277  1.00  0.00     0.016 A 
ATOM      9  C   UNL A   1      40.042  26.140  27.699  1.00  0.00     0.016 A 
ATOM     10  C   UNL A   1      41.094  28.687  27.206  1.00  0.00     0.010 A 
ATOM     11  C   UNL A   1      39.807  27.156  28.593  1.00  0.00     0.010 A 
ATOM     12  C   UNL A   1      40.478  28.361  28.400  1.00  0.00    -0.014 A 
BRANCH  12  13
ATOM     13  C   UNL A   1      40.527  29.346  29.452  1.00  0.00     0.031 A 
ATOM     14  C   UNL A   1      39.390  30.305  29.419  1.00  0.00     0.074 A 
ATOM     15  C   UNL A   1      41.511  29.226  30.363  1.00  0.00     0.049 A 
ATOM     16  N   UNL A   1      39.412  31.595  29.493  1.00  0.00    -0.248 NA
ATOM     17  C   UNL A   1      38.057  29.752  29.100  1.00  0.00     0.031 C 
ATOM     18  C   UNL A   1      42.536  28.175  30.465  1.00  0.00     0.029 A 
ATOM     19  N   UNL A   1      41.710  29.947  31.494  1.00  0.00    -0.354 N 
ATOM     20  C   UNL A   1      38.079  31.995  29.437  1.00  0.00     0.074 A 
ATOM     21  C   UNL A   1      37.310  30.851  29.035  1.00  0.00     0.031 C 
ATOM     22  C   UNL A   1      43.049  28.167  31.714  1.00  0.00     0.029 A 
ATOM     23  C   UNL A   1      42.495  29.290  32.439  1.00  0.00     0.049 A 
ATOM     24  H   UNL A   1      41.336  30.846  31.633  1.00  0.00     0.167 HD
ATOM     25  C   UNL A   1      37.670  33.169  29.985  1.00  0.00     0.037 A 
ATOM     26  C   UNL A   1      42.502  29.602  33.758  1.00  0.00     0.037 A 
ATOM     27  C   UNL A   1      38.740  34.122  30.050  1.00  0.00     0.049 A 
ATOM     28  C   UNL A   1      41.976  30.995  33.855  1.00  0.00     0.074 A 
ATOM     29  C   UNL A   1      39.496  34.768  29.091  1.00  0.00     0.029 A 
ATOM     30  N   UNL A   1      39.445  34.237  31.221  1.00  0.00    -0.354 N 
ATOM     31  N   UNL A   1      42.586  32.028  33.332  1.00  0.00    -0.248 NA
ATOM     32  C   UNL A   1      40.539  31.148  34.055  1.00  0.00     0.031 C 
ATOM     33  C   UNL A   1      40.819  34.783  29.619  1.00  0.00     0.029 A 
ATOM     34  C   UNL A   1      40.779  34.220  30.894  1.00  0.00     0.049 A 
ATOM     35  H   UNL A   1      39.067  34.315  32.127  1.00  0.00     0.167 HD
ATOM     36  C   UNL A   1      41.571  32.801  32.781  1.00  0.00     0.074 A 
ATOM     37  C   UNL A   1      40.328  32.218  33.284  1.00  0.00     0.031 C 
ATOM     38  C   UNL A   1      41.804  33.652  31.738  1.00  0.00     0.037 A 
BRANCH  25  39
ATOM     39  C   UNL A   1      36.400  33.287  30.784  1.00  0.00     0.064 A 
ATOM     40  C   UNL A   1      36.317  32.960  32.157  1.00  0.00     0.173 A 
ATOM     41  C   UNL A   1      35.313  34.010  30.263  1.00  0.00     0.173 A 
ATOM     42  F   UNL A   1      37.326  32.375  32.814  1.00  0.00    -0.203 F 
ATOM     43  C   UNL A   1      35.232  33.325  32.947  1.00  0.00     0.198 A 
ATOM     44  C   UNL A   1      34.251  34.422  31.073  1.00  0.00     0.198 A 
ATOM     45  F   UNL A   1      35.307  34.399  28.979  1.00  0.00    -0.203 F 
ATOM     46  F   UNL A   1      35.228  33.004  34.249  1.00  0.00    -0.200 F 
ATOM     47  C   UNL A   1      34.213  34.082  32.414  1.00  0.00     0.200 A 
ATOM     48  F   UNL A   1      33.292  35.207  30.562  1.00  0.00    -0.200 F 
ATOM     49  F   UNL A   1      33.225  34.523  33.202  1.00  0.00    -0.200 F 
ENDBRANCH  25  39
BRANCH  26  50
ATOM     50  C   UNL A   1      42.445  28.629  34.880  1.00  0.00     0.064 A 
ATOM     51  C   UNL A   1      43.405  28.633  35.915  1.00  0.00     0.173 A 
ATOM     52  C   UNL A   1      41.601  27.511  34.822  1.00  0.00     0.173 A 
ATOM     53  F   UNL A   1      44.320  29.609  36.009  1.00  0.00    -0.203 F 
ATOM     54  C   UNL A   1      43.516  27.584  36.828  1.00  0.00     0.198 A 
ATOM     55  C   UNL A   1      41.717  26.455  35.735  1.00  0.00     0.198 A 
ATOM     56  F   UNL A   1      40.696  27.405  33.839  1.00  0.00    -0.203 F 
ATOM     57  F   UNL A   1      44.477  27.615  37.763  1.00  0.00    -0.200 F 
ATOM     58  C   UNL A   1      42.681  26.489  36.731  1.00  0.00     0.200 A 
ATOM     59  F   UNL A   1      40.930  25.378  35.615  1.00  0.00    -0.200 F 
ATOM     60  F   UNL A   1      42.831  25.453  37.569  1.00  0.00    -0.200 F 
ENDBRANCH  26  50
BRANCH  38  61
ATOM     61  C   UNL A   1      43.223  33.835  31.271  1.00  0.00     0.064 A 
ATOM     62  C   UNL A   1      43.723  32.967  30.295  1.00  0.00     0.173 A 
ATOM     63  C   UNL A   1      44.146  34.680  31.914  1.00  0.00     0.173 A 
ATOM     64  F   UNL A   1      42.901  32.094  29.693  1.00  0.00    -0.203 F 
ATOM     65  C   UNL A   1      45.081  32.931  29.986  1.00  0.00     0.198 A 
ATOM     66  C   UNL A   1      45.502  34.667  31.580  1.00  0.00     0.198 A 
ATOM     67  F   UNL A   1      43.767  35.467  32.927  1.00  0.00    -0.203 F 
ATOM     68  F   UNL A   1      45.537  32.034  29.101  1.00  0.00    -0.200 F 
ATOM     69  C   UNL A   1      45.969  33.782  30.624  1.00  0.00     0.200 A 
ATOM     70  F   UNL A   1      46.361  35.473  32.222  1.00  0.00    -0.200 F 
ATOM     71  F   UNL A   1      47.278  33.723  30.346  1.00  0.00    -0.200 F 
ENDBRANCH  38  61
ENDBRANCH  12  13
ENDBRANCH   5   7
ENDBRANCH   4   5
ENDBRANCH   3   4
ENDBRANCH   2   3
ENDBRANCH   1   2
BRANCH   1  72
ATOM     72  C   UNL A   1      38.722  21.940  25.870  1.00  0.00     0.202 C 
BRANCH  72  73
ATOM     73  C   UNL A   1      37.666  21.684  24.785  1.00  0.00     0.261 C 
BRANCH  73  74
ATOM     74  O   UNL A   1      36.767  22.789  24.631  1.00  0.00    -0.459 OA
BRANCH  74  75
ATOM     75  C   UNL A   1      36.435  23.067  23.340  1.00  0.00     0.357 C 
ATOM     76  O   UNL A   1      37.145  22.955  22.364  1.00  0.00    -0.244 OA
BRANCH  75  77
ATOM     77  C   UNL A   1      34.974  23.359  23.301  1.00  0.00     0.149 A 
ATOM     78  C   UNL A   1      34.131  22.668  24.120  1.00  0.00     0.041 A 
ATOM     79  N   UNL A   1      34.567  24.383  22.531  1.00  0.00    -0.241 NA
ATOM     80  C   UNL A   1      32.851  23.206  24.384  1.00  0.00    -0.021 A 
ATOM     81  C   UNL A   1      33.314  24.828  22.660  1.00  0.00     0.072 A 
ATOM     82  C   UNL A   1      32.383  24.376  23.641  1.00  0.00     0.012 A 
ATOM     83  C   UNL A   1      33.016  25.866  21.802  1.00  0.00     0.029 A 
ATOM     84  C   UNL A   1      31.175  25.213  23.798  1.00  0.00    -0.009 A 
ATOM     85  C   UNL A   1      31.840  26.589  21.904  1.00  0.00     0.011 A 
ATOM     86  C   UNL A   1      30.940  26.309  22.918  1.00  0.00    -0.018 A 
ATOM     87  C   UNL A   1      30.199  25.085  24.811  1.00  0.00     0.009 A 
ATOM     88  C   UNL A   1      29.830  27.163  23.061  1.00  0.00     0.009 A 
ATOM     89  C   UNL A   1      29.104  25.942  24.969  1.00  0.00     0.001 A 
ATOM     90  C   UNL A   1      28.917  26.987  24.090  1.00  0.00     0.001 A 
BRANCH  80  91
ATOM     91  C   UNL A   1      32.301  22.589  25.646  1.00  0.00     0.115 C 
ATOM     92  C   UNL A   1      32.293  23.319  26.928  1.00  0.00     0.123 C 
ATOM     93  C   UNL A   1      32.884  21.287  26.110  1.00  0.00     0.083 C 
ATOM     94  N   UNL A   1      32.605  22.555  27.926  1.00  0.00    -0.162 NA
ATOM     95  N   UNL A   1      32.981  21.258  27.409  1.00  0.00    -0.154 NA
BRANCH  93  96
ATOM     96  C   UNL A   1      33.152  20.123  25.221  1.00  0.00    -0.001 A 
ATOM     97  C   UNL A   1      34.438  19.576  25.226  1.00  0.00     0.013 A 
ATOM     98  C   UNL A   1      32.175  19.530  24.407  1.00  0.00     0.013 A 
ATOM     99  C   UNL A   1      34.716  18.423  24.481  1.00  0.00     0.040 A 
ATOM    100  C   UNL A   1      32.440  18.364  23.688  1.00  0.00     0.040 A 
ATOM    101  C   UNL A   1      33.710  17.816  23.736  1.00  0.00     0.123 A 
ATOM    102  F   UNL A   1      33.972  16.699  23.048  1.00  0.00    -0.207 F 
ENDBRANCH  93  96
ENDBRANCH  80  91
ENDBRANCH  75  77
ENDBRANCH  74  75
ENDBRANCH  73  74
ENDBRANCH  72  73
ENDBRANCH   1  72
TORSDOF 16
ENDMDL
MODEL 2
REMARK VINA RESULT:     -13.1      2.720      7.295
REMARK SMILES O=C(OCCOCCOC(=O)c1cc([C@@H]2C=NN=C2c2ccc(F)cc2)c2c(ccc3ccccc32)n1)c1ccc(-c2c3nc(c(-c4c(F)c(F)c(F)c(F)c4F)c4ccc([nH]4)c(-c4c(F)c(F)c(F)c(F)c4F)c4nc(c(-c5c(F)c(F)c(F)c(F)c5F)c5ccc2[nH]5)C=C4)C=C3)cc1
REMARK SMILES IDX 6 1 5 2 4 3 3 4 2 5 1 6 38 7 39 8 100 9 40 10 99 11 41 12
REMARK SMILES IDX 42 13 43 14 93 15 44 16 98 17 92 18 94 19 45 20 97 21 91 22
REMARK SMILES IDX 90 23 46 25 78 26 58 27 77 28 59 29 62 30 76 31 95 32 60 33
REMARK SMILES IDX 61 34 75 36 96 37 63 38 47 39 48 40 56 41 49 42 50 43 54 44
REMARK SMILES IDX 57 45 51 46 52 47 55 48 53 49 79 50 80 51 88 52 81 53 82 54
REMARK SMILES IDX 86 55 89 56 83 57 84 58 87 59 85 60 64 61 65 62 73 63 66 64
REMARK SMILES IDX 67 65 71 66 74 67 68 68 69 69 72 70 70 71 7 72 8 73 9 74
REMARK SMILES IDX 10 75 11 76 12 77 13 78 37 79 14 80 28 81 27 82 29 83 36 84
REMARK SMILES IDX 30 85 31 86 35 87 32 88 34 89 33 90 15 91 16 92 19 93 17 94
REMARK SMILES IDX 18 95 20 96 21 97 26 98 22 99 25 100 23 101 24 102
REMARK H PARENT 94 24 62 35
REMARK Flexibility Score: inf
ROOT
ATOM      1  O   UNL A   1      39.560  19.457  25.103  1.00  0.00    -0.374 OA
ENDROOT
BRANCH   1   2
ATOM      2  C   UNL A   1      40.477  19.649  26.183  1.00  0.00     0.202 C 
BRANCH   2   3
ATOM      3  C   UNL A   1      41.131  21.018  26.385  1.00  0.00     0.261 C 
BRANCH   3   4
ATOM      4  O   UNL A   1      40.388  21.865  27.285  1.00  0.00    -0.460 OA
BRANCH   4   5
ATOM      5  C   UNL A   1      39.809  23.022  26.895  1.00  0.00     0.338 C 
ATOM      6  O   UNL A   1      38.612  23.082  26.634  1.00  0.00    -0.246 OA
BRANCH   5   7
ATOM      7  C   UNL A   1      40.601  24.265  27.076  1.00  0.00     0.060 A 
ATOM      8  C   UNL A   1      41.645  24.400  27.995  1.00  0.00     0.016 A 
ATOM      9  C   UNL A   1      40.125  25.388  26.396  1.00  0.00     0.016 A 
ATOM     10  C   UNL A   1      41.911  25.624  28.539  1.00  0.00     0.010 A 
ATOM     11  C   UNL A   1      40.467  26.635  26.861  1.00  0.00     0.010 A 
ATOM     12  C   UNL A   1      41.226  26.710  28.026  1.00  0.00    -0.014 A 
BRANCH  12  13
ATOM     13  C   UNL A   1      41.352  27.958  28.736  1.00  0.00     0.031 A 
ATOM     14  C   UNL A   1      42.511  28.777  28.292  1.00  0.00     0.074 A 
ATOM     15  C   UNL A   1      40.384  28.265  29.621  1.00  0.00     0.049 A 
ATOM     16  N   UNL A   1      43.416  29.361  29.008  1.00  0.00    -0.248 NA
ATOM     17  C   UNL A   1      42.784  28.819  26.840  1.00  0.00     0.031 C 
ATOM     18  C   UNL A   1      39.160  27.508  29.932  1.00  0.00     0.029 A 
ATOM     19  N   UNL A   1      40.214  29.409  30.327  1.00  0.00    -0.354 N 
ATOM     20  C   UNL A   1      44.249  30.010  28.099  1.00  0.00     0.074 A 
ATOM     21  C   UNL A   1      43.917  29.515  26.792  1.00  0.00     0.031 C 
ATOM     22  C   UNL A   1      38.267  28.325  30.529  1.00  0.00     0.029 A 
ATOM     23  C   UNL A   1      38.904  29.602  30.764  1.00  0.00     0.049 A 
ATOM     24  H   UNL A   1      40.944  30.042  30.513  1.00  0.00     0.167 HD
ATOM     25  C   UNL A   1      44.969  31.105  28.457  1.00  0.00     0.037 A 
ATOM     26  C   UNL A   1      38.400  30.809  31.118  1.00  0.00     0.037 A 
ATOM     27  C   UNL A   1      45.232  31.125  29.867  1.00  0.00     0.049 A 
ATOM     28  C   UNL A   1      39.577  31.671  31.433  1.00  0.00     0.074 A 
ATOM     29  C   UNL A   1      45.956  30.304  30.710  1.00  0.00     0.029 A 
ATOM     30  N   UNL A   1      44.398  31.852  30.679  1.00  0.00    -0.354 N 
ATOM     31  N   UNL A   1      40.401  31.424  32.420  1.00  0.00    -0.248 NA
ATOM     32  C   UNL A   1      40.124  32.470  30.342  1.00  0.00     0.031 C 
ATOM     33  C   UNL A   1      45.172  30.216  31.896  1.00  0.00     0.029 A 
ATOM     34  C   UNL A   1      44.062  31.046  31.739  1.00  0.00     0.049 A 
ATOM     35  H   UNL A   1      44.097  32.778  30.530  1.00  0.00     0.167 HD
ATOM     36  C   UNL A   1      41.664  31.695  31.907  1.00  0.00     0.074 A 
ATOM     37  C   UNL A   1      41.425  32.361  30.628  1.00  0.00     0.031 C 
ATOM     38  C   UNL A   1      42.784  31.097  32.410  1.00  0.00     0.037 A 
BRANCH  25  39
ATOM     39  C   UNL A   1      45.094  32.313  27.569  1.00  0.00     0.064 A 
ATOM     40  C   UNL A   1      44.181  33.394  27.600  1.00  0.00     0.173 A 
ATOM     41  C   UNL A   1      46.295  32.550  26.879  1.00  0.00     0.173 A 
ATOM     42  F   UNL A   1      43.051  33.353  28.314  1.00  0.00    -0.203 F 
ATOM     43  C   UNL A   1      44.448  34.614  26.987  1.00  0.00     0.198 A 
ATOM     44  C   UNL A   1      46.582  33.795  26.311  1.00  0.00     0.198 A 
ATOM     45  F   UNL A   1      47.243  31.603  26.818  1.00  0.00    -0.203 F 
ATOM     46  F   UNL A   1      43.549  35.605  27.075  1.00  0.00    -0.200 F 
ATOM     47  C   UNL A   1      45.660  34.825  26.368  1.00  0.00     0.200 A 
ATOM     48  F   UNL A   1      47.785  34.013  25.762  1.00  0.00    -0.200 F 
ATOM     49  F   UNL A   1      45.956  36.034  25.874  1.00  0.00    -0.200 F 
ENDBRANCH  25  39
BRANCH  26  50
ATOM     50  C   UNL A   1      37.078  31.352  30.708  1.00  0.00     0.064 A 
ATOM     51  C   UNL A   1      36.807  31.715  29.371  1.00  0.00     0.173 A 
ATOM     52  C   UNL A   1      36.144  31.769  31.666  1.00  0.00     0.173 A 
ATOM     53  F   UNL A   1      37.678  31.444  28.389  1.00  0.00    -0.203 F 
ATOM     54  C   UNL A   1      35.677  32.452  29.018  1.00  0.00     0.198 A 
ATOM     55  C   UNL A   1      35.013  32.516  31.312  1.00  0.00     0.198 A 
ATOM     56  F   UNL A   1      36.353  31.510  32.965  1.00  0.00    -0.203 F 
ATOM     57  F   UNL A   1      35.490  32.812  27.740  1.00  0.00    -0.200 F 
ATOM     58  C   UNL A   1      34.786  32.864  29.989  1.00  0.00     0.200 A 
ATOM     59  F   UNL A   1      34.170  32.945  32.261  1.00  0.00    -0.200 F 
ATOM     60  F   UNL A   1      33.735  33.628  29.657  1.00  0.00    -0.200 F 
ENDBRANCH  26  50
BRANCH  38  61
ATOM     61  C   UNL A   1      42.641  30.225  33.628  1.00  0.00     0.064 A 
ATOM     62  C   UNL A   1      42.296  28.881  33.452  1.00  0.00     0.173 A 
ATOM     63  C   UNL A   1      42.613  30.729  34.942  1.00  0.00     0.173 A 
ATOM     64  F   UNL A   1      42.243  28.361  32.216  1.00  0.00    -0.203 F 
ATOM     65  C   UNL A   1      41.925  28.082  34.531  1.00  0.00     0.198 A 
ATOM     66  C   UNL A   1      42.272  29.919  36.026  1.00  0.00     0.198 A 
ATOM     67  F   UNL A   1      42.830  32.026  35.184  1.00  0.00    -0.203 F 
ATOM     68  F   UNL A   1      41.526  26.820  34.317  1.00  0.00    -0.200 F 
ATOM     69  C   UNL A   1      41.916  28.598  35.817  1.00  0.00     0.200 A 
ATOM     70  F   UNL A   1      42.238  30.432  37.266  1.00  0.00    -0.200 F 
ATOM     71  F   UNL A   1      41.529  27.834  36.848  1.00  0.00    -0.200 F 
ENDBRANCH  38  61
ENDBRANCH  12  13
ENDBRANCH   5   7
ENDBRANCH   4   5
ENDBRANCH   3   4
ENDBRANCH   2   3
ENDBRANCH   1   2
BRANCH   1  72
ATOM     72  C   UNL A   1      38.183  19.813  25.319  1.00  0.00     0.202 C 
BRANCH  72  73
ATOM     73  C   UNL A   1      37.427  20.641  24.269  1.00  0.00     0.261 C 
BRANCH  73  74
ATOM     74  O   UNL A   1      36.885  21.848  24.817  1.00  0.00    -0.459 OA
BRANCH  74  75
ATOM     75  C   UNL A   1      36.419  22.728  23.888  1.00  0.00     0.357 C 
ATOM     76  O   UNL A   1      36.756  22.807  22.727  1.00  0.00    -0.244 OA
BRANCH  75  77
ATOM     77  C   UNL A   1      35.275  23.465  24.495  1.00  0.00     0.149 A 
ATOM     78  C   UNL A   1      34.857  24.635  23.933  1.00  0.00     0.041 A 
ATOM     79  N   UNL A   1      34.629  22.874  25.515  1.00  0.00    -0.241 NA
ATOM     80  C   UNL A   1      33.561  25.107  24.237  1.00  0.00    -0.021 A 
ATOM     81  C   UNL A   1      33.461  23.381  25.919  1.00  0.00     0.072 A 
ATOM     82  C   UNL A   1      32.770  24.452  25.278  1.00  0.00     0.012 A 
ATOM     83  C   UNL A   1      32.911  22.698  26.983  1.00  0.00     0.029 A 
ATOM     84  C   UNL A   1      31.367  24.642  25.703  1.00  0.00    -0.009 A 
ATOM     85  C   UNL A   1      31.624  22.944  27.429  1.00  0.00     0.011 A 
ATOM     86  C   UNL A   1      30.830  23.870  26.774  1.00  0.00    -0.018 A 
ATOM     87  C   UNL A   1      30.423  25.504  25.102  1.00  0.00     0.009 A 
ATOM     88  C   UNL A   1      29.486  23.982  27.180  1.00  0.00     0.009 A 
ATOM     89  C   UNL A   1      29.082  25.605  25.489  1.00  0.00     0.001 A 
ATOM     90  C   UNL A   1      28.610  24.840  26.534  1.00  0.00     0.001 A 
BRANCH  80  91
ATOM     91  C   UNL A   1      33.125  26.086  23.175  1.00  0.00     0.115 C 
ATOM     92  C   UNL A   1      33.510  25.918  21.760  1.00  0.00     0.123 C 
ATOM     93  C   UNL A   1      33.480  27.532  23.355  1.00  0.00     0.083 C 
ATOM     94  N   UNL A   1      33.821  27.045  21.203  1.00  0.00    -0.162 NA
ATOM     95  N   UNL A   1      33.801  28.077  22.215  1.00  0.00    -0.154 NA
BRANCH  93  96
ATOM     96  C   UNL A   1      33.319  28.283  24.630  1.00  0.00    -0.001 A 
ATOM     97  C   UNL A   1      34.357  28.221  25.564  1.00  0.00     0.013 A 
ATOM     98  C   UNL A   1      32.198  29.073  24.926  1.00  0.00     0.013 A 
ATOM     99  C   UNL A   1      34.297  28.984  26.736  1.00  0.00     0.040 A 
ATOM    100  C   UNL A   1      32.148  29.859  26.079  1.00  0.00     0.040 A 
ATOM    101  C   UNL A   1      33.204  29.811  26.973  1.00  0.00     0.123 A 
ATOM    102  F   UNL A   1      33.163  30.561  28.081  1.00  0.00    -0.207 F 
ENDBRANCH  93  96
ENDBRANCH  80  91
ENDBRANCH  75  77
ENDBRANCH  74  75
ENDBRANCH  73  74
ENDBRANCH  72  73
ENDBRANCH   1  72
TORSDOF 16
ENDMDL
MODEL 3
REMARK VINA RESULT:     -13.1      5.691     10.525
REMARK SMILES O=C(OCCOCCOC(=O)c1cc([C@@H]2C=NN=C2c2ccc(F)cc2)c2c(ccc3ccccc32)n1)c1ccc(-c2c3nc(c(-c4c(F)c(F)c(F)c(F)c4F)c4ccc([nH]4)c(-c4c(F)c(F)c(F)c(F)c4F)c4nc(c(-c5c(F)c(F)c(F)c(F)c5F)c5ccc2[nH]5)C=C4)C=C3)cc1
REMARK SMILES IDX 6 1 5 2 4 3 3 4 2 5 1 6 38 7 39 8 100 9 40 10 99 11 41 12
REMARK SMILES IDX 42 13 43 14 93 15 44 16 98 17 92 18 94 19 45 20 97 21 91 22
REMARK SMILES IDX 90 23 46 25 78 26 58 27 77 28 59 29 62 30 76 31 95 32 60 33
REMARK SMILES IDX 61 34 75 36 96 37 63 38 47 39 48 40 56 41 49 42 50 43 54 44
REMARK SMILES IDX 57 45 51 46 52 47 55 48 53 49 79 50 80 51 88 52 81 53 82 54
REMARK SMILES IDX 86 55 89 56 83 57 84 58 87 59 85 60 64 61 65 62 73 63 66 64
REMARK SMILES IDX 67 65 71 66 74 67 68 68 69 69 72 70 70 71 7 72 8 73 9 74
REMARK SMILES IDX 10 75 11 76 12 77 13 78 37 79 14 80 28 81 27 82 29 83 36 84
REMARK SMILES IDX 30 85 31 86 35 87 32 88 34 89 33 90 15 91 16 92 19 93 17 94
REMARK SMILES IDX 18 95 20 96 21 97 26 98 22 99 25 100 23 101 24 102
REMARK H PARENT 94 24 62 35
REMARK Flexibility Score: inf
ROOT
ATOM      1  O   UNL A   1      39.180  33.780  35.659  1.00  0.00    -0.374 OA
ENDROOT
BRANCH   1   2
ATOM      2  C   UNL A   1      39.964  32.703  35.139  1.00  0.00     0.202 C 
BRANCH   2   3
ATOM      3  C   UNL A   1      40.055  32.496  33.625  1.00  0.00     0.261 C 
BRANCH   3   4
ATOM      4  O   UNL A   1      40.010  33.734  32.888  1.00  0.00    -0.460 OA
BRANCH   4   5
ATOM      5  C   UNL A   1      39.866  33.785  31.545  1.00  0.00     0.338 C 
ATOM      6  O   UNL A   1      39.236  34.687  31.003  1.00  0.00    -0.246 OA
BRANCH   5   7
ATOM      7  C   UNL A   1      40.734  32.887  30.742  1.00  0.00     0.060 A 
ATOM      8  C   UNL A   1      40.322  31.654  30.228  1.00  0.00     0.016 A 
ATOM      9  C   UNL A   1      42.081  33.252  30.673  1.00  0.00     0.016 A 
ATOM     10  C   UNL A   1      41.236  30.655  30.055  1.00  0.00     0.010 A 
ATOM     11  C   UNL A   1      43.014  32.283  30.394  1.00  0.00     0.010 A 
ATOM     12  C   UNL A   1      42.568  30.971  30.252  1.00  0.00    -0.014 A 
BRANCH  12  13
ATOM     13  C   UNL A   1      43.505  29.876  30.273  1.00  0.00     0.031 A 
ATOM     14  C   UNL A   1      43.978  29.528  31.639  1.00  0.00     0.074 A 
ATOM     15  C   UNL A   1      43.759  29.259  29.103  1.00  0.00     0.049 A 
ATOM     16  N   UNL A   1      45.186  29.337  32.058  1.00  0.00    -0.248 NA
ATOM     17  C   UNL A   1      42.971  29.551  32.722  1.00  0.00     0.031 C 
ATOM     18  C   UNL A   1      43.159  29.523  27.785  1.00  0.00     0.029 A 
ATOM     19  N   UNL A   1      44.506  28.151  28.875  1.00  0.00    -0.354 N 
ATOM     20  C   UNL A   1      45.067  29.015  33.408  1.00  0.00     0.074 A 
ATOM     21  C   UNL A   1      43.718  29.318  33.799  1.00  0.00     0.031 C 
ATOM     22  C   UNL A   1      43.345  28.450  26.986  1.00  0.00     0.029 A 
ATOM     23  C   UNL A   1      44.187  27.503  27.683  1.00  0.00     0.049 A 
ATOM     24  H   UNL A   1      45.205  27.835  29.491  1.00  0.00     0.167 HD
ATOM     25  C   UNL A   1      46.009  28.270  34.044  1.00  0.00     0.037 A 
ATOM     26  C   UNL A   1      44.484  26.205  27.431  1.00  0.00     0.037 A 
ATOM     27  C   UNL A   1      47.289  28.386  33.407  1.00  0.00     0.049 A 
ATOM     28  C   UNL A   1      45.586  25.844  28.371  1.00  0.00     0.074 A 
ATOM     29  C   UNL A   1      48.165  29.437  33.220  1.00  0.00     0.029 A 
ATOM     30  N   UNL A   1      47.659  27.425  32.500  1.00  0.00    -0.354 N 
ATOM     31  N   UNL A   1      46.769  26.402  28.333  1.00  0.00    -0.248 NA
ATOM     32  C   UNL A   1      45.199  25.273  29.656  1.00  0.00     0.031 C 
ATOM     33  C   UNL A   1      48.668  29.263  31.898  1.00  0.00     0.029 A 
ATOM     34  C   UNL A   1      48.134  28.079  31.389  1.00  0.00     0.049 A 
ATOM     35  H   UNL A   1      47.595  26.450  32.621  1.00  0.00     0.167 HD
ATOM     36  C   UNL A   1      47.113  26.601  29.665  1.00  0.00     0.074 A 
ATOM     37  C   UNL A   1      46.115  25.859  30.434  1.00  0.00     0.031 C 
ATOM     38  C   UNL A   1      47.986  27.581  30.041  1.00  0.00     0.037 A 
BRANCH  25  39
ATOM     39  C   UNL A   1      45.653  27.169  35.005  1.00  0.00     0.064 A 
ATOM     40  C   UNL A   1      44.968  25.994  34.617  1.00  0.00     0.173 A 
ATOM     41  C   UNL A   1      46.251  27.133  36.276  1.00  0.00     0.173 A 
ATOM     42  F   UNL A   1      44.450  25.842  33.392  1.00  0.00    -0.203 F 
ATOM     43  C   UNL A   1      44.886  24.872  35.435  1.00  0.00     0.198 A 
ATOM     44  C   UNL A   1      46.213  25.985  37.073  1.00  0.00     0.198 A 
ATOM     45  F   UNL A   1      46.953  28.183  36.728  1.00  0.00    -0.203 F 
ATOM     46  F   UNL A   1      44.242  23.782  34.995  1.00  0.00    -0.200 F 
ATOM     47  C   UNL A   1      45.533  24.856  36.650  1.00  0.00     0.200 A 
ATOM     48  F   UNL A   1      46.892  25.954  38.228  1.00  0.00    -0.200 F 
ATOM     49  F   UNL A   1      45.542  23.738  37.387  1.00  0.00    -0.200 F 
ENDBRANCH  25  39
BRANCH  26  50
ATOM     50  C   UNL A   1      43.562  25.205  26.832  1.00  0.00     0.064 A 
ATOM     51  C   UNL A   1      42.489  24.653  27.563  1.00  0.00     0.173 A 
ATOM     52  C   UNL A   1      43.873  24.576  25.618  1.00  0.00     0.173 A 
ATOM     53  F   UNL A   1      42.164  25.120  28.778  1.00  0.00    -0.203 F 
ATOM     54  C   UNL A   1      41.776  23.542  27.112  1.00  0.00     0.198 A 
ATOM     55  C   UNL A   1      43.163  23.456  25.168  1.00  0.00     0.198 A 
ATOM     56  F   UNL A   1      44.912  25.006  24.887  1.00  0.00    -0.203 F 
ATOM     57  F   UNL A   1      40.796  23.027  27.868  1.00  0.00    -0.200 F 
ATOM     58  C   UNL A   1      42.121  22.935  25.920  1.00  0.00     0.200 A 
ATOM     59  F   UNL A   1      43.523  22.848  24.030  1.00  0.00    -0.200 F 
ATOM     60  F   UNL A   1      41.479  21.829  25.519  1.00  0.00    -0.200 F 
ENDBRANCH  26  50
BRANCH  38  61
ATOM     61  C   UNL A   1      48.677  28.371  28.963  1.00  0.00     0.064 A 
ATOM     62  C   UNL A   1      49.981  28.015  28.605  1.00  0.00     0.173 A 
ATOM     63  C   UNL A   1      48.179  29.583  28.451  1.00  0.00     0.173 A 
ATOM     64  F   UNL A   1      50.533  26.902  29.113  1.00  0.00    -0.203 F 
ATOM     65  C   UNL A   1      50.757  28.835  27.789  1.00  0.00     0.198 A 
ATOM     66  C   UNL A   1      48.945  30.389  27.607  1.00  0.00     0.198 A 
ATOM     67  F   UNL A   1      46.981  30.046  28.826  1.00  0.00    -0.203 F 
ATOM     68  F   UNL A   1      52.029  28.501  27.528  1.00  0.00    -0.200 F 
ATOM     69  C   UNL A   1      50.239  30.018  27.288  1.00  0.00     0.200 A 
ATOM     70  F   UNL A   1      48.448  31.548  27.148  1.00  0.00    -0.200 F 
ATOM     71  F   UNL A   1      51.000  30.820  26.529  1.00  0.00    -0.200 F 
ENDBRANCH  38  61
ENDBRANCH  12  13
ENDBRANCH   5   7
ENDBRANCH   4   5
ENDBRANCH   3   4
ENDBRANCH   2   3
ENDBRANCH   1   2
BRANCH   1  72
ATOM     72  C   UNL A   1      37.807  33.512  35.996  1.00  0.00     0.202 C 
BRANCH  72  73
ATOM     73  C   UNL A   1      36.716  33.603  34.918  1.00  0.00     0.261 C 
BRANCH  73  74
ATOM     74  O   UNL A   1      36.541  32.367  34.216  1.00  0.00    -0.459 OA
BRANCH  74  75
ATOM     75  C   UNL A   1      35.550  32.387  33.283  1.00  0.00     0.357 C 
ATOM     76  O   UNL A   1      34.614  33.153  33.230  1.00  0.00    -0.244 OA
BRANCH  75  77
ATOM     77  C   UNL A   1      35.915  31.412  32.215  1.00  0.00     0.149 A 
ATOM     78  C   UNL A   1      35.650  31.715  30.912  1.00  0.00     0.041 A 
ATOM     79  N   UNL A   1      36.600  30.317  32.585  1.00  0.00    -0.241 NA
ATOM     80  C   UNL A   1      36.342  31.014  29.900  1.00  0.00    -0.021 A 
ATOM     81  C   UNL A   1      37.154  29.553  31.638  1.00  0.00     0.072 A 
ATOM     82  C   UNL A   1      37.176  29.865  30.247  1.00  0.00     0.012 A 
ATOM     83  C   UNL A   1      37.811  28.452  32.145  1.00  0.00     0.029 A 
ATOM     84  C   UNL A   1      38.100  29.047  29.431  1.00  0.00    -0.009 A 
ATOM     85  C   UNL A   1      38.606  27.641  31.353  1.00  0.00     0.011 A 
ATOM     86  C   UNL A   1      38.797  27.951  30.017  1.00  0.00    -0.018 A 
ATOM     87  C   UNL A   1      38.437  29.270  28.078  1.00  0.00     0.009 A 
ATOM     88  C   UNL A   1      39.722  27.176  29.292  1.00  0.00     0.009 A 
ATOM     89  C   UNL A   1      39.370  28.515  27.359  1.00  0.00     0.001 A 
ATOM     90  C   UNL A   1      40.017  27.462  27.968  1.00  0.00     0.001 A 
BRANCH  80  91
ATOM     91  C   UNL A   1      36.289  31.809  28.618  1.00  0.00     0.115 C 
ATOM     92  C   UNL A   1      36.559  33.259  28.592  1.00  0.00     0.123 C 
ATOM     93  C   UNL A   1      35.018  31.783  27.821  1.00  0.00     0.083 C 
ATOM     94  N   UNL A   1      35.752  33.892  27.801  1.00  0.00    -0.162 NA
ATOM     95  N   UNL A   1      34.770  32.954  27.305  1.00  0.00    -0.154 NA
BRANCH  93  96
ATOM     96  C   UNL A   1      34.243  30.549  27.517  1.00  0.00    -0.001 A 
ATOM     97  C   UNL A   1      32.852  30.652  27.430  1.00  0.00     0.013 A 
ATOM     98  C   UNL A   1      34.839  29.300  27.282  1.00  0.00     0.013 A 
ATOM     99  C   UNL A   1      32.086  29.543  27.053  1.00  0.00     0.040 A 
ATOM    100  C   UNL A   1      34.080  28.200  26.876  1.00  0.00     0.040 A 
ATOM    101  C   UNL A   1      32.707  28.333  26.760  1.00  0.00     0.123 A 
ATOM    102  F   UNL A   1      31.974  27.284  26.373  1.00  0.00    -0.207 F 
ENDBRANCH  93  96
ENDBRANCH  80  91
ENDBRANCH  75  77
ENDBRANCH  74  75
ENDBRANCH  73  74
ENDBRANCH  72  73
ENDBRANCH   1  72
TORSDOF 16
ENDMDL
