MODEL 1
REMARK VINA RESULT:     -11.4      0.000      0.000
REMARK SMILES COc1ccc(/C=C/c2ncc(C(=O)OCCOCCOC(=O)c3ccc(-c4c5nc(c(-c6c(F)c(F)c(F)c(F)c6F)c6ccc([nH]6)c(-c6c(F)c(F)c(F)c(F)c6F)c6nc(c(-c7c(F)c(F)c(F)c(F)c7F)c7ccc4[nH]7)C=C6)C=C5)cc3)s2)cc1O
REMARK SMILES IDX 17 1 16 2 15 3 13 4 14 5 12 6 9 7 10 8 87 9 11 10 8 11 7 12
REMARK SMILES IDX 6 13 3 14 4 15 89 16 5 17 88 18 2 19 1 20 90 21 18 23 19 24
REMARK SMILES IDX 20 25 21 26 22 27 23 28 24 29 25 30 86 31 26 32 85 33 27 34
REMARK SMILES IDX 28 35 29 36 79 37 30 38 84 39 78 40 80 41 31 42 83 43 77 44
REMARK SMILES IDX 76 45 32 47 64 48 44 49 63 50 45 51 48 52 62 53 81 54 46 55
REMARK SMILES IDX 47 56 61 58 82 59 49 60 33 61 34 62 42 63 35 64 36 65 40 66
REMARK SMILES IDX 43 67 37 68 38 69 41 70 39 71 65 72 66 73 74 74 67 75 68 76
REMARK SMILES IDX 72 77 75 78 69 79 70 80 73 81 71 82 50 83 51 84 59 85 52 86
REMARK SMILES IDX 53 87 57 88 60 89 54 90 55 91 58 92 56 93
REMARK H PARENT 90 22 80 46 48 57
REMARK Flexibility Score: inf
ROOT
ATOM      1  C   UNL A   1      45.595  20.224  24.651  1.00  0.00     0.202 C 
ENDROOT
BRANCH   1   2
ATOM      2  C   UNL A   1      45.197  18.842  25.178  1.00  0.00     0.261 C 
BRANCH   2   3
ATOM      3  O   UNL A   1      43.794  18.617  24.952  1.00  0.00    -0.459 OA
BRANCH   3   4
ATOM      4  C   UNL A   1      43.019  18.581  26.074  1.00  0.00     0.350 C 
ATOM      5  O   UNL A   1      43.048  17.683  26.909  1.00  0.00    -0.245 OA
BRANCH   4   6
ATOM      6  C   UNL A   1      42.244  19.792  26.170  1.00  0.00     0.132 A 
ATOM      7  C   UNL A   1      40.419  21.414  26.262  1.00  0.00     0.116 A 
ATOM      8  N   UNL A   1      41.573  22.008  26.507  1.00  0.00    -0.244 NA
ATOM      9  S   UNL A   1      40.550  19.717  25.956  1.00  0.00    -0.107 S 
ATOM     10  C   UNL A   1      42.607  21.086  26.477  1.00  0.00     0.139 A 
BRANCH   7  11
ATOM     11  C   UNL A   1      39.124  22.001  26.204  1.00  0.00     0.040 C 
ATOM     12  C   UNL A   1      38.173  21.523  25.386  1.00  0.00     0.011 C 
BRANCH  12  13
ATOM     13  C   UNL A   1      36.782  22.007  25.390  1.00  0.00    -0.022 A 
ATOM     14  C   UNL A   1      34.058  22.802  25.446  1.00  0.00     0.160 A 
ATOM     15  C   UNL A   1      35.065  23.641  25.934  1.00  0.00     0.051 A 
ATOM     16  C   UNL A   1      34.433  21.563  24.923  1.00  0.00     0.158 A 
ATOM     17  C   UNL A   1      36.411  23.254  25.905  1.00  0.00     0.012 A 
ATOM     18  C   UNL A   1      35.778  21.180  24.871  1.00  0.00     0.058 A 
BRANCH  14  19
ATOM     19  O   UNL A   1      32.805  23.326  25.585  1.00  0.00    -0.493 OA
ATOM     20  C   UNL A   1      32.209  23.353  26.872  1.00  0.00     0.278 C 
ENDBRANCH  14  19
BRANCH  16  21
ATOM     21  O   UNL A   1      33.540  20.621  24.495  1.00  0.00    -0.504 OA
ATOM     22  H   UNL A   1      33.848  19.804  24.156  1.00  0.00     0.293 HD
ENDBRANCH  16  21
ENDBRANCH  12  13
ENDBRANCH   7  11
ENDBRANCH   4   6
ENDBRANCH   3   4
ENDBRANCH   2   3
ENDBRANCH   1   2
BRANCH   1  23
ATOM     23  O   UNL A   1      45.976  21.145  25.675  1.00  0.00    -0.374 OA
BRANCH  23  24
ATOM     24  C   UNL A   1      46.097  22.515  25.277  1.00  0.00     0.202 C 
BRANCH  24  25
ATOM     25  C   UNL A   1      44.983  23.005  24.346  1.00  0.00     0.261 C 
BRANCH  25  26
ATOM     26  O   UNL A   1      44.109  23.917  25.037  1.00  0.00    -0.460 OA
BRANCH  26  27
ATOM     27  C   UNL A   1      44.593  25.170  25.196  1.00  0.00     0.338 C 
ATOM     28  O   UNL A   1      45.481  25.708  24.555  1.00  0.00    -0.246 OA
BRANCH  27  29
ATOM     29  C   UNL A   1      43.766  25.905  26.176  1.00  0.00     0.060 A 
ATOM     30  C   UNL A   1      44.079  27.252  26.397  1.00  0.00     0.016 A 
ATOM     31  C   UNL A   1      42.739  25.290  26.897  1.00  0.00     0.016 A 
ATOM     32  C   UNL A   1      43.401  27.976  27.375  1.00  0.00     0.010 A 
ATOM     33  C   UNL A   1      42.063  26.016  27.884  1.00  0.00     0.010 A 
ATOM     34  C   UNL A   1      42.414  27.351  28.150  1.00  0.00    -0.014 A 
BRANCH  34  35
ATOM     35  C   UNL A   1      41.857  28.059  29.329  1.00  0.00     0.031 A 
ATOM     36  C   UNL A   1      42.564  27.941  30.650  1.00  0.00     0.074 A 
ATOM     37  C   UNL A   1      40.761  28.828  29.216  1.00  0.00     0.049 A 
ATOM     38  N   UNL A   1      42.254  28.464  31.808  1.00  0.00    -0.248 NA
ATOM     39  C   UNL A   1      43.789  27.126  30.666  1.00  0.00     0.031 C 
ATOM     40  C   UNL A   1      40.010  29.054  27.982  1.00  0.00     0.029 A 
ATOM     41  N   UNL A   1      40.087  29.562  30.160  1.00  0.00    -0.354 N 
ATOM     42  C   UNL A   1      43.243  28.046  32.688  1.00  0.00     0.074 A 
ATOM     43  C   UNL A   1      44.146  27.199  31.940  1.00  0.00     0.031 C 
ATOM     44  C   UNL A   1      38.973  29.867  28.247  1.00  0.00     0.029 A 
ATOM     45  C   UNL A   1      38.973  30.196  29.672  1.00  0.00     0.049 A 
ATOM     46  H   UNL A   1      40.376  29.626  31.100  1.00  0.00     0.167 HD
ATOM     47  C   UNL A   1      43.390  28.349  34.000  1.00  0.00     0.037 A 
ATOM     48  C   UNL A   1      38.052  30.944  30.308  1.00  0.00     0.037 A 
ATOM     49  C   UNL A   1      42.491  29.187  34.748  1.00  0.00     0.049 A 
ATOM     50  C   UNL A   1      38.197  31.203  31.785  1.00  0.00     0.074 A 
ATOM     51  C   UNL A   1      42.562  29.558  36.079  1.00  0.00     0.029 A 
ATOM     52  N   UNL A   1      41.351  29.780  34.227  1.00  0.00    -0.354 N 
ATOM     53  N   UNL A   1      39.146  30.821  32.604  1.00  0.00    -0.248 NA
ATOM     54  C   UNL A   1      37.139  31.999  32.426  1.00  0.00     0.031 C 
ATOM     55  C   UNL A   1      41.442  30.343  36.374  1.00  0.00     0.029 A 
ATOM     56  C   UNL A   1      40.698  30.497  35.216  1.00  0.00     0.049 A 
ATOM     57  H   UNL A   1      41.051  29.704  33.293  1.00  0.00     0.167 HD
ATOM     58  C   UNL A   1      38.817  31.351  33.845  1.00  0.00     0.074 A 
ATOM     59  C   UNL A   1      37.586  32.091  33.671  1.00  0.00     0.031 C 
ATOM     60  C   UNL A   1      39.478  31.236  35.023  1.00  0.00     0.037 A 
BRANCH  47  61
ATOM     61  C   UNL A   1      44.566  27.754  34.717  1.00  0.00     0.064 A 
ATOM     62  C   UNL A   1      44.491  26.495  35.328  1.00  0.00     0.173 A 
ATOM     63  C   UNL A   1      45.789  28.437  34.763  1.00  0.00     0.173 A 
ATOM     64  F   UNL A   1      43.336  25.810  35.324  1.00  0.00    -0.203 F 
ATOM     65  C   UNL A   1      45.594  25.949  35.980  1.00  0.00     0.198 A 
ATOM     66  C   UNL A   1      46.897  27.878  35.394  1.00  0.00     0.198 A 
ATOM     67  F   UNL A   1      45.913  29.645  34.191  1.00  0.00    -0.203 F 
ATOM     68  F   UNL A   1      45.488  24.762  36.591  1.00  0.00    -0.200 F 
ATOM     69  C   UNL A   1      46.797  26.638  36.006  1.00  0.00     0.200 A 
ATOM     70  F   UNL A   1      48.062  28.540  35.412  1.00  0.00    -0.200 F 
ATOM     71  F   UNL A   1      47.860  26.109  36.629  1.00  0.00    -0.200 F 
ENDBRANCH  47  61
BRANCH  48  72
ATOM     72  C   UNL A   1      36.897  31.501  29.556  1.00  0.00     0.064 A 
ATOM     73  C   UNL A   1      35.857  30.674  29.114  1.00  0.00     0.173 A 
ATOM     74  C   UNL A   1      36.825  32.867  29.245  1.00  0.00     0.173 A 
ATOM     75  F   UNL A   1      35.897  29.357  29.364  1.00  0.00    -0.203 F 
ATOM     76  C   UNL A   1      34.795  31.189  28.373  1.00  0.00     0.198 A 
ATOM     77  C   UNL A   1      35.750  33.385  28.526  1.00  0.00     0.198 A 
ATOM     78  F   UNL A   1      37.799  33.699  29.643  1.00  0.00    -0.203 F 
ATOM     79  F   UNL A   1      33.836  30.369  27.922  1.00  0.00    -0.200 F 
ATOM     80  C   UNL A   1      34.740  32.544  28.084  1.00  0.00     0.200 A 
ATOM     81  F   UNL A   1      35.697  34.696  28.256  1.00  0.00    -0.200 F 
ATOM     82  F   UNL A   1      33.718  33.038  27.370  1.00  0.00    -0.200 F 
ENDBRANCH  48  72
BRANCH  60  83
ATOM     83  C   UNL A   1      38.902  31.953  36.209  1.00  0.00     0.064 A 
ATOM     84  C   UNL A   1      38.062  31.303  37.125  1.00  0.00     0.173 A 
ATOM     85  C   UNL A   1      39.229  33.296  36.453  1.00  0.00     0.173 A 
ATOM     86  F   UNL A   1      37.709  30.024  36.925  1.00  0.00    -0.203 F 
ATOM     87  C   UNL A   1      37.554  31.977  38.232  1.00  0.00     0.198 A 
ATOM     88  C   UNL A   1      38.739  33.959  37.576  1.00  0.00     0.198 A 
ATOM     89  F   UNL A   1      40.034  33.961  35.610  1.00  0.00    -0.203 F 
ATOM     90  F   UNL A   1      36.720  31.348  39.072  1.00  0.00    -0.200 F 
ATOM     91  C   UNL A   1      37.898  33.302  38.459  1.00  0.00     0.200 A 
ATOM     92  F   UNL A   1      39.081  35.235  37.800  1.00  0.00    -0.200 F 
ATOM     93  F   UNL A   1      37.412  33.947  39.529  1.00  0.00    -0.200 F 
ENDBRANCH  60  83
ENDBRANCH  34  35
ENDBRANCH  27  29
ENDBRANCH  26  27
ENDBRANCH  25  26
ENDBRANCH  24  25
ENDBRANCH  23  24
ENDBRANCH   1  23
TORSDOF 18
ENDMDL
MODEL 2
REMARK VINA RESULT:     -11.1      3.308      5.986
REMARK SMILES COc1ccc(/C=C/c2ncc(C(=O)OCCOCCOC(=O)c3ccc(-c4c5nc(c(-c6c(F)c(F)c(F)c(F)c6F)c6ccc([nH]6)c(-c6c(F)c(F)c(F)c(F)c6F)c6nc(c(-c7c(F)c(F)c(F)c(F)c7F)c7ccc4[nH]7)C=C6)C=C5)cc3)s2)cc1O
REMARK SMILES IDX 17 1 16 2 15 3 13 4 14 5 12 6 9 7 10 8 87 9 11 10 8 11 7 12
REMARK SMILES IDX 6 13 3 14 4 15 89 16 5 17 88 18 2 19 1 20 90 21 18 23 19 24
REMARK SMILES IDX 20 25 21 26 22 27 23 28 24 29 25 30 86 31 26 32 85 33 27 34
REMARK SMILES IDX 28 35 29 36 79 37 30 38 84 39 78 40 80 41 31 42 83 43 77 44
REMARK SMILES IDX 76 45 32 47 64 48 44 49 63 50 45 51 48 52 62 53 81 54 46 55
REMARK SMILES IDX 47 56 61 58 82 59 49 60 33 61 34 62 42 63 35 64 36 65 40 66
REMARK SMILES IDX 43 67 37 68 38 69 41 70 39 71 65 72 66 73 74 74 67 75 68 76
REMARK SMILES IDX 72 77 75 78 69 79 70 80 73 81 71 82 50 83 51 84 59 85 52 86
REMARK SMILES IDX 53 87 57 88 60 89 54 90 55 91 58 92 56 93
REMARK H PARENT 90 22 80 46 48 57
REMARK Flexibility Score: inf
ROOT
ATOM      1  C   UNL A   1      43.507  18.884  25.385  1.00  0.00     0.202 C 
ENDROOT
BRANCH   1   2
ATOM      2  C   UNL A   1      44.405  19.209  24.189  1.00  0.00     0.261 C 
BRANCH   2   3
ATOM      3  O   UNL A   1      44.601  20.631  24.095  1.00  0.00    -0.459 OA
BRANCH   3   4
ATOM      4  C   UNL A   1      45.636  21.129  24.831  1.00  0.00     0.350 C 
ATOM      5  O   UNL A   1      46.777  20.679  24.817  1.00  0.00    -0.245 OA
BRANCH   4   6
ATOM      6  C   UNL A   1      45.208  22.309  25.538  1.00  0.00     0.132 A 
ATOM      7  C   UNL A   1      44.973  24.593  26.374  1.00  0.00     0.116 A 
ATOM      8  N   UNL A   1      44.012  23.828  26.856  1.00  0.00    -0.244 NA
ATOM      9  S   UNL A   1      46.076  23.768  25.329  1.00  0.00    -0.107 S 
ATOM     10  C   UNL A   1      44.130  22.537  26.366  1.00  0.00     0.139 A 
BRANCH   7  11
ATOM     11  C   UNL A   1      45.206  25.974  26.625  1.00  0.00     0.040 C 
ATOM     12  C   UNL A   1      44.450  26.929  26.059  1.00  0.00     0.011 C 
BRANCH  12  13
ATOM     13  C   UNL A   1      44.564  28.358  26.394  1.00  0.00    -0.022 A 
ATOM     14  C   UNL A   1      44.863  31.133  26.912  1.00  0.00     0.160 A 
ATOM     15  C   UNL A   1      43.640  30.487  27.119  1.00  0.00     0.051 A 
ATOM     16  C   UNL A   1      45.936  30.370  26.449  1.00  0.00     0.158 A 
ATOM     17  C   UNL A   1      43.489  29.118  26.869  1.00  0.00     0.012 A 
ATOM     18  C   UNL A   1      45.798  28.997  26.218  1.00  0.00     0.058 A 
BRANCH  14  19
ATOM     19  O   UNL A   1      44.818  32.472  27.174  1.00  0.00    -0.493 OA
ATOM     20  C   UNL A   1      43.970  32.942  28.210  1.00  0.00     0.278 C 
ENDBRANCH  14  19
BRANCH  16  21
ATOM     21  O   UNL A   1      47.155  30.897  26.127  1.00  0.00    -0.504 OA
ATOM     22  H   UNL A   1      47.437  31.701  26.517  1.00  0.00     0.293 HD
ENDBRANCH  16  21
ENDBRANCH  12  13
ENDBRANCH   7  11
ENDBRANCH   4   6
ENDBRANCH   3   4
ENDBRANCH   2   3
ENDBRANCH   1   2
BRANCH   1  23
ATOM     23  O   UNL A   1      42.221  19.505  25.329  1.00  0.00    -0.374 OA
BRANCH  23  24
ATOM     24  C   UNL A   1      41.670  19.927  26.580  1.00  0.00     0.202 C 
BRANCH  24  25
ATOM     25  C   UNL A   1      40.341  20.682  26.466  1.00  0.00     0.261 C 
BRANCH  25  26
ATOM     26  O   UNL A   1      40.570  22.101  26.379  1.00  0.00    -0.460 OA
BRANCH  26  27
ATOM     27  C   UNL A   1      39.472  22.846  26.114  1.00  0.00     0.338 C 
ATOM     28  O   UNL A   1      38.475  22.503  25.499  1.00  0.00    -0.246 OA
BRANCH  27  29
ATOM     29  C   UNL A   1      39.555  24.133  26.835  1.00  0.00     0.060 A 
ATOM     30  C   UNL A   1      40.322  25.147  26.248  1.00  0.00     0.016 A 
ATOM     31  C   UNL A   1      38.941  24.337  28.074  1.00  0.00     0.016 A 
ATOM     32  C   UNL A   1      40.519  26.352  26.920  1.00  0.00     0.010 A 
ATOM     33  C   UNL A   1      39.145  25.544  28.751  1.00  0.00     0.010 A 
ATOM     34  C   UNL A   1      39.962  26.543  28.192  1.00  0.00    -0.014 A 
BRANCH  34  35
ATOM     35  C   UNL A   1      40.358  27.730  28.990  1.00  0.00     0.031 A 
ATOM     36  C   UNL A   1      41.747  27.794  29.559  1.00  0.00     0.074 A 
ATOM     37  C   UNL A   1      39.505  28.753  29.171  1.00  0.00     0.049 A 
ATOM     38  N   UNL A   1      42.304  28.727  30.290  1.00  0.00    -0.248 NA
ATOM     39  C   UNL A   1      42.630  26.656  29.261  1.00  0.00     0.031 C 
ATOM     40  C   UNL A   1      38.147  28.826  28.637  1.00  0.00     0.029 A 
ATOM     41  N   UNL A   1      39.661  29.930  29.861  1.00  0.00    -0.354 N 
ATOM     42  C   UNL A   1      43.598  28.290  30.536  1.00  0.00     0.074 A 
ATOM     43  C   UNL A   1      43.737  26.996  29.905  1.00  0.00     0.031 C 
ATOM     44  C   UNL A   1      37.589  29.986  29.025  1.00  0.00     0.029 A 
ATOM     45  C   UNL A   1      38.541  30.723  29.855  1.00  0.00     0.049 A 
ATOM     46  H   UNL A   1      40.498  30.181  30.316  1.00  0.00     0.167 HD
ATOM     47  C   UNL A   1      44.586  28.918  31.217  1.00  0.00     0.037 A 
ATOM     48  C   UNL A   1      38.310  31.901  30.464  1.00  0.00     0.037 A 
ATOM     49  C   UNL A   1      44.450  30.203  31.849  1.00  0.00     0.049 A 
ATOM     50  C   UNL A   1      39.401  32.541  31.281  1.00  0.00     0.074 A 
ATOM     51  C   UNL A   1      45.398  30.924  32.556  1.00  0.00     0.029 A 
ATOM     52  N   UNL A   1      43.287  30.958  31.855  1.00  0.00    -0.354 N 
ATOM     53  N   UNL A   1      40.629  32.133  31.490  1.00  0.00    -0.248 NA
ATOM     54  C   UNL A   1      39.073  33.811  31.947  1.00  0.00     0.031 C 
ATOM     55  C   UNL A   1      44.795  32.097  33.024  1.00  0.00     0.029 A 
ATOM     56  C   UNL A   1      43.486  32.127  32.571  1.00  0.00     0.049 A 
ATOM     57  H   UNL A   1      42.445  30.702  31.414  1.00  0.00     0.167 HD
ATOM     58  C   UNL A   1      41.226  33.102  32.285  1.00  0.00     0.074 A 
ATOM     59  C   UNL A   1      40.229  34.127  32.513  1.00  0.00     0.031 C 
ATOM     60  C   UNL A   1      42.487  33.142  32.780  1.00  0.00     0.037 A 
BRANCH  47  61
ATOM     61  C   UNL A   1      45.904  28.210  31.327  1.00  0.00     0.064 A 
ATOM     62  C   UNL A   1      46.163  27.300  32.362  1.00  0.00     0.173 A 
ATOM     63  C   UNL A   1      46.906  28.421  30.370  1.00  0.00     0.173 A 
ATOM     64  F   UNL A   1      45.240  27.077  33.311  1.00  0.00    -0.203 F 
ATOM     65  C   UNL A   1      47.386  26.640  32.445  1.00  0.00     0.198 A 
ATOM     66  C   UNL A   1      48.119  27.743  30.442  1.00  0.00     0.198 A 
ATOM     67  F   UNL A   1      46.707  29.282  29.359  1.00  0.00    -0.203 F 
ATOM     68  F   UNL A   1      47.626  25.804  33.464  1.00  0.00    -0.200 F 
ATOM     69  C   UNL A   1      48.360  26.857  31.482  1.00  0.00     0.200 A 
ATOM     70  F   UNL A   1      49.057  27.946  29.506  1.00  0.00    -0.200 F 
ATOM     71  F   UNL A   1      49.536  26.217  31.560  1.00  0.00    -0.200 F 
ENDBRANCH  47  61
BRANCH  48  72
ATOM     72  C   UNL A   1      36.983  32.557  30.335  1.00  0.00     0.064 A 
ATOM     73  C   UNL A   1      36.681  33.366  29.231  1.00  0.00     0.173 A 
ATOM     74  C   UNL A   1      36.000  32.407  31.324  1.00  0.00     0.173 A 
ATOM     75  F   UNL A   1      37.599  33.560  28.273  1.00  0.00    -0.203 F 
ATOM     76  C   UNL A   1      35.451  34.014  29.130  1.00  0.00     0.198 A 
ATOM     77  C   UNL A   1      34.762  33.036  31.210  1.00  0.00     0.198 A 
ATOM     78  F   UNL A   1      36.242  31.647  32.402  1.00  0.00    -0.203 F 
ATOM     79  F   UNL A   1      35.205  34.818  28.087  1.00  0.00    -0.200 F 
ATOM     80  C   UNL A   1      34.492  33.845  30.117  1.00  0.00     0.200 A 
ATOM     81  F   UNL A   1      33.835  32.864  32.161  1.00  0.00    -0.200 F 
ATOM     82  F   UNL A   1      33.310  34.470  30.019  1.00  0.00    -0.200 F 
ENDBRANCH  48  72
BRANCH  60  83
ATOM     83  C   UNL A   1      42.873  34.345  33.589  1.00  0.00     0.064 A 
ATOM     84  C   UNL A   1      42.616  34.419  34.966  1.00  0.00     0.173 A 
ATOM     85  C   UNL A   1      43.546  35.418  32.986  1.00  0.00     0.173 A 
ATOM     86  F   UNL A   1      41.962  33.425  35.583  1.00  0.00    -0.203 F 
ATOM     87  C   UNL A   1      43.001  35.534  35.705  1.00  0.00     0.198 A 
ATOM     88  C   UNL A   1      43.952  36.521  33.734  1.00  0.00     0.198 A 
ATOM     89  F   UNL A   1      43.821  35.393  31.673  1.00  0.00    -0.203 F 
ATOM     90  F   UNL A   1      42.707  35.603  37.011  1.00  0.00    -0.200 F 
ATOM     91  C   UNL A   1      43.673  36.581  35.090  1.00  0.00     0.200 A 
ATOM     92  F   UNL A   1      44.612  37.525  33.141  1.00  0.00    -0.200 F 
ATOM     93  F   UNL A   1      44.047  37.650  35.805  1.00  0.00    -0.200 F 
ENDBRANCH  60  83
ENDBRANCH  34  35
ENDBRANCH  27  29
ENDBRANCH  26  27
ENDBRANCH  25  26
ENDBRANCH  24  25
ENDBRANCH  23  24
ENDBRANCH   1  23
TORSDOF 18
ENDMDL
MODEL 3
REMARK VINA RESULT:     -11.0      4.542      9.447
REMARK SMILES COc1ccc(/C=C/c2ncc(C(=O)OCCOCCOC(=O)c3ccc(-c4c5nc(c(-c6c(F)c(F)c(F)c(F)c6F)c6ccc([nH]6)c(-c6c(F)c(F)c(F)c(F)c6F)c6nc(c(-c7c(F)c(F)c(F)c(F)c7F)c7ccc4[nH]7)C=C6)C=C5)cc3)s2)cc1O
REMARK SMILES IDX 17 1 16 2 15 3 13 4 14 5 12 6 9 7 10 8 87 9 11 10 8 11 7 12
REMARK SMILES IDX 6 13 3 14 4 15 89 16 5 17 88 18 2 19 1 20 90 21 18 23 19 24
REMARK SMILES IDX 20 25 21 26 22 27 23 28 24 29 25 30 86 31 26 32 85 33 27 34
REMARK SMILES IDX 28 35 29 36 79 37 30 38 84 39 78 40 80 41 31 42 83 43 77 44
REMARK SMILES IDX 76 45 32 47 64 48 44 49 63 50 45 51 48 52 62 53 81 54 46 55
REMARK SMILES IDX 47 56 61 58 82 59 49 60 33 61 34 62 42 63 35 64 36 65 40 66
REMARK SMILES IDX 43 67 37 68 38 69 41 70 39 71 65 72 66 73 74 74 67 75 68 76
REMARK SMILES IDX 72 77 75 78 69 79 70 80 73 81 71 82 50 83 51 84 59 85 52 86
REMARK SMILES IDX 53 87 57 88 60 89 54 90 55 91 58 92 56 93
REMARK H PARENT 90 22 80 46 48 57
REMARK Flexibility Score: inf
ROOT
ATOM      1  C   UNL A   1      31.703  30.073  25.616  1.00  0.00     0.202 C 
ENDROOT
BRANCH   1   2
ATOM      2  C   UNL A   1      31.399  28.662  25.107  1.00  0.00     0.261 C 
BRANCH   2   3
ATOM      3  O   UNL A   1      31.959  28.482  23.795  1.00  0.00    -0.459 OA
BRANCH   3   4
ATOM      4  C   UNL A   1      31.256  27.659  22.965  1.00  0.00     0.350 C 
ATOM      5  O   UNL A   1      30.152  27.922  22.499  1.00  0.00    -0.245 OA
BRANCH   4   6
ATOM      6  C   UNL A   1      32.045  26.496  22.648  1.00  0.00     0.132 A 
ATOM      7  C   UNL A   1      32.878  24.210  22.427  1.00  0.00     0.116 A 
ATOM      8  N   UNL A   1      33.653  25.046  21.761  1.00  0.00    -0.244 NA
ATOM      9  S   UNL A   1      31.549  24.968  23.232  1.00  0.00    -0.107 S 
ATOM     10  C   UNL A   1      33.170  26.341  21.867  1.00  0.00     0.139 A 
BRANCH   7  11
ATOM     11  C   UNL A   1      33.022  22.801  22.566  1.00  0.00     0.040 C 
ATOM     12  C   UNL A   1      32.716  22.174  23.714  1.00  0.00     0.011 C 
BRANCH  12  13
ATOM     13  C   UNL A   1      32.717  20.709  23.863  1.00  0.00    -0.022 A 
ATOM     14  C   UNL A   1      32.765  17.875  24.004  1.00  0.00     0.160 A 
ATOM     15  C   UNL A   1      33.272  18.659  25.045  1.00  0.00     0.051 A 
ATOM     16  C   UNL A   1      32.227  18.528  22.894  1.00  0.00     0.158 A 
ATOM     17  C   UNL A   1      33.247  20.057  24.981  1.00  0.00     0.012 A 
ATOM     18  C   UNL A   1      32.179  19.925  22.834  1.00  0.00     0.058 A 
BRANCH  14  19
ATOM     19  O   UNL A   1      32.902  16.534  24.221  1.00  0.00    -0.493 OA
ATOM     20  C   UNL A   1      32.536  16.000  25.484  1.00  0.00     0.278 C 
ENDBRANCH  14  19
BRANCH  16  21
ATOM     21  O   UNL A   1      31.778  17.880  21.778  1.00  0.00    -0.504 OA
ATOM     22  H   UNL A   1      30.965  18.129  21.386  1.00  0.00     0.293 HD
ENDBRANCH  16  21
ENDBRANCH  12  13
ENDBRANCH   7  11
ENDBRANCH   4   6
ENDBRANCH   3   4
ENDBRANCH   2   3
ENDBRANCH   1   2
BRANCH   1  23
ATOM     23  O   UNL A   1      32.269  30.106  26.928  1.00  0.00    -0.374 OA
BRANCH  23  24
ATOM     24  C   UNL A   1      33.060  31.255  27.245  1.00  0.00     0.202 C 
BRANCH  24  25
ATOM     25  C   UNL A   1      32.271  32.566  27.328  1.00  0.00     0.261 C 
BRANCH  25  26
ATOM     26  O   UNL A   1      33.156  33.698  27.237  1.00  0.00    -0.460 OA
BRANCH  26  27
ATOM     27  C   UNL A   1      33.279  34.425  28.371  1.00  0.00     0.338 C 
ATOM     28  O   UNL A   1      32.527  35.294  28.779  1.00  0.00    -0.246 OA
BRANCH  27  29
ATOM     29  C   UNL A   1      34.398  33.900  29.181  1.00  0.00     0.060 A 
ATOM     30  C   UNL A   1      35.695  34.126  28.705  1.00  0.00     0.016 A 
ATOM     31  C   UNL A   1      34.192  33.167  30.354  1.00  0.00     0.016 A 
ATOM     32  C   UNL A   1      36.789  33.577  29.370  1.00  0.00     0.010 A 
ATOM     33  C   UNL A   1      35.291  32.611  31.017  1.00  0.00     0.010 A 
ATOM     34  C   UNL A   1      36.591  32.785  30.510  1.00  0.00    -0.014 A 
BRANCH  34  35
ATOM     35  C   UNL A   1      37.732  32.028  31.078  1.00  0.00     0.031 A 
ATOM     36  C   UNL A   1      38.185  32.334  32.478  1.00  0.00     0.074 A 
ATOM     37  C   UNL A   1      38.332  31.053  30.373  1.00  0.00     0.049 A 
ATOM     38  N   UNL A   1      39.161  31.804  33.171  1.00  0.00    -0.248 NA
ATOM     39  C   UNL A   1      37.433  33.375  33.196  1.00  0.00     0.031 C 
ATOM     40  C   UNL A   1      37.960  30.636  29.022  1.00  0.00     0.029 A 
ATOM     41  N   UNL A   1      39.387  30.238  30.699  1.00  0.00    -0.354 N 
ATOM     42  C   UNL A   1      39.138  32.443  34.403  1.00  0.00     0.074 A 
ATOM     43  C   UNL A   1      38.074  33.422  34.354  1.00  0.00     0.031 C 
ATOM     44  C   UNL A   1      38.780  29.646  28.632  1.00  0.00     0.029 A 
ATOM     45  C   UNL A   1      39.749  29.377  29.693  1.00  0.00     0.049 A 
ATOM     46  H   UNL A   1      39.841  30.267  31.573  1.00  0.00     0.167 HD
ATOM     47  C   UNL A   1      39.927  32.226  35.483  1.00  0.00     0.037 A 
ATOM     48  C   UNL A   1      40.757  28.487  29.634  1.00  0.00     0.037 A 
ATOM     49  C   UNL A   1      40.989  31.255  35.533  1.00  0.00     0.049 A 
ATOM     50  C   UNL A   1      41.669  28.319  30.822  1.00  0.00     0.074 A 
ATOM     51  C   UNL A   1      41.837  30.957  36.585  1.00  0.00     0.029 A 
ATOM     52  N   UNL A   1      41.350  30.430  34.480  1.00  0.00    -0.354 N 
ATOM     53  N   UNL A   1      41.627  28.912  31.990  1.00  0.00    -0.248 NA
ATOM     54  C   UNL A   1      42.771  27.355  30.680  1.00  0.00     0.031 C 
ATOM     55  C   UNL A   1      42.739  29.977  36.154  1.00  0.00     0.029 A 
ATOM     56  C   UNL A   1      42.423  29.636  34.849  1.00  0.00     0.049 A 
ATOM     57  H   UNL A   1      40.909  30.409  33.600  1.00  0.00     0.167 HD
ATOM     58  C   UNL A   1      42.674  28.376  32.729  1.00  0.00     0.074 A 
ATOM     59  C   UNL A   1      43.327  27.401  31.882  1.00  0.00     0.031 C 
ATOM     60  C   UNL A   1      43.057  28.663  33.997  1.00  0.00     0.037 A 
BRANCH  47  61
ATOM     61  C   UNL A   1      39.679  33.067  36.699  1.00  0.00     0.064 A 
ATOM     62  C   UNL A   1      40.390  34.254  36.926  1.00  0.00     0.173 A 
ATOM     63  C   UNL A   1      38.696  32.700  37.629  1.00  0.00     0.173 A 
ATOM     64  F   UNL A   1      41.351  34.639  36.071  1.00  0.00    -0.203 F 
ATOM     65  C   UNL A   1      40.141  35.033  38.052  1.00  0.00     0.198 A 
ATOM     66  C   UNL A   1      38.433  33.493  38.742  1.00  0.00     0.198 A 
ATOM     67  F   UNL A   1      37.987  31.575  37.456  1.00  0.00    -0.203 F 
ATOM     68  F   UNL A   1      40.860  36.143  38.270  1.00  0.00    -0.200 F 
ATOM     69  C   UNL A   1      39.158  34.656  38.956  1.00  0.00     0.200 A 
ATOM     70  F   UNL A   1      37.477  33.133  39.610  1.00  0.00    -0.200 F 
ATOM     71  F   UNL A   1      38.916  35.410  40.037  1.00  0.00    -0.200 F 
ENDBRANCH  47  61
BRANCH  48  72
ATOM     72  C   UNL A   1      40.969  27.684  28.402  1.00  0.00     0.064 A 
ATOM     73  C   UNL A   1      40.339  26.445  28.229  1.00  0.00     0.173 A 
ATOM     74  C   UNL A   1      41.826  28.130  27.385  1.00  0.00     0.173 A 
ATOM     75  F   UNL A   1      39.532  25.966  29.187  1.00  0.00    -0.203 F 
ATOM     76  C   UNL A   1      40.570  25.673  27.092  1.00  0.00     0.198 A 
ATOM     77  C   UNL A   1      42.038  27.369  26.238  1.00  0.00     0.198 A 
ATOM     78  F   UNL A   1      42.457  29.307  27.506  1.00  0.00    -0.203 F 
ATOM     79  F   UNL A   1      39.990  24.471  26.972  1.00  0.00    -0.200 F 
ATOM     80  C   UNL A   1      41.416  26.138  26.096  1.00  0.00     0.200 A 
ATOM     81  F   UNL A   1      42.848  27.824  25.274  1.00  0.00    -0.200 F 
ATOM     82  F   UNL A   1      41.638  25.394  25.003  1.00  0.00    -0.200 F 
ENDBRANCH  48  72
BRANCH  60  83
ATOM     83  C   UNL A   1      44.216  27.893  34.559  1.00  0.00     0.064 A 
ATOM     84  C   UNL A   1      44.027  26.713  35.294  1.00  0.00     0.173 A 
ATOM     85  C   UNL A   1      45.531  28.318  34.321  1.00  0.00     0.173 A 
ATOM     86  F   UNL A   1      42.788  26.275  35.559  1.00  0.00    -0.203 F 
ATOM     87  C   UNL A   1      45.115  25.999  35.789  1.00  0.00     0.198 A 
ATOM     88  C   UNL A   1      46.617  27.587  34.797  1.00  0.00     0.198 A 
ATOM     89  F   UNL A   1      45.765  29.437  33.618  1.00  0.00    -0.203 F 
ATOM     90  F   UNL A   1      44.911  24.898  36.525  1.00  0.00    -0.200 F 
ATOM     91  C   UNL A   1      46.408  26.433  35.535  1.00  0.00     0.200 A 
ATOM     92  F   UNL A   1      47.866  28.001  34.540  1.00  0.00    -0.200 F 
ATOM     93  F   UNL A   1      47.453  25.741  36.008  1.00  0.00    -0.200 F 
ENDBRANCH  60  83
ENDBRANCH  34  35
ENDBRANCH  27  29
ENDBRANCH  26  27
ENDBRANCH  25  26
ENDBRANCH  24  25
ENDBRANCH  23  24
ENDBRANCH   1  23
TORSDOF 18
ENDMDL
