MODEL 1
REMARK VINA RESULT:     -11.7      0.000      0.000
REMARK SMILES CC1(C)COCCN1C(=O)N1CCO[C@@H](CC(=O)OCCOCCOC(=O)c2ccc(-c3c4nc(c(-c5c(F)c(F)c(F)c(F)c5F)c5ccc([nH]5)c(-c5c(F)c(F)c(F)c(F)c5F)c5nc(c(-c6c(F)c(F)c(F)c(F)c6F)c6ccc3[nH]6)C=C5)C=C4)cc2)C1
REMARK SMILES IDX 21 1 20 2 19 3 17 4 18 5 16 6 15 7 11 8 12 9 91 10 13 11
REMARK SMILES IDX 14 12 9 13 10 14 8 15 1 16 2 17 3 18 4 19 5 20 7 21 6 22
REMARK SMILES IDX 22 23 23 24 24 25 25 26 26 27 27 28 28 29 29 30 90 31 30 32
REMARK SMILES IDX 89 33 31 34 32 35 33 36 83 37 34 38 88 39 82 40 84 41 35 42
REMARK SMILES IDX 87 43 81 44 80 45 36 47 68 48 48 49 67 50 49 51 52 52 66 53
REMARK SMILES IDX 85 54 50 55 51 56 65 58 86 59 53 60 37 61 38 62 46 63 39 64
REMARK SMILES IDX 40 65 44 66 47 67 41 68 42 69 45 70 43 71 69 72 70 73 78 74
REMARK SMILES IDX 71 75 72 76 76 77 79 78 73 79 74 80 77 81 75 82 54 83 55 84
REMARK SMILES IDX 63 85 56 86 57 87 61 88 64 89 58 90 59 91 62 92 60 93
REMARK H PARENT 84 46 52 57
REMARK Flexibility Score: inf
ROOT
ATOM      1  C   UNL A   1      40.051  20.515  25.938  1.00  0.00     0.202 C 
ENDROOT
BRANCH   1   2
ATOM      2  C   UNL A   1      39.065  21.671  25.756  1.00  0.00     0.261 C 
BRANCH   2   3
ATOM      3  O   UNL A   1      37.749  21.182  25.434  1.00  0.00    -0.463 OA
BRANCH   3   4
ATOM      4  C   UNL A   1      36.741  22.070  25.619  1.00  0.00     0.308 C 
ATOM      5  O   UNL A   1      36.885  23.200  26.071  1.00  0.00    -0.252 OA
BRANCH   4   6
ATOM      6  C   UNL A   1      35.419  21.568  25.104  1.00  0.00     0.156 C 
BRANCH   6   7
ATOM      7  C   UNL A   1      34.356  21.174  26.133  1.00  0.00     0.149 C 
ATOM      8  N   UNL A   1      32.438  22.759  25.804  1.00  0.00    -0.320 N 
ATOM      9  C   UNL A   1      31.654  21.661  25.247  1.00  0.00     0.150 C 
ATOM     10  C   UNL A   1      33.464  22.281  26.727  1.00  0.00     0.154 C 
ATOM     11  C   UNL A   1      32.549  20.581  24.646  1.00  0.00     0.182 C 
ATOM     12  O   UNL A   1      33.531  20.110  25.589  1.00  0.00    -0.374 OA
BRANCH   8  13
ATOM     13  C   UNL A   1      31.697  23.832  26.256  1.00  0.00     0.320 C 
ATOM     14  O   UNL A   1      30.982  23.701  27.251  1.00  0.00    -0.248 OA
BRANCH  13  15
ATOM     15  N   UNL A   1      31.855  25.043  25.593  1.00  0.00    -0.315 N 
ATOM     16  C   UNL A   1      31.147  26.901  24.033  1.00  0.00     0.037 C 
ATOM     17  C   UNL A   1      31.515  25.397  24.170  1.00  0.00     0.062 C 
ATOM     18  C   UNL A   1      30.303  24.667  23.578  1.00  0.00     0.037 C 
ATOM     19  C   UNL A   1      32.809  25.133  23.356  1.00  0.00     0.188 C 
ATOM     20  O   UNL A   1      33.911  25.929  23.849  1.00  0.00    -0.377 OA
ATOM     21  C   UNL A   1      32.941  25.875  26.127  1.00  0.00     0.150 C 
ATOM     22  C   UNL A   1      34.183  25.679  25.242  1.00  0.00     0.182 C 
ENDBRANCH  13  15
ENDBRANCH   8  13
ENDBRANCH   6   7
ENDBRANCH   4   6
ENDBRANCH   3   4
ENDBRANCH   2   3
ENDBRANCH   1   2
BRANCH   1  23
ATOM     23  O   UNL A   1      41.218  20.794  26.707  1.00  0.00    -0.374 OA
BRANCH  23  24
ATOM     24  C   UNL A   1      42.491  20.525  26.126  1.00  0.00     0.202 C 
BRANCH  24  25
ATOM     25  C   UNL A   1      43.386  21.729  25.790  1.00  0.00     0.261 C 
BRANCH  25  26
ATOM     26  O   UNL A   1      42.747  22.752  24.999  1.00  0.00    -0.460 OA
BRANCH  26  27
ATOM     27  C   UNL A   1      43.379  23.951  25.025  1.00  0.00     0.338 C 
ATOM     28  O   UNL A   1      44.442  24.238  24.492  1.00  0.00    -0.246 OA
BRANCH  27  29
ATOM     29  C   UNL A   1      42.587  24.981  25.720  1.00  0.00     0.060 A 
ATOM     30  C   UNL A   1      43.144  26.260  25.842  1.00  0.00     0.016 A 
ATOM     31  C   UNL A   1      41.450  24.631  26.453  1.00  0.00     0.016 A 
ATOM     32  C   UNL A   1      42.611  27.172  26.755  1.00  0.00     0.010 A 
ATOM     33  C   UNL A   1      40.921  25.545  27.374  1.00  0.00     0.010 A 
ATOM     34  C   UNL A   1      41.533  26.798  27.568  1.00  0.00    -0.014 A 
BRANCH  34  35
ATOM     35  C   UNL A   1      41.181  27.638  28.743  1.00  0.00     0.031 A 
ATOM     36  C   UNL A   1      42.005  27.525  30.000  1.00  0.00     0.074 A 
ATOM     37  C   UNL A   1      40.169  28.521  28.689  1.00  0.00     0.049 A 
ATOM     38  N   UNL A   1      41.866  28.144  31.147  1.00  0.00    -0.248 NA
ATOM     39  C   UNL A   1      43.143  26.592  29.956  1.00  0.00     0.031 C 
ATOM     40  C   UNL A   1      39.320  28.762  27.527  1.00  0.00     0.029 A 
ATOM     41  N   UNL A   1      39.685  29.378  29.647  1.00  0.00    -0.354 N 
ATOM     42  C   UNL A   1      42.890  27.672  31.958  1.00  0.00     0.074 A 
ATOM     43  C   UNL A   1      43.631  26.701  31.183  1.00  0.00     0.031 C 
ATOM     44  C   UNL A   1      38.408  29.698  27.841  1.00  0.00     0.029 A 
ATOM     45  C   UNL A   1      38.595  30.102  29.234  1.00  0.00     0.049 A 
ATOM     46  H   UNL A   1      40.083  29.465  30.543  1.00  0.00     0.167 HD
ATOM     47  C   UNL A   1      43.192  28.022  33.232  1.00  0.00     0.037 A 
ATOM     48  C   UNL A   1      37.823  30.974  29.912  1.00  0.00     0.037 A 
ATOM     49  C   UNL A   1      42.467  28.992  34.009  1.00  0.00     0.049 A 
ATOM     50  C   UNL A   1      38.139  31.297  31.350  1.00  0.00     0.074 A 
ATOM     51  C   UNL A   1      42.717  29.427  35.299  1.00  0.00     0.029 A 
ATOM     52  N   UNL A   1      41.345  29.675  33.567  1.00  0.00    -0.354 N 
ATOM     53  N   UNL A   1      39.120  30.861  32.101  1.00  0.00    -0.248 NA
ATOM     54  C   UNL A   1      37.233  32.235  32.032  1.00  0.00     0.031 C 
ATOM     55  C   UNL A   1      41.722  30.345  35.653  1.00  0.00     0.029 A 
ATOM     56  C   UNL A   1      40.877  30.511  34.568  1.00  0.00     0.049 A 
ATOM     57  H   UNL A   1      40.942  29.581  32.674  1.00  0.00     0.167 HD
ATOM     58  C   UNL A   1      38.965  31.485  33.333  1.00  0.00     0.074 A 
ATOM     59  C   UNL A   1      37.800  32.339  33.227  1.00  0.00     0.031 C 
ATOM     60  C   UNL A   1      39.721  31.360  34.450  1.00  0.00     0.037 A 
BRANCH  47  61
ATOM     61  C   UNL A   1      44.356  27.334  33.879  1.00  0.00     0.064 A 
ATOM     62  C   UNL A   1      44.204  26.118  34.561  1.00  0.00     0.173 A 
ATOM     63  C   UNL A   1      45.645  27.877  33.780  1.00  0.00     0.173 A 
ATOM     64  F   UNL A   1      42.988  25.567  34.692  1.00  0.00    -0.203 F 
ATOM     65  C   UNL A   1      45.299  25.478  35.135  1.00  0.00     0.198 A 
ATOM     66  C   UNL A   1      46.742  27.224  34.336  1.00  0.00     0.198 A 
ATOM     67  F   UNL A   1      45.844  29.035  33.134  1.00  0.00    -0.203 F 
ATOM     68  F   UNL A   1      45.126  24.334  35.811  1.00  0.00    -0.200 F 
ATOM     69  C   UNL A   1      46.568  26.029  35.018  1.00  0.00     0.200 A 
ATOM     70  F   UNL A   1      47.968  27.752  34.214  1.00  0.00    -0.200 F 
ATOM     71  F   UNL A   1      47.622  25.408  35.565  1.00  0.00    -0.200 F 
ENDBRANCH  47  61
BRANCH  48  72
ATOM     72  C   UNL A   1      36.658  31.602  29.241  1.00  0.00     0.064 A 
ATOM     73  C   UNL A   1      36.647  32.971  28.940  1.00  0.00     0.173 A 
ATOM     74  C   UNL A   1      35.525  30.848  28.904  1.00  0.00     0.173 A 
ATOM     75  F   UNL A   1      37.697  33.737  29.271  1.00  0.00    -0.203 F 
ATOM     76  C   UNL A   1      35.541  33.564  28.336  1.00  0.00     0.198 A 
ATOM     77  C   UNL A   1      34.429  31.438  28.278  1.00  0.00     0.198 A 
ATOM     78  F   UNL A   1      35.486  29.537  29.178  1.00  0.00    -0.203 F 
ATOM     79  F   UNL A   1      35.539  34.882  28.094  1.00  0.00    -0.200 F 
ATOM     80  C   UNL A   1      34.435  32.796  28.001  1.00  0.00     0.200 A 
ATOM     81  F   UNL A   1      33.366  30.691  27.950  1.00  0.00    -0.200 F 
ATOM     82  F   UNL A   1      33.372  33.368  27.418  1.00  0.00    -0.200 F 
ENDBRANCH  48  72
BRANCH  60  83
ATOM     83  C   UNL A   1      39.334  32.185  35.641  1.00  0.00     0.064 A 
ATOM     84  C   UNL A   1      39.822  33.488  35.821  1.00  0.00     0.173 A 
ATOM     85  C   UNL A   1      38.430  31.684  36.590  1.00  0.00     0.173 A 
ATOM     86  F   UNL A   1      40.699  34.005  34.948  1.00  0.00    -0.203 F 
ATOM     87  C   UNL A   1      39.434  34.252  36.918  1.00  0.00     0.198 A 
ATOM     88  C   UNL A   1      38.026  32.459  37.674  1.00  0.00     0.198 A 
ATOM     89  F   UNL A   1      37.931  30.446  36.461  1.00  0.00    -0.203 F 
ATOM     90  F   UNL A   1      39.940  35.481  37.090  1.00  0.00    -0.200 F 
ATOM     91  C   UNL A   1      38.532  33.741  37.840  1.00  0.00     0.200 A 
ATOM     92  F   UNL A   1      37.148  31.967  38.559  1.00  0.00    -0.200 F 
ATOM     93  F   UNL A   1      38.155  34.479  38.892  1.00  0.00    -0.200 F 
ENDBRANCH  60  83
ENDBRANCH  34  35
ENDBRANCH  27  29
ENDBRANCH  26  27
ENDBRANCH  25  26
ENDBRANCH  24  25
ENDBRANCH  23  24
ENDBRANCH   1  23
TORSDOF 17
ENDMDL
MODEL 2
REMARK VINA RESULT:     -11.4      3.077      8.698
REMARK SMILES CC1(C)COCCN1C(=O)N1CCO[C@@H](CC(=O)OCCOCCOC(=O)c2ccc(-c3c4nc(c(-c5c(F)c(F)c(F)c(F)c5F)c5ccc([nH]5)c(-c5c(F)c(F)c(F)c(F)c5F)c5nc(c(-c6c(F)c(F)c(F)c(F)c6F)c6ccc3[nH]6)C=C5)C=C4)cc2)C1
REMARK SMILES IDX 21 1 20 2 19 3 17 4 18 5 16 6 15 7 11 8 12 9 91 10 13 11
REMARK SMILES IDX 14 12 9 13 10 14 8 15 1 16 2 17 3 18 4 19 5 20 7 21 6 22
REMARK SMILES IDX 22 23 23 24 24 25 25 26 26 27 27 28 28 29 29 30 90 31 30 32
REMARK SMILES IDX 89 33 31 34 32 35 33 36 83 37 34 38 88 39 82 40 84 41 35 42
REMARK SMILES IDX 87 43 81 44 80 45 36 47 68 48 48 49 67 50 49 51 52 52 66 53
REMARK SMILES IDX 85 54 50 55 51 56 65 58 86 59 53 60 37 61 38 62 46 63 39 64
REMARK SMILES IDX 40 65 44 66 47 67 41 68 42 69 45 70 43 71 69 72 70 73 78 74
REMARK SMILES IDX 71 75 72 76 76 77 79 78 73 79 74 80 77 81 75 82 54 83 55 84
REMARK SMILES IDX 63 85 56 86 57 87 61 88 64 89 58 90 59 91 62 92 60 93
REMARK H PARENT 84 46 52 57
REMARK Flexibility Score: inf
ROOT
ATOM      1  C   UNL A   1      32.996  29.826  26.361  1.00  0.00     0.202 C 
ENDROOT
BRANCH   1   2
ATOM      2  C   UNL A   1      32.530  28.855  25.274  1.00  0.00     0.261 C 
BRANCH   2   3
ATOM      3  O   UNL A   1      33.625  28.472  24.421  1.00  0.00    -0.463 OA
BRANCH   3   4
ATOM      4  C   UNL A   1      33.401  28.619  23.092  1.00  0.00     0.308 C 
ATOM      5  O   UNL A   1      34.246  28.445  22.221  1.00  0.00    -0.252 OA
BRANCH   4   6
ATOM      6  C   UNL A   1      31.960  28.912  22.772  1.00  0.00     0.156 C 
BRANCH   6   7
ATOM      7  C   UNL A   1      31.148  27.819  22.072  1.00  0.00     0.149 C 
ATOM      8  N   UNL A   1      30.949  25.931  23.713  1.00  0.00    -0.320 N 
ATOM      9  C   UNL A   1      29.532  26.246  23.871  1.00  0.00     0.150 C 
ATOM     10  C   UNL A   1      31.456  26.347  22.408  1.00  0.00     0.154 C 
ATOM     11  C   UNL A   1      29.245  27.712  23.553  1.00  0.00     0.182 C 
ATOM     12  O   UNL A   1      29.732  28.083  22.248  1.00  0.00    -0.374 OA
BRANCH   8  13
ATOM     13  C   UNL A   1      31.307  24.656  24.102  1.00  0.00     0.320 C 
ATOM     14  O   UNL A   1      30.691  23.688  23.654  1.00  0.00    -0.248 OA
BRANCH  13  15
ATOM     15  N   UNL A   1      32.410  24.529  24.939  1.00  0.00    -0.315 N 
ATOM     16  C   UNL A   1      34.881  24.417  25.457  1.00  0.00     0.037 C 
ATOM     17  C   UNL A   1      33.683  23.756  24.719  1.00  0.00     0.062 C 
ATOM     18  C   UNL A   1      34.156  23.660  23.262  1.00  0.00     0.037 C 
ATOM     19  C   UNL A   1      33.433  22.359  25.344  1.00  0.00     0.188 C 
ATOM     20  O   UNL A   1      33.115  22.462  26.751  1.00  0.00    -0.377 OA
ATOM     21  C   UNL A   1      32.095  24.686  26.364  1.00  0.00     0.150 C 
ATOM     22  C   UNL A   1      31.957  23.287  26.988  1.00  0.00     0.182 C 
ENDBRANCH  13  15
ENDBRANCH   8  13
ENDBRANCH   6   7
ENDBRANCH   4   6
ENDBRANCH   3   4
ENDBRANCH   2   3
ENDBRANCH   1   2
BRANCH   1  23
ATOM     23  O   UNL A   1      31.973  30.521  27.070  1.00  0.00    -0.374 OA
BRANCH  23  24
ATOM     24  C   UNL A   1      31.417  31.692  26.480  1.00  0.00     0.202 C 
BRANCH  24  25
ATOM     25  C   UNL A   1      32.014  33.047  26.892  1.00  0.00     0.261 C 
BRANCH  25  26
ATOM     26  O   UNL A   1      32.776  33.022  28.118  1.00  0.00    -0.460 OA
BRANCH  26  27
ATOM     27  C   UNL A   1      33.886  33.798  28.098  1.00  0.00     0.338 C 
ATOM     28  O   UNL A   1      33.933  35.021  28.078  1.00  0.00    -0.246 OA
BRANCH  27  29
ATOM     29  C   UNL A   1      35.122  33.002  28.200  1.00  0.00     0.060 A 
ATOM     30  C   UNL A   1      34.995  31.631  28.455  1.00  0.00     0.016 A 
ATOM     31  C   UNL A   1      36.367  33.628  28.301  1.00  0.00     0.016 A 
ATOM     32  C   UNL A   1      36.099  30.893  28.886  1.00  0.00     0.010 A 
ATOM     33  C   UNL A   1      37.472  32.887  28.739  1.00  0.00     0.010 A 
ATOM     34  C   UNL A   1      37.330  31.531  29.087  1.00  0.00    -0.014 A 
BRANCH  34  35
ATOM     35  C   UNL A   1      38.401  30.827  29.840  1.00  0.00     0.031 A 
ATOM     36  C   UNL A   1      38.606  31.149  31.298  1.00  0.00     0.074 A 
ATOM     37  C   UNL A   1      39.158  29.883  29.255  1.00  0.00     0.049 A 
ATOM     38  N   UNL A   1      39.490  30.674  32.141  1.00  0.00    -0.248 NA
ATOM     39  C   UNL A   1      37.688  32.137  31.886  1.00  0.00     0.031 C 
ATOM     40  C   UNL A   1      39.038  29.445  27.868  1.00  0.00     0.029 A 
ATOM     41  N   UNL A   1      40.186  29.126  29.763  1.00  0.00    -0.354 N 
ATOM     42  C   UNL A   1      39.239  31.307  33.351  1.00  0.00     0.074 A 
ATOM     43  C   UNL A   1      38.134  32.216  33.132  1.00  0.00     0.031 C 
ATOM     44  C   UNL A   1      39.966  28.501  27.630  1.00  0.00     0.029 A 
ATOM     45  C   UNL A   1      40.759  28.289  28.840  1.00  0.00     0.049 A 
ATOM     46  H   UNL A   1      40.481  29.179  30.701  1.00  0.00     0.167 HD
ATOM     47  C   UNL A   1      39.865  31.141  34.542  1.00  0.00     0.037 A 
ATOM     48  C   UNL A   1      41.818  27.465  28.953  1.00  0.00     0.037 A 
ATOM     49  C   UNL A   1      40.958  30.235  34.773  1.00  0.00     0.049 A 
ATOM     50  C   UNL A   1      42.542  27.347  30.270  1.00  0.00     0.074 A 
ATOM     51  C   UNL A   1      41.638  29.984  35.952  1.00  0.00     0.029 A 
ATOM     52  N   UNL A   1      41.535  29.433  33.801  1.00  0.00    -0.354 N 
ATOM     53  N   UNL A   1      42.284  27.936  31.412  1.00  0.00    -0.248 NA
ATOM     54  C   UNL A   1      43.707  26.450  30.309  1.00  0.00     0.031 C 
ATOM     55  C   UNL A   1      42.653  29.058  35.685  1.00  0.00     0.029 A 
ATOM     56  C   UNL A   1      42.578  28.704  34.348  1.00  0.00     0.049 A 
ATOM     57  H   UNL A   1      41.245  29.388  32.861  1.00  0.00     0.167 HD
ATOM     58  C   UNL A   1      43.236  27.465  32.308  1.00  0.00     0.074 A 
ATOM     59  C   UNL A   1      44.073  26.533  31.580  1.00  0.00     0.031 C 
ATOM     60  C   UNL A   1      43.400  27.776  33.617  1.00  0.00     0.037 A 
BRANCH  47  61
ATOM     61  C   UNL A   1      39.391  31.976  35.693  1.00  0.00     0.064 A 
ATOM     62  C   UNL A   1      38.431  31.501  36.598  1.00  0.00     0.173 A 
ATOM     63  C   UNL A   1      39.936  33.249  35.918  1.00  0.00     0.173 A 
ATOM     64  F   UNL A   1      37.873  30.294  36.418  1.00  0.00    -0.203 F 
ATOM     65  C   UNL A   1      38.021  32.279  37.678  1.00  0.00     0.198 A 
ATOM     66  C   UNL A   1      39.539  34.015  37.009  1.00  0.00     0.198 A 
ATOM     67  F   UNL A   1      40.861  33.745  35.083  1.00  0.00    -0.203 F 
ATOM     68  F   UNL A   1      37.078  31.819  38.512  1.00  0.00    -0.200 F 
ATOM     69  C   UNL A   1      38.579  33.532  37.886  1.00  0.00     0.200 A 
ATOM     70  F   UNL A   1      40.085  35.222  37.215  1.00  0.00    -0.200 F 
ATOM     71  F   UNL A   1      38.187  34.276  38.929  1.00  0.00    -0.200 F 
ENDBRANCH  47  61
BRANCH  48  72
ATOM     72  C   UNL A   1      42.275  26.686  27.775  1.00  0.00     0.064 A 
ATOM     73  C   UNL A   1      41.779  25.400  27.522  1.00  0.00     0.173 A 
ATOM     74  C   UNL A   1      43.229  27.207  26.890  1.00  0.00     0.173 A 
ATOM     75  F   UNL A   1      40.887  24.850  28.359  1.00  0.00    -0.203 F 
ATOM     76  C   UNL A   1      42.230  24.659  26.431  1.00  0.00     0.198 A 
ATOM     77  C   UNL A   1      43.661  26.474  25.787  1.00  0.00     0.198 A 
ATOM     78  F   UNL A   1      43.738  28.429  27.095  1.00  0.00    -0.203 F 
ATOM     79  F   UNL A   1      41.769  23.416  26.233  1.00  0.00    -0.200 F 
ATOM     80  C   UNL A   1      43.166  25.199  25.562  1.00  0.00     0.200 A 
ATOM     81  F   UNL A   1      44.560  27.001  24.945  1.00  0.00    -0.200 F 
ATOM     82  F   UNL A   1      43.597  24.486  24.512  1.00  0.00    -0.200 F 
ENDBRANCH  48  72
BRANCH  60  83
ATOM     83  C   UNL A   1      44.507  27.087  34.357  1.00  0.00     0.064 A 
ATOM     84  C   UNL A   1      44.316  25.838  34.965  1.00  0.00     0.173 A 
ATOM     85  C   UNL A   1      45.786  27.662  34.421  1.00  0.00     0.173 A 
ATOM     86  F   UNL A   1      43.108  25.255  34.943  1.00  0.00    -0.203 F 
ATOM     87  C   UNL A   1      45.360  25.197  35.627  1.00  0.00     0.198 A 
ATOM     88  C   UNL A   1      46.833  27.008  35.064  1.00  0.00     0.198 A 
ATOM     89  F   UNL A   1      46.021  28.853  33.851  1.00  0.00    -0.203 F 
ATOM     90  F   UNL A   1      45.146  24.021  36.233  1.00  0.00    -0.200 F 
ATOM     91  C   UNL A   1      46.619  25.779  35.670  1.00  0.00     0.200 A 
ATOM     92  F   UNL A   1      48.051  27.567  35.097  1.00  0.00    -0.200 F 
ATOM     93  F   UNL A   1      47.624  25.158  36.303  1.00  0.00    -0.200 F 
ENDBRANCH  60  83
ENDBRANCH  34  35
ENDBRANCH  27  29
ENDBRANCH  26  27
ENDBRANCH  25  26
ENDBRANCH  24  25
ENDBRANCH  23  24
ENDBRANCH   1  23
TORSDOF 17
ENDMDL
MODEL 3
REMARK VINA RESULT:     -11.3      2.938      8.713
REMARK SMILES CC1(C)COCCN1C(=O)N1CCO[C@@H](CC(=O)OCCOCCOC(=O)c2ccc(-c3c4nc(c(-c5c(F)c(F)c(F)c(F)c5F)c5ccc([nH]5)c(-c5c(F)c(F)c(F)c(F)c5F)c5nc(c(-c6c(F)c(F)c(F)c(F)c6F)c6ccc3[nH]6)C=C5)C=C4)cc2)C1
REMARK SMILES IDX 21 1 20 2 19 3 17 4 18 5 16 6 15 7 11 8 12 9 91 10 13 11
REMARK SMILES IDX 14 12 9 13 10 14 8 15 1 16 2 17 3 18 4 19 5 20 7 21 6 22
REMARK SMILES IDX 22 23 23 24 24 25 25 26 26 27 27 28 28 29 29 30 90 31 30 32
REMARK SMILES IDX 89 33 31 34 32 35 33 36 83 37 34 38 88 39 82 40 84 41 35 42
REMARK SMILES IDX 87 43 81 44 80 45 36 47 68 48 48 49 67 50 49 51 52 52 66 53
REMARK SMILES IDX 85 54 50 55 51 56 65 58 86 59 53 60 37 61 38 62 46 63 39 64
REMARK SMILES IDX 40 65 44 66 47 67 41 68 42 69 45 70 43 71 69 72 70 73 78 74
REMARK SMILES IDX 71 75 72 76 76 77 79 78 73 79 74 80 77 81 75 82 54 83 55 84
REMARK SMILES IDX 63 85 56 86 57 87 61 88 64 89 58 90 59 91 62 92 60 93
REMARK H PARENT 84 46 52 57
REMARK Flexibility Score: inf
ROOT
ATOM      1  C   UNL A   1      32.654  29.676  26.722  1.00  0.00     0.202 C 
ENDROOT
BRANCH   1   2
ATOM      2  C   UNL A   1      32.099  28.379  26.129  1.00  0.00     0.261 C 
BRANCH   2   3
ATOM      3  O   UNL A   1      31.224  28.653  25.018  1.00  0.00    -0.463 OA
BRANCH   3   4
ATOM      4  C   UNL A   1      31.050  27.623  24.153  1.00  0.00     0.308 C 
ATOM      5  O   UNL A   1      30.267  26.696  24.325  1.00  0.00    -0.252 OA
BRANCH   4   6
ATOM      6  C   UNL A   1      31.843  27.786  22.884  1.00  0.00     0.156 C 
BRANCH   6   7
ATOM      7  C   UNL A   1      33.197  27.075  22.793  1.00  0.00     0.149 C 
ATOM      8  N   UNL A   1      32.753  24.653  23.270  1.00  0.00    -0.320 N 
ATOM      9  C   UNL A   1      33.012  24.350  21.866  1.00  0.00     0.150 C 
ATOM     10  C   UNL A   1      33.450  25.860  23.704  1.00  0.00     0.154 C 
ATOM     11  C   UNL A   1      32.739  25.557  20.972  1.00  0.00     0.182 C 
ATOM     12  O   UNL A   1      33.463  26.724  21.410  1.00  0.00    -0.374 OA
BRANCH   8  13
ATOM     13  C   UNL A   1      32.858  23.574  24.126  1.00  0.00     0.320 C 
ATOM     14  O   UNL A   1      32.102  22.612  23.985  1.00  0.00    -0.248 OA
BRANCH  13  15
ATOM     15  N   UNL A   1      33.877  23.604  25.071  1.00  0.00    -0.315 N 
ATOM     16  C   UNL A   1      36.281  23.783  25.830  1.00  0.00     0.037 C 
ATOM     17  C   UNL A   1      35.238  22.964  25.017  1.00  0.00     0.062 C 
ATOM     18  C   UNL A   1      35.865  22.855  23.621  1.00  0.00     0.037 C 
ATOM     19  C   UNL A   1      35.072  21.577  25.691  1.00  0.00     0.188 C 
ATOM     20  O   UNL A   1      34.603  21.708  27.053  1.00  0.00    -0.377 OA
ATOM     21  C   UNL A   1      33.405  23.789  26.448  1.00  0.00     0.150 C 
ATOM     22  C   UNL A   1      33.348  22.413  27.132  1.00  0.00     0.182 C 
ENDBRANCH  13  15
ENDBRANCH   8  13
ENDBRANCH   6   7
ENDBRANCH   4   6
ENDBRANCH   3   4
ENDBRANCH   2   3
ENDBRANCH   1   2
BRANCH   1  23
ATOM     23  O   UNL A   1      31.698  30.591  27.251  1.00  0.00    -0.374 OA
BRANCH  23  24
ATOM     24  C   UNL A   1      31.375  31.749  26.487  1.00  0.00     0.202 C 
BRANCH  24  25
ATOM     25  C   UNL A   1      32.038  33.075  26.894  1.00  0.00     0.261 C 
BRANCH  25  26
ATOM     26  O   UNL A   1      32.804  33.015  28.116  1.00  0.00    -0.460 OA
BRANCH  26  27
ATOM     27  C   UNL A   1      33.934  33.764  28.100  1.00  0.00     0.338 C 
ATOM     28  O   UNL A   1      34.012  34.985  28.082  1.00  0.00    -0.246 OA
BRANCH  27  29
ATOM     29  C   UNL A   1      35.149  32.936  28.205  1.00  0.00     0.060 A 
ATOM     30  C   UNL A   1      34.992  31.589  28.554  1.00  0.00     0.016 A 
ATOM     31  C   UNL A   1      36.414  33.527  28.216  1.00  0.00     0.016 A 
ATOM     32  C   UNL A   1      36.090  30.845  28.987  1.00  0.00     0.010 A 
ATOM     33  C   UNL A   1      37.515  32.781  28.657  1.00  0.00     0.010 A 
ATOM     34  C   UNL A   1      37.347  31.455  29.098  1.00  0.00    -0.014 A 
BRANCH  34  35
ATOM     35  C   UNL A   1      38.427  30.766  29.853  1.00  0.00     0.031 A 
ATOM     36  C   UNL A   1      38.637  31.104  31.306  1.00  0.00     0.074 A 
ATOM     37  C   UNL A   1      39.188  29.822  29.273  1.00  0.00     0.049 A 
ATOM     38  N   UNL A   1      39.529  30.643  32.149  1.00  0.00    -0.248 NA
ATOM     39  C   UNL A   1      37.715  32.091  31.890  1.00  0.00     0.031 C 
ATOM     40  C   UNL A   1      39.065  29.369  27.891  1.00  0.00     0.029 A 
ATOM     41  N   UNL A   1      40.224  29.078  29.783  1.00  0.00    -0.354 N 
ATOM     42  C   UNL A   1      39.279  31.287  33.354  1.00  0.00     0.074 A 
ATOM     43  C   UNL A   1      38.167  32.186  33.132  1.00  0.00     0.031 C 
ATOM     44  C   UNL A   1      39.998  28.430  27.657  1.00  0.00     0.029 A 
ATOM     45  C   UNL A   1      40.799  28.236  28.865  1.00  0.00     0.049 A 
ATOM     46  H   UNL A   1      40.524  29.141  30.719  1.00  0.00     0.167 HD
ATOM     47  C   UNL A   1      39.912  31.138  34.543  1.00  0.00     0.037 A 
ATOM     48  C   UNL A   1      41.865  27.420  28.982  1.00  0.00     0.037 A 
ATOM     49  C   UNL A   1      41.013  30.241  34.778  1.00  0.00     0.049 A 
ATOM     50  C   UNL A   1      42.596  27.321  30.296  1.00  0.00     0.074 A 
ATOM     51  C   UNL A   1      41.701  30.007  35.956  1.00  0.00     0.029 A 
ATOM     52  N   UNL A   1      41.591  29.435  33.811  1.00  0.00    -0.354 N 
ATOM     53  N   UNL A   1      42.339  27.919  31.433  1.00  0.00    -0.248 NA
ATOM     54  C   UNL A   1      43.768  26.433  30.337  1.00  0.00     0.031 C 
ATOM     55  C   UNL A   1      42.721  29.087  35.693  1.00  0.00     0.029 A 
ATOM     56  C   UNL A   1      42.642  28.719  34.360  1.00  0.00     0.049 A 
ATOM     57  H   UNL A   1      41.297  29.378  32.873  1.00  0.00     0.167 HD
ATOM     58  C   UNL A   1      43.299  27.464  32.329  1.00  0.00     0.074 A 
ATOM     59  C   UNL A   1      44.139  26.532  31.606  1.00  0.00     0.031 C 
ATOM     60  C   UNL A   1      43.468  27.790  33.633  1.00  0.00     0.037 A 
BRANCH  47  61
ATOM     61  C   UNL A   1      39.438  31.980  35.689  1.00  0.00     0.064 A 
ATOM     62  C   UNL A   1      39.910  33.286  35.883  1.00  0.00     0.173 A 
ATOM     63  C   UNL A   1      38.470  31.491  36.577  1.00  0.00     0.173 A 
ATOM     64  F   UNL A   1      40.845  33.794  35.066  1.00  0.00    -0.203 F 
ATOM     65  C   UNL A   1      39.441  34.067  36.937  1.00  0.00     0.198 A 
ATOM     66  C   UNL A   1      37.988  32.280  37.617  1.00  0.00     0.198 A 
ATOM     67  F   UNL A   1      37.985  30.249  36.430  1.00  0.00    -0.203 F 
ATOM     68  F   UNL A   1      39.930  35.300  37.124  1.00  0.00    -0.200 F 
ATOM     69  C   UNL A   1      38.477  33.565  37.799  1.00  0.00     0.200 A 
ATOM     70  F   UNL A   1      37.050  31.798  38.444  1.00  0.00    -0.200 F 
ATOM     71  F   UNL A   1      38.023  34.319  38.809  1.00  0.00    -0.200 F 
ENDBRANCH  47  61
BRANCH  48  72
ATOM     72  C   UNL A   1      42.321  26.633  27.809  1.00  0.00     0.064 A 
ATOM     73  C   UNL A   1      43.291  27.139  26.932  1.00  0.00     0.173 A 
ATOM     74  C   UNL A   1      41.783  25.369  27.533  1.00  0.00     0.173 A 
ATOM     75  F   UNL A   1      43.812  28.357  27.141  1.00  0.00    -0.203 F 
ATOM     76  C   UNL A   1      43.698  26.411  25.816  1.00  0.00     0.198 A 
ATOM     77  C   UNL A   1      42.208  24.632  26.430  1.00  0.00     0.198 A 
ATOM     78  F   UNL A   1      40.848  24.847  28.338  1.00  0.00    -0.203 F 
ATOM     79  F   UNL A   1      44.598  26.932  24.971  1.00  0.00    -0.200 F 
ATOM     80  C   UNL A   1      43.160  25.156  25.569  1.00  0.00     0.200 A 
ATOM     81  F   UNL A   1      41.691  23.418  26.198  1.00  0.00    -0.200 F 
ATOM     82  F   UNL A   1      43.554  24.456  24.496  1.00  0.00    -0.200 F 
ENDBRANCH  48  72
BRANCH  60  83
ATOM     83  C   UNL A   1      44.584  27.116  34.375  1.00  0.00     0.064 A 
ATOM     84  C   UNL A   1      44.409  25.865  34.984  1.00  0.00     0.173 A 
ATOM     85  C   UNL A   1      45.855  27.708  34.439  1.00  0.00     0.173 A 
ATOM     86  F   UNL A   1      43.209  25.266  34.960  1.00  0.00    -0.203 F 
ATOM     87  C   UNL A   1      45.461  25.239  35.647  1.00  0.00     0.198 A 
ATOM     88  C   UNL A   1      46.910  27.069  35.083  1.00  0.00     0.198 A 
ATOM     89  F   UNL A   1      46.074  28.902  33.869  1.00  0.00    -0.203 F 
ATOM     90  F   UNL A   1      45.263  24.060  36.253  1.00  0.00    -0.200 F 
ATOM     91  C   UNL A   1      46.712  25.837  35.691  1.00  0.00     0.200 A 
ATOM     92  F   UNL A   1      48.120  27.644  35.118  1.00  0.00    -0.200 F 
ATOM     93  F   UNL A   1      47.725  25.231  36.324  1.00  0.00    -0.200 F 
ENDBRANCH  60  83
ENDBRANCH  34  35
ENDBRANCH  27  29
ENDBRANCH  26  27
ENDBRANCH  25  26
ENDBRANCH  24  25
ENDBRANCH  23  24
ENDBRANCH   1  23
TORSDOF 17
ENDMDL
