MODEL 1
REMARK VINA RESULT:     -11.8      0.000      0.000
REMARK SMILES COc1ccc(F)c(Nc2ccc(C(=O)OCCOCCOC(=O)c3ccc(-c4c5nc(c(-c6c(F)c(F)c(F)c(F)c6F)c6ccc([nH]6)c(-c6c(F)c(F)c(F)c(F)c6F)c6nc(c(-c7c(F)c(F)c(F)c(F)c7F)c7ccc4[nH]7)C=C6)C=C5)cc3)cc2)c1
REMARK SMILES IDX 18 1 17 2 16 3 14 4 15 5 13 6 10 7 11 8 89 9 12 10 88 11
REMARK SMILES IDX 9 12 8 14 3 15 4 16 90 17 5 18 6 19 7 20 2 21 1 22 19 23
REMARK SMILES IDX 20 24 21 25 22 26 23 27 24 28 25 29 26 30 87 31 27 32 86 33
REMARK SMILES IDX 28 34 29 35 30 36 80 37 31 38 85 39 79 40 81 41 32 42 84 43
REMARK SMILES IDX 78 44 77 45 33 47 65 48 45 49 64 50 46 51 49 52 63 53 82 54
REMARK SMILES IDX 47 55 48 56 62 58 83 59 50 60 34 61 35 62 43 63 36 64 37 65
REMARK SMILES IDX 41 66 44 67 38 68 39 69 42 70 40 71 66 72 67 73 75 74 68 75
REMARK SMILES IDX 69 76 73 77 76 78 70 79 71 80 74 81 72 82 51 83 52 84 60 85
REMARK SMILES IDX 53 86 54 87 58 88 61 89 55 90 56 91 59 92 57 93
REMARK H PARENT 9 13 81 46 49 57
REMARK Flexibility Score: inf
ROOT
ATOM      1  C   UNL A   1      40.779  20.348  26.436  1.00  0.00     0.202 C 
ENDROOT
BRANCH   1   2
ATOM      2  C   UNL A   1      40.072  21.679  26.701  1.00  0.00     0.261 C 
BRANCH   2   3
ATOM      3  O   UNL A   1      38.999  21.884  25.770  1.00  0.00    -0.460 OA
BRANCH   3   4
ATOM      4  C   UNL A   1      38.197  22.938  26.053  1.00  0.00     0.338 C 
ATOM      5  O   UNL A   1      38.531  23.988  26.584  1.00  0.00    -0.246 OA
BRANCH   4   6
ATOM      6  C   UNL A   1      36.839  22.718  25.508  1.00  0.00     0.060 A 
ATOM      7  C   UNL A   1      34.257  22.053  24.655  1.00  0.00     0.039 A 
ATOM      8  C   UNL A   1      34.485  22.403  25.987  1.00  0.00     0.027 A 
ATOM      9  C   UNL A   1      35.314  22.141  23.735  1.00  0.00     0.027 A 
ATOM     10  C   UNL A   1      35.772  22.723  26.415  1.00  0.00     0.018 A 
ATOM     11  C   UNL A   1      36.603  22.477  24.152  1.00  0.00     0.018 A 
BRANCH   7  12
ATOM     12  N   UNL A   1      33.055  21.412  24.308  1.00  0.00    -0.353 N 
ATOM     13  H   UNL A   1      32.247  21.973  24.262  1.00  0.00     0.167 HD
BRANCH  12  14
ATOM     14  C   UNL A   1      32.897  20.035  24.019  1.00  0.00     0.078 A 
ATOM     15  C   UNL A   1      33.197  17.679  24.585  1.00  0.00     0.121 A 
ATOM     16  C   UNL A   1      32.649  17.299  23.364  1.00  0.00     0.049 A 
ATOM     17  C   UNL A   1      33.301  19.031  24.912  1.00  0.00     0.075 A 
ATOM     18  C   UNL A   1      32.231  18.279  22.462  1.00  0.00     0.045 A 
ATOM     19  C   UNL A   1      32.367  19.628  22.790  1.00  0.00     0.146 A 
ATOM     20  F   UNL A   1      31.951  20.554  21.911  1.00  0.00    -0.205 F 
BRANCH  15  21
ATOM     21  O   UNL A   1      33.594  16.802  25.558  1.00  0.00    -0.497 OA
ATOM     22  C   UNL A   1      34.821  16.141  25.269  1.00  0.00     0.278 C 
ENDBRANCH  15  21
ENDBRANCH  12  14
ENDBRANCH   7  12
ENDBRANCH   4   6
ENDBRANCH   3   4
ENDBRANCH   2   3
ENDBRANCH   1   2
BRANCH   1  23
ATOM     23  O   UNL A   1      41.858  20.386  25.502  1.00  0.00    -0.374 OA
BRANCH  23  24
ATOM     24  C   UNL A   1      43.120  20.856  25.981  1.00  0.00     0.202 C 
BRANCH  24  25
ATOM     25  C   UNL A   1      43.793  21.948  25.144  1.00  0.00     0.261 C 
BRANCH  25  26
ATOM     26  O   UNL A   1      42.977  23.130  25.059  1.00  0.00    -0.460 OA
BRANCH  26  27
ATOM     27  C   UNL A   1      43.649  24.300  25.152  1.00  0.00     0.338 C 
ATOM     28  O   UNL A   1      44.643  24.638  24.525  1.00  0.00    -0.246 OA
BRANCH  27  29
ATOM     29  C   UNL A   1      42.911  25.231  26.022  1.00  0.00     0.060 A 
ATOM     30  C   UNL A   1      43.287  26.582  25.998  1.00  0.00     0.016 A 
ATOM     31  C   UNL A   1      41.926  24.784  26.904  1.00  0.00     0.016 A 
ATOM     32  C   UNL A   1      42.718  27.482  26.896  1.00  0.00     0.010 A 
ATOM     33  C   UNL A   1      41.365  25.685  27.812  1.00  0.00     0.010 A 
ATOM     34  C   UNL A   1      41.787  27.026  27.838  1.00  0.00    -0.014 A 
BRANCH  34  35
ATOM     35  C   UNL A   1      41.382  27.897  28.966  1.00  0.00     0.031 A 
ATOM     36  C   UNL A   1      42.167  27.825  30.245  1.00  0.00     0.074 A 
ATOM     37  C   UNL A   1      40.338  28.736  28.856  1.00  0.00     0.049 A 
ATOM     38  N   UNL A   1      41.927  28.389  31.400  1.00  0.00    -0.248 NA
ATOM     39  C   UNL A   1      43.387  27.000  30.219  1.00  0.00     0.031 C 
ATOM     40  C   UNL A   1      39.544  28.940  27.647  1.00  0.00     0.029 A 
ATOM     41  N   UNL A   1      39.760  29.562  29.786  1.00  0.00    -0.354 N 
ATOM     42  C   UNL A   1      42.954  27.977  32.239  1.00  0.00     0.074 A 
ATOM     43  C   UNL A   1      43.809  27.101  31.470  1.00  0.00     0.031 C 
ATOM     44  C   UNL A   1      38.567  29.824  27.914  1.00  0.00     0.029 A 
ATOM     45  C   UNL A   1      38.644  30.213  29.323  1.00  0.00     0.049 A 
ATOM     46  H   UNL A   1      40.111  29.676  30.699  1.00  0.00     0.167 HD
ATOM     47  C   UNL A   1      43.163  28.306  33.534  1.00  0.00     0.037 A 
ATOM     48  C   UNL A   1      37.769  31.006  29.971  1.00  0.00     0.037 A 
ATOM     49  C   UNL A   1      42.313  29.185  34.291  1.00  0.00     0.049 A 
ATOM     50  C   UNL A   1      37.975  31.295  31.435  1.00  0.00     0.074 A 
ATOM     51  C   UNL A   1      42.442  29.585  35.609  1.00  0.00     0.029 A 
ATOM     52  N   UNL A   1      41.175  29.802  33.793  1.00  0.00    -0.354 N 
ATOM     53  N   UNL A   1      38.939  30.892  32.228  1.00  0.00    -0.248 NA
ATOM     54  C   UNL A   1      36.971  32.141  32.097  1.00  0.00     0.031 C 
ATOM     55  C   UNL A   1      41.357  30.406  35.923  1.00  0.00     0.029 A 
ATOM     56  C   UNL A   1      40.582  30.564  34.785  1.00  0.00     0.049 A 
ATOM     57  H   UNL A   1      40.839  29.711  32.872  1.00  0.00     0.167 HD
ATOM     58  C   UNL A   1      38.677  31.458  33.469  1.00  0.00     0.074 A 
ATOM     59  C   UNL A   1      37.463  32.233  33.327  1.00  0.00     0.031 C 
ATOM     60  C   UNL A   1      39.383  31.347  34.620  1.00  0.00     0.037 A 
BRANCH  47  61
ATOM     61  C   UNL A   1      44.344  27.699  34.229  1.00  0.00     0.064 A 
ATOM     62  C   UNL A   1      45.585  28.353  34.221  1.00  0.00     0.173 A 
ATOM     63  C   UNL A   1      44.268  26.442  34.846  1.00  0.00     0.173 A 
ATOM     64  F   UNL A   1      45.711  29.556  33.640  1.00  0.00    -0.203 F 
ATOM     65  C   UNL A   1      46.709  27.766  34.793  1.00  0.00     0.198 A 
ATOM     66  C   UNL A   1      45.389  25.869  35.441  1.00  0.00     0.198 A 
ATOM     67  F   UNL A   1      43.100  25.783  34.893  1.00  0.00    -0.203 F 
ATOM     68  F   UNL A   1      47.891  28.396  34.745  1.00  0.00    -0.200 F 
ATOM     69  C   UNL A   1      46.610  26.526  35.405  1.00  0.00     0.200 A 
ATOM     70  F   UNL A   1      45.286  24.680  36.053  1.00  0.00    -0.200 F 
ATOM     71  F   UNL A   1      47.691  25.964  35.963  1.00  0.00    -0.200 F 
ENDBRANCH  47  61
BRANCH  48  72
ATOM     72  C   UNL A   1      36.610  31.575  29.235  1.00  0.00     0.064 A 
ATOM     73  C   UNL A   1      36.556  32.938  28.905  1.00  0.00     0.173 A 
ATOM     74  C   UNL A   1      35.523  30.771  28.868  1.00  0.00     0.173 A 
ATOM     75  F   UNL A   1      37.573  33.750  29.231  1.00  0.00    -0.203 F 
ATOM     76  C   UNL A   1      35.448  33.477  28.255  1.00  0.00     0.198 A 
ATOM     77  C   UNL A   1      34.427  31.306  28.196  1.00  0.00     0.198 A 
ATOM     78  F   UNL A   1      35.542  29.458  29.140  1.00  0.00    -0.203 F 
ATOM     79  F   UNL A   1      35.407  34.788  27.980  1.00  0.00    -0.200 F 
ATOM     80  C   UNL A   1      34.386  32.660  27.899  1.00  0.00     0.200 A 
ATOM     81  F   UNL A   1      33.413  30.510  27.832  1.00  0.00    -0.200 F 
ATOM     82  F   UNL A   1      33.324  33.178  27.266  1.00  0.00    -0.200 F 
ENDBRANCH  48  72
BRANCH  60  83
ATOM     83  C   UNL A   1      38.901  32.107  35.821  1.00  0.00     0.064 A 
ATOM     84  C   UNL A   1      39.297  33.439  36.015  1.00  0.00     0.173 A 
ATOM     85  C   UNL A   1      38.152  31.487  36.829  1.00  0.00     0.173 A 
ATOM     86  F   UNL A   1      40.025  34.072  35.082  1.00  0.00    -0.203 F 
ATOM     87  C   UNL A   1      38.982  34.115  37.191  1.00  0.00     0.198 A 
ATOM     88  C   UNL A   1      37.817  32.174  37.992  1.00  0.00     0.198 A 
ATOM     89  F   UNL A   1      37.741  30.218  36.683  1.00  0.00    -0.203 F 
ATOM     90  F   UNL A   1      39.410  35.370  37.375  1.00  0.00    -0.200 F 
ATOM     91  C   UNL A   1      38.243  33.482  38.178  1.00  0.00     0.200 A 
ATOM     92  F   UNL A   1      37.087  31.569  38.940  1.00  0.00    -0.200 F 
ATOM     93  F   UNL A   1      37.943  34.131  39.311  1.00  0.00    -0.200 F 
ENDBRANCH  60  83
ENDBRANCH  34  35
ENDBRANCH  27  29
ENDBRANCH  26  27
ENDBRANCH  25  26
ENDBRANCH  24  25
ENDBRANCH  23  24
ENDBRANCH   1  23
TORSDOF 17
ENDMDL
MODEL 2
REMARK VINA RESULT:     -11.4      1.665      2.389
REMARK SMILES COc1ccc(F)c(Nc2ccc(C(=O)OCCOCCOC(=O)c3ccc(-c4c5nc(c(-c6c(F)c(F)c(F)c(F)c6F)c6ccc([nH]6)c(-c6c(F)c(F)c(F)c(F)c6F)c6nc(c(-c7c(F)c(F)c(F)c(F)c7F)c7ccc4[nH]7)C=C6)C=C5)cc3)cc2)c1
REMARK SMILES IDX 18 1 17 2 16 3 14 4 15 5 13 6 10 7 11 8 89 9 12 10 88 11
REMARK SMILES IDX 9 12 8 14 3 15 4 16 90 17 5 18 6 19 7 20 2 21 1 22 19 23
REMARK SMILES IDX 20 24 21 25 22 26 23 27 24 28 25 29 26 30 87 31 27 32 86 33
REMARK SMILES IDX 28 34 29 35 30 36 80 37 31 38 85 39 79 40 81 41 32 42 84 43
REMARK SMILES IDX 78 44 77 45 33 47 65 48 45 49 64 50 46 51 49 52 63 53 82 54
REMARK SMILES IDX 47 55 48 56 62 58 83 59 50 60 34 61 35 62 43 63 36 64 37 65
REMARK SMILES IDX 41 66 44 67 38 68 39 69 42 70 40 71 66 72 67 73 75 74 68 75
REMARK SMILES IDX 69 76 73 77 76 78 70 79 71 80 74 81 72 82 51 83 52 84 60 85
REMARK SMILES IDX 53 86 54 87 58 88 61 89 55 90 56 91 59 92 57 93
REMARK H PARENT 9 13 81 46 49 57
REMARK Flexibility Score: inf
ROOT
ATOM      1  C   UNL A   1      41.204  20.483  26.819  1.00  0.00     0.202 C 
ENDROOT
BRANCH   1   2
ATOM      2  C   UNL A   1      40.127  21.538  27.081  1.00  0.00     0.261 C 
BRANCH   2   3
ATOM      3  O   UNL A   1      39.293  21.719  25.926  1.00  0.00    -0.460 OA
BRANCH   3   4
ATOM      4  C   UNL A   1      38.466  22.788  25.986  1.00  0.00     0.338 C 
ATOM      5  O   UNL A   1      38.745  23.906  26.396  1.00  0.00    -0.246 OA
BRANCH   4   6
ATOM      6  C   UNL A   1      37.165  22.473  25.354  1.00  0.00     0.060 A 
ATOM      7  C   UNL A   1      34.585  22.094  24.336  1.00  0.00     0.039 A 
ATOM      8  C   UNL A   1      35.244  23.309  24.136  1.00  0.00     0.027 A 
ATOM      9  C   UNL A   1      35.270  21.039  24.960  1.00  0.00     0.027 A 
ATOM     10  C   UNL A   1      36.524  23.502  24.652  1.00  0.00     0.018 A 
ATOM     11  C   UNL A   1      36.559  21.219  25.465  1.00  0.00     0.018 A 
BRANCH   7  12
ATOM     12  N   UNL A   1      33.197  22.022  24.121  1.00  0.00    -0.353 N 
ATOM     13  H   UNL A   1      32.869  21.275  23.572  1.00  0.00     0.167 HD
BRANCH  12  14
ATOM     14  C   UNL A   1      32.228  22.925  24.623  1.00  0.00     0.078 A 
ATOM     15  C   UNL A   1      30.643  24.757  24.316  1.00  0.00     0.121 A 
ATOM     16  C   UNL A   1      30.368  24.769  25.680  1.00  0.00     0.049 A 
ATOM     17  C   UNL A   1      31.550  23.832  23.795  1.00  0.00     0.075 A 
ATOM     18  C   UNL A   1      31.023  23.869  26.523  1.00  0.00     0.045 A 
ATOM     19  C   UNL A   1      31.948  22.968  25.994  1.00  0.00     0.146 A 
ATOM     20  F   UNL A   1      32.560  22.107  26.822  1.00  0.00    -0.205 F 
BRANCH  15  21
ATOM     21  O   UNL A   1      30.026  25.561  23.397  1.00  0.00    -0.497 OA
ATOM     22  C   UNL A   1      29.402  26.708  23.965  1.00  0.00     0.278 C 
ENDBRANCH  15  21
ENDBRANCH  12  14
ENDBRANCH   7  12
ENDBRANCH   4   6
ENDBRANCH   3   4
ENDBRANCH   2   3
ENDBRANCH   1   2
BRANCH   1  23
ATOM     23  O   UNL A   1      41.975  20.656  25.631  1.00  0.00    -0.374 OA
BRANCH  23  24
ATOM     24  C   UNL A   1      43.398  20.613  25.763  1.00  0.00     0.202 C 
BRANCH  24  25
ATOM     25  C   UNL A   1      44.138  21.930  25.510  1.00  0.00     0.261 C 
BRANCH  25  26
ATOM     26  O   UNL A   1      43.232  22.986  25.146  1.00  0.00    -0.460 OA
BRANCH  26  27
ATOM     27  C   UNL A   1      43.776  24.223  25.112  1.00  0.00     0.338 C 
ATOM     28  O   UNL A   1      44.674  24.622  24.382  1.00  0.00    -0.246 OA
BRANCH  27  29
ATOM     29  C   UNL A   1      43.014  25.128  25.989  1.00  0.00     0.060 A 
ATOM     30  C   UNL A   1      43.257  26.504  25.875  1.00  0.00     0.016 A 
ATOM     31  C   UNL A   1      42.138  24.639  26.959  1.00  0.00     0.016 A 
ATOM     32  C   UNL A   1      42.667  27.395  26.769  1.00  0.00     0.010 A 
ATOM     33  C   UNL A   1      41.556  25.533  27.863  1.00  0.00     0.010 A 
ATOM     34  C   UNL A   1      41.850  26.906  27.796  1.00  0.00    -0.014 A 
BRANCH  34  35
ATOM     35  C   UNL A   1      41.441  27.796  28.908  1.00  0.00     0.031 A 
ATOM     36  C   UNL A   1      42.234  27.759  30.184  1.00  0.00     0.074 A 
ATOM     37  C   UNL A   1      40.386  28.619  28.787  1.00  0.00     0.049 A 
ATOM     38  N   UNL A   1      41.994  28.344  31.328  1.00  0.00    -0.248 NA
ATOM     39  C   UNL A   1      43.463  26.949  30.167  1.00  0.00     0.031 C 
ATOM     40  C   UNL A   1      39.582  28.788  27.579  1.00  0.00     0.029 A 
ATOM     41  N   UNL A   1      39.803  29.457  29.704  1.00  0.00    -0.354 N 
ATOM     42  C   UNL A   1      43.030  27.961  32.169  1.00  0.00     0.074 A 
ATOM     43  C   UNL A   1      43.892  27.080  31.413  1.00  0.00     0.031 C 
ATOM     44  C   UNL A   1      38.596  29.666  27.834  1.00  0.00     0.029 A 
ATOM     45  C   UNL A   1      38.677  30.084  29.234  1.00  0.00     0.049 A 
ATOM     46  H   UNL A   1      40.157  29.594  30.612  1.00  0.00     0.167 HD
ATOM     47  C   UNL A   1      43.243  28.320  33.456  1.00  0.00     0.037 A 
ATOM     48  C   UNL A   1      37.795  30.879  29.871  1.00  0.00     0.037 A 
ATOM     49  C   UNL A   1      42.386  29.204  34.200  1.00  0.00     0.049 A 
ATOM     50  C   UNL A   1      38.007  31.201  31.328  1.00  0.00     0.074 A 
ATOM     51  C   UNL A   1      42.519  29.631  35.509  1.00  0.00     0.029 A 
ATOM     52  N   UNL A   1      41.238  29.796  33.696  1.00  0.00    -0.354 N 
ATOM     53  N   UNL A   1      38.980  30.826  32.124  1.00  0.00    -0.248 NA
ATOM     54  C   UNL A   1      36.996  32.049  31.979  1.00  0.00     0.031 C 
ATOM     55  C   UNL A   1      41.425  30.446  35.812  1.00  0.00     0.029 A 
ATOM     56  C   UNL A   1      40.641  30.570  34.676  1.00  0.00     0.049 A 
ATOM     57  H   UNL A   1      40.898  29.682  32.779  1.00  0.00     0.167 HD
ATOM     58  C   UNL A   1      38.718  31.414  33.354  1.00  0.00     0.074 A 
ATOM     59  C   UNL A   1      37.493  32.171  33.204  1.00  0.00     0.031 C 
ATOM     60  C   UNL A   1      39.432  31.335  34.502  1.00  0.00     0.037 A 
BRANCH  47  61
ATOM     61  C   UNL A   1      44.436  27.741  34.156  1.00  0.00     0.064 A 
ATOM     62  C   UNL A   1      45.681  28.382  34.082  1.00  0.00     0.173 A 
ATOM     63  C   UNL A   1      44.364  26.521  34.844  1.00  0.00     0.173 A 
ATOM     64  F   UNL A   1      45.802  29.550  33.432  1.00  0.00    -0.203 F 
ATOM     65  C   UNL A   1      46.814  27.817  34.660  1.00  0.00     0.198 A 
ATOM     66  C   UNL A   1      45.494  25.972  35.444  1.00  0.00     0.198 A 
ATOM     67  F   UNL A   1      43.193  25.876  34.955  1.00  0.00    -0.203 F 
ATOM     68  F   UNL A   1      47.999  28.433  34.549  1.00  0.00    -0.200 F 
ATOM     69  C   UNL A   1      46.719  26.614  35.342  1.00  0.00     0.200 A 
ATOM     70  F   UNL A   1      45.397  24.820  36.123  1.00  0.00    -0.200 F 
ATOM     71  F   UNL A   1      47.809  26.075  35.905  1.00  0.00    -0.200 F 
ENDBRANCH  47  61
BRANCH  48  72
ATOM     72  C   UNL A   1      36.626  31.420  29.131  1.00  0.00     0.064 A 
ATOM     73  C   UNL A   1      36.561  32.770  28.756  1.00  0.00     0.173 A 
ATOM     74  C   UNL A   1      35.538  30.600  28.805  1.00  0.00     0.173 A 
ATOM     75  F   UNL A   1      37.578  33.597  29.043  1.00  0.00    -0.203 F 
ATOM     76  C   UNL A   1      35.443  33.283  28.102  1.00  0.00     0.198 A 
ATOM     77  C   UNL A   1      34.431  31.108  28.129  1.00  0.00     0.198 A 
ATOM     78  F   UNL A   1      35.565  29.297  29.120  1.00  0.00    -0.203 F 
ATOM     79  F   UNL A   1      35.394  34.584  27.785  1.00  0.00    -0.200 F 
ATOM     80  C   UNL A   1      34.380  32.451  27.787  1.00  0.00     0.200 A 
ATOM     81  F   UNL A   1      33.416  30.296  27.803  1.00  0.00    -0.200 F 
ATOM     82  F   UNL A   1      33.309  32.943  27.150  1.00  0.00    -0.200 F 
ENDBRANCH  48  72
BRANCH  60  83
ATOM     83  C   UNL A   1      38.948  32.114  35.690  1.00  0.00     0.064 A 
ATOM     84  C   UNL A   1      39.300  33.464  35.837  1.00  0.00     0.173 A 
ATOM     85  C   UNL A   1      38.243  31.499  36.733  1.00  0.00     0.173 A 
ATOM     86  F   UNL A   1      39.985  34.095  34.870  1.00  0.00    -0.203 F 
ATOM     87  C   UNL A   1      38.985  34.164  36.998  1.00  0.00     0.198 A 
ATOM     88  C   UNL A   1      37.907  32.208  37.882  1.00  0.00     0.198 A 
ATOM     89  F   UNL A   1      37.875  30.212  36.633  1.00  0.00    -0.203 F 
ATOM     90  F   UNL A   1      39.371  35.439  37.137  1.00  0.00    -0.200 F 
ATOM     91  C   UNL A   1      38.289  33.535  38.020  1.00  0.00     0.200 A 
ATOM     92  F   UNL A   1      37.220  31.607  38.863  1.00  0.00    -0.200 F 
ATOM     93  F   UNL A   1      37.989  34.208  39.140  1.00  0.00    -0.200 F 
ENDBRANCH  60  83
ENDBRANCH  34  35
ENDBRANCH  27  29
ENDBRANCH  26  27
ENDBRANCH  25  26
ENDBRANCH  24  25
ENDBRANCH  23  24
ENDBRANCH   1  23
TORSDOF 17
ENDMDL
MODEL 3
REMARK VINA RESULT:     -11.3      1.861      2.791
REMARK SMILES COc1ccc(F)c(Nc2ccc(C(=O)OCCOCCOC(=O)c3ccc(-c4c5nc(c(-c6c(F)c(F)c(F)c(F)c6F)c6ccc([nH]6)c(-c6c(F)c(F)c(F)c(F)c6F)c6nc(c(-c7c(F)c(F)c(F)c(F)c7F)c7ccc4[nH]7)C=C6)C=C5)cc3)cc2)c1
REMARK SMILES IDX 18 1 17 2 16 3 14 4 15 5 13 6 10 7 11 8 89 9 12 10 88 11
REMARK SMILES IDX 9 12 8 14 3 15 4 16 90 17 5 18 6 19 7 20 2 21 1 22 19 23
REMARK SMILES IDX 20 24 21 25 22 26 23 27 24 28 25 29 26 30 87 31 27 32 86 33
REMARK SMILES IDX 28 34 29 35 30 36 80 37 31 38 85 39 79 40 81 41 32 42 84 43
REMARK SMILES IDX 78 44 77 45 33 47 65 48 45 49 64 50 46 51 49 52 63 53 82 54
REMARK SMILES IDX 47 55 48 56 62 58 83 59 50 60 34 61 35 62 43 63 36 64 37 65
REMARK SMILES IDX 41 66 44 67 38 68 39 69 42 70 40 71 66 72 67 73 75 74 68 75
REMARK SMILES IDX 69 76 73 77 76 78 70 79 71 80 74 81 72 82 51 83 52 84 60 85
REMARK SMILES IDX 53 86 54 87 58 88 61 89 55 90 56 91 59 92 57 93
REMARK H PARENT 9 13 81 46 49 57
REMARK Flexibility Score: inf
ROOT
ATOM      1  C   UNL A   1      44.037  18.928  24.968  1.00  0.00     0.202 C 
ENDROOT
BRANCH   1   2
ATOM      2  C   UNL A   1      42.815  18.481  25.772  1.00  0.00     0.261 C 
BRANCH   2   3
ATOM      3  O   UNL A   1      41.702  19.358  25.546  1.00  0.00    -0.460 OA
BRANCH   3   4
ATOM      4  C   UNL A   1      41.379  20.147  26.598  1.00  0.00     0.338 C 
ATOM      5  O   UNL A   1      42.005  20.265  27.641  1.00  0.00    -0.246 OA
BRANCH   4   6
ATOM      6  C   UNL A   1      40.199  20.982  26.276  1.00  0.00     0.060 A 
ATOM      7  C   UNL A   1      37.921  22.579  25.970  1.00  0.00     0.039 A 
ATOM      8  C   UNL A   1      39.051  23.089  26.613  1.00  0.00     0.027 A 
ATOM      9  C   UNL A   1      37.981  21.300  25.394  1.00  0.00     0.027 A 
ATOM     10  C   UNL A   1      40.182  22.290  26.775  1.00  0.00     0.018 A 
ATOM     11  C   UNL A   1      39.116  20.500  25.537  1.00  0.00     0.018 A 
BRANCH   7  12
ATOM     12  N   UNL A   1      36.692  23.248  26.108  1.00  0.00    -0.353 N 
ATOM     13  H   UNL A   1      36.596  23.850  26.880  1.00  0.00     0.167 HD
BRANCH  12  14
ATOM     14  C   UNL A   1      35.579  23.135  25.239  1.00  0.00     0.078 A 
ATOM     15  C   UNL A   1      34.191  23.975  23.414  1.00  0.00     0.121 A 
ATOM     16  C   UNL A   1      33.298  22.923  23.588  1.00  0.00     0.049 A 
ATOM     17  C   UNL A   1      35.327  24.066  24.221  1.00  0.00     0.075 A 
ATOM     18  C   UNL A   1      33.532  21.978  24.589  1.00  0.00     0.045 A 
ATOM     19  C   UNL A   1      34.656  22.096  25.407  1.00  0.00     0.146 A 
ATOM     20  F   UNL A   1      34.866  21.172  26.357  1.00  0.00    -0.205 F 
BRANCH  15  21
ATOM     21  O   UNL A   1      34.082  24.926  22.437  1.00  0.00    -0.497 OA
ATOM     22  C   UNL A   1      32.976  24.727  21.563  1.00  0.00     0.278 C 
ENDBRANCH  15  21
ENDBRANCH  12  14
ENDBRANCH   7  12
ENDBRANCH   4   6
ENDBRANCH   3   4
ENDBRANCH   2   3
ENDBRANCH   1   2
BRANCH   1  23
ATOM     23  O   UNL A   1      44.658  20.141  25.392  1.00  0.00    -0.374 OA
BRANCH  23  24
ATOM     24  C   UNL A   1      44.736  21.204  24.440  1.00  0.00     0.202 C 
BRANCH  24  25
ATOM     25  C   UNL A   1      43.695  22.318  24.588  1.00  0.00     0.261 C 
BRANCH  25  26
ATOM     26  O   UNL A   1      43.954  23.136  25.743  1.00  0.00    -0.460 OA
BRANCH  26  27
ATOM     27  C   UNL A   1      44.259  24.426  25.475  1.00  0.00     0.338 C 
ATOM     28  O   UNL A   1      44.982  24.850  24.583  1.00  0.00    -0.246 OA
BRANCH  27  29
ATOM     29  C   UNL A   1      43.451  25.317  26.325  1.00  0.00     0.060 A 
ATOM     30  C   UNL A   1      43.706  26.694  26.253  1.00  0.00     0.016 A 
ATOM     31  C   UNL A   1      42.516  24.813  27.231  1.00  0.00     0.016 A 
ATOM     32  C   UNL A   1      43.068  27.569  27.129  1.00  0.00     0.010 A 
ATOM     33  C   UNL A   1      41.886  25.691  28.116  1.00  0.00     0.010 A 
ATOM     34  C   UNL A   1      42.189  27.064  28.096  1.00  0.00    -0.014 A 
BRANCH  34  35
ATOM     35  C   UNL A   1      41.719  27.933  29.200  1.00  0.00     0.031 A 
ATOM     36  C   UNL A   1      42.473  27.909  30.500  1.00  0.00     0.074 A 
ATOM     37  C   UNL A   1      40.645  28.725  29.052  1.00  0.00     0.049 A 
ATOM     38  N   UNL A   1      42.179  28.479  31.641  1.00  0.00    -0.248 NA
ATOM     39  C   UNL A   1      43.725  27.136  30.517  1.00  0.00     0.031 C 
ATOM     40  C   UNL A   1      39.875  28.880  27.820  1.00  0.00     0.029 A 
ATOM     41  N   UNL A   1      40.009  29.539  29.955  1.00  0.00    -0.354 N 
ATOM     42  C   UNL A   1      43.199  28.120  32.511  1.00  0.00     0.074 A 
ATOM     43  C   UNL A   1      44.110  27.270  31.777  1.00  0.00     0.031 C 
ATOM     44  C   UNL A   1      38.856  29.726  28.049  1.00  0.00     0.029 A 
ATOM     45  C   UNL A   1      38.880  30.137  29.453  1.00  0.00     0.049 A 
ATOM     46  H   UNL A   1      40.330  29.680  30.874  1.00  0.00     0.167 HD
ATOM     47  C   UNL A   1      43.360  28.475  33.807  1.00  0.00     0.037 A 
ATOM     48  C   UNL A   1      37.955  30.901  30.067  1.00  0.00     0.037 A 
ATOM     49  C   UNL A   1      42.455  29.328  34.529  1.00  0.00     0.049 A 
ATOM     50  C   UNL A   1      38.111  31.217  31.532  1.00  0.00     0.074 A 
ATOM     51  C   UNL A   1      42.533  29.749  35.844  1.00  0.00     0.029 A 
ATOM     52  N   UNL A   1      41.306  29.890  33.993  1.00  0.00    -0.354 N 
ATOM     53  N   UNL A   1      39.069  30.865  32.356  1.00  0.00    -0.248 NA
ATOM     54  C   UNL A   1      37.056  32.030  32.156  1.00  0.00     0.031 C 
ATOM     55  C   UNL A   1      41.407  30.529  36.118  1.00  0.00     0.029 A 
ATOM     56  C   UNL A   1      40.656  30.639  34.958  1.00  0.00     0.049 A 
ATOM     57  H   UNL A   1      40.999  29.773  33.065  1.00  0.00     0.167 HD
ATOM     58  C   UNL A   1      38.752  31.436  33.581  1.00  0.00     0.074 A 
ATOM     59  C   UNL A   1      37.510  32.158  33.397  1.00  0.00     0.031 C 
ATOM     60  C   UNL A   1      39.431  31.370  34.751  1.00  0.00     0.037 A 
BRANCH  47  61
ATOM     61  C   UNL A   1      44.547  27.926  34.540  1.00  0.00     0.064 A 
ATOM     62  C   UNL A   1      44.454  26.706  35.227  1.00  0.00     0.173 A 
ATOM     63  C   UNL A   1      45.754  28.635  34.621  1.00  0.00     0.173 A 
ATOM     64  F   UNL A   1      43.320  25.991  35.184  1.00  0.00    -0.203 F 
ATOM     65  C   UNL A   1      45.522  26.223  35.977  1.00  0.00     0.198 A 
ATOM     66  C   UNL A   1      46.829  28.136  35.350  1.00  0.00     0.198 A 
ATOM     67  F   UNL A   1      45.897  29.801  33.970  1.00  0.00    -0.203 F 
ATOM     68  F   UNL A   1      45.399  25.070  36.649  1.00  0.00    -0.200 F 
ATOM     69  C   UNL A   1      46.709  26.936  36.036  1.00  0.00     0.200 A 
ATOM     70  F   UNL A   1      47.984  28.816  35.388  1.00  0.00    -0.200 F 
ATOM     71  F   UNL A   1      47.739  26.466  36.752  1.00  0.00    -0.200 F 
ENDBRANCH  47  61
BRANCH  48  72
ATOM     72  C   UNL A   1      36.794  31.412  29.294  1.00  0.00     0.064 A 
ATOM     73  C   UNL A   1      36.709  32.760  28.914  1.00  0.00     0.173 A 
ATOM     74  C   UNL A   1      35.735  30.566  28.940  1.00  0.00     0.173 A 
ATOM     75  F   UNL A   1      37.698  33.611  29.227  1.00  0.00    -0.203 F 
ATOM     76  C   UNL A   1      35.597  33.245  28.229  1.00  0.00     0.198 A 
ATOM     77  C   UNL A   1      34.636  31.047  28.232  1.00  0.00     0.198 A 
ATOM     78  F   UNL A   1      35.785  29.265  29.259  1.00  0.00    -0.203 F 
ATOM     79  F   UNL A   1      35.526  34.544  27.907  1.00  0.00    -0.200 F 
ATOM     80  C   UNL A   1      34.563  32.388  27.886  1.00  0.00     0.200 A 
ATOM     81  F   UNL A   1      33.650  30.210  27.881  1.00  0.00    -0.200 F 
ATOM     82  F   UNL A   1      33.499  32.853  27.218  1.00  0.00    -0.200 F 
ENDBRANCH  48  72
BRANCH  60  83
ATOM     83  C   UNL A   1      38.887  32.124  35.928  1.00  0.00     0.064 A 
ATOM     84  C   UNL A   1      39.239  33.469  36.126  1.00  0.00     0.173 A 
ATOM     85  C   UNL A   1      38.121  31.492  36.916  1.00  0.00     0.173 A 
ATOM     86  F   UNL A   1      39.980  34.115  35.213  1.00  0.00    -0.203 F 
ATOM     87  C   UNL A   1      38.864  34.144  37.284  1.00  0.00     0.198 A 
ATOM     88  C   UNL A   1      37.726  32.177  38.061  1.00  0.00     0.198 A 
ATOM     89  F   UNL A   1      37.751  30.210  36.766  1.00  0.00    -0.203 F 
ATOM     90  F   UNL A   1      39.250  35.413  37.472  1.00  0.00    -0.200 F 
ATOM     91  C   UNL A   1      38.109  33.498  38.250  1.00  0.00     0.200 A 
ATOM     92  F   UNL A   1      36.982  31.559  38.988  1.00  0.00    -0.200 F 
ATOM     93  F   UNL A   1      37.752  34.147  39.367  1.00  0.00    -0.200 F 
ENDBRANCH  60  83
ENDBRANCH  34  35
ENDBRANCH  27  29
ENDBRANCH  26  27
ENDBRANCH  25  26
ENDBRANCH  24  25
ENDBRANCH  23  24
ENDBRANCH   1  23
TORSDOF 17
ENDMDL
