MODEL 1
REMARK VINA RESULT:     -12.3      0.000      0.000
REMARK SMILES O=C(COc1ccccc1/C=C1\C(=O)Nc2ccccc21)OCCOCCOC(=O)c1ccc(-c2c3nc(c(-c4c(F)c(F)c(F)c(F)c4F)c4ccc([nH]4)c(-c4c(F)c(F)c(F)c(F)c4F)c4nc(c(-c5c(F)c(F)c(F)c(F)c5F)c5ccc2[nH]5)C=C4)C=C3)cc1
REMARK SMILES IDX 24 1 23 2 22 3 2 4 1 5 3 6 4 7 5 8 6 9 10 10 7 11 9 12 8 13
REMARK SMILES IDX 11 14 12 15 13 16 21 17 14 18 15 19 16 20 20 21 17 23 19 24
REMARK SMILES IDX 18 25 25 26 26 27 27 28 28 29 29 30 30 31 31 32 32 33 93 34
REMARK SMILES IDX 33 35 92 36 34 37 35 38 36 39 86 40 37 41 91 42 85 43 87 44
REMARK SMILES IDX 38 45 90 46 84 47 83 48 39 50 71 51 51 52 70 53 52 54 55 55
REMARK SMILES IDX 69 56 88 57 53 58 54 59 68 61 89 62 56 63 40 64 41 65 49 66
REMARK SMILES IDX 42 67 43 68 47 69 50 70 44 71 45 72 48 73 46 74 72 75 73 76
REMARK SMILES IDX 81 77 74 78 75 79 79 80 82 81 76 82 77 83 80 84 78 85 57 86
REMARK SMILES IDX 58 87 66 88 59 89 60 90 64 91 67 92 61 93 62 94 65 95 63 96
REMARK H PARENT 15 22 87 49 55 60
REMARK Flexibility Score: inf
ROOT
ATOM      1  C   UNL A   1      41.165  20.424  27.023  1.00  0.00     0.202 C 
ENDROOT
BRANCH   1   2
ATOM      2  C   UNL A   1      40.060  21.480  26.915  1.00  0.00     0.261 C 
BRANCH   2   3
ATOM      3  O   UNL A   1      39.193  21.387  25.773  1.00  0.00    -0.461 OA
BRANCH   3   4
ATOM      4  C   UNL A   1      38.059  22.102  25.561  1.00  0.00     0.344 C 
ATOM      5  O   UNL A   1      38.051  23.301  25.839  1.00  0.00    -0.248 OA
BRANCH   4   6
ATOM      6  C   UNL A   1      36.795  21.403  25.088  1.00  0.00     0.351 C 
BRANCH   6   7
ATOM      7  O   UNL A   1      35.587  22.086  25.328  1.00  0.00    -0.481 OA
BRANCH   7   8
ATOM      8  C   UNL A   1      34.462  21.461  24.876  1.00  0.00     0.127 A 
ATOM      9  C   UNL A   1      34.524  20.065  24.994  1.00  0.00     0.047 A 
ATOM     10  C   UNL A   1      33.396  22.095  24.207  1.00  0.00     0.017 A 
ATOM     11  C   UNL A   1      33.527  19.268  24.449  1.00  0.00     0.004 A 
ATOM     12  C   UNL A   1      32.470  21.255  23.569  1.00  0.00     0.012 A 
ATOM     13  C   UNL A   1      32.510  19.864  23.715  1.00  0.00     0.001 A 
BRANCH  10  14
ATOM     14  C   UNL A   1      33.214  23.567  24.115  1.00  0.00     0.026 C 
ATOM     15  C   UNL A   1      32.661  24.365  25.055  1.00  0.00     0.050 C 
ATOM     16  C   UNL A   1      32.042  23.910  26.363  1.00  0.00     0.256 C 
ATOM     17  C   UNL A   1      32.471  25.834  25.013  1.00  0.00     0.011 A 
ATOM     18  O   UNL A   1      32.076  22.816  26.899  1.00  0.00    -0.269 OA
ATOM     19  N   UNL A   1      31.405  25.019  26.875  1.00  0.00    -0.321 N 
ATOM     20  C   UNL A   1      31.677  26.151  26.125  1.00  0.00     0.049 A 
ATOM     21  C   UNL A   1      32.957  26.862  24.222  1.00  0.00     0.011 A 
ATOM     22  H   UNL A   1      30.831  25.009  27.675  1.00  0.00     0.170 HD
ATOM     23  C   UNL A   1      31.302  27.438  26.461  1.00  0.00     0.027 A 
ATOM     24  C   UNL A   1      32.617  28.186  24.562  1.00  0.00     0.001 A 
ATOM     25  C   UNL A   1      31.790  28.470  25.666  1.00  0.00     0.002 A 
ENDBRANCH  10  14
ENDBRANCH   7   8
ENDBRANCH   6   7
ENDBRANCH   4   6
ENDBRANCH   3   4
ENDBRANCH   2   3
ENDBRANCH   1   2
BRANCH   1  26
ATOM     26  O   UNL A   1      41.789  19.917  25.860  1.00  0.00    -0.374 OA
BRANCH  26  27
ATOM     27  C   UNL A   1      43.175  20.102  25.614  1.00  0.00     0.202 C 
BRANCH  27  28
ATOM     28  C   UNL A   1      43.841  21.468  25.384  1.00  0.00     0.261 C 
BRANCH  28  29
ATOM     29  O   UNL A   1      42.972  22.588  25.212  1.00  0.00    -0.460 OA
BRANCH  29  30
ATOM     30  C   UNL A   1      43.611  23.769  25.053  1.00  0.00     0.338 C 
ATOM     31  O   UNL A   1      44.484  24.046  24.251  1.00  0.00    -0.246 OA
BRANCH  30  32
ATOM     32  C   UNL A   1      42.997  24.765  25.940  1.00  0.00     0.060 A 
ATOM     33  C   UNL A   1      43.424  26.095  25.852  1.00  0.00     0.016 A 
ATOM     34  C   UNL A   1      42.084  24.362  26.913  1.00  0.00     0.016 A 
ATOM     35  C   UNL A   1      42.956  27.030  26.768  1.00  0.00     0.010 A 
ATOM     36  C   UNL A   1      41.625  25.298  27.838  1.00  0.00     0.010 A 
ATOM     37  C   UNL A   1      42.083  26.626  27.786  1.00  0.00    -0.014 A 
BRANCH  37  38
ATOM     38  C   UNL A   1      41.740  27.556  28.883  1.00  0.00     0.031 A 
ATOM     39  C   UNL A   1      42.538  27.502  30.153  1.00  0.00     0.074 A 
ATOM     40  C   UNL A   1      40.710  28.408  28.748  1.00  0.00     0.049 A 
ATOM     41  N   UNL A   1      42.334  28.115  31.289  1.00  0.00    -0.248 NA
ATOM     42  C   UNL A   1      43.724  26.627  30.145  1.00  0.00     0.031 C 
ATOM     43  C   UNL A   1      39.900  28.564  27.542  1.00  0.00     0.029 A 
ATOM     44  N   UNL A   1      40.155  29.283  29.645  1.00  0.00    -0.354 N 
ATOM     45  C   UNL A   1      43.346  27.684  32.136  1.00  0.00     0.074 A 
ATOM     46  C   UNL A   1      44.156  26.747  31.391  1.00  0.00     0.031 C 
ATOM     47  C   UNL A   1      38.928  29.460  27.785  1.00  0.00     0.029 A 
ATOM     48  C   UNL A   1      39.022  29.900  29.174  1.00  0.00     0.049 A 
ATOM     49  H   UNL A   1      40.531  29.453  30.540  1.00  0.00     0.167 HD
ATOM     50  C   UNL A   1      43.568  28.043  33.422  1.00  0.00     0.037 A 
ATOM     51  C   UNL A   1      38.139  30.690  29.813  1.00  0.00     0.037 A 
ATOM     52  C   UNL A   1      42.756  28.988  34.141  1.00  0.00     0.049 A 
ATOM     53  C   UNL A   1      38.375  31.019  31.265  1.00  0.00     0.074 A 
ATOM     54  C   UNL A   1      42.923  29.465  35.428  1.00  0.00     0.029 A 
ATOM     55  N   UNL A   1      41.610  29.587  33.636  1.00  0.00    -0.354 N 
ATOM     56  N   UNL A   1      39.358  30.648  32.050  1.00  0.00    -0.248 NA
ATOM     57  C   UNL A   1      37.376  31.874  31.923  1.00  0.00     0.031 C 
ATOM     58  C   UNL A   1      41.840  30.296  35.727  1.00  0.00     0.029 A 
ATOM     59  C   UNL A   1      41.035  30.394  34.603  1.00  0.00     0.049 A 
ATOM     60  H   UNL A   1      41.260  29.458  32.725  1.00  0.00     0.167 HD
ATOM     61  C   UNL A   1      39.112  31.243  33.281  1.00  0.00     0.074 A 
ATOM     62  C   UNL A   1      37.895  32.014  33.135  1.00  0.00     0.031 C 
ATOM     63  C   UNL A   1      39.826  31.158  34.430  1.00  0.00     0.037 A 
BRANCH  50  64
ATOM     64  C   UNL A   1      44.706  27.390  34.151  1.00  0.00     0.064 A 
ATOM     65  C   UNL A   1      45.991  27.950  34.183  1.00  0.00     0.173 A 
ATOM     66  C   UNL A   1      44.487  26.210  34.881  1.00  0.00     0.173 A 
ATOM     67  F   UNL A   1      46.258  29.068  33.493  1.00  0.00    -0.203 F 
ATOM     68  C   UNL A   1      47.018  27.345  34.905  1.00  0.00     0.198 A 
ATOM     69  C   UNL A   1      45.507  25.626  35.626  1.00  0.00     0.198 A 
ATOM     70  F   UNL A   1      43.275  25.634  34.887  1.00  0.00    -0.203 F 
ATOM     71  F   UNL A   1      48.249  27.876  34.890  1.00  0.00    -0.200 F 
ATOM     72  C   UNL A   1      46.773  26.190  35.633  1.00  0.00     0.200 A 
ATOM     73  F   UNL A   1      45.262  24.519  36.342  1.00  0.00    -0.200 F 
ATOM     74  F   UNL A   1      47.758  25.618  36.340  1.00  0.00    -0.200 F 
ENDBRANCH  50  64
BRANCH  51  75
ATOM     75  C   UNL A   1      36.931  31.187  29.102  1.00  0.00     0.064 A 
ATOM     76  C   UNL A   1      36.817  32.529  28.715  1.00  0.00     0.173 A 
ATOM     77  C   UNL A   1      35.852  30.335  28.817  1.00  0.00     0.173 A 
ATOM     78  F   UNL A   1      37.811  33.389  28.984  1.00  0.00    -0.203 F 
ATOM     79  C   UNL A   1      35.662  33.006  28.099  1.00  0.00     0.198 A 
ATOM     80  C   UNL A   1      34.712  30.805  28.170  1.00  0.00     0.198 A 
ATOM     81  F   UNL A   1      35.908  29.041  29.164  1.00  0.00    -0.203 F 
ATOM     82  F   UNL A   1      35.556  34.307  27.795  1.00  0.00    -0.200 F 
ATOM     83  C   UNL A   1      34.613  32.143  27.822  1.00  0.00     0.200 A 
ATOM     84  F   UNL A   1      33.708  29.963  27.889  1.00  0.00    -0.200 F 
ATOM     85  F   UNL A   1      33.502  32.602  27.229  1.00  0.00    -0.200 F 
ENDBRANCH  51  75
BRANCH  63  86
ATOM     86  C   UNL A   1      39.331  31.941  35.613  1.00  0.00     0.064 A 
ATOM     87  C   UNL A   1      39.683  33.286  35.804  1.00  0.00     0.173 A 
ATOM     88  C   UNL A   1      38.440  31.358  36.527  1.00  0.00     0.173 A 
ATOM     89  F   UNL A   1      40.544  33.884  34.968  1.00  0.00    -0.203 F 
ATOM     90  C   UNL A   1      39.175  34.010  36.880  1.00  0.00     0.198 A 
ATOM     91  C   UNL A   1      37.908  32.096  37.579  1.00  0.00     0.198 A 
ATOM     92  F   UNL A   1      38.065  30.077  36.383  1.00  0.00    -0.203 F 
ATOM     93  F   UNL A   1      39.559  35.280  37.068  1.00  0.00    -0.200 F 
ATOM     94  C   UNL A   1      38.280  33.419  37.758  1.00  0.00     0.200 A 
ATOM     95  F   UNL A   1      37.027  31.528  38.415  1.00  0.00    -0.200 F 
ATOM     96  F   UNL A   1      37.779  34.125  38.781  1.00  0.00    -0.200 F 
ENDBRANCH  63  86
ENDBRANCH  37  38
ENDBRANCH  30  32
ENDBRANCH  29  30
ENDBRANCH  28  29
ENDBRANCH  27  28
ENDBRANCH  26  27
ENDBRANCH   1  26
TORSDOF 17
ENDMDL
MODEL 2
REMARK VINA RESULT:     -12.2      2.928      8.473
REMARK SMILES O=C(COc1ccccc1/C=C1\C(=O)Nc2ccccc21)OCCOCCOC(=O)c1ccc(-c2c3nc(c(-c4c(F)c(F)c(F)c(F)c4F)c4ccc([nH]4)c(-c4c(F)c(F)c(F)c(F)c4F)c4nc(c(-c5c(F)c(F)c(F)c(F)c5F)c5ccc2[nH]5)C=C4)C=C3)cc1
REMARK SMILES IDX 24 1 23 2 22 3 2 4 1 5 3 6 4 7 5 8 6 9 10 10 7 11 9 12 8 13
REMARK SMILES IDX 11 14 12 15 13 16 21 17 14 18 15 19 16 20 20 21 17 23 19 24
REMARK SMILES IDX 18 25 25 26 26 27 27 28 28 29 29 30 30 31 31 32 32 33 93 34
REMARK SMILES IDX 33 35 92 36 34 37 35 38 36 39 86 40 37 41 91 42 85 43 87 44
REMARK SMILES IDX 38 45 90 46 84 47 83 48 39 50 71 51 51 52 70 53 52 54 55 55
REMARK SMILES IDX 69 56 88 57 53 58 54 59 68 61 89 62 56 63 40 64 41 65 49 66
REMARK SMILES IDX 42 67 43 68 47 69 50 70 44 71 45 72 48 73 46 74 72 75 73 76
REMARK SMILES IDX 81 77 74 78 75 79 79 80 82 81 76 82 77 83 80 84 78 85 57 86
REMARK SMILES IDX 58 87 66 88 59 89 60 90 64 91 67 92 61 93 62 94 65 95 63 96
REMARK H PARENT 15 22 87 49 55 60
REMARK Flexibility Score: inf
ROOT
ATOM      1  C   UNL A   1      30.542  28.617  22.475  1.00  0.00     0.202 C 
ENDROOT
BRANCH   1   2
ATOM      2  C   UNL A   1      30.927  27.143  22.641  1.00  0.00     0.261 C 
BRANCH   2   3
ATOM      3  O   UNL A   1      31.532  26.506  21.504  1.00  0.00    -0.461 OA
BRANCH   3   4
ATOM      4  C   UNL A   1      32.731  25.873  21.478  1.00  0.00     0.344 C 
ATOM      5  O   UNL A   1      33.151  25.437  20.407  1.00  0.00    -0.248 OA
BRANCH   4   6
ATOM      6  C   UNL A   1      33.486  25.618  22.773  1.00  0.00     0.351 C 
BRANCH   6   7
ATOM      7  O   UNL A   1      33.332  24.336  23.333  1.00  0.00    -0.481 OA
BRANCH   7   8
ATOM      8  C   UNL A   1      32.537  24.273  24.440  1.00  0.00     0.127 A 
ATOM      9  C   UNL A   1      32.341  25.522  25.047  1.00  0.00     0.047 A 
ATOM     10  C   UNL A   1      32.074  23.085  25.039  1.00  0.00     0.017 A 
ATOM     11  C   UNL A   1      31.680  25.617  26.264  1.00  0.00     0.004 A 
ATOM     12  C   UNL A   1      31.515  23.207  26.321  1.00  0.00     0.012 A 
ATOM     13  C   UNL A   1      31.287  24.454  26.913  1.00  0.00     0.001 A 
BRANCH  10  14
ATOM     14  C   UNL A   1      32.165  21.736  24.420  1.00  0.00     0.026 C 
ATOM     15  C   UNL A   1      33.103  20.800  24.678  1.00  0.00     0.050 C 
ATOM     16  C   UNL A   1      34.302  20.962  25.594  1.00  0.00     0.256 C 
ATOM     17  C   UNL A   1      33.225  19.442  24.097  1.00  0.00     0.011 A 
ATOM     18  O   UNL A   1      34.557  21.849  26.388  1.00  0.00    -0.269 OA
ATOM     19  N   UNL A   1      35.093  19.858  25.364  1.00  0.00    -0.321 N 
ATOM     20  C   UNL A   1      34.465  18.949  24.528  1.00  0.00     0.049 A 
ATOM     21  C   UNL A   1      32.393  18.612  23.363  1.00  0.00     0.011 A 
ATOM     22  H   UNL A   1      35.991  19.730  25.746  1.00  0.00     0.170 HD
ATOM     23  C   UNL A   1      34.939  17.687  24.224  1.00  0.00     0.027 A 
ATOM     24  C   UNL A   1      32.838  17.309  23.068  1.00  0.00     0.001 A 
ATOM     25  C   UNL A   1      34.104  16.854  23.487  1.00  0.00     0.002 A 
ENDBRANCH  10  14
ENDBRANCH   7   8
ENDBRANCH   6   7
ENDBRANCH   4   6
ENDBRANCH   3   4
ENDBRANCH   2   3
ENDBRANCH   1   2
BRANCH   1  26
ATOM     26  O   UNL A   1      30.506  29.480  23.594  1.00  0.00    -0.374 OA
BRANCH  26  27
ATOM     27  C   UNL A   1      31.363  29.292  24.711  1.00  0.00     0.202 C 
BRANCH  27  28
ATOM     28  C   UNL A   1      31.719  30.392  25.724  1.00  0.00     0.261 C 
BRANCH  28  29
ATOM     29  O   UNL A   1      32.850  30.155  26.563  1.00  0.00    -0.460 OA
BRANCH  29  30
ATOM     30  C   UNL A   1      33.343  31.264  27.160  1.00  0.00     0.338 C 
ATOM     31  O   UNL A   1      32.769  32.316  27.374  1.00  0.00    -0.246 OA
BRANCH  30  32
ATOM     32  C   UNL A   1      34.696  30.978  27.653  1.00  0.00     0.060 A 
ATOM     33  C   UNL A   1      35.031  29.655  27.962  1.00  0.00     0.016 A 
ATOM     34  C   UNL A   1      35.583  32.025  27.898  1.00  0.00     0.016 A 
ATOM     35  C   UNL A   1      36.258  29.376  28.554  1.00  0.00     0.010 A 
ATOM     36  C   UNL A   1      36.807  31.745  28.503  1.00  0.00     0.010 A 
ATOM     37  C   UNL A   1      37.134  30.425  28.859  1.00  0.00    -0.014 A 
BRANCH  37  38
ATOM     38  C   UNL A   1      38.344  30.170  29.669  1.00  0.00     0.031 A 
ATOM     39  C   UNL A   1      39.383  29.226  29.138  1.00  0.00     0.074 A 
ATOM     40  C   UNL A   1      38.488  30.755  30.870  1.00  0.00     0.049 A 
ATOM     41  N   UNL A   1      40.447  28.747  29.727  1.00  0.00    -0.248 NA
ATOM     42  C   UNL A   1      39.190  28.747  27.759  1.00  0.00     0.031 C 
ATOM     43  C   UNL A   1      37.555  31.715  31.455  1.00  0.00     0.029 A 
ATOM     44  N   UNL A   1      39.460  30.601  31.824  1.00  0.00    -0.354 N 
ATOM     45  C   UNL A   1      41.036  27.894  28.803  1.00  0.00     0.074 A 
ATOM     46  C   UNL A   1      40.206  27.908  27.619  1.00  0.00     0.031 C 
ATOM     47  C   UNL A   1      37.985  32.045  32.685  1.00  0.00     0.029 A 
ATOM     48  C   UNL A   1      39.193  31.281  32.987  1.00  0.00     0.049 A 
ATOM     49  H   UNL A   1      40.270  30.058  31.689  1.00  0.00     0.167 HD
ATOM     50  C   UNL A   1      42.169  27.166  28.941  1.00  0.00     0.037 A 
ATOM     51  C   UNL A   1      39.829  31.247  34.174  1.00  0.00     0.037 A 
ATOM     52  C   UNL A   1      42.987  27.176  30.124  1.00  0.00     0.049 A 
ATOM     53  C   UNL A   1      41.049  30.374  34.320  1.00  0.00     0.074 A 
ATOM     54  C   UNL A   1      44.183  26.519  30.351  1.00  0.00     0.029 A 
ATOM     55  N   UNL A   1      42.682  27.868  31.288  1.00  0.00    -0.354 N 
ATOM     56  N   UNL A   1      41.630  29.606  33.430  1.00  0.00    -0.248 NA
ATOM     57  C   UNL A   1      41.700  30.359  35.638  1.00  0.00     0.031 C 
ATOM     58  C   UNL A   1      44.563  26.756  31.675  1.00  0.00     0.029 A 
ATOM     59  C   UNL A   1      43.643  27.618  32.252  1.00  0.00     0.049 A 
ATOM     60  H   UNL A   1      41.899  28.453  31.409  1.00  0.00     0.167 HD
ATOM     61  C   UNL A   1      42.726  29.039  34.069  1.00  0.00     0.074 A 
ATOM     62  C   UNL A   1      42.740  29.566  35.418  1.00  0.00     0.031 C 
ATOM     63  C   UNL A   1      43.639  28.161  33.586  1.00  0.00     0.037 A 
BRANCH  50  64
ATOM     64  C   UNL A   1      42.573  26.267  27.809  1.00  0.00     0.064 A 
ATOM     65  C   UNL A   1      41.996  25.002  27.619  1.00  0.00     0.173 A 
ATOM     66  C   UNL A   1      43.513  26.707  26.864  1.00  0.00     0.173 A 
ATOM     67  F   UNL A   1      41.103  24.528  28.500  1.00  0.00    -0.203 F 
ATOM     68  C   UNL A   1      42.358  24.206  26.534  1.00  0.00     0.198 A 
ATOM     69  C   UNL A   1      43.849  25.923  25.765  1.00  0.00     0.198 A 
ATOM     70  F   UNL A   1      44.093  27.910  26.997  1.00  0.00    -0.203 F 
ATOM     71  F   UNL A   1      41.823  22.985  26.393  1.00  0.00    -0.200 F 
ATOM     72  C   UNL A   1      43.276  24.671  25.604  1.00  0.00     0.200 A 
ATOM     73  F   UNL A   1      44.724  26.381  24.858  1.00  0.00    -0.200 F 
ATOM     74  F   UNL A   1      43.611  23.910  24.552  1.00  0.00    -0.200 F 
ENDBRANCH  50  64
BRANCH  51  75
ATOM     75  C   UNL A   1      39.302  32.026  35.325  1.00  0.00     0.064 A 
ATOM     76  C   UNL A   1      39.639  33.374  35.505  1.00  0.00     0.173 A 
ATOM     77  C   UNL A   1      38.470  31.431  36.287  1.00  0.00     0.173 A 
ATOM     78  F   UNL A   1      40.449  33.984  34.626  1.00  0.00    -0.203 F 
ATOM     79  C   UNL A   1      39.190  34.088  36.614  1.00  0.00     0.198 A 
ATOM     80  C   UNL A   1      37.993  32.154  37.377  1.00  0.00     0.198 A 
ATOM     81  F   UNL A   1      38.115  30.143  36.164  1.00  0.00    -0.203 F 
ATOM     82  F   UNL A   1      39.577  35.359  36.792  1.00  0.00    -0.200 F 
ATOM     83  C   UNL A   1      38.363  33.480  37.547  1.00  0.00     0.200 A 
ATOM     84  F   UNL A   1      37.180  31.566  38.266  1.00  0.00    -0.200 F 
ATOM     85  F   UNL A   1      37.931  34.166  38.613  1.00  0.00    -0.200 F 
ENDBRANCH  51  75
BRANCH  63  86
ATOM     86  C   UNL A   1      44.747  27.736  34.507  1.00  0.00     0.064 A 
ATOM     87  C   UNL A   1      44.654  26.569  35.280  1.00  0.00     0.173 A 
ATOM     88  C   UNL A   1      45.941  28.470  34.565  1.00  0.00     0.173 A 
ATOM     89  F   UNL A   1      43.528  25.841  35.272  1.00  0.00    -0.203 F 
ATOM     90  C   UNL A   1      45.711  26.164  36.091  1.00  0.00     0.198 A 
ATOM     91  C   UNL A   1      47.008  28.043  35.349  1.00  0.00     0.198 A 
ATOM     92  F   UNL A   1      46.083  29.589  33.838  1.00  0.00    -0.203 F 
ATOM     93  F   UNL A   1      45.585  25.070  36.854  1.00  0.00    -0.200 F 
ATOM     94  C   UNL A   1      46.890  26.895  36.115  1.00  0.00     0.200 A 
ATOM     95  F   UNL A   1      48.153  28.739  35.356  1.00  0.00    -0.200 F 
ATOM     96  F   UNL A   1      47.912  26.492  36.883  1.00  0.00    -0.200 F 
ENDBRANCH  63  86
ENDBRANCH  37  38
ENDBRANCH  30  32
ENDBRANCH  29  30
ENDBRANCH  28  29
ENDBRANCH  27  28
ENDBRANCH  26  27
ENDBRANCH   1  26
TORSDOF 17
ENDMDL
MODEL 3
REMARK VINA RESULT:     -12.1      5.188     10.154
REMARK SMILES O=C(COc1ccccc1/C=C1\C(=O)Nc2ccccc21)OCCOCCOC(=O)c1ccc(-c2c3nc(c(-c4c(F)c(F)c(F)c(F)c4F)c4ccc([nH]4)c(-c4c(F)c(F)c(F)c(F)c4F)c4nc(c(-c5c(F)c(F)c(F)c(F)c5F)c5ccc2[nH]5)C=C4)C=C3)cc1
REMARK SMILES IDX 24 1 23 2 22 3 2 4 1 5 3 6 4 7 5 8 6 9 10 10 7 11 9 12 8 13
REMARK SMILES IDX 11 14 12 15 13 16 21 17 14 18 15 19 16 20 20 21 17 23 19 24
REMARK SMILES IDX 18 25 25 26 26 27 27 28 28 29 29 30 30 31 31 32 32 33 93 34
REMARK SMILES IDX 33 35 92 36 34 37 35 38 36 39 86 40 37 41 91 42 85 43 87 44
REMARK SMILES IDX 38 45 90 46 84 47 83 48 39 50 71 51 51 52 70 53 52 54 55 55
REMARK SMILES IDX 69 56 88 57 53 58 54 59 68 61 89 62 56 63 40 64 41 65 49 66
REMARK SMILES IDX 42 67 43 68 47 69 50 70 44 71 45 72 48 73 46 74 72 75 73 76
REMARK SMILES IDX 81 77 74 78 75 79 79 80 82 81 76 82 77 83 80 84 78 85 57 86
REMARK SMILES IDX 58 87 66 88 59 89 60 90 64 91 67 92 61 93 62 94 65 95 63 96
REMARK H PARENT 15 22 87 49 55 60
REMARK Flexibility Score: inf
ROOT
ATOM      1  C   UNL A   1      34.072  32.678  27.901  1.00  0.00     0.202 C 
ENDROOT
BRANCH   1   2
ATOM      2  C   UNL A   1      33.415  31.451  27.258  1.00  0.00     0.261 C 
BRANCH   2   3
ATOM      3  O   UNL A   1      33.814  30.169  27.768  1.00  0.00    -0.461 OA
BRANCH   3   4
ATOM      4  C   UNL A   1      34.557  29.239  27.116  1.00  0.00     0.344 C 
ATOM      5  O   UNL A   1      35.738  29.094  27.430  1.00  0.00    -0.248 OA
BRANCH   4   6
ATOM      6  C   UNL A   1      33.961  28.469  25.949  1.00  0.00     0.351 C 
BRANCH   6   7
ATOM      7  O   UNL A   1      33.153  27.366  26.288  1.00  0.00    -0.481 OA
BRANCH   7   8
ATOM      8  C   UNL A   1      33.248  26.292  25.452  1.00  0.00     0.127 A 
ATOM      9  C   UNL A   1      34.403  25.527  25.669  1.00  0.00     0.047 A 
ATOM     10  C   UNL A   1      32.389  26.032  24.366  1.00  0.00     0.017 A 
ATOM     11  C   UNL A   1      34.729  24.486  24.811  1.00  0.00     0.004 A 
ATOM     12  C   UNL A   1      32.810  25.051  23.455  1.00  0.00     0.012 A 
ATOM     13  C   UNL A   1      33.943  24.263  23.689  1.00  0.00     0.001 A 
BRANCH  10  14
ATOM     14  C   UNL A   1      31.104  26.738  24.118  1.00  0.00     0.026 C 
ATOM     15  C   UNL A   1      30.924  27.811  23.317  1.00  0.00     0.050 C 
ATOM     16  C   UNL A   1      32.008  28.563  22.569  1.00  0.00     0.256 C 
ATOM     17  C   UNL A   1      29.664  28.537  23.030  1.00  0.00     0.011 A 
ATOM     18  O   UNL A   1      33.176  28.266  22.391  1.00  0.00    -0.269 OA
ATOM     19  N   UNL A   1      31.402  29.703  22.088  1.00  0.00    -0.321 N 
ATOM     20  C   UNL A   1      30.036  29.684  22.313  1.00  0.00     0.049 A 
ATOM     21  C   UNL A   1      28.318  28.279  23.229  1.00  0.00     0.011 A 
ATOM     22  H   UNL A   1      31.880  30.438  21.640  1.00  0.00     0.170 HD
ATOM     23  C   UNL A   1      29.136  30.613  21.827  1.00  0.00     0.027 A 
ATOM     24  C   UNL A   1      27.378  29.193  22.714  1.00  0.00     0.001 A 
ATOM     25  C   UNL A   1      27.784  30.353  22.027  1.00  0.00     0.002 A 
ENDBRANCH  10  14
ENDBRANCH   7   8
ENDBRANCH   6   7
ENDBRANCH   4   6
ENDBRANCH   3   4
ENDBRANCH   2   3
ENDBRANCH   1   2
BRANCH   1  26
ATOM     26  O   UNL A   1      33.282  33.679  28.510  1.00  0.00    -0.374 OA
BRANCH  26  27
ATOM     27  C   UNL A   1      33.788  34.500  29.553  1.00  0.00     0.202 C 
BRANCH  27  28
ATOM     28  C   UNL A   1      34.715  34.004  30.673  1.00  0.00     0.261 C 
BRANCH  28  29
ATOM     29  O   UNL A   1      34.508  32.670  31.141  1.00  0.00    -0.460 OA
BRANCH  29  30
ATOM     30  C   UNL A   1      35.347  32.290  32.131  1.00  0.00     0.338 C 
ATOM     31  O   UNL A   1      35.216  32.460  33.329  1.00  0.00    -0.246 OA
BRANCH  30  32
ATOM     32  C   UNL A   1      36.436  31.494  31.551  1.00  0.00     0.060 A 
ATOM     33  C   UNL A   1      37.325  30.846  32.416  1.00  0.00     0.016 A 
ATOM     34  C   UNL A   1      36.628  31.478  30.171  1.00  0.00     0.016 A 
ATOM     35  C   UNL A   1      38.440  30.196  31.896  1.00  0.00     0.010 A 
ATOM     36  C   UNL A   1      37.752  30.837  29.653  1.00  0.00     0.010 A 
ATOM     37  C   UNL A   1      38.675  30.222  30.516  1.00  0.00    -0.014 A 
BRANCH  37  38
ATOM     38  C   UNL A   1      39.954  29.717  29.971  1.00  0.00     0.031 A 
ATOM     39  C   UNL A   1      41.117  30.659  29.867  1.00  0.00     0.074 A 
ATOM     40  C   UNL A   1      40.053  28.445  29.550  1.00  0.00     0.049 A 
ATOM     41  N   UNL A   1      42.280  30.482  29.299  1.00  0.00    -0.248 NA
ATOM     42  C   UNL A   1      40.941  31.988  30.478  1.00  0.00     0.031 C 
ATOM     43  C   UNL A   1      38.993  27.443  29.644  1.00  0.00     0.029 A 
ATOM     44  N   UNL A   1      41.086  27.789  28.934  1.00  0.00    -0.354 N 
ATOM     45  C   UNL A   1      42.964  31.680  29.460  1.00  0.00     0.074 A 
ATOM     46  C   UNL A   1      42.083  32.583  30.167  1.00  0.00     0.031 C 
ATOM     47  C   UNL A   1      39.422  26.303  29.076  1.00  0.00     0.029 A 
ATOM     48  C   UNL A   1      40.763  26.515  28.538  1.00  0.00     0.049 A 
ATOM     49  H   UNL A   1      41.974  28.192  28.789  1.00  0.00     0.167 HD
ATOM     50  C   UNL A   1      44.217  31.989  29.050  1.00  0.00     0.037 A 
ATOM     51  C   UNL A   1      41.457  25.641  27.783  1.00  0.00     0.037 A 
ATOM     52  C   UNL A   1      45.081  31.071  28.358  1.00  0.00     0.049 A 
ATOM     53  C   UNL A   1      42.822  26.039  27.281  1.00  0.00     0.074 A 
ATOM     54  C   UNL A   1      46.387  31.261  27.945  1.00  0.00     0.029 A 
ATOM     55  N   UNL A   1      44.718  29.791  27.965  1.00  0.00    -0.354 N 
ATOM     56  N   UNL A   1      43.485  27.154  27.476  1.00  0.00    -0.248 NA
ATOM     57  C   UNL A   1      43.535  25.058  26.450  1.00  0.00     0.031 C 
ATOM     58  C   UNL A   1      46.789  30.125  27.238  1.00  0.00     0.029 A 
ATOM     59  C   UNL A   1      45.760  29.197  27.272  1.00  0.00     0.049 A 
ATOM     60  H   UNL A   1      43.850  29.367  28.151  1.00  0.00     0.167 HD
ATOM     61  C   UNL A   1      44.698  26.999  26.817  1.00  0.00     0.074 A 
ATOM     62  C   UNL A   1      44.688  25.675  26.232  1.00  0.00     0.031 C 
ATOM     63  C   UNL A   1      45.728  27.873  26.704  1.00  0.00     0.037 A 
BRANCH  50  64
ATOM     64  C   UNL A   1      44.717  33.383  29.296  1.00  0.00     0.064 A 
ATOM     65  C   UNL A   1      44.498  34.425  28.383  1.00  0.00     0.173 A 
ATOM     66  C   UNL A   1      45.374  33.692  30.497  1.00  0.00     0.173 A 
ATOM     67  F   UNL A   1      43.887  34.183  27.214  1.00  0.00    -0.203 F 
ATOM     68  C   UNL A   1      44.935  35.720  28.656  1.00  0.00     0.198 A 
ATOM     69  C   UNL A   1      45.781  34.991  30.781  1.00  0.00     0.198 A 
ATOM     70  F   UNL A   1      45.606  32.732  31.407  1.00  0.00    -0.203 F 
ATOM     71  F   UNL A   1      44.750  36.693  27.752  1.00  0.00    -0.200 F 
ATOM     72  C   UNL A   1      45.566  36.003  29.858  1.00  0.00     0.200 A 
ATOM     73  F   UNL A   1      46.376  35.266  31.950  1.00  0.00    -0.200 F 
ATOM     74  F   UNL A   1      45.971  37.253  30.127  1.00  0.00    -0.200 F 
ENDBRANCH  50  64
BRANCH  51  75
ATOM     75  C   UNL A   1      40.860  24.330  27.420  1.00  0.00     0.064 A 
ATOM     76  C   UNL A   1      39.800  24.243  26.507  1.00  0.00     0.173 A 
ATOM     77  C   UNL A   1      41.318  23.135  27.999  1.00  0.00     0.173 A 
ATOM     78  F   UNL A   1      39.311  25.357  25.942  1.00  0.00    -0.203 F 
ATOM     79  C   UNL A   1      39.204  23.019  26.209  1.00  0.00     0.198 A 
ATOM     80  C   UNL A   1      40.744  21.908  27.674  1.00  0.00     0.198 A 
ATOM     81  F   UNL A   1      42.329  23.160  28.878  1.00  0.00    -0.203 F 
ATOM     82  F   UNL A   1      38.153  22.973  25.378  1.00  0.00    -0.200 F 
ATOM     83  C   UNL A   1      39.679  21.852  26.788  1.00  0.00     0.200 A 
ATOM     84  F   UNL A   1      41.219  20.782  28.223  1.00  0.00    -0.200 F 
ATOM     85  F   UNL A   1      39.106  20.676  26.501  1.00  0.00    -0.200 F 
ENDBRANCH  51  75
BRANCH  63  86
ATOM     86  C   UNL A   1      46.943  27.419  25.947  1.00  0.00     0.064 A 
ATOM     87  C   UNL A   1      47.076  27.642  24.568  1.00  0.00     0.173 A 
ATOM     88  C   UNL A   1      48.014  26.813  26.621  1.00  0.00     0.173 A 
ATOM     89  F   UNL A   1      46.074  28.203  23.875  1.00  0.00    -0.203 F 
ATOM     90  C   UNL A   1      48.231  27.258  23.891  1.00  0.00     0.198 A 
ATOM     91  C   UNL A   1      49.180  26.464  25.948  1.00  0.00     0.198 A 
ATOM     92  F   UNL A   1      47.939  26.586  27.942  1.00  0.00    -0.203 F 
ATOM     93  F   UNL A   1      48.319  27.441  22.567  1.00  0.00    -0.200 F 
ATOM     94  C   UNL A   1      49.285  26.680  24.583  1.00  0.00     0.200 A 
ATOM     95  F   UNL A   1      50.205  25.924  26.622  1.00  0.00    -0.200 F 
ATOM     96  F   UNL A   1      50.402  26.329  23.932  1.00  0.00    -0.200 F 
ENDBRANCH  63  86
ENDBRANCH  37  38
ENDBRANCH  30  32
ENDBRANCH  29  30
ENDBRANCH  28  29
ENDBRANCH  27  28
ENDBRANCH  26  27
ENDBRANCH   1  26
TORSDOF 17
ENDMDL
