MODEL 1
REMARK VINA RESULT:     -11.7      0.000      0.000
REMARK SMILES CCC(CC)(NC(=O)Nc1cc(Cl)cc(Cl)c1)C(=O)OCCOCCOC(=O)c1ccc(-c2c3nc(c(-c4c(F)c(F)c(F)c(F)c4F)c4ccc([nH]4)c(-c4c(F)c(F)c(F)c(F)c4F)c4nc(c(-c5c(F)c(F)c(F)c(F)c5F)c5ccc2[nH]5)C=C4)C=C3)cc1
REMARK SMILES IDX 23 1 22 2 21 3 20 4 18 5 19 6 3 7 2 8 1 9 4 10 5 11 6 12
REMARK SMILES IDX 7 13 8 15 9 16 10 18 11 19 17 20 12 21 15 22 13 23 14 24
REMARK SMILES IDX 16 25 24 26 25 27 26 28 27 29 28 30 29 31 30 32 91 33 31 34
REMARK SMILES IDX 90 35 32 36 33 37 34 38 84 39 35 40 89 41 83 42 85 43 36 44
REMARK SMILES IDX 88 45 82 46 81 47 37 49 69 50 49 51 68 52 50 53 53 54 67 55
REMARK SMILES IDX 86 56 51 57 52 58 66 60 87 61 54 62 38 63 39 64 47 65 40 66
REMARK SMILES IDX 41 67 45 68 48 69 42 70 43 71 46 72 44 73 70 74 71 75 79 76
REMARK SMILES IDX 72 77 73 78 77 79 80 80 74 81 75 82 78 83 76 84 55 85 56 86
REMARK SMILES IDX 64 87 57 88 58 89 62 90 65 91 59 92 60 93 63 94 61 95
REMARK H PARENT 6 14 9 17 85 48 53 59
REMARK Flexibility Score: inf
ROOT
ATOM      1  O   UNL A   1      37.880  21.189  25.116  1.00  0.00    -0.374 OA
ENDROOT
BRANCH   1   2
ATOM      2  C   UNL A   1      36.663  21.702  25.643  1.00  0.00     0.202 C 
BRANCH   2   3
ATOM      3  C   UNL A   1      35.413  21.502  24.723  1.00  0.00     0.261 C 
BRANCH   3   4
ATOM      4  O   UNL A   1      34.261  21.030  25.464  1.00  0.00    -0.461 OA
BRANCH   4   5
ATOM      5  C   UNL A   1      33.660  21.820  26.431  1.00  0.00     0.331 C 
ATOM      6  O   UNL A   1      33.930  21.718  27.625  1.00  0.00    -0.249 OA
BRANCH   5   7
ATOM      7  C   UNL A   1      32.590  22.894  25.818  1.00  0.00     0.139 C 
BRANCH   7   8
ATOM      8  C   UNL A   1      31.958  23.077  24.380  1.00  0.00     0.037 C 
ATOM      9  C   UNL A   1      32.123  22.143  23.209  1.00  0.00     0.007 C 
ENDBRANCH   7   8
BRANCH   7  10
ATOM     10  C   UNL A   1      33.247  24.256  26.219  1.00  0.00     0.037 C 
ATOM     11  C   UNL A   1      34.331  24.853  25.328  1.00  0.00     0.007 C 
ENDBRANCH   7  10
BRANCH   7  12
ATOM     12  N   UNL A   1      31.416  22.495  26.566  1.00  0.00    -0.322 N 
ATOM     13  C   UNL A   1      30.425  23.322  26.964  1.00  0.00     0.320 C 
ATOM     14  H   UNL A   1      31.333  21.543  26.804  1.00  0.00     0.166 HD
ATOM     15  O   UNL A   1      29.543  22.808  27.663  1.00  0.00    -0.248 OA
ATOM     16  N   UNL A   1      30.321  24.660  26.724  1.00  0.00    -0.308 N 
ATOM     17  H   UNL A   1      29.689  25.006  27.395  1.00  0.00     0.171 HD
BRANCH  16  18
ATOM     18  C   UNL A   1      30.717  25.803  25.930  1.00  0.00     0.045 A 
ATOM     19  C   UNL A   1      30.456  26.143  24.601  1.00  0.00     0.046 A 
ATOM     20  C   UNL A   1      31.387  26.807  26.651  1.00  0.00     0.046 A 
ATOM     21  C   UNL A   1      30.741  27.407  24.045  1.00  0.00     0.044 A 
ATOM     22  C   UNL A   1      31.713  28.057  26.094  1.00  0.00     0.044 A 
ATOM     23  Cl  UNL A   1      30.280  27.756  22.418  1.00  0.00    -0.084 Cl
ATOM     24  C   UNL A   1      31.374  28.375  24.790  1.00  0.00     0.041 A 
ATOM     25  Cl  UNL A   1      32.532  29.224  27.056  1.00  0.00    -0.084 Cl
ENDBRANCH  16  18
ENDBRANCH   7  12
ENDBRANCH   5   7
ENDBRANCH   4   5
ENDBRANCH   3   4
ENDBRANCH   2   3
ENDBRANCH   1   2
BRANCH   1  26
ATOM     26  C   UNL A   1      38.111  19.775  25.109  1.00  0.00     0.202 C 
BRANCH  26  27
ATOM     27  C   UNL A   1      39.488  19.331  25.646  1.00  0.00     0.261 C 
BRANCH  27  28
ATOM     28  O   UNL A   1      40.343  20.450  25.872  1.00  0.00    -0.460 OA
BRANCH  28  29
ATOM     29  C   UNL A   1      40.922  20.440  27.101  1.00  0.00     0.338 C 
ATOM     30  O   UNL A   1      41.445  19.514  27.659  1.00  0.00    -0.246 OA
BRANCH  29  31
ATOM     31  C   UNL A   1      41.117  21.859  27.464  1.00  0.00     0.060 A 
ATOM     32  C   UNL A   1      40.268  22.790  26.852  1.00  0.00     0.016 A 
ATOM     33  C   UNL A   1      42.002  22.244  28.476  1.00  0.00     0.016 A 
ATOM     34  C   UNL A   1      40.348  24.131  27.207  1.00  0.00     0.010 A 
ATOM     35  C   UNL A   1      42.091  23.588  28.823  1.00  0.00     0.010 A 
ATOM     36  C   UNL A   1      41.301  24.534  28.150  1.00  0.00    -0.014 A 
BRANCH  36  37
ATOM     37  C   UNL A   1      41.690  25.955  28.209  1.00  0.00     0.031 A 
ATOM     38  C   UNL A   1      43.024  26.314  27.617  1.00  0.00     0.074 A 
ATOM     39  C   UNL A   1      40.900  26.882  28.771  1.00  0.00     0.049 A 
ATOM     40  N   UNL A   1      43.646  27.462  27.608  1.00  0.00    -0.248 NA
ATOM     41  C   UNL A   1      43.758  25.225  26.946  1.00  0.00     0.031 C 
ATOM     42  C   UNL A   1      39.575  26.641  29.334  1.00  0.00     0.029 A 
ATOM     43  N   UNL A   1      41.119  28.220  28.973  1.00  0.00    -0.354 N 
ATOM     44  C   UNL A   1      44.842  27.229  26.945  1.00  0.00     0.074 A 
ATOM     45  C   UNL A   1      44.874  25.833  26.577  1.00  0.00     0.031 C 
ATOM     46  C   UNL A   1      39.108  27.794  29.849  1.00  0.00     0.029 A 
ATOM     47  C   UNL A   1      40.119  28.836  29.683  1.00  0.00     0.049 A 
ATOM     48  H   UNL A   1      41.916  28.694  28.641  1.00  0.00     0.167 HD
ATOM     49  C   UNL A   1      45.830  28.107  26.671  1.00  0.00     0.037 A 
ATOM     50  C   UNL A   1      40.060  30.090  30.172  1.00  0.00     0.037 A 
ATOM     51  C   UNL A   1      45.789  29.493  27.041  1.00  0.00     0.049 A 
ATOM     52  C   UNL A   1      41.217  31.029  29.920  1.00  0.00     0.074 A 
ATOM     53  C   UNL A   1      46.714  30.482  26.768  1.00  0.00     0.029 A 
ATOM     54  N   UNL A   1      44.773  30.077  27.780  1.00  0.00    -0.354 N 
ATOM     55  N   UNL A   1      42.321  30.823  29.240  1.00  0.00    -0.248 NA
ATOM     56  C   UNL A   1      41.124  32.372  30.511  1.00  0.00     0.031 C 
ATOM     57  C   UNL A   1      46.291  31.653  27.403  1.00  0.00     0.029 A 
ATOM     58  C   UNL A   1      45.072  31.407  28.017  1.00  0.00     0.049 A 
ATOM     59  H   UNL A   1      43.960  29.616  28.090  1.00  0.00     0.167 HD
ATOM     60  C   UNL A   1      43.037  32.012  29.303  1.00  0.00     0.074 A 
ATOM     61  C   UNL A   1      42.236  32.942  30.070  1.00  0.00     0.031 C 
ATOM     62  C   UNL A   1      44.251  32.311  28.777  1.00  0.00     0.037 A 
BRANCH  49  63
ATOM     63  C   UNL A   1      47.052  27.592  25.978  1.00  0.00     0.064 A 
ATOM     64  C   UNL A   1      47.176  27.610  24.581  1.00  0.00     0.173 A 
ATOM     65  C   UNL A   1      48.137  27.119  26.731  1.00  0.00     0.173 A 
ATOM     66  F   UNL A   1      46.156  28.030  23.818  1.00  0.00    -0.203 F 
ATOM     67  C   UNL A   1      48.342  27.169  23.963  1.00  0.00     0.198 A 
ATOM     68  C   UNL A   1      49.311  26.703  26.112  1.00  0.00     0.198 A 
ATOM     69  F   UNL A   1      48.062  27.073  28.070  1.00  0.00    -0.203 F 
ATOM     70  F   UNL A   1      48.430  27.167  22.626  1.00  0.00    -0.200 F 
ATOM     71  C   UNL A   1      49.412  26.728  24.728  1.00  0.00     0.200 A 
ATOM     72  F   UNL A   1      50.345  26.285  26.852  1.00  0.00    -0.200 F 
ATOM     73  F   UNL A   1      50.541  26.321  24.132  1.00  0.00    -0.200 F 
ENDBRANCH  49  63
BRANCH  50  74
ATOM     74  C   UNL A   1      38.902  30.523  30.997  1.00  0.00     0.064 A 
ATOM     75  C   UNL A   1      37.794  31.159  30.419  1.00  0.00     0.173 A 
ATOM     76  C   UNL A   1      38.906  30.366  32.391  1.00  0.00     0.173 A 
ATOM     77  F   UNL A   1      37.753  31.359  29.094  1.00  0.00    -0.203 F 
ATOM     78  C   UNL A   1      36.754  31.652  31.206  1.00  0.00     0.198 A 
ATOM     79  C   UNL A   1      37.850  30.829  33.174  1.00  0.00     0.198 A 
ATOM     80  F   UNL A   1      39.944  29.770  32.998  1.00  0.00    -0.203 F 
ATOM     81  F   UNL A   1      35.741  32.316  30.633  1.00  0.00    -0.200 F 
ATOM     82  C   UNL A   1      36.782  31.482  32.582  1.00  0.00     0.200 A 
ATOM     83  F   UNL A   1      37.878  30.656  34.503  1.00  0.00    -0.200 F 
ATOM     84  F   UNL A   1      35.787  31.966  33.339  1.00  0.00    -0.200 F 
ENDBRANCH  50  74
BRANCH  62  85
ATOM     85  C   UNL A   1      44.779  33.700  28.991  1.00  0.00     0.064 A 
ATOM     86  C   UNL A   1      44.452  34.751  28.122  1.00  0.00     0.173 A 
ATOM     87  C   UNL A   1      45.556  33.998  30.122  1.00  0.00     0.173 A 
ATOM     88  F   UNL A   1      43.723  34.514  27.022  1.00  0.00    -0.203 F 
ATOM     89  C   UNL A   1      44.896  36.047  28.370  1.00  0.00     0.198 A 
ATOM     90  C   UNL A   1      45.968  35.300  30.384  1.00  0.00     0.198 A 
ATOM     91  F   UNL A   1      45.886  33.029  30.990  1.00  0.00    -0.203 F 
ATOM     92  F   UNL A   1      44.602  37.029  27.508  1.00  0.00    -0.200 F 
ATOM     93  C   UNL A   1      45.643  36.322  29.506  1.00  0.00     0.200 A 
ATOM     94  F   UNL A   1      46.674  35.567  31.491  1.00  0.00    -0.200 F 
ATOM     95  F   UNL A   1      46.052  37.574  29.753  1.00  0.00    -0.200 F 
ENDBRANCH  62  85
ENDBRANCH  36  37
ENDBRANCH  29  31
ENDBRANCH  28  29
ENDBRANCH  27  28
ENDBRANCH  26  27
ENDBRANCH   1  26
TORSDOF 18
ENDMDL
MODEL 2
REMARK VINA RESULT:     -11.7      4.530      7.614
REMARK SMILES CCC(CC)(NC(=O)Nc1cc(Cl)cc(Cl)c1)C(=O)OCCOCCOC(=O)c1ccc(-c2c3nc(c(-c4c(F)c(F)c(F)c(F)c4F)c4ccc([nH]4)c(-c4c(F)c(F)c(F)c(F)c4F)c4nc(c(-c5c(F)c(F)c(F)c(F)c5F)c5ccc2[nH]5)C=C4)C=C3)cc1
REMARK SMILES IDX 23 1 22 2 21 3 20 4 18 5 19 6 3 7 2 8 1 9 4 10 5 11 6 12
REMARK SMILES IDX 7 13 8 15 9 16 10 18 11 19 17 20 12 21 15 22 13 23 14 24
REMARK SMILES IDX 16 25 24 26 25 27 26 28 27 29 28 30 29 31 30 32 91 33 31 34
REMARK SMILES IDX 90 35 32 36 33 37 34 38 84 39 35 40 89 41 83 42 85 43 36 44
REMARK SMILES IDX 88 45 82 46 81 47 37 49 69 50 49 51 68 52 50 53 53 54 67 55
REMARK SMILES IDX 86 56 51 57 52 58 66 60 87 61 54 62 38 63 39 64 47 65 40 66
REMARK SMILES IDX 41 67 45 68 48 69 42 70 43 71 46 72 44 73 70 74 71 75 79 76
REMARK SMILES IDX 72 77 73 78 77 79 80 80 74 81 75 82 78 83 76 84 55 85 56 86
REMARK SMILES IDX 64 87 57 88 58 89 62 90 65 91 59 92 60 93 63 94 61 95
REMARK H PARENT 6 14 9 17 85 48 53 59
REMARK Flexibility Score: inf
ROOT
ATOM      1  O   UNL A   1      31.460  28.352  25.956  1.00  0.00    -0.374 OA
ENDROOT
BRANCH   1   2
ATOM      2  C   UNL A   1      31.482  27.209  25.109  1.00  0.00     0.202 C 
BRANCH   2   3
ATOM      3  C   UNL A   1      30.586  26.019  25.588  1.00  0.00     0.261 C 
BRANCH   3   4
ATOM      4  O   UNL A   1      30.890  24.790  24.883  1.00  0.00    -0.461 OA
BRANCH   4   5
ATOM      5  C   UNL A   1      31.250  23.642  25.569  1.00  0.00     0.331 C 
ATOM      6  O   UNL A   1      30.572  23.181  26.483  1.00  0.00    -0.249 OA
BRANCH   5   7
ATOM      7  C   UNL A   1      32.639  22.971  25.026  1.00  0.00     0.139 C 
BRANCH   7   8
ATOM      8  C   UNL A   1      33.064  21.477  24.732  1.00  0.00     0.037 C 
ATOM      9  C   UNL A   1      32.436  20.554  23.719  1.00  0.00     0.007 C 
ENDBRANCH   7   8
BRANCH   7  10
ATOM     10  C   UNL A   1      33.688  23.570  26.020  1.00  0.00     0.037 C 
ATOM     11  C   UNL A   1      34.049  22.794  27.282  1.00  0.00     0.007 C 
ENDBRANCH   7  10
BRANCH   7  12
ATOM     12  N   UNL A   1      32.639  23.509  23.681  1.00  0.00    -0.322 N 
ATOM     13  C   UNL A   1      33.741  23.802  22.958  1.00  0.00     0.320 C 
ATOM     14  H   UNL A   1      31.765  23.674  23.261  1.00  0.00     0.166 HD
ATOM     15  O   UNL A   1      33.537  24.328  21.856  1.00  0.00    -0.248 OA
ATOM     16  N   UNL A   1      35.042  23.629  23.328  1.00  0.00    -0.308 N 
ATOM     17  H   UNL A   1      35.569  24.218  22.741  1.00  0.00     0.171 HD
BRANCH  16  18
ATOM     18  C   UNL A   1      36.000  22.974  24.193  1.00  0.00     0.045 A 
ATOM     19  C   UNL A   1      36.447  21.652  24.246  1.00  0.00     0.046 A 
ATOM     20  C   UNL A   1      36.686  23.841  25.060  1.00  0.00     0.046 A 
ATOM     21  C   UNL A   1      37.550  21.229  25.016  1.00  0.00     0.044 A 
ATOM     22  C   UNL A   1      37.762  23.420  25.864  1.00  0.00     0.044 A 
ATOM     23  Cl  UNL A   1      38.085  19.589  24.925  1.00  0.00    -0.084 Cl
ATOM     24  C   UNL A   1      38.216  22.113  25.833  1.00  0.00     0.041 A 
ATOM     25  Cl  UNL A   1      38.544  24.555  26.893  1.00  0.00    -0.084 Cl
ENDBRANCH  16  18
ENDBRANCH   7  12
ENDBRANCH   5   7
ENDBRANCH   4   5
ENDBRANCH   3   4
ENDBRANCH   2   3
ENDBRANCH   1   2
BRANCH   1  26
ATOM     26  C   UNL A   1      31.641  29.657  25.392  1.00  0.00     0.202 C 
BRANCH  26  27
ATOM     27  C   UNL A   1      31.794  30.800  26.417  1.00  0.00     0.261 C 
BRANCH  27  28
ATOM     28  O   UNL A   1      32.969  30.634  27.209  1.00  0.00    -0.460 OA
BRANCH  28  29
ATOM     29  C   UNL A   1      33.589  31.808  27.497  1.00  0.00     0.338 C 
ATOM     30  O   UNL A   1      33.093  32.898  27.584  1.00  0.00    -0.246 OA
BRANCH  29  31
ATOM     31  C   UNL A   1      34.911  31.439  28.045  1.00  0.00     0.060 A 
ATOM     32  C   UNL A   1      35.104  30.093  28.378  1.00  0.00     0.016 A 
ATOM     33  C   UNL A   1      35.968  32.355  28.093  1.00  0.00     0.016 A 
ATOM     34  C   UNL A   1      36.347  29.667  28.827  1.00  0.00     0.010 A 
ATOM     35  C   UNL A   1      37.210  31.931  28.553  1.00  0.00     0.010 A 
ATOM     36  C   UNL A   1      37.381  30.600  28.968  1.00  0.00    -0.014 A 
BRANCH  36  37
ATOM     37  C   UNL A   1      38.530  30.269  29.830  1.00  0.00     0.031 A 
ATOM     38  C   UNL A   1      39.511  29.266  29.291  1.00  0.00     0.074 A 
ATOM     39  C   UNL A   1      38.692  30.827  31.040  1.00  0.00     0.049 A 
ATOM     40  N   UNL A   1      40.555  28.734  29.866  1.00  0.00    -0.248 NA
ATOM     41  C   UNL A   1      39.276  28.795  27.913  1.00  0.00     0.031 C 
ATOM     42  C   UNL A   1      37.821  31.837  31.633  1.00  0.00     0.029 A 
ATOM     43  N   UNL A   1      39.649  30.596  31.994  1.00  0.00    -0.354 N 
ATOM     44  C   UNL A   1      41.090  27.862  28.928  1.00  0.00     0.074 A 
ATOM     45  C   UNL A   1      40.254  27.919  27.752  1.00  0.00     0.031 C 
ATOM     46  C   UNL A   1      38.268  32.121  32.870  1.00  0.00     0.029 A 
ATOM     47  C   UNL A   1      39.429  31.282  33.163  1.00  0.00     0.049 A 
ATOM     48  H   UNL A   1      40.418  29.997  31.856  1.00  0.00     0.167 HD
ATOM     49  C   UNL A   1      42.184  27.079  29.044  1.00  0.00     0.037 A 
ATOM     50  C   UNL A   1      40.077  31.200  34.342  1.00  0.00     0.037 A 
ATOM     51  C   UNL A   1      43.008  27.030  30.217  1.00  0.00     0.049 A 
ATOM     52  C   UNL A   1      41.250  30.254  34.467  1.00  0.00     0.074 A 
ATOM     53  C   UNL A   1      44.169  26.310  30.422  1.00  0.00     0.029 A 
ATOM     54  N   UNL A   1      42.743  27.718  31.391  1.00  0.00    -0.354 N 
ATOM     55  N   UNL A   1      41.791  29.477  33.560  1.00  0.00    -0.248 NA
ATOM     56  C   UNL A   1      41.896  30.170  35.785  1.00  0.00     0.031 C 
ATOM     57  C   UNL A   1      44.570  26.508  31.746  1.00  0.00     0.029 A 
ATOM     58  C   UNL A   1      43.693  27.401  32.344  1.00  0.00     0.049 A 
ATOM     59  H   UNL A   1      41.991  28.340  31.526  1.00  0.00     0.167 HD
ATOM     60  C   UNL A   1      42.849  28.832  34.188  1.00  0.00     0.074 A 
ATOM     61  C   UNL A   1      42.888  29.323  35.548  1.00  0.00     0.031 C 
ATOM     62  C   UNL A   1      43.712  27.913  33.688  1.00  0.00     0.037 A 
BRANCH  49  63
ATOM     63  C   UNL A   1      42.529  26.185  27.894  1.00  0.00     0.064 A 
ATOM     64  C   UNL A   1      41.968  24.907  27.755  1.00  0.00     0.173 A 
ATOM     65  C   UNL A   1      43.397  26.638  26.891  1.00  0.00     0.173 A 
ATOM     66  F   UNL A   1      41.152  24.420  28.701  1.00  0.00    -0.203 F 
ATOM     67  C   UNL A   1      42.268  24.113  26.651  1.00  0.00     0.198 A 
ATOM     68  C   UNL A   1      43.674  25.854  25.776  1.00  0.00     0.198 A 
ATOM     69  F   UNL A   1      43.965  27.850  26.985  1.00  0.00    -0.203 F 
ATOM     70  F   UNL A   1      41.746  22.884  26.550  1.00  0.00    -0.200 F 
ATOM     71  C   UNL A   1      43.110  24.592  25.658  1.00  0.00     0.200 A 
ATOM     72  F   UNL A   1      44.481  26.321  24.816  1.00  0.00    -0.200 F 
ATOM     73  F   UNL A   1      43.384  23.834  24.587  1.00  0.00    -0.200 F 
ENDBRANCH  49  63
BRANCH  50  74
ATOM     74  C   UNL A   1      39.609  31.983  35.515  1.00  0.00     0.064 A 
ATOM     75  C   UNL A   1      38.659  31.461  36.406  1.00  0.00     0.173 A 
ATOM     76  C   UNL A   1      40.054  33.295  35.736  1.00  0.00     0.173 A 
ATOM     77  F   UNL A   1      38.180  30.222  36.223  1.00  0.00    -0.203 F 
ATOM     78  C   UNL A   1      38.149  32.234  37.448  1.00  0.00     0.198 A 
ATOM     79  C   UNL A   1      39.569  34.054  36.799  1.00  0.00     0.198 A 
ATOM     80  F   UNL A   1      40.958  33.846  34.911  1.00  0.00    -0.203 F 
ATOM     81  F   UNL A   1      37.192  31.734  38.242  1.00  0.00    -0.200 F 
ATOM     82  C   UNL A   1      38.607  33.528  37.645  1.00  0.00     0.200 A 
ATOM     83  F   UNL A   1      40.021  35.301  36.989  1.00  0.00    -0.200 F 
ATOM     84  F   UNL A   1      38.108  34.273  38.641  1.00  0.00    -0.200 F 
ENDBRANCH  50  74
BRANCH  62  85
ATOM     85  C   UNL A   1      44.782  27.393  34.604  1.00  0.00     0.064 A 
ATOM     86  C   UNL A   1      46.001  28.069  34.764  1.00  0.00     0.173 A 
ATOM     87  C   UNL A   1      44.553  26.252  35.388  1.00  0.00     0.173 A 
ATOM     88  F   UNL A   1      46.271  29.157  34.028  1.00  0.00    -0.203 F 
ATOM     89  C   UNL A   1      46.957  27.611  35.666  1.00  0.00     0.198 A 
ATOM     90  C   UNL A   1      45.498  25.817  36.312  1.00  0.00     0.198 A 
ATOM     91  F   UNL A   1      43.398  25.578  35.280  1.00  0.00    -0.203 F 
ATOM     92  F   UNL A   1      48.130  28.250  35.777  1.00  0.00    -0.200 F 
ATOM     93  C   UNL A   1      46.700  26.493  36.447  1.00  0.00     0.200 A 
ATOM     94  F   UNL A   1      45.240  24.749  37.079  1.00  0.00    -0.200 F 
ATOM     95  F   UNL A   1      47.615  26.066  37.328  1.00  0.00    -0.200 F 
ENDBRANCH  62  85
ENDBRANCH  36  37
ENDBRANCH  29  31
ENDBRANCH  28  29
ENDBRANCH  27  28
ENDBRANCH  26  27
ENDBRANCH   1  26
TORSDOF 18
ENDMDL
MODEL 3
REMARK VINA RESULT:     -11.4      1.565      7.665
REMARK SMILES CCC(CC)(NC(=O)Nc1cc(Cl)cc(Cl)c1)C(=O)OCCOCCOC(=O)c1ccc(-c2c3nc(c(-c4c(F)c(F)c(F)c(F)c4F)c4ccc([nH]4)c(-c4c(F)c(F)c(F)c(F)c4F)c4nc(c(-c5c(F)c(F)c(F)c(F)c5F)c5ccc2[nH]5)C=C4)C=C3)cc1
REMARK SMILES IDX 23 1 22 2 21 3 20 4 18 5 19 6 3 7 2 8 1 9 4 10 5 11 6 12
REMARK SMILES IDX 7 13 8 15 9 16 10 18 11 19 17 20 12 21 15 22 13 23 14 24
REMARK SMILES IDX 16 25 24 26 25 27 26 28 27 29 28 30 29 31 30 32 91 33 31 34
REMARK SMILES IDX 90 35 32 36 33 37 34 38 84 39 35 40 89 41 83 42 85 43 36 44
REMARK SMILES IDX 88 45 82 46 81 47 37 49 69 50 49 51 68 52 50 53 53 54 67 55
REMARK SMILES IDX 86 56 51 57 52 58 66 60 87 61 54 62 38 63 39 64 47 65 40 66
REMARK SMILES IDX 41 67 45 68 48 69 42 70 43 71 46 72 44 73 70 74 71 75 79 76
REMARK SMILES IDX 72 77 73 78 77 79 80 80 74 81 75 82 78 83 76 84 55 85 56 86
REMARK SMILES IDX 64 87 57 88 58 89 62 90 65 91 59 92 60 93 63 94 61 95
REMARK H PARENT 6 14 9 17 85 48 53 59
REMARK Flexibility Score: inf
ROOT
ATOM      1  O   UNL A   1      35.762  21.140  26.022  1.00  0.00    -0.374 OA
ENDROOT
BRANCH   1   2
ATOM      2  C   UNL A   1      34.584  21.906  25.802  1.00  0.00     0.202 C 
BRANCH   2   3
ATOM      3  C   UNL A   1      33.520  21.222  24.880  1.00  0.00     0.261 C 
BRANCH   3   4
ATOM      4  O   UNL A   1      32.446  22.128  24.524  1.00  0.00    -0.461 OA
BRANCH   4   5
ATOM      5  C   UNL A   1      32.341  22.644  23.243  1.00  0.00     0.331 C 
ATOM      6  O   UNL A   1      32.130  21.935  22.263  1.00  0.00    -0.249 OA
BRANCH   5   7
ATOM      7  C   UNL A   1      32.505  24.270  23.184  1.00  0.00     0.139 C 
BRANCH   7   8
ATOM      8  C   UNL A   1      33.526  25.270  23.861  1.00  0.00     0.037 C 
ATOM      9  C   UNL A   1      33.927  25.287  25.313  1.00  0.00     0.007 C 
ENDBRANCH   7   8
BRANCH   7  10
ATOM     10  C   UNL A   1      31.063  24.746  23.558  1.00  0.00     0.037 C 
ATOM     11  C   UNL A   1      30.616  24.700  25.015  1.00  0.00     0.007 C 
ENDBRANCH   7  10
BRANCH   7  12
ATOM     12  N   UNL A   1      32.894  24.407  21.795  1.00  0.00    -0.322 N 
ATOM     13  C   UNL A   1      32.650  25.485  21.018  1.00  0.00     0.320 C 
ATOM     14  H   UNL A   1      33.374  23.653  21.384  1.00  0.00     0.166 HD
ATOM     15  O   UNL A   1      32.990  25.382  19.833  1.00  0.00    -0.248 OA
ATOM     16  N   UNL A   1      32.029  26.643  21.385  1.00  0.00    -0.308 N 
ATOM     17  H   UNL A   1      31.733  27.065  20.547  1.00  0.00     0.171 HD
BRANCH  16  18
ATOM     18  C   UNL A   1      31.610  27.532  22.446  1.00  0.00     0.045 A 
ATOM     19  C   UNL A   1      32.320  28.135  23.486  1.00  0.00     0.046 A 
ATOM     20  C   UNL A   1      30.273  27.958  22.351  1.00  0.00     0.046 A 
ATOM     21  C   UNL A   1      31.794  29.151  24.310  1.00  0.00     0.044 A 
ATOM     22  C   UNL A   1      29.725  28.941  23.195  1.00  0.00     0.044 A 
ATOM     23  Cl  UNL A   1      32.796  29.902  25.498  1.00  0.00    -0.084 Cl
ATOM     24  C   UNL A   1      30.487  29.561  24.169  1.00  0.00     0.041 A 
ATOM     25  Cl  UNL A   1      28.079  29.400  23.001  1.00  0.00    -0.084 Cl
ENDBRANCH  16  18
ENDBRANCH   7  12
ENDBRANCH   5   7
ENDBRANCH   4   5
ENDBRANCH   3   4
ENDBRANCH   2   3
ENDBRANCH   1   2
BRANCH   1  26
ATOM     26  C   UNL A   1      36.330  20.385  24.944  1.00  0.00     0.202 C 
BRANCH  26  27
ATOM     27  C   UNL A   1      37.858  20.182  25.017  1.00  0.00     0.261 C 
BRANCH  27  28
ATOM     28  O   UNL A   1      38.503  21.306  25.614  1.00  0.00    -0.460 OA
BRANCH  28  29
ATOM     29  C   UNL A   1      39.649  20.978  26.267  1.00  0.00     0.338 C 
ATOM     30  O   UNL A   1      40.262  19.947  26.203  1.00  0.00    -0.246 OA
BRANCH  29  31
ATOM     31  C   UNL A   1      40.196  22.252  26.780  1.00  0.00     0.060 A 
ATOM     32  C   UNL A   1      39.617  23.430  26.293  1.00  0.00     0.016 A 
ATOM     33  C   UNL A   1      41.144  22.283  27.808  1.00  0.00     0.016 A 
ATOM     34  C   UNL A   1      40.034  24.658  26.791  1.00  0.00     0.010 A 
ATOM     35  C   UNL A   1      41.571  23.513  28.298  1.00  0.00     0.010 A 
ATOM     36  C   UNL A   1      41.052  24.698  27.751  1.00  0.00    -0.014 A 
BRANCH  36  37
ATOM     37  C   UNL A   1      41.790  25.957  27.958  1.00  0.00     0.031 A 
ATOM     38  C   UNL A   1      41.061  27.056  28.678  1.00  0.00     0.074 A 
ATOM     39  C   UNL A   1      43.048  26.120  27.520  1.00  0.00     0.049 A 
ATOM     40  N   UNL A   1      41.436  28.283  28.918  1.00  0.00    -0.248 NA
ATOM     41  C   UNL A   1      39.719  26.725  29.193  1.00  0.00     0.031 C 
ATOM     42  C   UNL A   1      43.853  25.104  26.849  1.00  0.00     0.029 A 
ATOM     43  N   UNL A   1      43.858  27.226  27.563  1.00  0.00    -0.354 N 
ATOM     44  C   UNL A   1      40.377  28.868  29.598  1.00  0.00     0.074 A 
ATOM     45  C   UNL A   1      39.336  27.875  29.722  1.00  0.00     0.031 C 
ATOM     46  C   UNL A   1      45.039  25.644  26.514  1.00  0.00     0.029 A 
ATOM     47  C   UNL A   1      45.054  27.050  26.913  1.00  0.00     0.049 A 
ATOM     48  H   UNL A   1      43.607  28.063  28.014  1.00  0.00     0.167 HD
ATOM     49  C   UNL A   1      40.284  30.128  30.073  1.00  0.00     0.037 A 
ATOM     50  C   UNL A   1      46.024  27.946  26.643  1.00  0.00     0.037 A 
ATOM     51  C   UNL A   1      41.325  31.108  29.945  1.00  0.00     0.049 A 
ATOM     52  C   UNL A   1      45.857  29.371  27.117  1.00  0.00     0.074 A 
ATOM     53  C   UNL A   1      41.354  32.399  30.434  1.00  0.00     0.029 A 
ATOM     54  N   UNL A   1      42.512  30.904  29.260  1.00  0.00    -0.354 N 
ATOM     55  N   UNL A   1      44.881  29.905  27.813  1.00  0.00    -0.248 NA
ATOM     56  C   UNL A   1      46.922  30.319  26.760  1.00  0.00     0.031 C 
ATOM     57  C   UNL A   1      42.532  33.001  29.987  1.00  0.00     0.029 A 
ATOM     58  C   UNL A   1      43.263  32.065  29.271  1.00  0.00     0.049 A 
ATOM     59  H   UNL A   1      42.781  30.060  28.830  1.00  0.00     0.167 HD
ATOM     60  C   UNL A   1      45.226  31.239  27.995  1.00  0.00     0.074 A 
ATOM     61  C   UNL A   1      46.509  31.429  27.355  1.00  0.00     0.031 C 
ATOM     62  C   UNL A   1      44.543  32.222  28.632  1.00  0.00     0.037 A 
BRANCH  49  63
ATOM     63  C   UNL A   1      39.004  30.533  30.736  1.00  0.00     0.064 A 
ATOM     64  C   UNL A   1      38.840  30.476  32.127  1.00  0.00     0.173 A 
ATOM     65  C   UNL A   1      37.945  31.033  29.965  1.00  0.00     0.173 A 
ATOM     66  F   UNL A   1      39.816  29.982  32.904  1.00  0.00    -0.203 F 
ATOM     67  C   UNL A   1      37.656  30.903  32.723  1.00  0.00     0.198 A 
ATOM     68  C   UNL A   1      36.773  31.483  30.565  1.00  0.00     0.198 A 
ATOM     69  F   UNL A   1      38.052  31.098  28.629  1.00  0.00    -0.203 F 
ATOM     70  F   UNL A   1      37.507  30.814  34.051  1.00  0.00    -0.200 F 
ATOM     71  C   UNL A   1      36.630  31.417  31.943  1.00  0.00     0.200 A 
ATOM     72  F   UNL A   1      35.788  31.986  29.812  1.00  0.00    -0.200 F 
ATOM     73  F   UNL A   1      35.499  31.845  32.520  1.00  0.00    -0.200 F 
ENDBRANCH  49  63
BRANCH  50  74
ATOM     74  C   UNL A   1      47.212  27.551  25.840  1.00  0.00     0.064 A 
ATOM     75  C   UNL A   1      48.397  27.125  26.456  1.00  0.00     0.173 A 
ATOM     76  C   UNL A   1      47.206  27.652  24.441  1.00  0.00     0.173 A 
ATOM     77  F   UNL A   1      48.464  27.038  27.792  1.00  0.00    -0.203 F 
ATOM     78  C   UNL A   1      49.540  26.849  25.705  1.00  0.00     0.198 A 
ATOM     79  C   UNL A   1      48.339  27.343  23.690  1.00  0.00     0.198 A 
ATOM     80  F   UNL A   1      46.101  28.060  23.800  1.00  0.00    -0.203 F 
ATOM     81  F   UNL A   1      50.678  26.510  26.325  1.00  0.00    -0.200 F 
ATOM     82  C   UNL A   1      49.508  26.955  24.323  1.00  0.00     0.200 A 
ATOM     83  F   UNL A   1      48.300  27.441  22.353  1.00  0.00    -0.200 F 
ATOM     84  F   UNL A   1      50.610  26.701  23.604  1.00  0.00    -0.200 F 
ENDBRANCH  50  74
BRANCH  62  85
ATOM     85  C   UNL A   1      45.173  33.583  28.690  1.00  0.00     0.064 A 
ATOM     86  C   UNL A   1      44.880  34.568  27.736  1.00  0.00     0.173 A 
ATOM     87  C   UNL A   1      46.019  33.930  29.756  1.00  0.00     0.173 A 
ATOM     88  F   UNL A   1      44.087  34.282  26.693  1.00  0.00    -0.203 F 
ATOM     89  C   UNL A   1      45.421  35.847  27.840  1.00  0.00     0.198 A 
ATOM     90  C   UNL A   1      46.530  35.218  29.874  1.00  0.00     0.198 A 
ATOM     91  F   UNL A   1      46.321  33.026  30.701  1.00  0.00    -0.203 F 
ATOM     92  F   UNL A   1      45.156  36.762  26.897  1.00  0.00    -0.200 F 
ATOM     93  C   UNL A   1      46.236  36.173  28.914  1.00  0.00     0.200 A 
ATOM     94  F   UNL A   1      47.301  35.537  30.922  1.00  0.00    -0.200 F 
ATOM     95  F   UNL A   1      46.740  37.410  29.021  1.00  0.00    -0.200 F 
ENDBRANCH  62  85
ENDBRANCH  36  37
ENDBRANCH  29  31
ENDBRANCH  28  29
ENDBRANCH  27  28
ENDBRANCH  26  27
ENDBRANCH   1  26
TORSDOF 18
ENDMDL
