MODEL 1
REMARK VINA RESULT:     -11.3      0.000      0.000
REMARK SMILES C[C@@H](c1ccccc1)[C@@H]1[NH2+][C@@H](C(=O)OCCOCCOC(=O)c2ccc(-c3c4nc(c(-c5c(F)c(F)c(F)c(F)c5F)c5ccc([nH]5)c(-c5c(F)c(F)c(F)c(F)c5F)c5nc(c(-c6c(F)c(F)c(F)c(F)c6F)c6ccc3[nH]6)C=C5)C=C4)cc2)CS1
REMARK SMILES IDX 17 1 16 2 15 3 14 4 12 5 13 6 11 7 9 8 10 9 87 10 86 13 2 14
REMARK SMILES IDX 1 15 3 16 4 17 8 18 5 19 7 20 6 21 18 22 19 23 20 24 21 25
REMARK SMILES IDX 22 26 23 27 24 28 85 29 25 30 84 31 26 32 27 33 28 34 78 35
REMARK SMILES IDX 29 36 83 37 77 38 79 39 30 40 82 41 76 42 75 43 31 45 63 46
REMARK SMILES IDX 43 47 62 48 44 49 47 50 61 51 80 52 45 53 46 54 60 56 81 57
REMARK SMILES IDX 48 58 32 59 33 60 41 61 34 62 35 63 39 64 42 65 36 66 37 67
REMARK SMILES IDX 40 68 38 69 64 70 65 71 73 72 66 73 67 74 71 75 74 76 68 77
REMARK SMILES IDX 69 78 72 79 70 80 49 81 50 82 58 83 51 84 52 85 56 86 59 87
REMARK SMILES IDX 53 88 54 89 57 90 55 91
REMARK H PARENT 10 11 10 12 79 44 47 55
REMARK Flexibility Score: inf
ROOT
ATOM      1  O   UNL A   1      42.214  21.370  25.543  1.00  0.00    -0.374 OA
ENDROOT
BRANCH   1   2
ATOM      2  C   UNL A   1      41.535  20.914  26.715  1.00  0.00     0.202 C 
BRANCH   2   3
ATOM      3  C   UNL A   1      40.393  21.804  27.211  1.00  0.00     0.261 C 
BRANCH   3   4
ATOM      4  O   UNL A   1      39.618  22.281  26.099  1.00  0.00    -0.459 OA
BRANCH   4   5
ATOM      5  C   UNL A   1      38.689  23.232  26.394  1.00  0.00     0.365 C 
ATOM      6  O   UNL A   1      38.884  24.191  27.132  1.00  0.00    -0.245 OA
BRANCH   5   7
ATOM      7  C   UNL A   1      37.401  23.061  25.582  1.00  0.00     0.304 C 
ATOM      8  C   UNL A   1      35.099  22.391  25.704  1.00  0.00     0.249 C 
ATOM      9  N   UNL A   1      36.165  23.117  26.419  1.00  0.00    -0.322 N 
ATOM     10  S   UNL A   1      35.925  20.885  25.105  1.00  0.00    -0.092 SA
ATOM     11  H   UNL A   1      36.339  22.677  27.322  1.00  0.00     0.348 HD
ATOM     12  H   UNL A   1      35.889  24.085  26.578  1.00  0.00     0.348 HD
ATOM     13  C   UNL A   1      37.498  21.728  24.831  1.00  0.00     0.153 C 
BRANCH   8  14
ATOM     14  C   UNL A   1      34.403  23.260  24.599  1.00  0.00     0.085 C 
ATOM     15  C   UNL A   1      33.461  22.453  23.687  1.00  0.00     0.020 C 
BRANCH  14  16
ATOM     16  C   UNL A   1      33.706  24.467  25.242  1.00  0.00    -0.038 A 
ATOM     17  C   UNL A   1      32.503  24.269  25.941  1.00  0.00     0.004 A 
ATOM     18  C   UNL A   1      34.200  25.777  25.142  1.00  0.00     0.004 A 
ATOM     19  C   UNL A   1      31.813  25.340  26.510  1.00  0.00     0.000 A 
ATOM     20  C   UNL A   1      33.518  26.847  25.729  1.00  0.00     0.000 A 
ATOM     21  C   UNL A   1      32.322  26.629  26.407  1.00  0.00     0.000 A 
ENDBRANCH  14  16
ENDBRANCH   8  14
ENDBRANCH   5   7
ENDBRANCH   4   5
ENDBRANCH   3   4
ENDBRANCH   2   3
ENDBRANCH   1   2
BRANCH   1  22
ATOM     22  C   UNL A   1      43.638  21.266  25.521  1.00  0.00     0.202 C 
BRANCH  22  23
ATOM     23  C   UNL A   1      44.395  22.364  24.764  1.00  0.00     0.261 C 
BRANCH  23  24
ATOM     24  O   UNL A   1      43.620  23.567  24.612  1.00  0.00    -0.460 OA
BRANCH  24  25
ATOM     25  C   UNL A   1      44.254  24.696  25.011  1.00  0.00     0.338 C 
ATOM     26  O   UNL A   1      45.330  25.123  24.612  1.00  0.00    -0.246 OA
BRANCH  25  27
ATOM     27  C   UNL A   1      43.399  25.486  25.915  1.00  0.00     0.060 A 
ATOM     28  C   UNL A   1      43.702  26.846  26.057  1.00  0.00     0.016 A 
ATOM     29  C   UNL A   1      42.395  24.899  26.688  1.00  0.00     0.016 A 
ATOM     30  C   UNL A   1      43.043  27.614  27.014  1.00  0.00     0.010 A 
ATOM     31  C   UNL A   1      41.740  25.669  27.657  1.00  0.00     0.010 A 
ATOM     32  C   UNL A   1      42.088  27.019  27.851  1.00  0.00    -0.014 A 
BRANCH  32  33
ATOM     33  C   UNL A   1      41.585  27.775  29.024  1.00  0.00     0.031 A 
ATOM     34  C   UNL A   1      42.325  27.674  30.330  1.00  0.00     0.074 A 
ATOM     35  C   UNL A   1      40.514  28.581  28.919  1.00  0.00     0.049 A 
ATOM     36  N   UNL A   1      42.071  28.250  31.478  1.00  0.00    -0.248 NA
ATOM     37  C   UNL A   1      43.513  26.807  30.342  1.00  0.00     0.031 C 
ATOM     38  C   UNL A   1      39.736  28.796  27.701  1.00  0.00     0.029 A 
ATOM     39  N   UNL A   1      39.897  29.369  29.859  1.00  0.00    -0.354 N 
ATOM     40  C   UNL A   1      43.062  27.814  32.347  1.00  0.00     0.074 A 
ATOM     41  C   UNL A   1      43.906  26.904  31.604  1.00  0.00     0.031 C 
ATOM     42  C   UNL A   1      38.741  29.659  27.967  1.00  0.00     0.029 A 
ATOM     43  C   UNL A   1      38.795  30.035  29.380  1.00  0.00     0.049 A 
ATOM     44  H   UNL A   1      40.213  29.449  30.787  1.00  0.00     0.167 HD
ATOM     45  C   UNL A   1      43.256  28.148  33.646  1.00  0.00     0.037 A 
ATOM     46  C   UNL A   1      37.924  30.843  30.015  1.00  0.00     0.037 A 
ATOM     47  C   UNL A   1      42.422  29.058  34.384  1.00  0.00     0.049 A 
ATOM     48  C   UNL A   1      38.126  31.149  31.477  1.00  0.00     0.074 A 
ATOM     49  C   UNL A   1      42.554  29.480  35.696  1.00  0.00     0.029 A 
ATOM     50  N   UNL A   1      41.293  29.683  33.875  1.00  0.00    -0.354 N 
ATOM     51  N   UNL A   1      39.083  30.757  32.282  1.00  0.00    -0.248 NA
ATOM     52  C   UNL A   1      37.124  32.015  32.117  1.00  0.00     0.031 C 
ATOM     53  C   UNL A   1      41.478  30.325  35.994  1.00  0.00     0.029 A 
ATOM     54  C   UNL A   1      40.704  30.467  34.854  1.00  0.00     0.049 A 
ATOM     55  H   UNL A   1      40.959  29.585  32.954  1.00  0.00     0.167 HD
ATOM     56  C   UNL A   1      38.818  31.349  33.510  1.00  0.00     0.074 A 
ATOM     57  C   UNL A   1      37.614  32.136  33.343  1.00  0.00     0.031 C 
ATOM     58  C   UNL A   1      39.511  31.252  34.671  1.00  0.00     0.037 A 
BRANCH  45  59
ATOM     59  C   UNL A   1      44.406  27.503  34.360  1.00  0.00     0.064 A 
ATOM     60  C   UNL A   1      45.671  28.107  34.417  1.00  0.00     0.173 A 
ATOM     61  C   UNL A   1      44.229  26.282  35.028  1.00  0.00     0.173 A 
ATOM     62  F   UNL A   1      45.892  29.269  33.784  1.00  0.00    -0.203 F 
ATOM     63  C   UNL A   1      46.723  27.499  35.097  1.00  0.00     0.198 A 
ATOM     64  C   UNL A   1      45.277  25.690  35.727  1.00  0.00     0.198 A 
ATOM     65  F   UNL A   1      43.038  25.665  35.007  1.00  0.00    -0.203 F 
ATOM     66  F   UNL A   1      47.934  28.072  35.103  1.00  0.00    -0.200 F 
ATOM     67  C   UNL A   1      46.524  26.294  35.755  1.00  0.00     0.200 A 
ATOM     68  F   UNL A   1      45.081  24.531  36.371  1.00  0.00    -0.200 F 
ATOM     69  F   UNL A   1      47.537  25.714  36.413  1.00  0.00    -0.200 F 
ENDBRANCH  45  59
BRANCH  46  70
ATOM     70  C   UNL A   1      36.775  31.423  29.274  1.00  0.00     0.064 A 
ATOM     71  C   UNL A   1      36.752  32.780  28.922  1.00  0.00     0.173 A 
ATOM     72  C   UNL A   1      35.668  30.638  28.922  1.00  0.00     0.173 A 
ATOM     73  F   UNL A   1      37.776  33.576  29.262  1.00  0.00    -0.203 F 
ATOM     74  C   UNL A   1      35.658  33.333  28.260  1.00  0.00     0.198 A 
ATOM     75  C   UNL A   1      34.585  31.186  28.237  1.00  0.00     0.198 A 
ATOM     76  F   UNL A   1      35.640  29.335  29.241  1.00  0.00    -0.203 F 
ATOM     77  F   UNL A   1      35.641  34.641  27.974  1.00  0.00    -0.200 F 
ATOM     78  C   UNL A   1      34.578  32.533  27.913  1.00  0.00     0.200 A 
ATOM     79  F   UNL A   1      33.548  30.409  27.898  1.00  0.00    -0.200 F 
ATOM     80  F   UNL A   1      33.526  33.065  27.275  1.00  0.00    -0.200 F 
ENDBRANCH  46  70
BRANCH  58  81
ATOM     81  C   UNL A   1      39.010  32.044  35.843  1.00  0.00     0.064 A 
ATOM     82  C   UNL A   1      38.199  31.466  36.829  1.00  0.00     0.173 A 
ATOM     83  C   UNL A   1      39.382  33.388  36.002  1.00  0.00     0.173 A 
ATOM     84  F   UNL A   1      37.804  30.189  36.716  1.00  0.00    -0.203 F 
ATOM     85  C   UNL A   1      37.760  32.211  37.922  1.00  0.00     0.198 A 
ATOM     86  C   UNL A   1      38.963  34.122  37.109  1.00  0.00     0.198 A 
ATOM     87  F   UNL A   1      40.162  33.987  35.089  1.00  0.00    -0.203 F 
ATOM     88  F   UNL A   1      36.951  31.650  38.831  1.00  0.00    -0.200 F 
ATOM     89  C   UNL A   1      38.148  33.535  38.064  1.00  0.00     0.200 A 
ATOM     90  F   UNL A   1      39.350  35.398  37.250  1.00  0.00    -0.200 F 
ATOM     91  F   UNL A   1      37.730  34.248  39.119  1.00  0.00    -0.200 F 
ENDBRANCH  58  81
ENDBRANCH  32  33
ENDBRANCH  25  27
ENDBRANCH  24  25
ENDBRANCH  23  24
ENDBRANCH  22  23
ENDBRANCH   1  22
TORSDOF 16
ENDMDL
MODEL 2
REMARK VINA RESULT:     -11.1      1.254      2.686
REMARK SMILES C[C@@H](c1ccccc1)[C@@H]1[NH2+][C@@H](C(=O)OCCOCCOC(=O)c2ccc(-c3c4nc(c(-c5c(F)c(F)c(F)c(F)c5F)c5ccc([nH]5)c(-c5c(F)c(F)c(F)c(F)c5F)c5nc(c(-c6c(F)c(F)c(F)c(F)c6F)c6ccc3[nH]6)C=C5)C=C4)cc2)CS1
REMARK SMILES IDX 17 1 16 2 15 3 14 4 12 5 13 6 11 7 9 8 10 9 87 10 86 13 2 14
REMARK SMILES IDX 1 15 3 16 4 17 8 18 5 19 7 20 6 21 18 22 19 23 20 24 21 25
REMARK SMILES IDX 22 26 23 27 24 28 85 29 25 30 84 31 26 32 27 33 28 34 78 35
REMARK SMILES IDX 29 36 83 37 77 38 79 39 30 40 82 41 76 42 75 43 31 45 63 46
REMARK SMILES IDX 43 47 62 48 44 49 47 50 61 51 80 52 45 53 46 54 60 56 81 57
REMARK SMILES IDX 48 58 32 59 33 60 41 61 34 62 35 63 39 64 42 65 36 66 37 67
REMARK SMILES IDX 40 68 38 69 64 70 65 71 73 72 66 73 67 74 71 75 74 76 68 77
REMARK SMILES IDX 69 78 72 79 70 80 49 81 50 82 58 83 51 84 52 85 56 86 59 87
REMARK SMILES IDX 53 88 54 89 57 90 55 91
REMARK H PARENT 10 11 10 12 79 44 47 55
REMARK Flexibility Score: inf
ROOT
ATOM      1  O   UNL A   1      42.422  21.312  25.438  1.00  0.00    -0.374 OA
ENDROOT
BRANCH   1   2
ATOM      2  C   UNL A   1      41.720  20.860  26.598  1.00  0.00     0.202 C 
BRANCH   2   3
ATOM      3  C   UNL A   1      40.671  21.824  27.159  1.00  0.00     0.261 C 
BRANCH   3   4
ATOM      4  O   UNL A   1      39.754  22.214  26.124  1.00  0.00    -0.459 OA
BRANCH   4   5
ATOM      5  C   UNL A   1      38.769  23.075  26.504  1.00  0.00     0.365 C 
ATOM      6  O   UNL A   1      38.960  24.139  27.082  1.00  0.00    -0.245 OA
BRANCH   5   7
ATOM      7  C   UNL A   1      37.389  22.643  25.998  1.00  0.00     0.304 C 
ATOM      8  C   UNL A   1      36.248  21.212  24.444  1.00  0.00     0.249 C 
ATOM      9  N   UNL A   1      37.390  21.285  25.374  1.00  0.00    -0.322 N 
ATOM     10  S   UNL A   1      36.305  22.801  23.561  1.00  0.00    -0.092 SA
ATOM     11  H   UNL A   1      38.262  21.139  24.865  1.00  0.00     0.348 HD
ATOM     12  H   UNL A   1      37.309  20.566  26.092  1.00  0.00     0.348 HD
ATOM     13  C   UNL A   1      36.904  23.704  25.005  1.00  0.00     0.153 C 
BRANCH   8  14
ATOM     14  C   UNL A   1      34.893  20.891  25.165  1.00  0.00     0.085 C 
ATOM     15  C   UNL A   1      33.881  22.052  25.113  1.00  0.00     0.020 C 
BRANCH  14  16
ATOM     16  C   UNL A   1      34.308  19.579  24.625  1.00  0.00    -0.038 A 
ATOM     17  C   UNL A   1      35.107  18.423  24.627  1.00  0.00     0.004 A 
ATOM     18  C   UNL A   1      33.010  19.481  24.101  1.00  0.00     0.004 A 
ATOM     19  C   UNL A   1      34.632  17.216  24.112  1.00  0.00     0.000 A 
ATOM     20  C   UNL A   1      32.528  18.267  23.603  1.00  0.00     0.000 A 
ATOM     21  C   UNL A   1      33.340  17.137  23.603  1.00  0.00     0.000 A 
ENDBRANCH  14  16
ENDBRANCH   8  14
ENDBRANCH   5   7
ENDBRANCH   4   5
ENDBRANCH   3   4
ENDBRANCH   2   3
ENDBRANCH   1   2
BRANCH   1  22
ATOM     22  C   UNL A   1      43.846  21.217  25.448  1.00  0.00     0.202 C 
BRANCH  22  23
ATOM     23  C   UNL A   1      44.613  22.307  24.690  1.00  0.00     0.261 C 
BRANCH  23  24
ATOM     24  O   UNL A   1      43.857  23.525  24.557  1.00  0.00    -0.460 OA
BRANCH  24  25
ATOM     25  C   UNL A   1      44.497  24.633  25.004  1.00  0.00     0.338 C 
ATOM     26  O   UNL A   1      45.586  25.059  24.637  1.00  0.00    -0.246 OA
BRANCH  25  27
ATOM     27  C   UNL A   1      43.637  25.403  25.918  1.00  0.00     0.060 A 
ATOM     28  C   UNL A   1      43.903  26.772  26.047  1.00  0.00     0.016 A 
ATOM     29  C   UNL A   1      42.664  24.793  26.713  1.00  0.00     0.016 A 
ATOM     30  C   UNL A   1      43.239  27.527  27.012  1.00  0.00     0.010 A 
ATOM     31  C   UNL A   1      42.005  25.550  27.690  1.00  0.00     0.010 A 
ATOM     32  C   UNL A   1      42.318  26.910  27.869  1.00  0.00    -0.014 A 
BRANCH  32  33
ATOM     33  C   UNL A   1      41.814  27.659  29.047  1.00  0.00     0.031 A 
ATOM     34  C   UNL A   1      42.553  27.548  30.353  1.00  0.00     0.074 A 
ATOM     35  C   UNL A   1      40.744  28.467  28.946  1.00  0.00     0.049 A 
ATOM     36  N   UNL A   1      42.298  28.116  31.505  1.00  0.00    -0.248 NA
ATOM     37  C   UNL A   1      43.740  26.679  30.361  1.00  0.00     0.031 C 
ATOM     38  C   UNL A   1      39.969  28.692  27.729  1.00  0.00     0.029 A 
ATOM     39  N   UNL A   1      40.127  29.250  29.891  1.00  0.00    -0.354 N 
ATOM     40  C   UNL A   1      43.287  27.672  32.372  1.00  0.00     0.074 A 
ATOM     41  C   UNL A   1      44.132  26.766  31.623  1.00  0.00     0.031 C 
ATOM     42  C   UNL A   1      38.974  29.554  28.000  1.00  0.00     0.029 A 
ATOM     43  C   UNL A   1      39.027  29.920  29.416  1.00  0.00     0.049 A 
ATOM     44  H   UNL A   1      40.443  29.322  30.820  1.00  0.00     0.167 HD
ATOM     45  C   UNL A   1      43.480  27.997  33.673  1.00  0.00     0.037 A 
ATOM     46  C   UNL A   1      38.157  30.725  30.056  1.00  0.00     0.037 A 
ATOM     47  C   UNL A   1      42.647  28.903  34.416  1.00  0.00     0.049 A 
ATOM     48  C   UNL A   1      38.358  31.021  31.520  1.00  0.00     0.074 A 
ATOM     49  C   UNL A   1      42.778  29.316  35.731  1.00  0.00     0.029 A 
ATOM     50  N   UNL A   1      41.520  29.533  33.911  1.00  0.00    -0.354 N 
ATOM     51  N   UNL A   1      39.313  30.621  32.323  1.00  0.00    -0.248 NA
ATOM     52  C   UNL A   1      37.356  31.883  32.164  1.00  0.00     0.031 C 
ATOM     53  C   UNL A   1      41.704  30.160  36.035  1.00  0.00     0.029 A 
ATOM     54  C   UNL A   1      40.930  30.311  34.895  1.00  0.00     0.049 A 
ATOM     55  H   UNL A   1      41.187  29.442  32.989  1.00  0.00     0.167 HD
ATOM     56  C   UNL A   1      39.048  31.206  33.555  1.00  0.00     0.074 A 
ATOM     57  C   UNL A   1      37.844  31.995  33.392  1.00  0.00     0.031 C 
ATOM     58  C   UNL A   1      39.739  31.100  34.715  1.00  0.00     0.037 A 
BRANCH  45  59
ATOM     59  C   UNL A   1      44.629  27.346  34.384  1.00  0.00     0.064 A 
ATOM     60  C   UNL A   1      44.489  26.110  35.034  1.00  0.00     0.173 A 
ATOM     61  C   UNL A   1      45.895  27.950  34.385  1.00  0.00     0.173 A 
ATOM     62  F   UNL A   1      43.295  25.500  35.071  1.00  0.00    -0.203 F 
ATOM     63  C   UNL A   1      45.570  25.515  35.678  1.00  0.00     0.198 A 
ATOM     64  C   UNL A   1      46.979  27.340  35.009  1.00  0.00     0.198 A 
ATOM     65  F   UNL A   1      46.083  29.130  33.775  1.00  0.00    -0.203 F 
ATOM     66  F   UNL A   1      45.404  24.355  36.328  1.00  0.00    -0.200 F 
ATOM     67  C   UNL A   1      46.815  26.127  35.661  1.00  0.00     0.200 A 
ATOM     68  F   UNL A   1      48.184  27.927  34.983  1.00  0.00    -0.200 F 
ATOM     69  F   UNL A   1      47.856  25.549  36.277  1.00  0.00    -0.200 F 
ENDBRANCH  45  59
BRANCH  46  70
ATOM     70  C   UNL A   1      37.009  31.312  29.317  1.00  0.00     0.064 A 
ATOM     71  C   UNL A   1      36.989  32.671  28.975  1.00  0.00     0.173 A 
ATOM     72  C   UNL A   1      35.902  30.531  28.958  1.00  0.00     0.173 A 
ATOM     73  F   UNL A   1      38.012  33.464  29.322  1.00  0.00    -0.203 F 
ATOM     74  C   UNL A   1      35.895  33.230  28.316  1.00  0.00     0.198 A 
ATOM     75  C   UNL A   1      34.821  31.085  28.276  1.00  0.00     0.198 A 
ATOM     76  F   UNL A   1      35.871  29.226  29.268  1.00  0.00    -0.203 F 
ATOM     77  F   UNL A   1      35.881  34.541  28.039  1.00  0.00    -0.200 F 
ATOM     78  C   UNL A   1      34.815  32.435  27.962  1.00  0.00     0.200 A 
ATOM     79  F   UNL A   1      33.783  30.312  27.930  1.00  0.00    -0.200 F 
ATOM     80  F   UNL A   1      33.764  32.973  27.327  1.00  0.00    -0.200 F 
ENDBRANCH  46  70
BRANCH  58  81
ATOM     81  C   UNL A   1      39.238  31.884  35.893  1.00  0.00     0.064 A 
ATOM     82  C   UNL A   1      39.666  33.195  36.140  1.00  0.00     0.173 A 
ATOM     83  C   UNL A   1      38.284  31.329  36.761  1.00  0.00     0.173 A 
ATOM     84  F   UNL A   1      40.586  33.766  35.349  1.00  0.00    -0.203 F 
ATOM     85  C   UNL A   1      39.173  33.915  37.226  1.00  0.00     0.198 A 
ATOM     86  C   UNL A   1      37.775  32.061  37.829  1.00  0.00     0.198 A 
ATOM     87  F   UNL A   1      37.837  30.078  36.563  1.00  0.00    -0.203 F 
ATOM     88  F   UNL A   1      39.628  35.153  37.469  1.00  0.00    -0.200 F 
ATOM     89  C   UNL A   1      38.224  33.350  38.065  1.00  0.00     0.200 A 
ATOM     90  F   UNL A   1      36.848  31.517  38.631  1.00  0.00    -0.200 F 
ATOM     91  F   UNL A   1      37.747  34.047  39.106  1.00  0.00    -0.200 F 
ENDBRANCH  58  81
ENDBRANCH  32  33
ENDBRANCH  25  27
ENDBRANCH  24  25
ENDBRANCH  23  24
ENDBRANCH  22  23
ENDBRANCH   1  22
TORSDOF 16
ENDMDL
MODEL 3
REMARK VINA RESULT:     -11.0      3.471      8.434
REMARK SMILES C[C@@H](c1ccccc1)[C@@H]1[NH2+][C@@H](C(=O)OCCOCCOC(=O)c2ccc(-c3c4nc(c(-c5c(F)c(F)c(F)c(F)c5F)c5ccc([nH]5)c(-c5c(F)c(F)c(F)c(F)c5F)c5nc(c(-c6c(F)c(F)c(F)c(F)c6F)c6ccc3[nH]6)C=C5)C=C4)cc2)CS1
REMARK SMILES IDX 17 1 16 2 15 3 14 4 12 5 13 6 11 7 9 8 10 9 87 10 86 13 2 14
REMARK SMILES IDX 1 15 3 16 4 17 8 18 5 19 7 20 6 21 18 22 19 23 20 24 21 25
REMARK SMILES IDX 22 26 23 27 24 28 85 29 25 30 84 31 26 32 27 33 28 34 78 35
REMARK SMILES IDX 29 36 83 37 77 38 79 39 30 40 82 41 76 42 75 43 31 45 63 46
REMARK SMILES IDX 43 47 62 48 44 49 47 50 61 51 80 52 45 53 46 54 60 56 81 57
REMARK SMILES IDX 48 58 32 59 33 60 41 61 34 62 35 63 39 64 42 65 36 66 37 67
REMARK SMILES IDX 40 68 38 69 64 70 65 71 73 72 66 73 67 74 71 75 74 76 68 77
REMARK SMILES IDX 69 78 72 79 70 80 49 81 50 82 58 83 51 84 52 85 56 86 59 87
REMARK SMILES IDX 53 88 54 89 57 90 55 91
REMARK H PARENT 10 11 10 12 79 44 47 55
REMARK Flexibility Score: inf
ROOT
ATOM      1  O   UNL A   1      31.895  28.859  24.047  1.00  0.00    -0.374 OA
ENDROOT
BRANCH   1   2
ATOM      2  C   UNL A   1      33.282  28.885  23.705  1.00  0.00     0.202 C 
BRANCH   2   3
ATOM      3  C   UNL A   1      33.655  28.205  22.384  1.00  0.00     0.261 C 
BRANCH   3   4
ATOM      4  O   UNL A   1      32.619  27.290  21.990  1.00  0.00    -0.459 OA
BRANCH   4   5
ATOM      5  C   UNL A   1      33.006  25.992  21.840  1.00  0.00     0.365 C 
ATOM      6  O   UNL A   1      33.274  25.465  20.767  1.00  0.00    -0.245 OA
BRANCH   5   7
ATOM      7  C   UNL A   1      33.217  25.289  23.185  1.00  0.00     0.304 C 
ATOM      8  C   UNL A   1      33.700  23.178  24.221  1.00  0.00     0.249 C 
ATOM      9  N   UNL A   1      34.037  24.045  23.076  1.00  0.00    -0.322 N 
ATOM     10  S   UNL A   1      31.886  23.266  24.314  1.00  0.00    -0.092 SA
ATOM     11  H   UNL A   1      33.822  23.564  22.203  1.00  0.00     0.348 HD
ATOM     12  H   UNL A   1      35.030  24.273  23.084  1.00  0.00     0.348 HD
ATOM     13  C   UNL A   1      31.835  24.989  23.775  1.00  0.00     0.153 C 
BRANCH   8  14
ATOM     14  C   UNL A   1      34.461  23.577  25.533  1.00  0.00     0.085 C 
ATOM     15  C   UNL A   1      33.670  23.268  26.818  1.00  0.00     0.020 C 
BRANCH  14  16
ATOM     16  C   UNL A   1      35.861  22.949  25.540  1.00  0.00    -0.038 A 
ATOM     17  C   UNL A   1      36.939  23.686  26.061  1.00  0.00     0.004 A 
ATOM     18  C   UNL A   1      36.128  21.671  25.024  1.00  0.00     0.004 A 
ATOM     19  C   UNL A   1      38.236  23.172  26.055  1.00  0.00     0.000 A 
ATOM     20  C   UNL A   1      37.424  21.149  25.036  1.00  0.00     0.000 A 
ATOM     21  C   UNL A   1      38.479  21.901  25.546  1.00  0.00     0.000 A 
ENDBRANCH  14  16
ENDBRANCH   8  14
ENDBRANCH   5   7
ENDBRANCH   4   5
ENDBRANCH   3   4
ENDBRANCH   2   3
ENDBRANCH   1   2
BRANCH   1  22
ATOM     22  C   UNL A   1      31.542  29.163  25.397  1.00  0.00     0.202 C 
BRANCH  22  23
ATOM     23  C   UNL A   1      31.779  30.605  25.860  1.00  0.00     0.261 C 
BRANCH  23  24
ATOM     24  O   UNL A   1      32.422  30.675  27.147  1.00  0.00    -0.460 OA
BRANCH  24  25
ATOM     25  C   UNL A   1      33.203  31.767  27.324  1.00  0.00     0.338 C 
ATOM     26  O   UNL A   1      32.861  32.942  27.258  1.00  0.00    -0.246 OA
BRANCH  25  27
ATOM     27  C   UNL A   1      34.549  31.381  27.782  1.00  0.00     0.060 A 
ATOM     28  C   UNL A   1      34.757  30.031  28.093  1.00  0.00     0.016 A 
ATOM     29  C   UNL A   1      35.556  32.322  28.007  1.00  0.00     0.016 A 
ATOM     30  C   UNL A   1      35.951  29.624  28.684  1.00  0.00     0.010 A 
ATOM     31  C   UNL A   1      36.751  31.915  28.611  1.00  0.00     0.010 A 
ATOM     32  C   UNL A   1      36.938  30.572  28.988  1.00  0.00    -0.014 A 
BRANCH  32  33
ATOM     33  C   UNL A   1      38.084  30.172  29.841  1.00  0.00     0.031 A 
ATOM     34  C   UNL A   1      39.101  29.208  29.294  1.00  0.00     0.074 A 
ATOM     35  C   UNL A   1      38.248  30.697  31.069  1.00  0.00     0.049 A 
ATOM     36  N   UNL A   1      40.180  28.728  29.857  1.00  0.00    -0.248 NA
ATOM     37  C   UNL A   1      38.868  28.721  27.925  1.00  0.00     0.031 C 
ATOM     38  C   UNL A   1      37.356  31.670  31.696  1.00  0.00     0.029 A 
ATOM     39  N   UNL A   1      39.227  30.481  32.006  1.00  0.00    -0.354 N 
ATOM     40  C   UNL A   1      40.753  27.881  28.916  1.00  0.00     0.074 A 
ATOM     41  C   UNL A   1      39.888  27.891  27.756  1.00  0.00     0.031 C 
ATOM     42  C   UNL A   1      37.828  31.966  32.919  1.00  0.00     0.029 A 
ATOM     43  C   UNL A   1      39.038  31.184  33.171  1.00  0.00     0.049 A 
ATOM     44  H   UNL A   1      39.991  29.879  31.858  1.00  0.00     0.167 HD
ATOM     45  C   UNL A   1      41.900  27.167  29.007  1.00  0.00     0.037 A 
ATOM     46  C   UNL A   1      39.754  31.182  34.312  1.00  0.00     0.037 A 
ATOM     47  C   UNL A   1      42.765  27.162  30.157  1.00  0.00     0.049 A 
ATOM     48  C   UNL A   1      40.993  30.330  34.411  1.00  0.00     0.074 A 
ATOM     49  C   UNL A   1      43.963  26.491  30.333  1.00  0.00     0.029 A 
ATOM     50  N   UNL A   1      42.520  27.857  31.331  1.00  0.00    -0.354 N 
ATOM     51  N   UNL A   1      41.542  29.558  33.506  1.00  0.00    -0.248 NA
ATOM     52  C   UNL A   1      41.711  30.352  35.693  1.00  0.00     0.031 C 
ATOM     53  C   UNL A   1      44.420  26.745  31.632  1.00  0.00     0.029 A 
ATOM     54  C   UNL A   1      43.530  27.611  32.247  1.00  0.00     0.049 A 
ATOM     55  H   UNL A   1      41.743  28.440  31.491  1.00  0.00     0.167 HD
ATOM     56  C   UNL A   1      42.683  29.029  34.095  1.00  0.00     0.074 A 
ATOM     57  C   UNL A   1      42.753  29.574  35.435  1.00  0.00     0.031 C 
ATOM     58  C   UNL A   1      43.592  28.170  33.573  1.00  0.00     0.037 A 
BRANCH  45  59
ATOM     59  C   UNL A   1      42.274  26.309  27.836  1.00  0.00     0.064 A 
ATOM     60  C   UNL A   1      41.709  25.040  27.641  1.00  0.00     0.173 A 
ATOM     61  C   UNL A   1      43.184  26.778  26.876  1.00  0.00     0.173 A 
ATOM     62  F   UNL A   1      40.844  24.543  28.537  1.00  0.00    -0.203 F 
ATOM     63  C   UNL A   1      42.060  24.263  26.540  1.00  0.00     0.198 A 
ATOM     64  C   UNL A   1      43.513  26.009  25.765  1.00  0.00     0.198 A 
ATOM     65  F   UNL A   1      43.750  27.987  27.014  1.00  0.00    -0.203 F 
ATOM     66  F   UNL A   1      41.540  23.036  26.396  1.00  0.00    -0.200 F 
ATOM     67  C   UNL A   1      42.956  24.750  25.600  1.00  0.00     0.200 A 
ATOM     68  F   UNL A   1      44.371  26.484  24.852  1.00  0.00    -0.200 F 
ATOM     69  F   UNL A   1      43.288  24.002  24.538  1.00  0.00    -0.200 F 
ENDBRANCH  45  59
BRANCH  46  70
ATOM     70  C   UNL A   1      39.318  32.017  35.461  1.00  0.00     0.064 A 
ATOM     71  C   UNL A   1      38.498  31.489  36.468  1.00  0.00     0.173 A 
ATOM     72  C   UNL A   1      39.694  33.364  35.563  1.00  0.00     0.173 A 
ATOM     73  F   UNL A   1      38.090  30.215  36.399  1.00  0.00    -0.203 F 
ATOM     74  C   UNL A   1      38.058  32.283  37.526  1.00  0.00     0.198 A 
ATOM     75  C   UNL A   1      39.275  34.149  36.635  1.00  0.00     0.198 A 
ATOM     76  F   UNL A   1      40.473  33.917  34.621  1.00  0.00    -0.203 F 
ATOM     77  F   UNL A   1      37.240  31.767  38.453  1.00  0.00    -0.200 F 
ATOM     78  C   UNL A   1      38.452  33.610  37.611  1.00  0.00     0.200 A 
ATOM     79  F   UNL A   1      39.663  35.429  36.717  1.00  0.00    -0.200 F 
ATOM     80  F   UNL A   1      38.029  34.373  38.630  1.00  0.00    -0.200 F 
ENDBRANCH  46  70
BRANCH  58  81
ATOM     81  C   UNL A   1      44.763  27.795  34.434  1.00  0.00     0.064 A 
ATOM     82  C   UNL A   1      44.747  26.647  35.238  1.00  0.00     0.173 A 
ATOM     83  C   UNL A   1      45.931  28.572  34.421  1.00  0.00     0.173 A 
ATOM     84  F   UNL A   1      43.649  25.878  35.297  1.00  0.00    -0.203 F 
ATOM     85  C   UNL A   1      45.851  26.303  36.015  1.00  0.00     0.198 A 
ATOM     86  C   UNL A   1      47.042  28.211  35.178  1.00  0.00     0.198 A 
ATOM     87  F   UNL A   1      45.999  29.678  33.662  1.00  0.00    -0.203 F 
ATOM     88  F   UNL A   1      45.799  25.224  36.810  1.00  0.00    -0.200 F 
ATOM     89  C   UNL A   1      46.999  27.081  35.979  1.00  0.00     0.200 A 
ATOM     90  F   UNL A   1      48.155  28.957  35.131  1.00  0.00    -0.200 F 
ATOM     91  F   UNL A   1      48.062  26.745  36.723  1.00  0.00    -0.200 F 
ENDBRANCH  58  81
ENDBRANCH  32  33
ENDBRANCH  25  27
ENDBRANCH  24  25
ENDBRANCH  23  24
ENDBRANCH  22  23
ENDBRANCH   1  22
TORSDOF 16
ENDMDL
