MODEL 1
REMARK VINA RESULT:     -11.7      0.000      0.000
REMARK SMILES C[C@H](c1ccncc1)[N@H+]1[C@@H]2CC[C@H]1C[C@H](CC(=O)OCCOCCOC(=O)c1ccc(-c3c4nc(c(-c5c(F)c(F)c(F)c(F)c5F)c5ccc([nH]5)c(-c5c(F)c(F)c(F)c(F)c5F)c5nc(c(-c6c(F)c(F)c(F)c(F)c6F)c6ccc3[nH]6)C=C5)C=C4)cc1)C2
REMARK SMILES IDX 21 1 20 2 19 3 17 4 18 5 16 6 15 7 9 8 10 9 13 10 11 12
REMARK SMILES IDX 91 13 12 14 14 15 2 16 1 17 3 18 4 19 8 20 5 21 7 22 6 23
REMARK SMILES IDX 22 24 23 25 24 26 25 27 26 28 27 29 28 30 29 31 90 32 30 33
REMARK SMILES IDX 89 34 31 35 32 36 33 37 83 38 34 39 88 40 82 41 84 42 35 43
REMARK SMILES IDX 87 44 81 45 80 46 36 48 68 49 48 50 67 51 49 52 52 53 66 54
REMARK SMILES IDX 85 55 50 56 51 57 65 59 86 60 53 61 37 62 38 63 46 64 39 65
REMARK SMILES IDX 40 66 44 67 47 68 41 69 42 70 45 71 43 72 69 73 70 74 78 75
REMARK SMILES IDX 71 76 72 77 76 78 79 79 73 80 74 81 77 82 75 83 54 84 55 85
REMARK SMILES IDX 63 86 56 87 57 88 61 89 64 90 58 91 59 92 62 93 60 94
REMARK H PARENT 9 11 84 47 52 58
REMARK Flexibility Score: inf
ROOT
ATOM      1  C   UNL A   1      34.334  21.647  26.490  1.00  0.00     0.202 C 
ENDROOT
BRANCH   1   2
ATOM      2  C   UNL A   1      34.024  22.581  27.660  1.00  0.00     0.261 C 
BRANCH   2   3
ATOM      3  O   UNL A   1      32.613  22.551  27.936  1.00  0.00    -0.463 OA
BRANCH   3   4
ATOM      4  C   UNL A   1      31.816  23.045  26.962  1.00  0.00     0.306 C 
ATOM      5  O   UNL A   1      30.793  22.506  26.556  1.00  0.00    -0.252 OA
BRANCH   4   6
ATOM      6  C   UNL A   1      32.296  24.363  26.404  1.00  0.00     0.126 C 
BRANCH   6   7
ATOM      7  C   UNL A   1      32.517  24.575  24.887  1.00  0.00     0.012 C 
ATOM      8  N   UNL A   1      31.718  26.852  23.156  1.00  0.00    -0.324 N 
ATOM      9  C   UNL A   1      33.134  26.697  23.474  1.00  0.00     0.185 C 
ATOM     10  C   UNL A   1      31.284  25.500  22.813  1.00  0.00     0.185 C 
ATOM     11  H   UNL A   1      31.665  27.542  22.407  1.00  0.00     0.349 HD
ATOM     12  C   UNL A   1      33.593  25.941  22.222  1.00  0.00     0.071 C 
ATOM     13  C   UNL A   1      33.407  25.837  24.721  1.00  0.00     0.069 C 
ATOM     14  C   UNL A   1      32.402  25.057  21.858  1.00  0.00     0.071 C 
ATOM     15  C   UNL A   1      31.209  24.622  24.069  1.00  0.00     0.069 C 
BRANCH   8  16
ATOM     16  C   UNL A   1      30.784  27.666  23.947  1.00  0.00     0.212 C 
ATOM     17  C   UNL A   1      30.035  28.605  22.992  1.00  0.00     0.081 C 
BRANCH  16  18
ATOM     18  C   UNL A   1      31.319  28.431  25.145  1.00  0.00     0.012 A 
ATOM     19  C   UNL A   1      31.882  29.709  25.033  1.00  0.00     0.030 A 
ATOM     20  C   UNL A   1      31.257  27.865  26.426  1.00  0.00     0.030 A 
ATOM     21  C   UNL A   1      32.424  30.310  26.160  1.00  0.00     0.111 A 
ATOM     22  C   UNL A   1      31.816  28.548  27.497  1.00  0.00     0.111 A 
ATOM     23  N   UNL A   1      32.412  29.752  27.388  1.00  0.00    -0.265 NA
ENDBRANCH  16  18
ENDBRANCH   8  16
ENDBRANCH   6   7
ENDBRANCH   4   6
ENDBRANCH   3   4
ENDBRANCH   2   3
ENDBRANCH   1   2
BRANCH   1  24
ATOM     24  O   UNL A   1      35.702  21.582  26.081  1.00  0.00    -0.374 OA
BRANCH  24  25
ATOM     25  C   UNL A   1      36.060  20.599  25.111  1.00  0.00     0.202 C 
BRANCH  25  26
ATOM     26  C   UNL A   1      37.558  20.334  24.921  1.00  0.00     0.261 C 
BRANCH  26  27
ATOM     27  O   UNL A   1      38.362  21.491  25.216  1.00  0.00    -0.460 OA
BRANCH  27  28
ATOM     28  C   UNL A   1      39.399  21.246  26.049  1.00  0.00     0.338 C 
ATOM     29  O   UNL A   1      40.078  20.227  26.106  1.00  0.00    -0.246 OA
BRANCH  28  30
ATOM     30  C   UNL A   1      39.760  22.455  26.810  1.00  0.00     0.060 A 
ATOM     31  C   UNL A   1      39.099  23.640  26.465  1.00  0.00     0.016 A 
ATOM     32  C   UNL A   1      40.788  22.464  27.757  1.00  0.00     0.016 A 
ATOM     33  C   UNL A   1      39.514  24.853  27.003  1.00  0.00     0.010 A 
ATOM     34  C   UNL A   1      41.208  23.688  28.293  1.00  0.00     0.010 A 
ATOM     35  C   UNL A   1      40.608  24.891  27.878  1.00  0.00    -0.014 A 
BRANCH  35  36
ATOM     36  C   UNL A   1      41.227  26.205  28.182  1.00  0.00     0.031 A 
ATOM     37  C   UNL A   1      42.622  26.480  27.685  1.00  0.00     0.074 A 
ATOM     38  C   UNL A   1      40.534  27.170  28.811  1.00  0.00     0.049 A 
ATOM     39  N   UNL A   1      43.348  27.564  27.799  1.00  0.00    -0.248 NA
ATOM     40  C   UNL A   1      43.285  25.387  26.956  1.00  0.00     0.031 C 
ATOM     41  C   UNL A   1      39.161  27.044  29.293  1.00  0.00     0.029 A 
ATOM     42  N   UNL A   1      40.893  28.452  29.143  1.00  0.00    -0.354 N 
ATOM     43  C   UNL A   1      44.549  27.281  27.162  1.00  0.00     0.074 A 
ATOM     44  C   UNL A   1      44.470  25.916  26.692  1.00  0.00     0.031 C 
ATOM     45  C   UNL A   1      38.792  28.204  29.864  1.00  0.00     0.029 A 
ATOM     46  C   UNL A   1      39.911  29.143  29.808  1.00  0.00     0.049 A 
ATOM     47  H   UNL A   1      41.772  28.839  28.926  1.00  0.00     0.167 HD
ATOM     48  C   UNL A   1      45.618  28.092  26.973  1.00  0.00     0.037 A 
ATOM     49  C   UNL A   1      39.922  30.388  30.324  1.00  0.00     0.037 A 
ATOM     50  C   UNL A   1      45.694  29.454  27.431  1.00  0.00     0.049 A 
ATOM     51  C   UNL A   1      41.149  31.248  30.158  1.00  0.00     0.074 A 
ATOM     52  C   UNL A   1      46.728  30.361  27.275  1.00  0.00     0.029 A 
ATOM     53  N   UNL A   1      44.694  30.105  28.139  1.00  0.00    -0.354 N 
ATOM     54  N   UNL A   1      42.272  30.980  29.536  1.00  0.00    -0.248 NA
ATOM     55  C   UNL A   1      41.106  32.587  30.762  1.00  0.00     0.031 C 
ATOM     56  C   UNL A   1      46.374  31.544  27.931  1.00  0.00     0.029 A 
ATOM     57  C   UNL A   1      45.098  31.393  28.449  1.00  0.00     0.049 A 
ATOM     58  H   UNL A   1      43.827  29.708  28.384  1.00  0.00     0.167 HD
ATOM     59  C   UNL A   1      43.054  32.123  29.647  1.00  0.00     0.074 A 
ATOM     60  C   UNL A   1      42.273  33.093  30.387  1.00  0.00     0.031 C 
ATOM     61  C   UNL A   1      44.304  32.350  29.176  1.00  0.00     0.037 A 
BRANCH  48  62
ATOM     62  C   UNL A   1      46.805  27.517  26.258  1.00  0.00     0.064 A 
ATOM     63  C   UNL A   1      46.959  27.638  24.868  1.00  0.00     0.173 A 
ATOM     64  C   UNL A   1      47.819  26.867  26.977  1.00  0.00     0.173 A 
ATOM     65  F   UNL A   1      46.011  28.237  24.132  1.00  0.00    -0.203 F 
ATOM     66  C   UNL A   1      48.074  27.107  24.224  1.00  0.00     0.198 A 
ATOM     67  C   UNL A   1      48.945  26.362  26.332  1.00  0.00     0.198 A 
ATOM     68  F   UNL A   1      47.721  26.728  28.308  1.00  0.00    -0.203 F 
ATOM     69  F   UNL A   1      48.179  27.193  22.890  1.00  0.00    -0.200 F 
ATOM     70  C   UNL A   1      49.069  26.476  24.956  1.00  0.00     0.200 A 
ATOM     71  F   UNL A   1      49.910  25.764  27.044  1.00  0.00    -0.200 F 
ATOM     72  F   UNL A   1      50.144  25.973  24.335  1.00  0.00    -0.200 F 
ENDBRANCH  48  62
BRANCH  49  73
ATOM     73  C   UNL A   1      38.732  30.899  31.053  1.00  0.00     0.064 A 
ATOM     74  C   UNL A   1      37.689  31.548  30.378  1.00  0.00     0.173 A 
ATOM     75  C   UNL A   1      38.625  30.762  32.445  1.00  0.00     0.173 A 
ATOM     76  F   UNL A   1      37.758  31.726  29.052  1.00  0.00    -0.203 F 
ATOM     77  C   UNL A   1      36.593  32.059  31.071  1.00  0.00     0.198 A 
ATOM     78  C   UNL A   1      37.515  31.248  33.133  1.00  0.00     0.198 A 
ATOM     79  F   UNL A   1      39.597  30.151  33.138  1.00  0.00    -0.203 F 
ATOM     80  F   UNL A   1      35.632  32.716  30.408  1.00  0.00    -0.200 F 
ATOM     81  C   UNL A   1      36.503  31.903  32.446  1.00  0.00     0.200 A 
ATOM     82  F   UNL A   1      37.428  31.084  34.460  1.00  0.00    -0.200 F 
ATOM     83  F   UNL A   1      35.447  32.390  33.112  1.00  0.00    -0.200 F 
ENDBRANCH  49  73
BRANCH  61  84
ATOM     84  C   UNL A   1      44.896  33.711  29.409  1.00  0.00     0.064 A 
ATOM     85  C   UNL A   1      44.632  34.787  28.550  1.00  0.00     0.173 A 
ATOM     86  C   UNL A   1      45.703  33.949  30.532  1.00  0.00     0.173 A 
ATOM     87  F   UNL A   1      43.878  34.608  27.455  1.00  0.00    -0.203 F 
ATOM     88  C   UNL A   1      45.172  36.047  28.795  1.00  0.00     0.198 A 
ATOM     89  C   UNL A   1      46.216  35.217  30.790  1.00  0.00     0.198 A 
ATOM     90  F   UNL A   1      45.980  32.955  31.390  1.00  0.00    -0.203 F 
ATOM     91  F   UNL A   1      44.943  37.051  27.937  1.00  0.00    -0.200 F 
ATOM     92  C   UNL A   1      45.957  36.263  29.919  1.00  0.00     0.200 A 
ATOM     93  F   UNL A   1      46.963  35.426  31.884  1.00  0.00    -0.200 F 
ATOM     94  F   UNL A   1      46.469  37.478  30.156  1.00  0.00    -0.200 F 
ENDBRANCH  61  84
ENDBRANCH  35  36
ENDBRANCH  28  30
ENDBRANCH  27  28
ENDBRANCH  26  27
ENDBRANCH  25  26
ENDBRANCH  24  25
ENDBRANCH   1  24
TORSDOF 17
ENDMDL
MODEL 2
REMARK VINA RESULT:     -11.7      4.373      6.855
REMARK SMILES C[C@H](c1ccncc1)[N@H+]1[C@@H]2CC[C@H]1C[C@H](CC(=O)OCCOCCOC(=O)c1ccc(-c3c4nc(c(-c5c(F)c(F)c(F)c(F)c5F)c5ccc([nH]5)c(-c5c(F)c(F)c(F)c(F)c5F)c5nc(c(-c6c(F)c(F)c(F)c(F)c6F)c6ccc3[nH]6)C=C5)C=C4)cc1)C2
REMARK SMILES IDX 21 1 20 2 19 3 17 4 18 5 16 6 15 7 9 8 10 9 13 10 11 12
REMARK SMILES IDX 91 13 12 14 14 15 2 16 1 17 3 18 4 19 8 20 5 21 7 22 6 23
REMARK SMILES IDX 22 24 23 25 24 26 25 27 26 28 27 29 28 30 29 31 90 32 30 33
REMARK SMILES IDX 89 34 31 35 32 36 33 37 83 38 34 39 88 40 82 41 84 42 35 43
REMARK SMILES IDX 87 44 81 45 80 46 36 48 68 49 48 50 67 51 49 52 52 53 66 54
REMARK SMILES IDX 85 55 50 56 51 57 65 59 86 60 53 61 37 62 38 63 46 64 39 65
REMARK SMILES IDX 40 66 44 67 47 68 41 69 42 70 45 71 43 72 69 73 70 74 78 75
REMARK SMILES IDX 71 76 72 77 76 78 79 79 73 80 74 81 77 82 75 83 54 84 55 85
REMARK SMILES IDX 63 86 56 87 57 88 61 89 64 90 58 91 59 92 62 93 60 94
REMARK H PARENT 9 11 84 47 52 58
REMARK Flexibility Score: inf
ROOT
ATOM      1  C   UNL A   1      40.994  21.636  27.554  1.00  0.00     0.202 C 
ENDROOT
BRANCH   1   2
ATOM      2  C   UNL A   1      40.128  21.067  26.430  1.00  0.00     0.261 C 
BRANCH   2   3
ATOM      3  O   UNL A   1      39.111  22.020  26.080  1.00  0.00    -0.463 OA
BRANCH   3   4
ATOM      4  C   UNL A   1      38.087  21.539  25.340  1.00  0.00     0.306 C 
ATOM      5  O   UNL A   1      38.034  20.408  24.871  1.00  0.00    -0.252 OA
BRANCH   4   6
ATOM      6  C   UNL A   1      36.971  22.535  25.138  1.00  0.00     0.126 C 
BRANCH   6   7
ATOM      7  C   UNL A   1      35.632  22.137  24.472  1.00  0.00     0.012 C 
ATOM      8  N   UNL A   1      32.903  23.228  24.903  1.00  0.00    -0.324 N 
ATOM      9  C   UNL A   1      33.581  23.551  23.652  1.00  0.00     0.185 C 
ATOM     10  C   UNL A   1      33.141  21.796  25.072  1.00  0.00     0.185 C 
ATOM     11  H   UNL A   1      31.930  23.507  24.783  1.00  0.00     0.349 HD
ATOM     12  C   UNL A   1      32.977  22.469  22.749  1.00  0.00     0.071 C 
ATOM     13  C   UNL A   1      35.109  23.381  23.703  1.00  0.00     0.069 C 
ATOM     14  C   UNL A   1      32.800  21.265  23.672  1.00  0.00     0.071 C 
ATOM     15  C   UNL A   1      34.604  21.534  25.453  1.00  0.00     0.069 C 
BRANCH   8  16
ATOM     16  C   UNL A   1      32.975  24.057  26.114  1.00  0.00     0.212 C 
ATOM     17  C   UNL A   1      31.951  23.524  27.124  1.00  0.00     0.081 C 
BRANCH  16  18
ATOM     18  C   UNL A   1      32.858  25.565  25.971  1.00  0.00     0.012 A 
ATOM     19  C   UNL A   1      33.977  26.398  25.839  1.00  0.00     0.030 A 
ATOM     20  C   UNL A   1      31.596  26.175  25.964  1.00  0.00     0.030 A 
ATOM     21  C   UNL A   1      33.794  27.772  25.796  1.00  0.00     0.111 A 
ATOM     22  C   UNL A   1      31.513  27.559  25.906  1.00  0.00     0.111 A 
ATOM     23  N   UNL A   1      32.586  28.371  25.838  1.00  0.00    -0.265 NA
ENDBRANCH  16  18
ENDBRANCH   8  16
ENDBRANCH   6   7
ENDBRANCH   4   6
ENDBRANCH   3   4
ENDBRANCH   2   3
ENDBRANCH   1   2
BRANCH   1  24
ATOM     24  O   UNL A   1      42.004  22.568  27.162  1.00  0.00    -0.374 OA
BRANCH  24  25
ATOM     25  C   UNL A   1      43.238  22.045  26.671  1.00  0.00     0.202 C 
BRANCH  25  26
ATOM     26  C   UNL A   1      43.544  22.287  25.188  1.00  0.00     0.261 C 
BRANCH  26  27
ATOM     27  O   UNL A   1      43.022  23.543  24.717  1.00  0.00    -0.460 OA
BRANCH  27  28
ATOM     28  C   UNL A   1      43.787  24.612  25.034  1.00  0.00     0.338 C 
ATOM     29  O   UNL A   1      44.908  24.873  24.614  1.00  0.00    -0.246 OA
BRANCH  28  30
ATOM     30  C   UNL A   1      43.029  25.575  25.852  1.00  0.00     0.060 A 
ATOM     31  C   UNL A   1      43.749  26.644  26.400  1.00  0.00     0.016 A 
ATOM     32  C   UNL A   1      41.680  25.391  26.169  1.00  0.00     0.016 A 
ATOM     33  C   UNL A   1      43.151  27.486  27.331  1.00  0.00     0.010 A 
ATOM     34  C   UNL A   1      41.081  26.237  27.112  1.00  0.00     0.010 A 
ATOM     35  C   UNL A   1      41.830  27.253  27.735  1.00  0.00    -0.014 A 
BRANCH  35  36
ATOM     36  C   UNL A   1      41.324  27.951  28.943  1.00  0.00     0.031 A 
ATOM     37  C   UNL A   1      42.070  27.784  30.240  1.00  0.00     0.074 A 
ATOM     38  C   UNL A   1      40.274  28.787  28.873  1.00  0.00     0.049 A 
ATOM     39  N   UNL A   1      41.836  28.322  31.411  1.00  0.00    -0.248 NA
ATOM     40  C   UNL A   1      43.242  26.895  30.212  1.00  0.00     0.031 C 
ATOM     41  C   UNL A   1      39.502  29.072  27.666  1.00  0.00     0.029 A 
ATOM     42  N   UNL A   1      39.682  29.556  29.843  1.00  0.00    -0.354 N 
ATOM     43  C   UNL A   1      42.826  27.835  32.255  1.00  0.00     0.074 A 
ATOM     44  C   UNL A   1      43.643  26.933  31.473  1.00  0.00     0.031 C 
ATOM     45  C   UNL A   1      38.534  29.954  27.967  1.00  0.00     0.029 A 
ATOM     46  C   UNL A   1      38.603  30.276  29.392  1.00  0.00     0.049 A 
ATOM     47  H   UNL A   1      40.000  29.589  30.774  1.00  0.00     0.167 HD
ATOM     48  C   UNL A   1      43.043  28.124  33.560  1.00  0.00     0.037 A 
ATOM     49  C   UNL A   1      37.762  31.090  30.058  1.00  0.00     0.037 A 
ATOM     50  C   UNL A   1      42.237  29.029  34.335  1.00  0.00     0.049 A 
ATOM     51  C   UNL A   1      37.985  31.344  31.528  1.00  0.00     0.074 A 
ATOM     52  C   UNL A   1      42.385  29.398  35.661  1.00  0.00     0.029 A 
ATOM     53  N   UNL A   1      41.126  29.706  33.853  1.00  0.00    -0.354 N 
ATOM     54  N   UNL A   1      38.935  30.895  32.312  1.00  0.00    -0.248 NA
ATOM     55  C   UNL A   1      37.019  32.223  32.202  1.00  0.00     0.031 C 
ATOM     56  C   UNL A   1      41.336  30.260  35.994  1.00  0.00     0.029 A 
ATOM     57  C   UNL A   1      40.564  30.471  34.862  1.00  0.00     0.049 A 
ATOM     58  H   UNL A   1      40.787  29.649  32.930  1.00  0.00     0.167 HD
ATOM     59  C   UNL A   1      38.701  31.460  33.560  1.00  0.00     0.074 A 
ATOM     60  C   UNL A   1      37.524  32.293  33.426  1.00  0.00     0.031 C 
ATOM     61  C   UNL A   1      39.400  31.304  34.711  1.00  0.00     0.037 A 
BRANCH  48  62
ATOM     62  C   UNL A   1      44.187  27.433  34.241  1.00  0.00     0.064 A 
ATOM     63  C   UNL A   1      44.037  26.174  34.843  1.00  0.00     0.173 A 
ATOM     64  C   UNL A   1      45.460  28.024  34.263  1.00  0.00     0.173 A 
ATOM     65  F   UNL A   1      42.838  25.574  34.863  1.00  0.00    -0.203 F 
ATOM     66  C   UNL A   1      45.114  25.544  35.462  1.00  0.00     0.198 A 
ATOM     67  C   UNL A   1      46.540  27.378  34.858  1.00  0.00     0.198 A 
ATOM     68  F   UNL A   1      45.657  29.225  33.699  1.00  0.00    -0.203 F 
ATOM     69  F   UNL A   1      44.938  24.363  36.070  1.00  0.00    -0.200 F 
ATOM     70  C   UNL A   1      46.366  26.143  35.463  1.00  0.00     0.200 A 
ATOM     71  F   UNL A   1      47.751  27.953  34.847  1.00  0.00    -0.200 F 
ATOM     72  F   UNL A   1      47.402  25.532  36.052  1.00  0.00    -0.200 F 
ENDBRANCH  48  62
BRANCH  49  73
ATOM     73  C   UNL A   1      36.622  31.723  29.345  1.00  0.00     0.064 A 
ATOM     74  C   UNL A   1      36.604  33.100  29.083  1.00  0.00     0.173 A 
ATOM     75  C   UNL A   1      35.519  30.964  28.928  1.00  0.00     0.173 A 
ATOM     76  F   UNL A   1      37.623  33.872  29.486  1.00  0.00    -0.203 F 
ATOM     77  C   UNL A   1      35.516  33.696  28.447  1.00  0.00     0.198 A 
ATOM     78  C   UNL A   1      34.446  31.557  28.267  1.00  0.00     0.198 A 
ATOM     79  F   UNL A   1      35.487  29.642  29.157  1.00  0.00    -0.203 F 
ATOM     80  F   UNL A   1      35.503  35.021  28.250  1.00  0.00    -0.200 F 
ATOM     81  C   UNL A   1      34.441  32.923  28.034  1.00  0.00     0.200 A 
ATOM     82  F   UNL A   1      33.415  30.803  27.859  1.00  0.00    -0.200 F 
ATOM     83  F   UNL A   1      33.398  33.496  27.419  1.00  0.00    -0.200 F 
ENDBRANCH  49  73
BRANCH  61  84
ATOM     84  C   UNL A   1      38.938  32.079  35.911  1.00  0.00     0.064 A 
ATOM     85  C   UNL A   1      38.138  31.496  36.903  1.00  0.00     0.173 A 
ATOM     86  C   UNL A   1      39.341  33.412  36.092  1.00  0.00     0.173 A 
ATOM     87  F   UNL A   1      37.715  30.229  36.772  1.00  0.00    -0.203 F 
ATOM     88  C   UNL A   1      37.738  32.225  38.021  1.00  0.00     0.198 A 
ATOM     89  C   UNL A   1      38.965  34.128  37.224  1.00  0.00     0.198 A 
ATOM     90  F   UNL A   1      40.114  34.015  35.176  1.00  0.00    -0.203 F 
ATOM     91  F   UNL A   1      36.937  31.661  38.935  1.00  0.00    -0.200 F 
ATOM     92  C   UNL A   1      38.158  33.537  38.184  1.00  0.00     0.200 A 
ATOM     93  F   UNL A   1      39.383  35.392  37.386  1.00  0.00    -0.200 F 
ATOM     94  F   UNL A   1      37.778  34.234  39.264  1.00  0.00    -0.200 F 
ENDBRANCH  61  84
ENDBRANCH  35  36
ENDBRANCH  28  30
ENDBRANCH  27  28
ENDBRANCH  26  27
ENDBRANCH  25  26
ENDBRANCH  24  25
ENDBRANCH   1  24
TORSDOF 17
ENDMDL
MODEL 3
REMARK VINA RESULT:     -11.7      1.233      2.435
REMARK SMILES C[C@H](c1ccncc1)[N@H+]1[C@@H]2CC[C@H]1C[C@H](CC(=O)OCCOCCOC(=O)c1ccc(-c3c4nc(c(-c5c(F)c(F)c(F)c(F)c5F)c5ccc([nH]5)c(-c5c(F)c(F)c(F)c(F)c5F)c5nc(c(-c6c(F)c(F)c(F)c(F)c6F)c6ccc3[nH]6)C=C5)C=C4)cc1)C2
REMARK SMILES IDX 21 1 20 2 19 3 17 4 18 5 16 6 15 7 9 8 10 9 13 10 11 12
REMARK SMILES IDX 91 13 12 14 14 15 2 16 1 17 3 18 4 19 8 20 5 21 7 22 6 23
REMARK SMILES IDX 22 24 23 25 24 26 25 27 26 28 27 29 28 30 29 31 90 32 30 33
REMARK SMILES IDX 89 34 31 35 32 36 33 37 83 38 34 39 88 40 82 41 84 42 35 43
REMARK SMILES IDX 87 44 81 45 80 46 36 48 68 49 48 50 67 51 49 52 52 53 66 54
REMARK SMILES IDX 85 55 50 56 51 57 65 59 86 60 53 61 37 62 38 63 46 64 39 65
REMARK SMILES IDX 40 66 44 67 47 68 41 69 42 70 45 71 43 72 69 73 70 74 78 75
REMARK SMILES IDX 71 76 72 77 76 78 79 79 73 80 74 81 77 82 75 83 54 84 55 85
REMARK SMILES IDX 63 86 56 87 57 88 61 89 64 90 58 91 59 92 62 93 60 94
REMARK H PARENT 9 11 84 47 52 58
REMARK Flexibility Score: inf
ROOT
ATOM      1  C   UNL A   1      34.844  21.858  24.252  1.00  0.00     0.202 C 
ENDROOT
BRANCH   1   2
ATOM      2  C   UNL A   1      34.851  23.272  23.671  1.00  0.00     0.261 C 
BRANCH   2   3
ATOM      3  O   UNL A   1      34.265  23.254  22.359  1.00  0.00    -0.463 OA
BRANCH   3   4
ATOM      4  C   UNL A   1      33.582  24.367  22.008  1.00  0.00     0.306 C 
ATOM      5  O   UNL A   1      33.181  24.612  20.876  1.00  0.00    -0.252 OA
BRANCH   4   6
ATOM      6  C   UNL A   1      33.335  25.309  23.161  1.00  0.00     0.126 C 
BRANCH   6   7
ATOM      7  C   UNL A   1      32.190  26.350  23.133  1.00  0.00     0.012 C 
ATOM      8  N   UNL A   1      31.520  28.482  25.089  1.00  0.00    -0.324 N 
ATOM      9  C   UNL A   1      32.092  28.882  23.808  1.00  0.00     0.185 C 
ATOM     10  C   UNL A   1      30.507  27.491  24.728  1.00  0.00     0.185 C 
ATOM     11  H   UNL A   1      31.173  29.334  25.528  1.00  0.00     0.349 HD
ATOM     12  C   UNL A   1      30.802  29.213  23.047  1.00  0.00     0.071 C 
ATOM     13  C   UNL A   1      32.844  27.757  23.076  1.00  0.00     0.069 C 
ATOM     14  C   UNL A   1      29.784  28.204  23.576  1.00  0.00     0.071 C 
ATOM     15  C   UNL A   1      31.169  26.182  24.279  1.00  0.00     0.069 C 
BRANCH   8  16
ATOM     16  C   UNL A   1      32.316  28.205  26.293  1.00  0.00     0.212 C 
ATOM     17  C   UNL A   1      31.360  27.777  27.415  1.00  0.00     0.081 C 
BRANCH  16  18
ATOM     18  C   UNL A   1      33.285  29.266  26.785  1.00  0.00     0.012 A 
ATOM     19  C   UNL A   1      34.645  29.005  26.993  1.00  0.00     0.030 A 
ATOM     20  C   UNL A   1      32.830  30.566  27.046  1.00  0.00     0.030 A 
ATOM     21  C   UNL A   1      35.450  30.003  27.522  1.00  0.00     0.111 A 
ATOM     22  C   UNL A   1      33.715  31.502  27.563  1.00  0.00     0.111 A 
ATOM     23  N   UNL A   1      35.012  31.243  27.822  1.00  0.00    -0.265 NA
ENDBRANCH  16  18
ENDBRANCH   8  16
ENDBRANCH   6   7
ENDBRANCH   4   6
ENDBRANCH   3   4
ENDBRANCH   2   3
ENDBRANCH   1   2
BRANCH   1  24
ATOM     24  O   UNL A   1      35.961  21.506  25.070  1.00  0.00    -0.374 OA
BRANCH  24  25
ATOM     25  C   UNL A   1      36.450  20.168  24.989  1.00  0.00     0.202 C 
BRANCH  25  26
ATOM     26  C   UNL A   1      37.971  19.986  25.067  1.00  0.00     0.261 C 
BRANCH  26  27
ATOM     27  O   UNL A   1      38.653  21.208  25.403  1.00  0.00    -0.460 OA
BRANCH  27  28
ATOM     28  C   UNL A   1      39.734  21.036  26.198  1.00  0.00     0.338 C 
ATOM     29  O   UNL A   1      40.472  20.059  26.245  1.00  0.00    -0.246 OA
BRANCH  28  30
ATOM     30  C   UNL A   1      40.055  22.277  26.925  1.00  0.00     0.060 A 
ATOM     31  C   UNL A   1      39.382  23.438  26.522  1.00  0.00     0.016 A 
ATOM     32  C   UNL A   1      41.057  22.338  27.897  1.00  0.00     0.016 A 
ATOM     33  C   UNL A   1      39.762  24.676  27.027  1.00  0.00     0.010 A 
ATOM     34  C   UNL A   1      41.442  23.587  28.400  1.00  0.00     0.010 A 
ATOM     35  C   UNL A   1      40.832  24.764  27.927  1.00  0.00    -0.014 A 
BRANCH  35  36
ATOM     36  C   UNL A   1      41.421  26.099  28.201  1.00  0.00     0.031 A 
ATOM     37  C   UNL A   1      42.800  26.402  27.678  1.00  0.00     0.074 A 
ATOM     38  C   UNL A   1      40.712  27.055  28.825  1.00  0.00     0.049 A 
ATOM     39  N   UNL A   1      43.499  27.507  27.763  1.00  0.00    -0.248 NA
ATOM     40  C   UNL A   1      43.481  25.316  26.956  1.00  0.00     0.031 C 
ATOM     41  C   UNL A   1      39.350  26.901  29.331  1.00  0.00     0.029 A 
ATOM     42  N   UNL A   1      41.042  28.352  29.131  1.00  0.00    -0.354 N 
ATOM     43  C   UNL A   1      44.698  27.246  27.111  1.00  0.00     0.074 A 
ATOM     44  C   UNL A   1      44.647  25.871  26.665  1.00  0.00     0.031 C 
ATOM     45  C   UNL A   1      38.960  28.060  29.889  1.00  0.00     0.029 A 
ATOM     46  C   UNL A   1      40.052  29.027  29.801  1.00  0.00     0.049 A 
ATOM     47  H   UNL A   1      41.907  28.758  28.894  1.00  0.00     0.167 HD
ATOM     48  C   UNL A   1      45.741  28.081  26.893  1.00  0.00     0.037 A 
ATOM     49  C   UNL A   1      40.038  30.280  30.296  1.00  0.00     0.037 A 
ATOM     50  C   UNL A   1      45.788  29.451  27.327  1.00  0.00     0.049 A 
ATOM     51  C   UNL A   1      41.239  31.170  30.097  1.00  0.00     0.074 A 
ATOM     52  C   UNL A   1      46.794  30.383  27.141  1.00  0.00     0.029 A 
ATOM     53  N   UNL A   1      44.782  30.087  28.041  1.00  0.00    -0.354 N 
ATOM     54  N   UNL A   1      42.359  30.921  29.462  1.00  0.00    -0.248 NA
ATOM     55  C   UNL A   1      41.169  32.517  30.681  1.00  0.00     0.031 C 
ATOM     56  C   UNL A   1      46.420  31.566  27.783  1.00  0.00     0.029 A 
ATOM     57  C   UNL A   1      45.156  31.391  28.324  1.00  0.00     0.049 A 
ATOM     58  H   UNL A   1      43.930  29.672  28.306  1.00  0.00     0.167 HD
ATOM     59  C   UNL A   1      43.112  32.087  29.542  1.00  0.00     0.074 A 
ATOM     60  C   UNL A   1      42.317  33.047  30.279  1.00  0.00     0.031 C 
ATOM     61  C   UNL A   1      44.349  32.339  29.048  1.00  0.00     0.037 A 
BRANCH  48  62
ATOM     62  C   UNL A   1      46.932  27.526  26.168  1.00  0.00     0.064 A 
ATOM     63  C   UNL A   1      47.963  26.858  26.847  1.00  0.00     0.173 A 
ATOM     64  C   UNL A   1      47.027  27.635  24.773  1.00  0.00     0.173 A 
ATOM     65  F   UNL A   1      47.928  26.740  28.183  1.00  0.00    -0.203 F 
ATOM     66  C   UNL A   1      49.056  26.340  26.155  1.00  0.00     0.198 A 
ATOM     67  C   UNL A   1      48.108  27.092  24.083  1.00  0.00     0.198 A 
ATOM     68  F   UNL A   1      46.067  28.262  24.077  1.00  0.00    -0.203 F 
ATOM     69  F   UNL A   1      50.052  25.745  26.828  1.00  0.00    -0.200 F 
ATOM     70  C   UNL A   1      49.124  26.452  24.775  1.00  0.00     0.200 A 
ATOM     71  F   UNL A   1      48.166  27.191  22.748  1.00  0.00    -0.200 F 
ATOM     72  F   UNL A   1      50.173  25.947  24.111  1.00  0.00    -0.200 F 
ENDBRANCH  48  62
BRANCH  49  73
ATOM     73  C   UNL A   1      38.846  30.772  31.035  1.00  0.00     0.064 A 
ATOM     74  C   UNL A   1      37.837  31.497  30.388  1.00  0.00     0.173 A 
ATOM     75  C   UNL A   1      38.704  30.539  32.412  1.00  0.00     0.173 A 
ATOM     76  F   UNL A   1      37.940  31.767  29.079  1.00  0.00    -0.203 F 
ATOM     77  C   UNL A   1      36.739  31.987  31.093  1.00  0.00     0.198 A 
ATOM     78  C   UNL A   1      37.593  31.007  33.110  1.00  0.00     0.198 A 
ATOM     79  F   UNL A   1      39.644  29.853  33.079  1.00  0.00    -0.203 F 
ATOM     80  F   UNL A   1      35.811  32.717  30.460  1.00  0.00    -0.200 F 
ATOM     81  C   UNL A   1      36.615  31.737  32.452  1.00  0.00     0.200 A 
ATOM     82  F   UNL A   1      37.471  30.751  34.420  1.00  0.00    -0.200 F 
ATOM     83  F   UNL A   1      35.557  32.206  33.129  1.00  0.00    -0.200 F 
ENDBRANCH  49  73
BRANCH  61  84
ATOM     84  C   UNL A   1      44.907  33.718  29.249  1.00  0.00     0.064 A 
ATOM     85  C   UNL A   1      45.710  34.034  30.354  1.00  0.00     0.173 A 
ATOM     86  C   UNL A   1      44.672  34.724  28.299  1.00  0.00     0.173 A 
ATOM     87  F   UNL A   1      45.954  33.113  31.298  1.00  0.00    -0.203 F 
ATOM     88  C   UNL A   1      46.237  35.314  30.513  1.00  0.00     0.198 A 
ATOM     89  C   UNL A   1      45.225  35.992  28.444  1.00  0.00     0.198 A 
ATOM     90  F   UNL A   1      43.917  34.470  27.218  1.00  0.00    -0.203 F 
ATOM     91  F   UNL A   1      46.965  35.607  31.599  1.00  0.00    -0.200 F 
ATOM     92  C   UNL A   1      46.001  36.289  29.554  1.00  0.00     0.200 A 
ATOM     93  F   UNL A   1      45.006  36.928  27.510  1.00  0.00    -0.200 F 
ATOM     94  F   UNL A   1      46.516  37.517  29.705  1.00  0.00    -0.200 F 
ENDBRANCH  61  84
ENDBRANCH  35  36
ENDBRANCH  28  30
ENDBRANCH  27  28
ENDBRANCH  26  27
ENDBRANCH  25  26
ENDBRANCH  24  25
ENDBRANCH   1  24
TORSDOF 17
ENDMDL
