MODEL 1
REMARK VINA RESULT:     -10.7      0.000      0.000
REMARK SMILES COCc1cc(OCC(=O)OCCOCCOC(=O)c2ccc(-c3c4nc(c(-c5c(F)c(F)c(F)c(F)c5F)c5ccc([nH]5)c(-c5c(F)c(F)c(F)c(F)c5F)c5nc(c(-c6c(F)c(F)c(F)c(F)c6F)c6ccc3[nH]6)C=C5)C=C4)cc2)nc(Nc2cccc(C)c2C)n1
REMARK SMILES IDX 13 1 12 2 11 3 9 4 10 5 8 6 7 7 6 8 4 9 5 10 94 11 84 12
REMARK SMILES IDX 83 13 3 14 2 15 1 16 85 17 86 19 87 20 92 21 88 22 90 23
REMARK SMILES IDX 93 24 89 25 91 26 14 27 15 28 16 29 17 30 18 31 19 32 20 33
REMARK SMILES IDX 21 34 82 35 22 36 81 37 23 38 24 39 25 40 75 41 26 42 80 43
REMARK SMILES IDX 74 44 76 45 27 46 79 47 73 48 72 49 28 51 60 52 40 53 59 54
REMARK SMILES IDX 41 55 44 56 58 57 77 58 42 59 43 60 57 62 78 63 45 64 29 65
REMARK SMILES IDX 30 66 38 67 31 68 32 69 36 70 39 71 33 72 34 73 37 74 35 75
REMARK SMILES IDX 61 76 62 77 70 78 63 79 64 80 68 81 71 82 65 83 66 84 69 85
REMARK SMILES IDX 67 86 46 87 47 88 55 89 48 90 49 91 53 92 56 93 50 94 51 95
REMARK SMILES IDX 54 96 52 97
REMARK H PARENT 85 18 76 50 44 61
REMARK Flexibility Score: inf
ROOT
ATOM      1  C   UNL A   1      41.551  19.870  26.007  1.00  0.00     0.202 C 
ENDROOT
BRANCH   1   2
ATOM      2  C   UNL A   1      40.137  20.465  25.965  1.00  0.00     0.261 C 
BRANCH   2   3
ATOM      3  O   UNL A   1      40.049  21.784  26.549  1.00  0.00    -0.461 OA
BRANCH   3   4
ATOM      4  C   UNL A   1      38.904  22.476  26.286  1.00  0.00     0.344 C 
ATOM      5  O   UNL A   1      38.693  23.634  26.627  1.00  0.00    -0.248 OA
BRANCH   4   6
ATOM      6  C   UNL A   1      37.856  21.654  25.532  1.00  0.00     0.353 C 
BRANCH   6   7
ATOM      7  O   UNL A   1      36.949  22.307  24.671  1.00  0.00    -0.466 OA
BRANCH   7   8
ATOM      8  C   UNL A   1      35.738  22.731  25.132  1.00  0.00     0.219 A 
ATOM      9  C   UNL A   1      34.082  24.281  25.740  1.00  0.00     0.076 A 
ATOM     10  C   UNL A   1      35.424  24.017  25.519  1.00  0.00     0.095 A 
ATOM     11  N   UNL A   1      33.154  23.318  25.610  1.00  0.00    -0.215 NA
ATOM     12  C   UNL A   1      33.544  22.076  25.309  1.00  0.00     0.230 A 
ATOM     13  N   UNL A   1      34.817  21.753  25.067  1.00  0.00    -0.177 NA
BRANCH   9  14
ATOM     14  C   UNL A   1      33.588  25.715  25.861  1.00  0.00     0.216 C 
BRANCH  14  15
ATOM     15  O   UNL A   1      32.835  26.220  24.756  1.00  0.00    -0.378 OA
ATOM     16  C   UNL A   1      33.625  26.906  23.787  1.00  0.00     0.195 C 
ENDBRANCH  14  15
ENDBRANCH   9  14
BRANCH  12  17
ATOM     17  N   UNL A   1      32.594  21.072  25.178  1.00  0.00    -0.324 N 
ATOM     18  H   UNL A   1      31.841  21.106  25.812  1.00  0.00     0.170 HD
BRANCH  17  19
ATOM     19  C   UNL A   1      32.571  20.016  24.256  1.00  0.00     0.044 A 
ATOM     20  C   UNL A   1      32.176  20.303  22.942  1.00  0.00     0.026 A 
ATOM     21  C   UNL A   1      32.886  18.681  24.609  1.00  0.00    -0.025 A 
ATOM     22  C   UNL A   1      32.159  19.311  21.965  1.00  0.00     0.002 A 
ATOM     23  C   UNL A   1      32.895  17.679  23.608  1.00  0.00    -0.046 A 
ATOM     24  C   UNL A   1      33.223  18.310  26.032  1.00  0.00     0.047 C 
ATOM     25  C   UNL A   1      32.525  18.011  22.295  1.00  0.00     0.004 A 
ATOM     26  C   UNL A   1      33.259  16.242  23.877  1.00  0.00     0.044 C 
ENDBRANCH  17  19
ENDBRANCH  12  17
ENDBRANCH   7   8
ENDBRANCH   6   7
ENDBRANCH   4   6
ENDBRANCH   3   4
ENDBRANCH   2   3
ENDBRANCH   1   2
BRANCH   1  27
ATOM     27  O   UNL A   1      42.595  20.718  26.488  1.00  0.00    -0.374 OA
BRANCH  27  28
ATOM     28  C   UNL A   1      43.785  20.783  25.713  1.00  0.00     0.202 C 
BRANCH  28  29
ATOM     29  C   UNL A   1      43.901  21.945  24.726  1.00  0.00     0.261 C 
BRANCH  29  30
ATOM     30  O   UNL A   1      43.073  23.053  25.079  1.00  0.00    -0.460 OA
BRANCH  30  31
ATOM     31  C   UNL A   1      43.747  24.211  25.217  1.00  0.00     0.338 C 
ATOM     32  O   UNL A   1      44.762  24.570  24.635  1.00  0.00    -0.246 OA
BRANCH  31  33
ATOM     33  C   UNL A   1      42.994  25.099  26.099  1.00  0.00     0.060 A 
ATOM     34  C   UNL A   1      43.444  26.419  26.212  1.00  0.00     0.016 A 
ATOM     35  C   UNL A   1      41.929  24.619  26.866  1.00  0.00     0.016 A 
ATOM     36  C   UNL A   1      42.867  27.255  27.156  1.00  0.00     0.010 A 
ATOM     37  C   UNL A   1      41.353  25.462  27.814  1.00  0.00     0.010 A 
ATOM     38  C   UNL A   1      41.853  26.764  27.990  1.00  0.00    -0.014 A 
BRANCH  38  39
ATOM     39  C   UNL A   1      41.433  27.578  29.147  1.00  0.00     0.031 A 
ATOM     40  C   UNL A   1      42.204  27.463  30.429  1.00  0.00     0.074 A 
ATOM     41  C   UNL A   1      40.405  28.432  29.026  1.00  0.00     0.049 A 
ATOM     42  N   UNL A   1      42.039  28.103  31.556  1.00  0.00    -0.248 NA
ATOM     43  C   UNL A   1      43.310  26.492  30.443  1.00  0.00     0.031 C 
ATOM     44  C   UNL A   1      39.605  28.616  27.815  1.00  0.00     0.029 A 
ATOM     45  N   UNL A   1      39.857  29.301  29.931  1.00  0.00    -0.354 N 
ATOM     46  C   UNL A   1      43.012  27.608  32.414  1.00  0.00     0.074 A 
ATOM     47  C   UNL A   1      43.744  26.592  31.689  1.00  0.00     0.031 C 
ATOM     48  C   UNL A   1      38.657  29.535  28.058  1.00  0.00     0.029 A 
ATOM     49  C   UNL A   1      38.774  29.985  29.443  1.00  0.00     0.049 A 
ATOM     50  H   UNL A   1      40.207  29.422  30.843  1.00  0.00     0.167 HD
ATOM     51  C   UNL A   1      43.273  27.979  33.689  1.00  0.00     0.037 A 
ATOM     52  C   UNL A   1      37.962  30.863  30.058  1.00  0.00     0.037 A 
ATOM     53  C   UNL A   1      42.534  28.994  34.390  1.00  0.00     0.049 A 
ATOM     54  C   UNL A   1      38.257  31.246  31.483  1.00  0.00     0.074 A 
ATOM     55  C   UNL A   1      42.735  29.487  35.667  1.00  0.00     0.029 A 
ATOM     56  N   UNL A   1      41.435  29.666  33.869  1.00  0.00    -0.354 N 
ATOM     57  N   UNL A   1      39.215  30.819  32.271  1.00  0.00    -0.248 NA
ATOM     58  C   UNL A   1      37.370  32.240  32.100  1.00  0.00     0.031 C 
ATOM     59  C   UNL A   1      41.725  30.417  35.937  1.00  0.00     0.029 A 
ATOM     60  C   UNL A   1      40.927  30.545  34.811  1.00  0.00     0.049 A 
ATOM     61  H   UNL A   1      41.071  29.536  32.964  1.00  0.00     0.167 HD
ATOM     62  C   UNL A   1      39.058  31.500  33.470  1.00  0.00     0.074 A 
ATOM     63  C   UNL A   1      37.922  32.384  33.298  1.00  0.00     0.031 C 
ATOM     64  C   UNL A   1      39.786  31.406  34.612  1.00  0.00     0.037 A 
BRANCH  51  65
ATOM     65  C   UNL A   1      44.375  27.257  34.408  1.00  0.00     0.064 A 
ATOM     66  C   UNL A   1      45.699  27.724  34.399  1.00  0.00     0.173 A 
ATOM     67  C   UNL A   1      44.103  26.078  35.118  1.00  0.00     0.173 A 
ATOM     68  F   UNL A   1      46.017  28.838  33.722  1.00  0.00    -0.203 F 
ATOM     69  C   UNL A   1      46.713  27.019  35.043  1.00  0.00     0.198 A 
ATOM     70  C   UNL A   1      45.114  25.391  35.785  1.00  0.00     0.198 A 
ATOM     71  F   UNL A   1      42.855  25.587  35.161  1.00  0.00    -0.203 F 
ATOM     72  F   UNL A   1      47.980  27.453  34.972  1.00  0.00    -0.200 F 
ATOM     73  C   UNL A   1      46.420  25.856  35.739  1.00  0.00     0.200 A 
ATOM     74  F   UNL A   1      44.826  24.272  36.464  1.00  0.00    -0.200 F 
ATOM     75  F   UNL A   1      47.396  25.177  36.357  1.00  0.00    -0.200 F 
ENDBRANCH  51  65
BRANCH  52  76
ATOM     76  C   UNL A   1      36.804  31.427  29.320  1.00  0.00     0.064 A 
ATOM     77  C   UNL A   1      35.690  30.641  28.999  1.00  0.00     0.173 A 
ATOM     78  C   UNL A   1      36.773  32.782  28.955  1.00  0.00     0.173 A 
ATOM     79  F   UNL A   1      35.680  29.336  29.311  1.00  0.00    -0.203 F 
ATOM     80  C   UNL A   1      34.592  31.186  28.336  1.00  0.00     0.198 A 
ATOM     81  C   UNL A   1      35.665  33.332  28.317  1.00  0.00     0.198 A 
ATOM     82  F   UNL A   1      37.812  33.579  29.247  1.00  0.00    -0.203 F 
ATOM     83  F   UNL A   1      33.550  30.407  28.016  1.00  0.00    -0.200 F 
ATOM     84  C   UNL A   1      34.577  32.533  28.002  1.00  0.00     0.200 A 
ATOM     85  F   UNL A   1      35.647  34.637  28.013  1.00  0.00    -0.200 F 
ATOM     86  F   UNL A   1      33.514  33.059  27.380  1.00  0.00    -0.200 F 
ENDBRANCH  52  76
BRANCH  64  87
ATOM     87  C   UNL A   1      39.379  32.287  35.754  1.00  0.00     0.064 A 
ATOM     88  C   UNL A   1      39.912  33.574  35.913  1.00  0.00     0.173 A 
ATOM     89  C   UNL A   1      38.407  31.858  36.671  1.00  0.00     0.173 A 
ATOM     90  F   UNL A   1      40.853  34.024  35.069  1.00  0.00    -0.203 F 
ATOM     91  C   UNL A   1      39.504  34.391  36.963  1.00  0.00     0.198 A 
ATOM     92  C   UNL A   1      37.981  32.689  37.702  1.00  0.00     0.198 A 
ATOM     93  F   UNL A   1      37.862  30.638  36.556  1.00  0.00    -0.203 F 
ATOM     94  F   UNL A   1      40.059  35.601  37.122  1.00  0.00    -0.200 F 
ATOM     95  C   UNL A   1      38.534  33.952  37.851  1.00  0.00     0.200 A 
ATOM     96  F   UNL A   1      37.034  32.268  38.552  1.00  0.00    -0.200 F 
ATOM     97  F   UNL A   1      38.137  34.743  38.857  1.00  0.00    -0.200 F 
ENDBRANCH  64  87
ENDBRANCH  38  39
ENDBRANCH  31  33
ENDBRANCH  30  31
ENDBRANCH  29  30
ENDBRANCH  28  29
ENDBRANCH  27  28
ENDBRANCH   1  27
TORSDOF 20
ENDMDL
MODEL 2
REMARK VINA RESULT:     -10.7      1.152      7.795
REMARK SMILES COCc1cc(OCC(=O)OCCOCCOC(=O)c2ccc(-c3c4nc(c(-c5c(F)c(F)c(F)c(F)c5F)c5ccc([nH]5)c(-c5c(F)c(F)c(F)c(F)c5F)c5nc(c(-c6c(F)c(F)c(F)c(F)c6F)c6ccc3[nH]6)C=C5)C=C4)cc2)nc(Nc2cccc(C)c2C)n1
REMARK SMILES IDX 13 1 12 2 11 3 9 4 10 5 8 6 7 7 6 8 4 9 5 10 94 11 84 12
REMARK SMILES IDX 83 13 3 14 2 15 1 16 85 17 86 19 87 20 92 21 88 22 90 23
REMARK SMILES IDX 93 24 89 25 91 26 14 27 15 28 16 29 17 30 18 31 19 32 20 33
REMARK SMILES IDX 21 34 82 35 22 36 81 37 23 38 24 39 25 40 75 41 26 42 80 43
REMARK SMILES IDX 74 44 76 45 27 46 79 47 73 48 72 49 28 51 60 52 40 53 59 54
REMARK SMILES IDX 41 55 44 56 58 57 77 58 42 59 43 60 57 62 78 63 45 64 29 65
REMARK SMILES IDX 30 66 38 67 31 68 32 69 36 70 39 71 33 72 34 73 37 74 35 75
REMARK SMILES IDX 61 76 62 77 70 78 63 79 64 80 68 81 71 82 65 83 66 84 69 85
REMARK SMILES IDX 67 86 46 87 47 88 55 89 48 90 49 91 53 92 56 93 50 94 51 95
REMARK SMILES IDX 54 96 52 97
REMARK H PARENT 85 18 76 50 44 61
REMARK Flexibility Score: inf
ROOT
ATOM      1  C   UNL A   1      41.335  21.054  26.662  1.00  0.00     0.202 C 
ENDROOT
BRANCH   1   2
ATOM      2  C   UNL A   1      40.088  21.663  26.007  1.00  0.00     0.261 C 
BRANCH   2   3
ATOM      3  O   UNL A   1      39.317  22.497  26.900  1.00  0.00    -0.461 OA
BRANCH   3   4
ATOM      4  C   UNL A   1      38.623  23.514  26.315  1.00  0.00     0.344 C 
ATOM      5  O   UNL A   1      38.867  24.706  26.466  1.00  0.00    -0.248 OA
BRANCH   4   6
ATOM      6  C   UNL A   1      37.457  23.034  25.448  1.00  0.00     0.353 C 
BRANCH   6   7
ATOM      7  O   UNL A   1      36.637  21.980  25.906  1.00  0.00    -0.466 OA
BRANCH   7   8
ATOM      8  C   UNL A   1      35.489  21.657  25.246  1.00  0.00     0.219 A 
ATOM      9  C   UNL A   1      33.689  20.303  24.583  1.00  0.00     0.076 A 
ATOM     10  C   UNL A   1      34.976  20.387  25.089  1.00  0.00     0.095 A 
ATOM     11  N   UNL A   1      33.005  21.407  24.241  1.00  0.00    -0.215 NA
ATOM     12  C   UNL A   1      33.599  22.600  24.347  1.00  0.00     0.230 A 
ATOM     13  N   UNL A   1      34.829  22.757  24.842  1.00  0.00    -0.177 NA
BRANCH   9  14
ATOM     14  C   UNL A   1      32.913  18.997  24.660  1.00  0.00     0.216 C 
BRANCH  14  15
ATOM     15  O   UNL A   1      33.682  17.797  24.548  1.00  0.00    -0.378 OA
ATOM     16  C   UNL A   1      32.894  16.611  24.481  1.00  0.00     0.195 C 
ENDBRANCH  14  15
ENDBRANCH   9  14
BRANCH  12  17
ATOM     17  N   UNL A   1      32.901  23.747  23.991  1.00  0.00    -0.324 N 
ATOM     18  H   UNL A   1      32.131  23.614  23.392  1.00  0.00     0.170 HD
BRANCH  17  19
ATOM     19  C   UNL A   1      33.157  25.071  24.376  1.00  0.00     0.044 A 
ATOM     20  C   UNL A   1      33.145  25.367  25.745  1.00  0.00     0.026 A 
ATOM     21  C   UNL A   1      33.381  26.113  23.443  1.00  0.00    -0.025 A 
ATOM     22  C   UNL A   1      33.420  26.653  26.203  1.00  0.00     0.002 A 
ATOM     23  C   UNL A   1      33.689  27.414  23.911  1.00  0.00    -0.046 A 
ATOM     24  C   UNL A   1      33.308  25.857  21.958  1.00  0.00     0.047 C 
ATOM     25  C   UNL A   1      33.699  27.665  25.293  1.00  0.00     0.004 A 
ATOM     26  C   UNL A   1      33.984  28.575  22.998  1.00  0.00     0.044 C 
ENDBRANCH  17  19
ENDBRANCH  12  17
ENDBRANCH   7   8
ENDBRANCH   6   7
ENDBRANCH   4   6
ENDBRANCH   3   4
ENDBRANCH   2   3
ENDBRANCH   1   2
BRANCH   1  27
ATOM     27  O   UNL A   1      42.511  21.864  26.691  1.00  0.00    -0.374 OA
BRANCH  27  28
ATOM     28  C   UNL A   1      43.522  21.573  25.734  1.00  0.00     0.202 C 
BRANCH  28  29
ATOM     29  C   UNL A   1      43.877  22.687  24.749  1.00  0.00     0.261 C 
BRANCH  29  30
ATOM     30  O   UNL A   1      43.076  23.855  24.924  1.00  0.00    -0.460 OA
BRANCH  30  31
ATOM     31  C   UNL A   1      43.782  24.952  25.258  1.00  0.00     0.338 C 
ATOM     32  O   UNL A   1      44.834  25.352  24.776  1.00  0.00    -0.246 OA
BRANCH  31  33
ATOM     33  C   UNL A   1      43.021  25.731  26.232  1.00  0.00     0.060 A 
ATOM     34  C   UNL A   1      43.281  27.104  26.296  1.00  0.00     0.016 A 
ATOM     35  C   UNL A   1      42.143  25.110  27.123  1.00  0.00     0.016 A 
ATOM     36  C   UNL A   1      42.709  27.858  27.309  1.00  0.00     0.010 A 
ATOM     37  C   UNL A   1      41.570  25.870  28.140  1.00  0.00     0.010 A 
ATOM     38  C   UNL A   1      41.890  27.234  28.259  1.00  0.00    -0.014 A 
BRANCH  38  39
ATOM     39  C   UNL A   1      41.501  27.992  29.465  1.00  0.00     0.031 A 
ATOM     40  C   UNL A   1      40.274  28.853  29.411  1.00  0.00     0.074 A 
ATOM     41  C   UNL A   1      42.217  27.869  30.593  1.00  0.00     0.049 A 
ATOM     42  N   UNL A   1      39.725  29.575  30.351  1.00  0.00    -0.248 NA
ATOM     43  C   UNL A   1      39.571  28.910  28.118  1.00  0.00     0.031 C 
ATOM     44  C   UNL A   1      43.418  27.046  30.739  1.00  0.00     0.029 A 
ATOM     45  N   UNL A   1      42.041  28.436  31.826  1.00  0.00    -0.354 N 
ATOM     46  C   UNL A   1      38.620  30.178  29.765  1.00  0.00     0.074 A 
ATOM     47  C   UNL A   1      38.592  29.764  28.379  1.00  0.00     0.031 C 
ATOM     48  C   UNL A   1      43.879  27.173  31.993  1.00  0.00     0.029 A 
ATOM     49  C   UNL A   1      43.018  28.098  32.726  1.00  0.00     0.049 A 
ATOM     50  H   UNL A   1      41.286  29.029  32.045  1.00  0.00     0.167 HD
ATOM     51  C   UNL A   1      37.708  30.997  30.339  1.00  0.00     0.037 A 
ATOM     52  C   UNL A   1      43.199  28.507  33.995  1.00  0.00     0.037 A 
ATOM     53  C   UNL A   1      37.754  31.395  31.721  1.00  0.00     0.049 A 
ATOM     54  C   UNL A   1      42.185  29.434  34.607  1.00  0.00     0.074 A 
ATOM     55  C   UNL A   1      36.861  32.181  32.425  1.00  0.00     0.029 A 
ATOM     56  N   UNL A   1      38.763  31.039  32.607  1.00  0.00    -0.354 N 
ATOM     57  N   UNL A   1      41.109  29.954  34.067  1.00  0.00    -0.248 NA
ATOM     58  C   UNL A   1      42.400  29.821  36.007  1.00  0.00     0.031 C 
ATOM     59  C   UNL A   1      37.360  32.348  33.722  1.00  0.00     0.029 A 
ATOM     60  C   UNL A   1      38.533  31.619  33.843  1.00  0.00     0.049 A 
ATOM     61  H   UNL A   1      39.529  30.461  32.388  1.00  0.00     0.167 HD
ATOM     62  C   UNL A   1      40.510  30.716  35.059  1.00  0.00     0.074 A 
ATOM     63  C   UNL A   1      41.335  30.574  36.243  1.00  0.00     0.031 C 
ATOM     64  C   UNL A   1      39.380  31.466  35.001  1.00  0.00     0.037 A 
BRANCH  51  65
ATOM     65  C   UNL A   1      36.616  31.538  29.464  1.00  0.00     0.064 A 
ATOM     66  C   UNL A   1      36.573  32.887  29.076  1.00  0.00     0.173 A 
ATOM     67  C   UNL A   1      35.593  30.694  29.006  1.00  0.00     0.173 A 
ATOM     68  F   UNL A   1      37.518  33.740  29.499  1.00  0.00    -0.203 F 
ATOM     69  C   UNL A   1      35.531  33.376  28.293  1.00  0.00     0.198 A 
ATOM     70  C   UNL A   1      34.567  31.180  28.198  1.00  0.00     0.198 A 
ATOM     71  F   UNL A   1      35.584  29.396  29.345  1.00  0.00    -0.203 F 
ATOM     72  F   UNL A   1      35.481  34.679  27.983  1.00  0.00    -0.200 F 
ATOM     73  C   UNL A   1      34.531  32.522  27.851  1.00  0.00     0.200 A 
ATOM     74  F   UNL A   1      33.607  30.351  27.765  1.00  0.00    -0.200 F 
ATOM     75  F   UNL A   1      33.527  32.994  27.099  1.00  0.00    -0.200 F 
ENDBRANCH  51  65
BRANCH  52  76
ATOM     76  C   UNL A   1      44.387  28.037  34.750  1.00  0.00     0.064 A 
ATOM     77  C   UNL A   1      45.590  28.757  34.741  1.00  0.00     0.173 A 
ATOM     78  C   UNL A   1      44.329  26.874  35.533  1.00  0.00     0.173 A 
ATOM     79  F   UNL A   1      45.700  29.865  33.994  1.00  0.00    -0.203 F 
ATOM     80  C   UNL A   1      46.690  28.327  35.480  1.00  0.00     0.198 A 
ATOM     81  C   UNL A   1      45.420  26.460  36.292  1.00  0.00     0.198 A 
ATOM     82  F   UNL A   1      43.198  26.154  35.581  1.00  0.00    -0.203 F 
ATOM     83  F   UNL A   1      47.837  29.018  35.434  1.00  0.00    -0.200 F 
ATOM     84  C   UNL A   1      46.602  27.184  36.261  1.00  0.00     0.200 A 
ATOM     85  F   UNL A   1      45.324  25.366  37.059  1.00  0.00    -0.200 F 
ATOM     86  F   UNL A   1      47.655  26.782  36.985  1.00  0.00    -0.200 F 
ENDBRANCH  52  76
BRANCH  64  87
ATOM     87  C   UNL A   1      38.970  32.179  36.255  1.00  0.00     0.064 A 
ATOM     88  C   UNL A   1      39.370  33.497  36.513  1.00  0.00     0.173 A 
ATOM     89  C   UNL A   1      38.126  31.551  37.184  1.00  0.00     0.173 A 
ATOM     90  F   UNL A   1      40.188  34.134  35.661  1.00  0.00    -0.203 F 
ATOM     91  C   UNL A   1      38.959  34.155  37.669  1.00  0.00     0.198 A 
ATOM     92  C   UNL A   1      37.694  32.222  38.324  1.00  0.00     0.198 A 
ATOM     93  F   UNL A   1      37.710  30.293  36.978  1.00  0.00    -0.203 F 
ATOM     94  F   UNL A   1      39.389  35.400  37.918  1.00  0.00    -0.200 F 
ATOM     95  C   UNL A   1      38.116  33.521  38.569  1.00  0.00     0.200 A 
ATOM     96  F   UNL A   1      36.868  31.613  39.186  1.00  0.00    -0.200 F 
ATOM     97  F   UNL A   1      37.715  34.158  39.677  1.00  0.00    -0.200 F 
ENDBRANCH  64  87
ENDBRANCH  38  39
ENDBRANCH  31  33
ENDBRANCH  30  31
ENDBRANCH  29  30
ENDBRANCH  28  29
ENDBRANCH  27  28
ENDBRANCH   1  27
TORSDOF 20
ENDMDL
MODEL 3
REMARK VINA RESULT:     -10.7      0.791      7.202
REMARK SMILES COCc1cc(OCC(=O)OCCOCCOC(=O)c2ccc(-c3c4nc(c(-c5c(F)c(F)c(F)c(F)c5F)c5ccc([nH]5)c(-c5c(F)c(F)c(F)c(F)c5F)c5nc(c(-c6c(F)c(F)c(F)c(F)c6F)c6ccc3[nH]6)C=C5)C=C4)cc2)nc(Nc2cccc(C)c2C)n1
REMARK SMILES IDX 13 1 12 2 11 3 9 4 10 5 8 6 7 7 6 8 4 9 5 10 94 11 84 12
REMARK SMILES IDX 83 13 3 14 2 15 1 16 85 17 86 19 87 20 92 21 88 22 90 23
REMARK SMILES IDX 93 24 89 25 91 26 14 27 15 28 16 29 17 30 18 31 19 32 20 33
REMARK SMILES IDX 21 34 82 35 22 36 81 37 23 38 24 39 25 40 75 41 26 42 80 43
REMARK SMILES IDX 74 44 76 45 27 46 79 47 73 48 72 49 28 51 60 52 40 53 59 54
REMARK SMILES IDX 41 55 44 56 58 57 77 58 42 59 43 60 57 62 78 63 45 64 29 65
REMARK SMILES IDX 30 66 38 67 31 68 32 69 36 70 39 71 33 72 34 73 37 74 35 75
REMARK SMILES IDX 61 76 62 77 70 78 63 79 64 80 68 81 71 82 65 83 66 84 69 85
REMARK SMILES IDX 67 86 46 87 47 88 55 89 48 90 49 91 53 92 56 93 50 94 51 95
REMARK SMILES IDX 54 96 52 97
REMARK H PARENT 85 18 76 50 44 61
REMARK Flexibility Score: inf
ROOT
ATOM      1  C   UNL A   1      41.457  20.896  26.144  1.00  0.00     0.202 C 
ENDROOT
BRANCH   1   2
ATOM      2  C   UNL A   1      39.978  21.306  26.137  1.00  0.00     0.261 C 
BRANCH   2   3
ATOM      3  O   UNL A   1      39.712  22.517  26.879  1.00  0.00    -0.461 OA
BRANCH   3   4
ATOM      4  C   UNL A   1      38.642  23.249  26.459  1.00  0.00     0.344 C 
ATOM      5  O   UNL A   1      38.526  24.462  26.596  1.00  0.00    -0.248 OA
BRANCH   4   6
ATOM      6  C   UNL A   1      37.545  22.404  25.806  1.00  0.00     0.353 C 
BRANCH   6   7
ATOM      7  O   UNL A   1      36.658  23.005  24.889  1.00  0.00    -0.466 OA
BRANCH   7   8
ATOM      8  C   UNL A   1      35.382  23.315  25.259  1.00  0.00     0.219 A 
ATOM      9  C   UNL A   1      33.459  24.645  25.470  1.00  0.00     0.076 A 
ATOM     10  C   UNL A   1      34.830  24.578  25.281  1.00  0.00     0.095 A 
ATOM     11  N   UNL A   1      32.728  23.532  25.653  1.00  0.00    -0.215 NA
ATOM     12  C   UNL A   1      33.347  22.348  25.698  1.00  0.00     0.230 A 
ATOM     13  N   UNL A   1      34.661  22.207  25.507  1.00  0.00    -0.177 NA
BRANCH   9  14
ATOM     14  C   UNL A   1      32.705  25.939  25.203  1.00  0.00     0.216 C 
BRANCH  14  15
ATOM     15  O   UNL A   1      32.304  26.169  23.851  1.00  0.00    -0.378 OA
ATOM     16  C   UNL A   1      33.274  26.864  23.071  1.00  0.00     0.195 C 
ENDBRANCH  14  15
ENDBRANCH   9  14
BRANCH  12  17
ATOM     17  N   UNL A   1      32.601  21.193  25.891  1.00  0.00    -0.324 N 
ATOM     18  H   UNL A   1      31.955  21.217  26.634  1.00  0.00     0.170 HD
BRANCH  17  19
ATOM     19  C   UNL A   1      32.653  19.996  25.163  1.00  0.00     0.044 A 
ATOM     20  C   UNL A   1      32.963  18.820  25.859  1.00  0.00     0.026 A 
ATOM     21  C   UNL A   1      32.449  19.938  23.762  1.00  0.00    -0.025 A 
ATOM     22  C   UNL A   1      33.003  17.590  25.208  1.00  0.00     0.002 A 
ATOM     23  C   UNL A   1      32.461  18.683  23.107  1.00  0.00    -0.046 A 
ATOM     24  C   UNL A   1      32.207  21.192  22.959  1.00  0.00     0.047 C 
ATOM     25  C   UNL A   1      32.745  17.522  23.844  1.00  0.00     0.004 A 
ATOM     26  C   UNL A   1      32.212  18.517  21.630  1.00  0.00     0.044 C 
ENDBRANCH  17  19
ENDBRANCH  12  17
ENDBRANCH   7   8
ENDBRANCH   6   7
ENDBRANCH   4   6
ENDBRANCH   3   4
ENDBRANCH   2   3
ENDBRANCH   1   2
BRANCH   1  27
ATOM     27  O   UNL A   1      42.393  21.862  26.625  1.00  0.00    -0.374 OA
BRANCH  27  28
ATOM     28  C   UNL A   1      43.659  21.917  25.977  1.00  0.00     0.202 C 
BRANCH  28  29
ATOM     29  C   UNL A   1      43.719  22.671  24.649  1.00  0.00     0.261 C 
BRANCH  29  30
ATOM     30  O   UNL A   1      43.054  23.933  24.700  1.00  0.00    -0.460 OA
BRANCH  30  31
ATOM     31  C   UNL A   1      43.839  24.943  25.121  1.00  0.00     0.338 C 
ATOM     32  O   UNL A   1      44.955  25.252  24.723  1.00  0.00    -0.246 OA
BRANCH  31  33
ATOM     33  C   UNL A   1      43.092  25.763  26.072  1.00  0.00     0.060 A 
ATOM     34  C   UNL A   1      43.502  27.091  26.231  1.00  0.00     0.016 A 
ATOM     35  C   UNL A   1      42.075  25.212  26.855  1.00  0.00     0.016 A 
ATOM     36  C   UNL A   1      42.935  27.862  27.235  1.00  0.00     0.010 A 
ATOM     37  C   UNL A   1      41.508  25.989  27.864  1.00  0.00     0.010 A 
ATOM     38  C   UNL A   1      41.972  27.297  28.082  1.00  0.00    -0.014 A 
BRANCH  38  39
ATOM     39  C   UNL A   1      41.571  28.042  29.292  1.00  0.00     0.031 A 
ATOM     40  C   UNL A   1      40.318  28.865  29.251  1.00  0.00     0.074 A 
ATOM     41  C   UNL A   1      42.301  27.938  30.414  1.00  0.00     0.049 A 
ATOM     42  N   UNL A   1      39.757  29.569  30.198  1.00  0.00    -0.248 NA
ATOM     43  C   UNL A   1      39.602  28.903  27.965  1.00  0.00     0.031 C 
ATOM     44  C   UNL A   1      43.527  27.152  30.547  1.00  0.00     0.029 A 
ATOM     45  N   UNL A   1      42.119  28.497  31.650  1.00  0.00    -0.354 N 
ATOM     46  C   UNL A   1      38.629  30.139  29.622  1.00  0.00     0.074 A 
ATOM     47  C   UNL A   1      38.601  29.726  28.236  1.00  0.00     0.031 C 
ATOM     48  C   UNL A   1      43.996  27.291  31.798  1.00  0.00     0.029 A 
ATOM     49  C   UNL A   1      43.114  28.188  32.541  1.00  0.00     0.049 A 
ATOM     50  H   UNL A   1      41.348  29.067  31.877  1.00  0.00     0.167 HD
ATOM     51  C   UNL A   1      37.698  30.929  30.206  1.00  0.00     0.037 A 
ATOM     52  C   UNL A   1      43.294  28.601  33.808  1.00  0.00     0.037 A 
ATOM     53  C   UNL A   1      37.744  31.326  31.588  1.00  0.00     0.049 A 
ATOM     54  C   UNL A   1      42.258  29.495  34.431  1.00  0.00     0.074 A 
ATOM     55  C   UNL A   1      36.834  32.084  32.303  1.00  0.00     0.029 A 
ATOM     56  N   UNL A   1      38.772  31.000  32.465  1.00  0.00    -0.354 N 
ATOM     57  N   UNL A   1      41.162  29.984  33.901  1.00  0.00    -0.248 NA
ATOM     58  C   UNL A   1      42.474  29.887  35.830  1.00  0.00     0.031 C 
ATOM     59  C   UNL A   1      37.339  32.264  33.595  1.00  0.00     0.029 A 
ATOM     60  C   UNL A   1      38.535  31.571  33.704  1.00  0.00     0.049 A 
ATOM     61  H   UNL A   1      39.552  30.446  32.238  1.00  0.00     0.167 HD
ATOM     62  C   UNL A   1      40.549  30.726  34.901  1.00  0.00     0.074 A 
ATOM     63  C   UNL A   1      41.389  30.607  36.077  1.00  0.00     0.031 C 
ATOM     64  C   UNL A   1      39.397  31.442  34.854  1.00  0.00     0.037 A 
BRANCH  51  65
ATOM     65  C   UNL A   1      36.581  31.439  29.342  1.00  0.00     0.064 A 
ATOM     66  C   UNL A   1      36.523  32.775  28.916  1.00  0.00     0.173 A 
ATOM     67  C   UNL A   1      35.552  30.576  28.934  1.00  0.00     0.173 A 
ATOM     68  F   UNL A   1      37.472  33.645  29.290  1.00  0.00    -0.203 F 
ATOM     69  C   UNL A   1      35.458  33.235  28.143  1.00  0.00     0.198 A 
ATOM     70  C   UNL A   1      34.505  31.033  28.138  1.00  0.00     0.198 A 
ATOM     71  F   UNL A   1      35.559  29.289  29.313  1.00  0.00    -0.203 F 
ATOM     72  F   UNL A   1      35.394  34.529  27.796  1.00  0.00    -0.200 F 
ATOM     73  C   UNL A   1      34.453  32.364  27.752  1.00  0.00     0.200 A 
ATOM     74  F   UNL A   1      33.540  30.187  27.753  1.00  0.00    -0.200 F 
ATOM     75  F   UNL A   1      33.429  32.808  27.010  1.00  0.00    -0.200 F 
ENDBRANCH  51  65
BRANCH  52  76
ATOM     76  C   UNL A   1      44.503  28.166  34.552  1.00  0.00     0.064 A 
ATOM     77  C   UNL A   1      45.691  28.906  34.510  1.00  0.00     0.173 A 
ATOM     78  C   UNL A   1      44.478  27.015  35.356  1.00  0.00     0.173 A 
ATOM     79  F   UNL A   1      45.769  30.003  33.743  1.00  0.00    -0.203 F 
ATOM     80  C   UNL A   1      46.811  28.509  35.238  1.00  0.00     0.198 A 
ATOM     81  C   UNL A   1      45.589  26.634  36.104  1.00  0.00     0.198 A 
ATOM     82  F   UNL A   1      43.361  26.276  35.435  1.00  0.00    -0.203 F 
ATOM     83  F   UNL A   1      47.945  29.220  35.161  1.00  0.00    -0.200 F 
ATOM     84  C   UNL A   1      46.757  27.379  36.041  1.00  0.00     0.200 A 
ATOM     85  F   UNL A   1      45.525  25.553  36.891  1.00  0.00    -0.200 F 
ATOM     86  F   UNL A   1      47.829  27.008  36.754  1.00  0.00    -0.200 F 
ENDBRANCH  52  76
BRANCH  64  87
ATOM     87  C   UNL A   1      38.977  32.139  36.113  1.00  0.00     0.064 A 
ATOM     88  C   UNL A   1      39.339  33.469  36.370  1.00  0.00     0.173 A 
ATOM     89  C   UNL A   1      38.161  31.485  37.049  1.00  0.00     0.173 A 
ATOM     90  F   UNL A   1      40.130  34.132  35.511  1.00  0.00    -0.203 F 
ATOM     91  C   UNL A   1      38.919  34.112  37.531  1.00  0.00     0.198 A 
ATOM     92  C   UNL A   1      37.719  32.141  38.194  1.00  0.00     0.198 A 
ATOM     93  F   UNL A   1      37.782  30.215  36.844  1.00  0.00    -0.203 F 
ATOM     94  F   UNL A   1      39.314  35.369  37.778  1.00  0.00    -0.200 F 
ATOM     95  C   UNL A   1      38.104  33.451  38.437  1.00  0.00     0.200 A 
ATOM     96  F   UNL A   1      36.920  31.506  39.062  1.00  0.00    -0.200 F 
ATOM     97  F   UNL A   1      37.693  34.075  39.550  1.00  0.00    -0.200 F 
ENDBRANCH  64  87
ENDBRANCH  38  39
ENDBRANCH  31  33
ENDBRANCH  30  31
ENDBRANCH  29  30
ENDBRANCH  28  29
ENDBRANCH  27  28
ENDBRANCH   1  27
TORSDOF 20
ENDMDL
