MODEL 1
REMARK VINA RESULT:     -11.5      0.000      0.000
REMARK SMILES Cc1nc(SCc2cccc(Cl)c2)[nH]c(=O)c1CC(=O)OCCOCCOC(=O)c1ccc(-c2c3nc(c(-c4c(F)c(F)c(F)c(F)c4F)c4ccc([nH]4)c(-c4c(F)c(F)c(F)c(F)c4F)c4nc(c(-c5c(F)c(F)c(F)c(F)c5F)c5ccc2[nH]5)C=C4)C=C3)cc1
REMARK SMILES IDX 23 1 22 2 21 3 19 4 20 5 18 6 17 7 1 8 2 9 3 10 4 11 15 12
REMARK SMILES IDX 14 13 16 14 5 16 6 17 7 18 8 19 13 20 9 21 11 22 10 23 12 24
REMARK SMILES IDX 24 25 25 26 26 27 27 28 28 29 29 30 30 31 31 32 92 33 32 34
REMARK SMILES IDX 91 35 33 36 34 37 35 38 85 39 36 40 90 41 84 42 86 43 37 44
REMARK SMILES IDX 89 45 83 46 82 47 38 49 70 50 50 51 69 52 51 53 54 54 68 55
REMARK SMILES IDX 87 56 52 57 53 58 67 60 88 61 55 62 39 63 40 64 48 65 41 66
REMARK SMILES IDX 42 67 46 68 49 69 43 70 44 71 47 72 45 73 71 74 72 75 80 76
REMARK SMILES IDX 73 77 74 78 78 79 81 80 75 81 76 82 79 83 77 84 56 85 57 86
REMARK SMILES IDX 65 87 58 88 59 89 63 90 66 91 60 92 61 93 64 94 62 95
REMARK H PARENT 14 15 86 48 54 59
REMARK Flexibility Score: inf
ROOT
ATOM      1  C   UNL A   1      40.459  21.020  26.777  1.00  0.00     0.202 C 
ENDROOT
BRANCH   1   2
ATOM      2  C   UNL A   1      39.452  21.991  26.145  1.00  0.00     0.261 C 
BRANCH   2   3
ATOM      3  O   UNL A   1      38.215  21.365  25.744  1.00  0.00    -0.463 OA
BRANCH   3   4
ATOM      4  C   UNL A   1      37.166  22.217  25.581  1.00  0.00     0.310 C 
ATOM      5  O   UNL A   1      37.235  23.434  25.732  1.00  0.00    -0.252 OA
BRANCH   4   6
ATOM      6  C   UNL A   1      35.856  21.562  25.169  1.00  0.00     0.166 C 
BRANCH   6   7
ATOM      7  C   UNL A   1      34.574  22.321  25.344  1.00  0.00     0.050 A 
ATOM      8  C   UNL A   1      34.489  23.193  22.998  1.00  0.00     0.067 C 
ATOM      9  C   UNL A   1      33.921  23.000  24.381  1.00  0.00     0.050 A 
ATOM     10  N   UNL A   1      32.724  23.644  24.578  1.00  0.00    -0.229 NA
ATOM     11  C   UNL A   1      32.258  23.694  25.775  1.00  0.00     0.168 A 
ATOM     12  C   UNL A   1      33.887  22.225  26.658  1.00  0.00     0.255 A 
ATOM     13  N   UNL A   1      32.801  23.028  26.821  1.00  0.00    -0.301 N 
ATOM     14  O   UNL A   1      34.264  21.465  27.542  1.00  0.00    -0.269 OA
ATOM     15  H   UNL A   1      32.402  23.126  27.715  1.00  0.00     0.172 HD
BRANCH  11  16
ATOM     16  S   UNL A   1      30.884  24.653  26.218  1.00  0.00    -0.083 SA
BRANCH  16  17
ATOM     17  C   UNL A   1      30.262  25.174  24.593  1.00  0.00     0.113 C 
BRANCH  17  18
ATOM     18  C   UNL A   1      30.215  26.670  24.347  1.00  0.00    -0.036 A 
ATOM     19  C   UNL A   1      29.286  27.203  23.440  1.00  0.00     0.005 A 
ATOM     20  C   UNL A   1      31.149  27.554  24.911  1.00  0.00     0.025 A 
ATOM     21  C   UNL A   1      29.302  28.563  23.107  1.00  0.00     0.002 A 
ATOM     22  C   UNL A   1      31.164  28.909  24.582  1.00  0.00     0.041 A 
ATOM     23  C   UNL A   1      30.246  29.417  23.675  1.00  0.00     0.020 A 
ATOM     24  Cl  UNL A   1      32.344  29.940  25.295  1.00  0.00    -0.084 Cl
ENDBRANCH  17  18
ENDBRANCH  16  17
ENDBRANCH  11  16
ENDBRANCH   6   7
ENDBRANCH   4   6
ENDBRANCH   3   4
ENDBRANCH   2   3
ENDBRANCH   1   2
BRANCH   1  25
ATOM     25  O   UNL A   1      41.611  20.670  26.014  1.00  0.00    -0.374 OA
BRANCH  25  26
ATOM     26  C   UNL A   1      42.813  21.391  26.282  1.00  0.00     0.202 C 
BRANCH  26  27
ATOM     27  C   UNL A   1      43.551  21.989  25.076  1.00  0.00     0.261 C 
BRANCH  27  28
ATOM     28  O   UNL A   1      43.048  23.284  24.691  1.00  0.00    -0.460 OA
BRANCH  28  29
ATOM     29  C   UNL A   1      43.824  24.326  25.072  1.00  0.00     0.338 C 
ATOM     30  O   UNL A   1      44.929  24.628  24.636  1.00  0.00    -0.246 OA
BRANCH  29  31
ATOM     31  C   UNL A   1      43.099  25.206  26.004  1.00  0.00     0.060 A 
ATOM     32  C   UNL A   1      43.583  26.511  26.168  1.00  0.00     0.016 A 
ATOM     33  C   UNL A   1      42.029  24.745  26.774  1.00  0.00     0.016 A 
ATOM     34  C   UNL A   1      43.030  27.345  27.136  1.00  0.00     0.010 A 
ATOM     35  C   UNL A   1      41.482  25.583  27.755  1.00  0.00     0.010 A 
ATOM     36  C   UNL A   1      42.002  26.874  27.961  1.00  0.00    -0.014 A 
BRANCH  36  37
ATOM     37  C   UNL A   1      41.558  27.692  29.115  1.00  0.00     0.031 A 
ATOM     38  C   UNL A   1      42.311  27.603  30.414  1.00  0.00     0.074 A 
ATOM     39  C   UNL A   1      40.511  28.528  28.997  1.00  0.00     0.049 A 
ATOM     40  N   UNL A   1      42.077  28.204  31.554  1.00  0.00    -0.248 NA
ATOM     41  C   UNL A   1      43.485  26.718  30.430  1.00  0.00     0.031 C 
ATOM     42  C   UNL A   1      39.729  28.728  27.780  1.00  0.00     0.029 A 
ATOM     43  N   UNL A   1      39.925  29.360  29.918  1.00  0.00    -0.354 N 
ATOM     44  C   UNL A   1      43.067  27.764  32.422  1.00  0.00     0.074 A 
ATOM     45  C   UNL A   1      43.893  26.830  31.687  1.00  0.00     0.031 C 
ATOM     46  C   UNL A   1      38.754  29.617  28.032  1.00  0.00     0.029 A 
ATOM     47  C   UNL A   1      38.825  30.023  29.435  1.00  0.00     0.049 A 
ATOM     48  H   UNL A   1      40.262  29.473  30.836  1.00  0.00     0.167 HD
ATOM     49  C   UNL A   1      43.272  28.114  33.715  1.00  0.00     0.037 A 
ATOM     50  C   UNL A   1      37.958  30.842  30.062  1.00  0.00     0.037 A 
ATOM     51  C   UNL A   1      42.453  29.048  34.442  1.00  0.00     0.049 A 
ATOM     52  C   UNL A   1      38.169  31.164  31.519  1.00  0.00     0.074 A 
ATOM     53  C   UNL A   1      42.597  29.494  35.744  1.00  0.00     0.029 A 
ATOM     54  N   UNL A   1      41.326  29.674  33.929  1.00  0.00    -0.354 N 
ATOM     55  N   UNL A   1      39.125  30.768  32.325  1.00  0.00    -0.248 NA
ATOM     56  C   UNL A   1      37.178  32.044  32.155  1.00  0.00     0.031 C 
ATOM     57  C   UNL A   1      41.528  30.347  36.036  1.00  0.00     0.029 A 
ATOM     58  C   UNL A   1      40.746  30.476  34.899  1.00  0.00     0.049 A 
ATOM     59  H   UNL A   1      40.989  29.566  33.010  1.00  0.00     0.167 HD
ATOM     60  C   UNL A   1      38.865  31.366  33.551  1.00  0.00     0.074 A 
ATOM     61  C   UNL A   1      37.668  32.164  33.381  1.00  0.00     0.031 C 
ATOM     62  C   UNL A   1      39.555  31.264  34.713  1.00  0.00     0.037 A 
BRANCH  49  63
ATOM     63  C   UNL A   1      44.412  27.463  34.441  1.00  0.00     0.064 A 
ATOM     64  C   UNL A   1      45.697  28.024  34.455  1.00  0.00     0.173 A 
ATOM     65  C   UNL A   1      44.204  26.282  35.171  1.00  0.00     0.173 A 
ATOM     66  F   UNL A   1      45.951  29.145  33.764  1.00  0.00    -0.203 F 
ATOM     67  C   UNL A   1      46.737  27.415  35.154  1.00  0.00     0.198 A 
ATOM     68  C   UNL A   1      45.238  25.691  35.891  1.00  0.00     0.198 A 
ATOM     69  F   UNL A   1      42.991  25.707  35.195  1.00  0.00    -0.203 F 
ATOM     70  F   UNL A   1      47.966  27.947  35.120  1.00  0.00    -0.200 F 
ATOM     71  C   UNL A   1      46.505  26.255  35.877  1.00  0.00     0.200 A 
ATOM     72  F   UNL A   1      45.009  24.577  36.599  1.00  0.00    -0.200 F 
ATOM     73  F   UNL A   1      47.505  25.675  36.557  1.00  0.00    -0.200 F 
ENDBRANCH  49  63
BRANCH  50  74
ATOM     74  C   UNL A   1      36.796  31.397  29.321  1.00  0.00     0.064 A 
ATOM     75  C   UNL A   1      36.755  32.744  28.938  1.00  0.00     0.173 A 
ATOM     76  C   UNL A   1      35.694  30.592  28.994  1.00  0.00     0.173 A 
ATOM     77  F   UNL A   1      37.772  33.561  29.253  1.00  0.00    -0.203 F 
ATOM     78  C   UNL A   1      35.651  33.269  28.268  1.00  0.00     0.198 A 
ATOM     79  C   UNL A   1      34.604  31.111  28.299  1.00  0.00     0.198 A 
ATOM     80  F   UNL A   1      35.681  29.298  29.345  1.00  0.00    -0.203 F 
ATOM     81  F   UNL A   1      35.619  34.571  27.953  1.00  0.00    -0.200 F 
ATOM     82  C   UNL A   1      34.580  32.450  27.943  1.00  0.00     0.200 A 
ATOM     83  F   UNL A   1      33.575  30.314  27.980  1.00  0.00    -0.200 F 
ATOM     84  F   UNL A   1      33.521  32.955  27.297  1.00  0.00    -0.200 F 
ENDBRANCH  50  74
BRANCH  62  85
ATOM     85  C   UNL A   1      39.048  32.047  35.889  1.00  0.00     0.064 A 
ATOM     86  C   UNL A   1      38.210  31.465  36.852  1.00  0.00     0.173 A 
ATOM     87  C   UNL A   1      39.447  33.378  36.084  1.00  0.00     0.173 A 
ATOM     88  F   UNL A   1      37.788  30.201  36.704  1.00  0.00    -0.203 F 
ATOM     89  C   UNL A   1      37.775  32.194  37.957  1.00  0.00     0.198 A 
ATOM     90  C   UNL A   1      39.034  34.094  37.203  1.00  0.00     0.198 A 
ATOM     91  F   UNL A   1      40.254  33.978  35.196  1.00  0.00    -0.203 F 
ATOM     92  F   UNL A   1      36.942  31.631  38.843  1.00  0.00    -0.200 F 
ATOM     93  C   UNL A   1      38.194  33.504  38.135  1.00  0.00     0.200 A 
ATOM     94  F   UNL A   1      39.450  35.356  37.382  1.00  0.00    -0.200 F 
ATOM     95  F   UNL A   1      37.783  34.200  39.204  1.00  0.00    -0.200 F 
ENDBRANCH  62  85
ENDBRANCH  36  37
ENDBRANCH  29  31
ENDBRANCH  28  29
ENDBRANCH  27  28
ENDBRANCH  26  27
ENDBRANCH  25  26
ENDBRANCH   1  25
TORSDOF 18
ENDMDL
MODEL 2
REMARK VINA RESULT:     -11.3      4.504      6.910
REMARK SMILES Cc1nc(SCc2cccc(Cl)c2)[nH]c(=O)c1CC(=O)OCCOCCOC(=O)c1ccc(-c2c3nc(c(-c4c(F)c(F)c(F)c(F)c4F)c4ccc([nH]4)c(-c4c(F)c(F)c(F)c(F)c4F)c4nc(c(-c5c(F)c(F)c(F)c(F)c5F)c5ccc2[nH]5)C=C4)C=C3)cc1
REMARK SMILES IDX 23 1 22 2 21 3 19 4 20 5 18 6 17 7 1 8 2 9 3 10 4 11 15 12
REMARK SMILES IDX 14 13 16 14 5 16 6 17 7 18 8 19 13 20 9 21 11 22 10 23 12 24
REMARK SMILES IDX 24 25 25 26 26 27 27 28 28 29 29 30 30 31 31 32 92 33 32 34
REMARK SMILES IDX 91 35 33 36 34 37 35 38 85 39 36 40 90 41 84 42 86 43 37 44
REMARK SMILES IDX 89 45 83 46 82 47 38 49 70 50 50 51 69 52 51 53 54 54 68 55
REMARK SMILES IDX 87 56 52 57 53 58 67 60 88 61 55 62 39 63 40 64 48 65 41 66
REMARK SMILES IDX 42 67 46 68 49 69 43 70 44 71 47 72 45 73 71 74 72 75 80 76
REMARK SMILES IDX 73 77 74 78 78 79 81 80 75 81 76 82 79 83 77 84 56 85 57 86
REMARK SMILES IDX 65 87 58 88 59 89 63 90 66 91 60 92 61 93 64 94 62 95
REMARK H PARENT 14 15 86 48 54 59
REMARK Flexibility Score: inf
ROOT
ATOM      1  C   UNL A   1      36.801  22.147  25.074  1.00  0.00     0.202 C 
ENDROOT
BRANCH   1   2
ATOM      2  C   UNL A   1      35.680  21.365  25.773  1.00  0.00     0.261 C 
BRANCH   2   3
ATOM      3  O   UNL A   1      34.359  21.687  25.290  1.00  0.00    -0.463 OA
BRANCH   3   4
ATOM      4  C   UNL A   1      33.667  20.639  24.767  1.00  0.00     0.310 C 
ATOM      5  O   UNL A   1      34.051  19.473  24.798  1.00  0.00    -0.252 OA
BRANCH   4   6
ATOM      6  C   UNL A   1      32.331  20.996  24.131  1.00  0.00     0.166 C 
BRANCH   6   7
ATOM      7  C   UNL A   1      31.875  22.425  24.145  1.00  0.00     0.050 A 
ATOM      8  C   UNL A   1      33.082  23.082  22.052  1.00  0.00     0.067 C 
ATOM      9  C   UNL A   1      32.148  23.349  23.204  1.00  0.00     0.050 A 
ATOM     10  N   UNL A   1      31.670  24.637  23.237  1.00  0.00    -0.229 NA
ATOM     11  C   UNL A   1      31.020  25.011  24.281  1.00  0.00     0.168 A 
ATOM     12  C   UNL A   1      30.941  22.843  25.222  1.00  0.00     0.255 A 
ATOM     13  N   UNL A   1      30.655  24.172  25.278  1.00  0.00    -0.301 N 
ATOM     14  O   UNL A   1      30.447  22.044  26.010  1.00  0.00    -0.269 OA
ATOM     15  H   UNL A   1      30.173  24.530  26.058  1.00  0.00     0.172 HD
BRANCH  11  16
ATOM     16  S   UNL A   1      30.551  26.655  24.568  1.00  0.00    -0.083 SA
BRANCH  16  17
ATOM     17  C   UNL A   1      31.133  26.910  26.269  1.00  0.00     0.113 C 
BRANCH  17  18
ATOM     18  C   UNL A   1      32.067  28.085  26.484  1.00  0.00    -0.036 A 
ATOM     19  C   UNL A   1      33.428  27.860  26.748  1.00  0.00     0.005 A 
ATOM     20  C   UNL A   1      31.606  29.410  26.542  1.00  0.00     0.025 A 
ATOM     21  C   UNL A   1      34.284  28.922  27.067  1.00  0.00     0.002 A 
ATOM     22  C   UNL A   1      32.459  30.467  26.856  1.00  0.00     0.041 A 
ATOM     23  C   UNL A   1      33.798  30.227  27.127  1.00  0.00     0.020 A 
ATOM     24  Cl  UNL A   1      31.831  32.068  26.928  1.00  0.00    -0.084 Cl
ENDBRANCH  17  18
ENDBRANCH  16  17
ENDBRANCH  11  16
ENDBRANCH   6   7
ENDBRANCH   4   6
ENDBRANCH   3   4
ENDBRANCH   2   3
ENDBRANCH   1   2
BRANCH   1  25
ATOM     25  O   UNL A   1      38.085  21.535  24.992  1.00  0.00    -0.374 OA
BRANCH  25  26
ATOM     26  C   UNL A   1      38.129  20.109  25.010  1.00  0.00     0.202 C 
BRANCH  26  27
ATOM     27  C   UNL A   1      39.324  19.456  25.720  1.00  0.00     0.261 C 
BRANCH  27  28
ATOM     28  O   UNL A   1      40.453  20.341  25.856  1.00  0.00    -0.460 OA
BRANCH  28  29
ATOM     29  C   UNL A   1      40.950  20.430  27.112  1.00  0.00     0.338 C 
ATOM     30  O   UNL A   1      41.334  19.510  27.826  1.00  0.00    -0.246 OA
BRANCH  29  31
ATOM     31  C   UNL A   1      41.147  21.837  27.500  1.00  0.00     0.060 A 
ATOM     32  C   UNL A   1      40.547  22.817  26.697  1.00  0.00     0.016 A 
ATOM     33  C   UNL A   1      41.977  22.202  28.563  1.00  0.00     0.016 A 
ATOM     34  C   UNL A   1      40.810  24.165  26.925  1.00  0.00     0.010 A 
ATOM     35  C   UNL A   1      42.249  23.558  28.783  1.00  0.00     0.010 A 
ATOM     36  C   UNL A   1      41.692  24.542  27.945  1.00  0.00    -0.014 A 
BRANCH  36  37
ATOM     37  C   UNL A   1      42.122  25.958  28.052  1.00  0.00     0.031 A 
ATOM     38  C   UNL A   1      43.442  26.373  27.464  1.00  0.00     0.074 A 
ATOM     39  C   UNL A   1      41.329  26.869  28.643  1.00  0.00     0.049 A 
ATOM     40  N   UNL A   1      44.025  27.546  27.473  1.00  0.00    -0.248 NA
ATOM     41  C   UNL A   1      44.210  25.325  26.774  1.00  0.00     0.031 C 
ATOM     42  C   UNL A   1      40.014  26.594  29.215  1.00  0.00     0.029 A 
ATOM     43  N   UNL A   1      41.521  28.210  28.863  1.00  0.00    -0.354 N 
ATOM     44  C   UNL A   1      45.227  27.375  26.798  1.00  0.00     0.074 A 
ATOM     45  C   UNL A   1      45.304  25.982  26.413  1.00  0.00     0.031 C 
ATOM     46  C   UNL A   1      39.520  27.730  29.734  1.00  0.00     0.029 A 
ATOM     47  C   UNL A   1      40.498  28.802  29.560  1.00  0.00     0.049 A 
ATOM     48  H   UNL A   1      42.316  28.701  28.551  1.00  0.00     0.167 HD
ATOM     49  C   UNL A   1      46.178  28.300  26.522  1.00  0.00     0.037 A 
ATOM     50  C   UNL A   1      40.378  30.061  30.027  1.00  0.00     0.037 A 
ATOM     51  C   UNL A   1      46.096  29.686  26.902  1.00  0.00     0.049 A 
ATOM     52  C   UNL A   1      41.480  31.054  29.764  1.00  0.00     0.074 A 
ATOM     53  C   UNL A   1      46.991  30.708  26.639  1.00  0.00     0.029 A 
ATOM     54  N   UNL A   1      45.059  30.242  27.636  1.00  0.00    -0.354 N 
ATOM     55  N   UNL A   1      42.599  30.893  29.099  1.00  0.00    -0.248 NA
ATOM     56  C   UNL A   1      41.304  32.405  30.318  1.00  0.00     0.031 C 
ATOM     57  C   UNL A   1      46.523  31.871  27.261  1.00  0.00     0.029 A 
ATOM     58  C   UNL A   1      45.309  31.586  27.866  1.00  0.00     0.049 A 
ATOM     59  H   UNL A   1      44.262  29.755  27.947  1.00  0.00     0.167 HD
ATOM     60  C   UNL A   1      43.247  32.121  29.136  1.00  0.00     0.074 A 
ATOM     61  C   UNL A   1      42.390  33.024  29.876  1.00  0.00     0.031 C 
ATOM     62  C   UNL A   1      44.445  32.470  28.605  1.00  0.00     0.037 A 
BRANCH  49  63
ATOM     63  C   UNL A   1      47.407  27.840  25.795  1.00  0.00     0.064 A 
ATOM     64  C   UNL A   1      48.565  27.441  26.479  1.00  0.00     0.173 A 
ATOM     65  C   UNL A   1      47.411  27.756  24.394  1.00  0.00     0.173 A 
ATOM     66  F   UNL A   1      48.616  27.513  27.818  1.00  0.00    -0.203 F 
ATOM     67  C   UNL A   1      49.689  26.996  25.786  1.00  0.00     0.198 A 
ATOM     68  C   UNL A   1      48.526  27.285  23.706  1.00  0.00     0.198 A 
ATOM     69  F   UNL A   1      46.327  28.121  23.692  1.00  0.00    -0.203 F 
ATOM     70  F   UNL A   1      50.797  26.657  26.459  1.00  0.00    -0.200 F 
ATOM     71  C   UNL A   1      49.666  26.911  24.402  1.00  0.00     0.200 A 
ATOM     72  F   UNL A   1      48.497  27.192  22.370  1.00  0.00    -0.200 F 
ATOM     73  F   UNL A   1      50.744  26.474  23.738  1.00  0.00    -0.200 F 
ENDBRANCH  49  63
BRANCH  50  74
ATOM     74  C   UNL A   1      39.178  30.447  30.813  1.00  0.00     0.064 A 
ATOM     75  C   UNL A   1      39.159  30.341  32.210  1.00  0.00     0.173 A 
ATOM     76  C   UNL A   1      38.018  30.918  30.178  1.00  0.00     0.173 A 
ATOM     77  F   UNL A   1      40.234  29.868  32.859  1.00  0.00    -0.203 F 
ATOM     78  C   UNL A   1      38.022  30.677  32.942  1.00  0.00     0.198 A 
ATOM     79  C   UNL A   1      36.892  31.281  30.914  1.00  0.00     0.198 A 
ATOM     80  F   UNL A   1      37.982  31.031  28.843  1.00  0.00    -0.203 F 
ATOM     81  F   UNL A   1      38.016  30.523  34.273  1.00  0.00    -0.200 F 
ATOM     82  C   UNL A   1      36.892  31.153  32.294  1.00  0.00     0.200 A 
ATOM     83  F   UNL A   1      35.806  31.749  30.285  1.00  0.00    -0.200 F 
ATOM     84  F   UNL A   1      35.801  31.479  32.999  1.00  0.00    -0.200 F 
ENDBRANCH  50  74
BRANCH  62  85
ATOM     85  C   UNL A   1      44.893  33.891  28.785  1.00  0.00     0.064 A 
ATOM     86  C   UNL A   1      45.704  34.274  29.864  1.00  0.00     0.173 A 
ATOM     87  C   UNL A   1      44.552  34.871  27.840  1.00  0.00     0.173 A 
ATOM     88  F   UNL A   1      46.046  33.378  30.802  1.00  0.00    -0.203 F 
ATOM     89  C   UNL A   1      46.141  35.589  30.000  1.00  0.00     0.198 A 
ATOM     90  C   UNL A   1      45.014  36.178  27.963  1.00  0.00     0.198 A 
ATOM     91  F   UNL A   1      43.784  34.555  26.786  1.00  0.00    -0.203 F 
ATOM     92  F   UNL A   1      46.881  35.941  31.060  1.00  0.00    -0.200 F 
ATOM     93  C   UNL A   1      45.802  36.537  29.045  1.00  0.00     0.200 A 
ATOM     94  F   UNL A   1      44.697  37.090  27.034  1.00  0.00    -0.200 F 
ATOM     95  F   UNL A   1      46.233  37.800  29.172  1.00  0.00    -0.200 F 
ENDBRANCH  62  85
ENDBRANCH  36  37
ENDBRANCH  29  31
ENDBRANCH  28  29
ENDBRANCH  27  28
ENDBRANCH  26  27
ENDBRANCH  25  26
ENDBRANCH   1  25
TORSDOF 18
ENDMDL
MODEL 3
REMARK VINA RESULT:     -11.2      4.449      9.061
REMARK SMILES Cc1nc(SCc2cccc(Cl)c2)[nH]c(=O)c1CC(=O)OCCOCCOC(=O)c1ccc(-c2c3nc(c(-c4c(F)c(F)c(F)c(F)c4F)c4ccc([nH]4)c(-c4c(F)c(F)c(F)c(F)c4F)c4nc(c(-c5c(F)c(F)c(F)c(F)c5F)c5ccc2[nH]5)C=C4)C=C3)cc1
REMARK SMILES IDX 23 1 22 2 21 3 19 4 20 5 18 6 17 7 1 8 2 9 3 10 4 11 15 12
REMARK SMILES IDX 14 13 16 14 5 16 6 17 7 18 8 19 13 20 9 21 11 22 10 23 12 24
REMARK SMILES IDX 24 25 25 26 26 27 27 28 28 29 29 30 30 31 31 32 92 33 32 34
REMARK SMILES IDX 91 35 33 36 34 37 35 38 85 39 36 40 90 41 84 42 86 43 37 44
REMARK SMILES IDX 89 45 83 46 82 47 38 49 70 50 50 51 69 52 51 53 54 54 68 55
REMARK SMILES IDX 87 56 52 57 53 58 67 60 88 61 55 62 39 63 40 64 48 65 41 66
REMARK SMILES IDX 42 67 46 68 49 69 43 70 44 71 47 72 45 73 71 74 72 75 80 76
REMARK SMILES IDX 73 77 74 78 78 79 81 80 75 81 76 82 79 83 77 84 56 85 57 86
REMARK SMILES IDX 65 87 58 88 59 89 63 90 66 91 60 92 61 93 64 94 62 95
REMARK H PARENT 14 15 86 48 54 59
REMARK Flexibility Score: inf
ROOT
ATOM      1  C   UNL A   1      37.358  22.762  25.493  1.00  0.00     0.202 C 
ENDROOT
BRANCH   1   2
ATOM      2  C   UNL A   1      36.027  22.252  26.061  1.00  0.00     0.261 C 
BRANCH   2   3
ATOM      3  O   UNL A   1      34.981  22.133  25.074  1.00  0.00    -0.463 OA
BRANCH   3   4
ATOM      4  C   UNL A   1      34.277  20.969  25.119  1.00  0.00     0.310 C 
ATOM      5  O   UNL A   1      34.745  19.867  24.847  1.00  0.00    -0.252 OA
BRANCH   4   6
ATOM      6  C   UNL A   1      32.826  21.105  25.559  1.00  0.00     0.166 C 
BRANCH   6   7
ATOM      7  C   UNL A   1      32.091  22.379  25.264  1.00  0.00     0.050 A 
ATOM      8  C   UNL A   1      31.981  22.024  22.788  1.00  0.00     0.067 C 
ATOM      9  C   UNL A   1      31.656  22.776  24.053  1.00  0.00     0.050 A 
ATOM     10  N   UNL A   1      30.946  23.932  23.838  1.00  0.00    -0.229 NA
ATOM     11  C   UNL A   1      30.786  24.734  24.830  1.00  0.00     0.168 A 
ATOM     12  C   UNL A   1      31.694  23.232  26.414  1.00  0.00     0.255 A 
ATOM     13  N   UNL A   1      31.148  24.437  26.099  1.00  0.00    -0.301 N 
ATOM     14  O   UNL A   1      31.839  22.874  27.577  1.00  0.00    -0.269 OA
ATOM     15  H   UNL A   1      31.012  25.107  26.809  1.00  0.00     0.172 HD
BRANCH  11  16
ATOM     16  S   UNL A   1      30.113  26.323  24.667  1.00  0.00    -0.083 SA
BRANCH  16  17
ATOM     17  C   UNL A   1      31.560  27.279  24.129  1.00  0.00     0.113 C 
BRANCH  17  18
ATOM     18  C   UNL A   1      32.121  28.263  25.139  1.00  0.00    -0.036 A 
ATOM     19  C   UNL A   1      33.152  27.867  26.006  1.00  0.00     0.005 A 
ATOM     20  C   UNL A   1      31.571  29.541  25.327  1.00  0.00     0.025 A 
ATOM     21  C   UNL A   1      33.603  28.717  27.023  1.00  0.00     0.002 A 
ATOM     22  C   UNL A   1      32.021  30.388  26.339  1.00  0.00     0.041 A 
ATOM     23  C   UNL A   1      33.033  29.978  27.194  1.00  0.00     0.020 A 
ATOM     24  Cl  UNL A   1      31.297  31.938  26.530  1.00  0.00    -0.084 Cl
ENDBRANCH  17  18
ENDBRANCH  16  17
ENDBRANCH  11  16
ENDBRANCH   6   7
ENDBRANCH   4   6
ENDBRANCH   3   4
ENDBRANCH   2   3
ENDBRANCH   1   2
BRANCH   1  25
ATOM     25  O   UNL A   1      38.448  21.847  25.434  1.00  0.00    -0.374 OA
BRANCH  25  26
ATOM     26  C   UNL A   1      38.167  20.529  24.962  1.00  0.00     0.202 C 
BRANCH  26  27
ATOM     27  C   UNL A   1      39.183  19.432  25.310  1.00  0.00     0.261 C 
BRANCH  27  28
ATOM     28  O   UNL A   1      40.014  19.767  26.439  1.00  0.00    -0.460 OA
BRANCH  28  29
ATOM     29  C   UNL A   1      41.340  19.587  26.235  1.00  0.00     0.338 C 
ATOM     30  O   UNL A   1      41.889  18.616  25.727  1.00  0.00    -0.246 OA
BRANCH  29  31
ATOM     31  C   UNL A   1      42.090  20.814  26.554  1.00  0.00     0.060 A 
ATOM     32  C   UNL A   1      42.206  21.165  27.906  1.00  0.00     0.016 A 
ATOM     33  C   UNL A   1      42.587  21.657  25.557  1.00  0.00     0.016 A 
ATOM     34  C   UNL A   1      42.778  22.383  28.265  1.00  0.00     0.010 A 
ATOM     35  C   UNL A   1      43.152  22.886  25.921  1.00  0.00     0.010 A 
ATOM     36  C   UNL A   1      43.220  23.268  27.273  1.00  0.00    -0.014 A 
BRANCH  36  37
ATOM     37  C   UNL A   1      43.640  24.639  27.652  1.00  0.00     0.031 A 
ATOM     38  C   UNL A   1      42.593  25.659  28.002  1.00  0.00     0.074 A 
ATOM     39  C   UNL A   1      44.945  24.961  27.711  1.00  0.00     0.049 A 
ATOM     40  N   UNL A   1      42.736  26.920  28.329  1.00  0.00    -0.248 NA
ATOM     41  C   UNL A   1      41.197  25.198  27.981  1.00  0.00     0.031 C 
ATOM     42  C   UNL A   1      46.049  24.048  27.430  1.00  0.00     0.029 A 
ATOM     43  N   UNL A   1      45.557  26.150  28.020  1.00  0.00    -0.354 N 
ATOM     44  C   UNL A   1      41.452  27.402  28.544  1.00  0.00     0.074 A 
ATOM     45  C   UNL A   1      40.539  26.308  28.290  1.00  0.00     0.031 C 
ATOM     46  C   UNL A   1      47.208  24.713  27.568  1.00  0.00     0.029 A 
ATOM     47  C   UNL A   1      46.924  26.105  27.913  1.00  0.00     0.049 A 
ATOM     48  H   UNL A   1      45.064  26.957  28.294  1.00  0.00     0.167 HD
ATOM     49  C   UNL A   1      41.071  28.645  28.925  1.00  0.00     0.037 A 
ATOM     50  C   UNL A   1      47.840  27.084  28.051  1.00  0.00     0.037 A 
ATOM     51  C   UNL A   1      41.981  29.729  29.183  1.00  0.00     0.049 A 
ATOM     52  C   UNL A   1      47.385  28.475  28.411  1.00  0.00     0.074 A 
ATOM     53  C   UNL A   1      41.695  31.015  29.606  1.00  0.00     0.029 A 
ATOM     54  N   UNL A   1      43.359  29.655  29.031  1.00  0.00    -0.354 N 
ATOM     55  N   UNL A   1      46.171  28.916  28.643  1.00  0.00    -0.248 NA
ATOM     56  C   UNL A   1      48.427  29.506  28.525  1.00  0.00     0.031 C 
ATOM     57  C   UNL A   1      42.894  31.736  29.658  1.00  0.00     0.029 A 
ATOM     58  C   UNL A   1      43.933  30.883  29.319  1.00  0.00     0.049 A 
ATOM     59  H   UNL A   1      43.855  28.849  28.761  1.00  0.00     0.167 HD
ATOM     60  C   UNL A   1      46.305  30.263  28.950  1.00  0.00     0.074 A 
ATOM     61  C   UNL A   1      47.720  30.567  28.890  1.00  0.00     0.031 C 
ATOM     62  C   UNL A   1      45.343  31.168  29.255  1.00  0.00     0.037 A 
BRANCH  49  63
ATOM     63  C   UNL A   1      39.601  28.912  29.061  1.00  0.00     0.064 A 
ATOM     64  C   UNL A   1      38.931  28.765  30.284  1.00  0.00     0.173 A 
ATOM     65  C   UNL A   1      38.859  29.363  27.958  1.00  0.00     0.173 A 
ATOM     66  F   UNL A   1      39.592  28.325  31.366  1.00  0.00    -0.203 F 
ATOM     67  C   UNL A   1      37.570  29.040  30.394  1.00  0.00     0.198 A 
ATOM     68  C   UNL A   1      37.505  29.663  28.077  1.00  0.00     0.198 A 
ATOM     69  F   UNL A   1      39.452  29.525  26.765  1.00  0.00    -0.203 F 
ATOM     70  F   UNL A   1      36.943  28.855  31.564  1.00  0.00    -0.200 F 
ATOM     71  C   UNL A   1      36.860  29.495  29.293  1.00  0.00     0.200 A 
ATOM     72  F   UNL A   1      36.824  30.115  27.015  1.00  0.00    -0.200 F 
ATOM     73  F   UNL A   1      35.552  29.768  29.403  1.00  0.00    -0.200 F 
ENDBRANCH  49  63
BRANCH  50  74
ATOM     74  C   UNL A   1      49.278  26.789  27.826  1.00  0.00     0.064 A 
ATOM     75  C   UNL A   1      49.843  26.859  26.546  1.00  0.00     0.173 A 
ATOM     76  C   UNL A   1      50.116  26.416  28.889  1.00  0.00     0.173 A 
ATOM     77  F   UNL A   1      49.076  27.182  25.494  1.00  0.00    -0.203 F 
ATOM     78  C   UNL A   1      51.186  26.554  26.334  1.00  0.00     0.198 A 
ATOM     79  C   UNL A   1      51.465  26.140  28.680  1.00  0.00     0.198 A 
ATOM     80  F   UNL A   1      49.623  26.328  30.133  1.00  0.00    -0.203 F 
ATOM     81  F   UNL A   1      51.689  26.584  25.092  1.00  0.00    -0.200 F 
ATOM     82  C   UNL A   1      51.997  26.202  27.402  1.00  0.00     0.200 A 
ATOM     83  F   UNL A   1      52.247  25.808  29.716  1.00  0.00    -0.200 F 
ATOM     84  F   UNL A   1      53.289  25.912  27.197  1.00  0.00    -0.200 F 
ENDBRANCH  50  74
BRANCH  62  85
ATOM     85  C   UNL A   1      45.785  32.568  29.567  1.00  0.00     0.064 A 
ATOM     86  C   UNL A   1      45.857  33.555  28.572  1.00  0.00     0.173 A 
ATOM     87  C   UNL A   1      46.090  32.942  30.885  1.00  0.00     0.173 A 
ATOM     88  F   UNL A   1      45.589  33.245  27.295  1.00  0.00    -0.203 F 
ATOM     89  C   UNL A   1      46.235  34.859  28.883  1.00  0.00     0.198 A 
ATOM     90  C   UNL A   1      46.441  34.252  31.197  1.00  0.00     0.198 A 
ATOM     91  F   UNL A   1      46.030  32.038  31.875  1.00  0.00    -0.203 F 
ATOM     92  F   UNL A   1      46.336  35.775  27.910  1.00  0.00    -0.200 F 
ATOM     93  C   UNL A   1      46.518  35.207  30.195  1.00  0.00     0.200 A 
ATOM     94  F   UNL A   1      46.701  34.591  32.467  1.00  0.00    -0.200 F 
ATOM     95  F   UNL A   1      46.872  36.465  30.494  1.00  0.00    -0.200 F 
ENDBRANCH  62  85
ENDBRANCH  36  37
ENDBRANCH  29  31
ENDBRANCH  28  29
ENDBRANCH  27  28
ENDBRANCH  26  27
ENDBRANCH  25  26
ENDBRANCH   1  25
TORSDOF 18
ENDMDL
