MODEL 1
REMARK VINA RESULT:     -12.1      0.000      0.000
REMARK SMILES Nc1c(N2CCCC2)ncnc1N1CCC(C(=O)OCCOCCOC(=O)c2ccc(-c3c4nc(c(-c5c(F)c(F)c(F)c(F)c5F)c5ccc([nH]5)c(-c5c(F)c(F)c(F)c(F)c5F)c5nc(c(-c6c(F)c(F)c(F)c(F)c6F)c6ccc3[nH]6)C=C5)C=C4)cc2)CC1
REMARK SMILES IDX 22 1 21 2 20 3 19 4 17 5 18 6 16 7 13 8 14 9 92 10 15 11
REMARK SMILES IDX 91 12 12 13 2 14 3 15 9 16 11 17 10 18 1 19 4 22 5 23 8 24
REMARK SMILES IDX 6 25 7 26 23 27 24 28 25 29 26 30 27 31 28 32 29 33 90 34
REMARK SMILES IDX 30 35 89 36 31 37 32 38 33 39 83 40 34 41 88 42 82 43 84 44
REMARK SMILES IDX 35 45 87 46 81 47 80 48 36 50 68 51 48 52 67 53 49 54 52 55
REMARK SMILES IDX 66 56 85 57 50 58 51 59 65 61 86 62 53 63 37 64 38 65 46 66
REMARK SMILES IDX 39 67 40 68 44 69 47 70 41 71 42 72 45 73 43 74 69 75 70 76
REMARK SMILES IDX 78 77 71 78 72 79 76 80 79 81 73 82 74 83 77 84 75 85 54 86
REMARK SMILES IDX 55 87 63 88 56 89 57 90 61 91 64 92 58 93 59 94 62 95 60 96
REMARK H PARENT 1 20 1 21 84 49 52 60
REMARK Flexibility Score: inf
ROOT
ATOM      1  O   UNL A   1      30.667  29.992  24.630  1.00  0.00    -0.374 OA
ENDROOT
BRANCH   1   2
ATOM      2  C   UNL A   1      30.820  28.911  23.713  1.00  0.00     0.202 C 
BRANCH   2   3
ATOM      3  C   UNL A   1      30.714  27.499  24.291  1.00  0.00     0.261 C 
BRANCH   3   4
ATOM      4  O   UNL A   1      31.849  27.176  25.111  1.00  0.00    -0.463 OA
BRANCH   4   5
ATOM      5  C   UNL A   1      31.551  26.674  26.334  1.00  0.00     0.309 C 
ATOM      6  O   UNL A   1      31.029  27.305  27.249  1.00  0.00    -0.252 OA
BRANCH   5   7
ATOM      7  C   UNL A   1      31.946  25.227  26.500  1.00  0.00     0.103 C 
ATOM      8  N   UNL A   1      32.578  22.520  25.916  1.00  0.00    -0.355 N 
ATOM      9  C   UNL A   1      31.404  22.793  26.733  1.00  0.00     0.119 C 
ATOM     10  C   UNL A   1      33.613  23.540  25.768  1.00  0.00     0.119 C 
ATOM     11  C   UNL A   1      30.828  24.181  26.451  1.00  0.00     0.037 C 
ATOM     12  C   UNL A   1      32.996  24.891  25.449  1.00  0.00     0.037 C 
BRANCH   8  13
ATOM     13  C   UNL A   1      32.493  21.540  24.925  1.00  0.00     0.157 A 
ATOM     14  C   UNL A   1      32.909  20.225  25.214  1.00  0.00     0.118 A 
ATOM     15  C   UNL A   1      32.892  19.313  24.148  1.00  0.00     0.157 A 
ATOM     16  N   UNL A   1      32.542  19.693  22.906  1.00  0.00    -0.217 NA
ATOM     17  N   UNL A   1      32.060  21.903  23.706  1.00  0.00    -0.217 NA
ATOM     18  C   UNL A   1      32.118  20.956  22.761  1.00  0.00     0.226 A 
BRANCH  14  19
ATOM     19  N   UNL A   1      33.278  19.856  26.519  1.00  0.00    -0.393 N 
ATOM     20  H   UNL A   1      33.919  19.123  26.661  1.00  0.00     0.156 HD
ATOM     21  H   UNL A   1      32.894  20.331  27.291  1.00  0.00     0.156 HD
ENDBRANCH  14  19
BRANCH  15  22
ATOM     22  N   UNL A   1      33.281  18.003  24.301  1.00  0.00    -0.355 N 
ATOM     23  C   UNL A   1      32.487  16.957  24.916  1.00  0.00     0.118 C 
ATOM     24  C   UNL A   1      34.696  17.684  24.253  1.00  0.00     0.118 C 
ATOM     25  C   UNL A   1      33.522  16.208  25.751  1.00  0.00     0.023 C 
ATOM     26  C   UNL A   1      34.773  16.289  24.883  1.00  0.00     0.023 C 
ENDBRANCH  15  22
ENDBRANCH   8  13
ENDBRANCH   5   7
ENDBRANCH   4   5
ENDBRANCH   3   4
ENDBRANCH   2   3
ENDBRANCH   1   2
BRANCH   1  27
ATOM     27  C   UNL A   1      31.798  30.364  25.416  1.00  0.00     0.202 C 
BRANCH  27  28
ATOM     28  C   UNL A   1      31.570  31.436  26.488  1.00  0.00     0.261 C 
BRANCH  28  29
ATOM     29  O   UNL A   1      32.522  31.340  27.565  1.00  0.00    -0.460 OA
BRANCH  29  30
ATOM     30  C   UNL A   1      33.393  32.374  27.645  1.00  0.00     0.338 C 
ATOM     31  O   UNL A   1      33.132  33.568  27.626  1.00  0.00    -0.246 OA
BRANCH  30  32
ATOM     32  C   UNL A   1      34.746  31.879  27.951  1.00  0.00     0.060 A 
ATOM     33  C   UNL A   1      34.904  30.497  28.114  1.00  0.00     0.016 A 
ATOM     34  C   UNL A   1      35.812  32.750  28.178  1.00  0.00     0.016 A 
ATOM     35  C   UNL A   1      36.118  29.983  28.558  1.00  0.00     0.010 A 
ATOM     36  C   UNL A   1      37.029  32.233  28.638  1.00  0.00     0.010 A 
ATOM     37  C   UNL A   1      37.173  30.853  28.867  1.00  0.00    -0.014 A 
BRANCH  37  38
ATOM     38  C   UNL A   1      38.352  30.322  29.592  1.00  0.00     0.031 A 
ATOM     39  C   UNL A   1      38.598  30.771  31.005  1.00  0.00     0.074 A 
ATOM     40  C   UNL A   1      39.149  29.397  29.030  1.00  0.00     0.049 A 
ATOM     41  N   UNL A   1      39.543  30.417  31.838  1.00  0.00    -0.248 NA
ATOM     42  C   UNL A   1      37.641  31.744  31.556  1.00  0.00     0.031 C 
ATOM     43  C   UNL A   1      38.973  28.835  27.694  1.00  0.00     0.029 A 
ATOM     44  N   UNL A   1      40.258  28.758  29.524  1.00  0.00    -0.354 N 
ATOM     45  C   UNL A   1      39.285  31.109  33.014  1.00  0.00     0.074 A 
ATOM     46  C   UNL A   1      38.122  31.936  32.775  1.00  0.00     0.031 C 
ATOM     47  C   UNL A   1      39.935  27.921  27.478  1.00  0.00     0.029 A 
ATOM     48  C   UNL A   1      40.809  27.858  28.648  1.00  0.00     0.049 A 
ATOM     49  H   UNL A   1      40.623  28.931  30.422  1.00  0.00     0.167 HD
ATOM     50  C   UNL A   1      39.949  31.047  34.193  1.00  0.00     0.037 A 
ATOM     51  C   UNL A   1      41.899  27.077  28.778  1.00  0.00     0.037 A 
ATOM     52  C   UNL A   1      41.117  30.240  34.425  1.00  0.00     0.049 A 
ATOM     53  C   UNL A   1      42.695  27.118  30.055  1.00  0.00     0.074 A 
ATOM     54  C   UNL A   1      41.873  30.127  35.578  1.00  0.00     0.029 A 
ATOM     55  N   UNL A   1      41.704  29.413  33.478  1.00  0.00    -0.354 N 
ATOM     56  N   UNL A   1      42.453  27.781  31.160  1.00  0.00    -0.248 NA
ATOM     57  C   UNL A   1      43.920  26.307  30.099  1.00  0.00     0.031 C 
ATOM     58  C   UNL A   1      42.944  29.266  35.315  1.00  0.00     0.029 A 
ATOM     59  C   UNL A   1      42.828  28.806  34.013  1.00  0.00     0.049 A 
ATOM     60  H   UNL A   1      41.370  29.278  32.562  1.00  0.00     0.167 HD
ATOM     61  C   UNL A   1      43.478  27.454  32.037  1.00  0.00     0.074 A 
ATOM     62  C   UNL A   1      44.343  26.523  31.339  1.00  0.00     0.031 C 
ATOM     63  C   UNL A   1      43.682  27.884  33.306  1.00  0.00     0.037 A 
BRANCH  50  64
ATOM     64  C   UNL A   1      39.429  31.892  35.318  1.00  0.00     0.064 A 
ATOM     65  C   UNL A   1      39.800  33.239  35.453  1.00  0.00     0.173 A 
ATOM     66  C   UNL A   1      38.536  31.360  36.258  1.00  0.00     0.173 A 
ATOM     67  F   UNL A   1      40.663  33.792  34.586  1.00  0.00    -0.203 F 
ATOM     68  C   UNL A   1      39.316  34.013  36.504  1.00  0.00     0.198 A 
ATOM     69  C   UNL A   1      38.033  32.143  37.293  1.00  0.00     0.198 A 
ATOM     70  F   UNL A   1      38.148  30.078  36.172  1.00  0.00    -0.203 F 
ATOM     71  F   UNL A   1      39.719  35.283  36.640  1.00  0.00    -0.200 F 
ATOM     72  C   UNL A   1      38.429  33.466  37.419  1.00  0.00     0.200 A 
ATOM     73  F   UNL A   1      37.169  31.617  38.172  1.00  0.00    -0.200 F 
ATOM     74  F   UNL A   1      37.961  34.214  38.428  1.00  0.00    -0.200 F 
ENDBRANCH  50  64
BRANCH  51  75
ATOM     75  C   UNL A   1      42.287  26.175  27.664  1.00  0.00     0.064 A 
ATOM     76  C   UNL A   1      43.269  26.558  26.742  1.00  0.00     0.173 A 
ATOM     77  C   UNL A   1      41.709  24.906  27.517  1.00  0.00     0.173 A 
ATOM     78  F   UNL A   1      43.830  27.773  26.827  1.00  0.00    -0.203 F 
ATOM     79  C   UNL A   1      43.663  25.702  25.715  1.00  0.00     0.198 A 
ATOM     80  C   UNL A   1      42.119  24.042  26.504  1.00  0.00     0.198 A 
ATOM     81  F   UNL A   1      40.760  24.497  28.372  1.00  0.00    -0.203 F 
ATOM     82  F   UNL A   1      44.590  26.099  24.834  1.00  0.00    -0.200 F 
ATOM     83  C   UNL A   1      43.095  24.441  25.603  1.00  0.00     0.200 A 
ATOM     84  F   UNL A   1      41.575  22.822  26.405  1.00  0.00    -0.200 F 
ATOM     85  F   UNL A   1      43.487  23.612  24.626  1.00  0.00    -0.200 F 
ENDBRANCH  51  75
BRANCH  63  86
ATOM     86  C   UNL A   1      44.879  27.351  34.037  1.00  0.00     0.064 A 
ATOM     87  C   UNL A   1      44.824  26.145  34.751  1.00  0.00     0.173 A 
ATOM     88  C   UNL A   1      46.114  28.012  33.958  1.00  0.00     0.173 A 
ATOM     89  F   UNL A   1      43.664  25.483  34.867  1.00  0.00    -0.203 F 
ATOM     90  C   UNL A   1      45.959  25.628  35.371  1.00  0.00     0.198 A 
ATOM     91  C   UNL A   1      47.253  27.479  34.556  1.00  0.00     0.198 A 
ATOM     92  F   UNL A   1      46.222  29.165  33.279  1.00  0.00    -0.203 F 
ATOM     93  F   UNL A   1      45.876  24.491  36.074  1.00  0.00    -0.200 F 
ATOM     94  C   UNL A   1      47.173  26.289  35.264  1.00  0.00     0.200 A 
ATOM     95  F   UNL A   1      48.429  28.112  34.440  1.00  0.00    -0.200 F 
ATOM     96  F   UNL A   1      48.268  25.781  35.847  1.00  0.00    -0.200 F 
ENDBRANCH  63  86
ENDBRANCH  37  38
ENDBRANCH  30  32
ENDBRANCH  29  30
ENDBRANCH  28  29
ENDBRANCH  27  28
ENDBRANCH   1  27
TORSDOF 17
ENDMDL
MODEL 2
REMARK VINA RESULT:     -11.9      4.773     10.333
REMARK SMILES Nc1c(N2CCCC2)ncnc1N1CCC(C(=O)OCCOCCOC(=O)c2ccc(-c3c4nc(c(-c5c(F)c(F)c(F)c(F)c5F)c5ccc([nH]5)c(-c5c(F)c(F)c(F)c(F)c5F)c5nc(c(-c6c(F)c(F)c(F)c(F)c6F)c6ccc3[nH]6)C=C5)C=C4)cc2)CC1
REMARK SMILES IDX 22 1 21 2 20 3 19 4 17 5 18 6 16 7 13 8 14 9 92 10 15 11
REMARK SMILES IDX 91 12 12 13 2 14 3 15 9 16 11 17 10 18 1 19 4 22 5 23 8 24
REMARK SMILES IDX 6 25 7 26 23 27 24 28 25 29 26 30 27 31 28 32 29 33 90 34
REMARK SMILES IDX 30 35 89 36 31 37 32 38 33 39 83 40 34 41 88 42 82 43 84 44
REMARK SMILES IDX 35 45 87 46 81 47 80 48 36 50 68 51 48 52 67 53 49 54 52 55
REMARK SMILES IDX 66 56 85 57 50 58 51 59 65 61 86 62 53 63 37 64 38 65 46 66
REMARK SMILES IDX 39 67 40 68 44 69 47 70 41 71 42 72 45 73 43 74 69 75 70 76
REMARK SMILES IDX 78 77 71 78 72 79 76 80 79 81 73 82 74 83 77 84 75 85 54 86
REMARK SMILES IDX 55 87 63 88 56 89 57 90 61 91 64 92 58 93 59 94 62 95 60 96
REMARK H PARENT 1 20 1 21 84 49 52 60
REMARK Flexibility Score: inf
ROOT
ATOM      1  O   UNL A   1      36.573  21.253  24.900  1.00  0.00    -0.374 OA
ENDROOT
BRANCH   1   2
ATOM      2  C   UNL A   1      35.187  21.537  24.718  1.00  0.00     0.202 C 
BRANCH   2   3
ATOM      3  C   UNL A   1      34.295  21.426  25.956  1.00  0.00     0.261 C 
BRANCH   3   4
ATOM      4  O   UNL A   1      33.222  22.382  25.922  1.00  0.00    -0.463 OA
BRANCH   4   5
ATOM      5  C   UNL A   1      32.064  21.929  25.383  1.00  0.00     0.309 C 
ATOM      6  O   UNL A   1      31.807  20.752  25.148  1.00  0.00    -0.252 OA
BRANCH   5   7
ATOM      7  C   UNL A   1      31.083  23.029  25.061  1.00  0.00     0.103 C 
ATOM      8  N   UNL A   1      29.999  25.506  24.190  1.00  0.00    -0.355 N 
ATOM      9  C   UNL A   1      29.890  25.165  25.601  1.00  0.00     0.119 C 
ATOM     10  C   UNL A   1      30.256  24.457  23.207  1.00  0.00     0.119 C 
ATOM     11  C   UNL A   1      30.998  24.206  26.039  1.00  0.00     0.037 C 
ATOM     12  C   UNL A   1      31.391  23.556  23.665  1.00  0.00     0.037 C 
BRANCH   8  13
ATOM     13  C   UNL A   1      30.337  26.814  23.840  1.00  0.00     0.157 A 
ATOM     14  C   UNL A   1      29.319  27.723  23.486  1.00  0.00     0.118 A 
ATOM     15  C   UNL A   1      29.732  28.990  23.050  1.00  0.00     0.157 A 
ATOM     16  N   UNL A   1      31.035  29.299  22.929  1.00  0.00    -0.217 NA
ATOM     17  N   UNL A   1      31.638  27.147  23.804  1.00  0.00    -0.217 NA
ATOM     18  C   UNL A   1      31.913  28.373  23.341  1.00  0.00     0.226 A 
BRANCH  14  19
ATOM     19  N   UNL A   1      27.963  27.371  23.613  1.00  0.00    -0.393 N 
ATOM     20  H   UNL A   1      27.277  27.867  23.112  1.00  0.00     0.156 HD
ATOM     21  H   UNL A   1      27.702  26.628  24.204  1.00  0.00     0.156 HD
ENDBRANCH  14  19
BRANCH  15  22
ATOM     22  N   UNL A   1      28.834  29.960  22.670  1.00  0.00    -0.355 N 
ATOM     23  C   UNL A   1      28.324  30.154  21.327  1.00  0.00     0.118 C 
ATOM     24  C   UNL A   1      28.678  31.135  23.509  1.00  0.00     0.118 C 
ATOM     25  C   UNL A   1      28.343  31.673  21.186  1.00  0.00     0.023 C 
ATOM     26  C   UNL A   1      27.981  32.144  22.590  1.00  0.00     0.023 C 
ENDBRANCH  15  22
ENDBRANCH   8  13
ENDBRANCH   5   7
ENDBRANCH   4   5
ENDBRANCH   3   4
ENDBRANCH   2   3
ENDBRANCH   1   2
BRANCH   1  27
ATOM     27  C   UNL A   1      36.975  19.884  24.919  1.00  0.00     0.202 C 
BRANCH  27  28
ATOM     28  C   UNL A   1      38.432  19.599  25.304  1.00  0.00     0.261 C 
BRANCH  28  29
ATOM     29  O   UNL A   1      39.181  20.809  25.529  1.00  0.00    -0.460 OA
BRANCH  29  30
ATOM     30  C   UNL A   1      40.175  20.699  26.441  1.00  0.00     0.338 C 
ATOM     31  O   UNL A   1      40.878  19.723  26.660  1.00  0.00    -0.246 OA
BRANCH  30  32
ATOM     32  C   UNL A   1      40.451  22.009  27.055  1.00  0.00     0.060 A 
ATOM     33  C   UNL A   1      39.771  23.118  26.538  1.00  0.00     0.016 A 
ATOM     34  C   UNL A   1      41.428  22.167  28.039  1.00  0.00     0.016 A 
ATOM     35  C   UNL A   1      40.103  24.400  26.966  1.00  0.00     0.010 A 
ATOM     36  C   UNL A   1      41.771  23.458  28.459  1.00  0.00     0.010 A 
ATOM     37  C   UNL A   1      41.138  24.580  27.894  1.00  0.00    -0.014 A 
BRANCH  37  38
ATOM     38  C   UNL A   1      41.661  25.946  28.130  1.00  0.00     0.031 A 
ATOM     39  C   UNL A   1      43.038  26.291  27.636  1.00  0.00     0.074 A 
ATOM     40  C   UNL A   1      40.896  26.888  28.707  1.00  0.00     0.049 A 
ATOM     41  N   UNL A   1      43.686  27.427  27.702  1.00  0.00    -0.248 NA
ATOM     42  C   UNL A   1      43.781  25.212  26.967  1.00  0.00     0.031 C 
ATOM     43  C   UNL A   1      39.523  26.692  29.165  1.00  0.00     0.029 A 
ATOM     44  N   UNL A   1      41.164  28.204  28.989  1.00  0.00    -0.354 N 
ATOM     45  C   UNL A   1      44.901  27.203  27.071  1.00  0.00     0.074 A 
ATOM     46  C   UNL A   1      44.922  25.814  26.666  1.00  0.00     0.031 C 
ATOM     47  C   UNL A   1      39.062  27.854  29.661  1.00  0.00     0.029 A 
ATOM     48  C   UNL A   1      40.117  28.863  29.582  1.00  0.00     0.049 A 
ATOM     49  H   UNL A   1      42.027  28.633  28.786  1.00  0.00     0.167 HD
ATOM     50  C   UNL A   1      45.904  28.082  26.834  1.00  0.00     0.037 A 
ATOM     51  C   UNL A   1      40.026  30.135  30.014  1.00  0.00     0.037 A 
ATOM     52  C   UNL A   1      45.894  29.458  27.253  1.00  0.00     0.049 A 
ATOM     53  C   UNL A   1      41.203  31.061  29.852  1.00  0.00     0.074 A 
ATOM     54  C   UNL A   1      46.871  30.421  27.081  1.00  0.00     0.029 A 
ATOM     55  N   UNL A   1      44.851  30.063  27.940  1.00  0.00    -0.354 N 
ATOM     56  N   UNL A   1      42.353  30.842  29.263  1.00  0.00    -0.248 NA
ATOM     57  C   UNL A   1      41.069  32.410  30.422  1.00  0.00     0.031 C 
ATOM     58  C   UNL A   1      46.440  31.597  27.702  1.00  0.00     0.029 A 
ATOM     59  C   UNL A   1      45.173  31.381  28.221  1.00  0.00     0.049 A 
ATOM     60  H   UNL A   1      44.008  29.622  28.190  1.00  0.00     0.167 HD
ATOM     61  C   UNL A   1      43.072  32.025  29.372  1.00  0.00     0.074 A 
ATOM     62  C   UNL A   1      42.223  32.966  30.075  1.00  0.00     0.031 C 
ATOM     63  C   UNL A   1      44.321  32.305  28.925  1.00  0.00     0.037 A 
BRANCH  50  64
ATOM     64  C   UNL A   1      47.106  27.568  26.097  1.00  0.00     0.064 A 
ATOM     65  C   UNL A   1      47.193  27.642  24.698  1.00  0.00     0.173 A 
ATOM     66  C   UNL A   1      48.189  27.015  26.794  1.00  0.00     0.173 A 
ATOM     67  F   UNL A   1      46.177  28.149  23.984  1.00  0.00    -0.203 F 
ATOM     68  C   UNL A   1      48.310  27.157  24.024  1.00  0.00     0.198 A 
ATOM     69  C   UNL A   1      49.316  26.555  26.119  1.00  0.00     0.198 A 
ATOM     70  F   UNL A   1      48.157  26.923  28.133  1.00  0.00    -0.203 F 
ATOM     71  F   UNL A   1      48.353  27.196  22.685  1.00  0.00    -0.200 F 
ATOM     72  C   UNL A   1      49.372  26.619  24.735  1.00  0.00     0.200 A 
ATOM     73  F   UNL A   1      50.347  26.044  26.807  1.00  0.00    -0.200 F 
ATOM     74  F   UNL A   1      50.449  26.156  24.084  1.00  0.00    -0.200 F 
ENDBRANCH  50  64
BRANCH  51  75
ATOM     75  C   UNL A   1      38.760  30.609  30.628  1.00  0.00     0.064 A 
ATOM     76  C   UNL A   1      37.706  31.070  29.829  1.00  0.00     0.173 A 
ATOM     77  C   UNL A   1      38.567  30.582  32.016  1.00  0.00     0.173 A 
ATOM     78  F   UNL A   1      37.855  31.138  28.498  1.00  0.00    -0.203 F 
ATOM     79  C   UNL A   1      36.502  31.483  30.396  1.00  0.00     0.198 A 
ATOM     80  C   UNL A   1      37.355  30.975  32.581  1.00  0.00     0.198 A 
ATOM     81  F   UNL A   1      39.548  30.154  32.823  1.00  0.00    -0.203 F 
ATOM     82  F   UNL A   1      35.516  31.939  29.612  1.00  0.00    -0.200 F 
ATOM     83  C   UNL A   1      36.324  31.425  31.771  1.00  0.00     0.200 A 
ATOM     84  F   UNL A   1      37.183  30.908  33.908  1.00  0.00    -0.200 F 
ATOM     85  F   UNL A   1      35.160  31.807  32.314  1.00  0.00    -0.200 F 
ENDBRANCH  51  75
BRANCH  63  86
ATOM     86  C   UNL A   1      44.852  33.688  29.170  1.00  0.00     0.064 A 
ATOM     87  C   UNL A   1      45.644  33.980  30.290  1.00  0.00     0.173 A 
ATOM     88  C   UNL A   1      44.633  34.710  28.234  1.00  0.00     0.173 A 
ATOM     89  F   UNL A   1      45.872  33.040  31.218  1.00  0.00    -0.203 F 
ATOM     90  C   UNL A   1      46.185  35.251  30.470  1.00  0.00     0.198 A 
ATOM     91  C   UNL A   1      45.197  35.972  28.404  1.00  0.00     0.198 A 
ATOM     92  F   UNL A   1      43.889  34.479  27.141  1.00  0.00    -0.203 F 
ATOM     93  F   UNL A   1      46.913  35.517  31.563  1.00  0.00    -0.200 F 
ATOM     94  C   UNL A   1      45.970  36.241  29.524  1.00  0.00     0.200 A 
ATOM     95  F   UNL A   1      44.999  36.923  27.482  1.00  0.00    -0.200 F 
ATOM     96  F   UNL A   1      46.505  37.459  29.692  1.00  0.00    -0.200 F 
ENDBRANCH  63  86
ENDBRANCH  37  38
ENDBRANCH  30  32
ENDBRANCH  29  30
ENDBRANCH  28  29
ENDBRANCH  27  28
ENDBRANCH   1  27
TORSDOF 17
ENDMDL
MODEL 3
REMARK VINA RESULT:     -11.9      3.778      8.926
REMARK SMILES Nc1c(N2CCCC2)ncnc1N1CCC(C(=O)OCCOCCOC(=O)c2ccc(-c3c4nc(c(-c5c(F)c(F)c(F)c(F)c5F)c5ccc([nH]5)c(-c5c(F)c(F)c(F)c(F)c5F)c5nc(c(-c6c(F)c(F)c(F)c(F)c6F)c6ccc3[nH]6)C=C5)C=C4)cc2)CC1
REMARK SMILES IDX 22 1 21 2 20 3 19 4 17 5 18 6 16 7 13 8 14 9 92 10 15 11
REMARK SMILES IDX 91 12 12 13 2 14 3 15 9 16 11 17 10 18 1 19 4 22 5 23 8 24
REMARK SMILES IDX 6 25 7 26 23 27 24 28 25 29 26 30 27 31 28 32 29 33 90 34
REMARK SMILES IDX 30 35 89 36 31 37 32 38 33 39 83 40 34 41 88 42 82 43 84 44
REMARK SMILES IDX 35 45 87 46 81 47 80 48 36 50 68 51 48 52 67 53 49 54 52 55
REMARK SMILES IDX 66 56 85 57 50 58 51 59 65 61 86 62 53 63 37 64 38 65 46 66
REMARK SMILES IDX 39 67 40 68 44 69 47 70 41 71 42 72 45 73 43 74 69 75 70 76
REMARK SMILES IDX 78 77 71 78 72 79 76 80 79 81 73 82 74 83 77 84 75 85 54 86
REMARK SMILES IDX 55 87 63 88 56 89 57 90 61 91 64 92 58 93 59 94 62 95 60 96
REMARK H PARENT 1 20 1 21 84 49 52 60
REMARK Flexibility Score: inf
ROOT
ATOM      1  O   UNL A   1      42.041  21.544  26.678  1.00  0.00    -0.374 OA
ENDROOT
BRANCH   1   2
ATOM      2  C   UNL A   1      40.815  22.091  26.197  1.00  0.00     0.202 C 
BRANCH   2   3
ATOM      3  C   UNL A   1      39.575  21.203  26.311  1.00  0.00     0.261 C 
BRANCH   3   4
ATOM      4  O   UNL A   1      38.509  21.671  25.469  1.00  0.00    -0.463 OA
BRANCH   4   5
ATOM      5  C   UNL A   1      37.684  20.705  24.995  1.00  0.00     0.309 C 
ATOM      6  O   UNL A   1      37.955  19.510  24.937  1.00  0.00    -0.252 OA
BRANCH   5   7
ATOM      7  C   UNL A   1      36.359  21.237  24.508  1.00  0.00     0.103 C 
ATOM      8  N   UNL A   1      34.174  22.981  24.000  1.00  0.00    -0.355 N 
ATOM      9  C   UNL A   1      33.942  21.810  24.834  1.00  0.00     0.119 C 
ATOM     10  C   UNL A   1      35.340  23.027  23.122  1.00  0.00     0.119 C 
ATOM     11  C   UNL A   1      35.223  21.347  25.530  1.00  0.00     0.037 C 
ATOM     12  C   UNL A   1      36.593  22.600  23.867  1.00  0.00     0.037 C 
BRANCH   8  13
ATOM     13  C   UNL A   1      33.602  24.197  24.378  1.00  0.00     0.157 A 
ATOM     14  C   UNL A   1      32.448  24.656  23.713  1.00  0.00     0.118 A 
ATOM     15  C   UNL A   1      31.982  25.930  24.070  1.00  0.00     0.157 A 
ATOM     16  N   UNL A   1      32.637  26.689  24.967  1.00  0.00    -0.217 NA
ATOM     17  N   UNL A   1      34.210  24.915  25.337  1.00  0.00    -0.217 NA
ATOM     18  C   UNL A   1      33.695  26.129  25.570  1.00  0.00     0.226 A 
BRANCH  14  19
ATOM     19  N   UNL A   1      31.787  23.846  22.773  1.00  0.00    -0.393 N 
ATOM     20  H   UNL A   1      31.066  24.222  22.219  1.00  0.00     0.156 HD
ATOM     21  H   UNL A   1      32.047  22.902  22.669  1.00  0.00     0.156 HD
ENDBRANCH  14  19
BRANCH  15  22
ATOM     22  N   UNL A   1      30.870  26.491  23.489  1.00  0.00    -0.355 N 
ATOM     23  C   UNL A   1      30.882  27.574  22.525  1.00  0.00     0.118 C 
ATOM     24  C   UNL A   1      29.582  26.328  24.139  1.00  0.00     0.118 C 
ATOM     25  C   UNL A   1      29.716  28.441  22.992  1.00  0.00     0.023 C 
ATOM     26  C   UNL A   1      28.711  27.409  23.490  1.00  0.00     0.023 C 
ENDBRANCH  15  22
ENDBRANCH   8  13
ENDBRANCH   5   7
ENDBRANCH   4   5
ENDBRANCH   3   4
ENDBRANCH   2   3
ENDBRANCH   1   2
BRANCH   1  27
ATOM     27  C   UNL A   1      43.087  21.322  25.732  1.00  0.00     0.202 C 
BRANCH  27  28
ATOM     28  C   UNL A   1      44.034  22.499  25.465  1.00  0.00     0.261 C 
BRANCH  28  29
ATOM     29  O   UNL A   1      43.343  23.643  24.929  1.00  0.00    -0.460 OA
BRANCH  29  30
ATOM     30  C   UNL A   1      43.946  24.832  25.164  1.00  0.00     0.338 C 
ATOM     31  O   UNL A   1      44.952  25.274  24.628  1.00  0.00    -0.246 OA
BRANCH  30  32
ATOM     32  C   UNL A   1      43.117  25.657  26.059  1.00  0.00     0.060 A 
ATOM     33  C   UNL A   1      43.515  26.984  26.264  1.00  0.00     0.016 A 
ATOM     34  C   UNL A   1      42.040  25.119  26.766  1.00  0.00     0.016 A 
ATOM     35  C   UNL A   1      42.870  27.765  27.217  1.00  0.00     0.010 A 
ATOM     36  C   UNL A   1      41.401  25.901  27.734  1.00  0.00     0.010 A 
ATOM     37  C   UNL A   1      41.839  27.213  27.991  1.00  0.00    -0.014 A 
BRANCH  37  38
ATOM     38  C   UNL A   1      41.353  27.959  29.176  1.00  0.00     0.031 A 
ATOM     39  C   UNL A   1      42.128  27.865  30.460  1.00  0.00     0.074 A 
ATOM     40  C   UNL A   1      40.283  28.766  29.091  1.00  0.00     0.049 A 
ATOM     41  N   UNL A   1      41.909  28.452  31.609  1.00  0.00    -0.248 NA
ATOM     42  C   UNL A   1      43.318  27.000  30.443  1.00  0.00     0.031 C 
ATOM     43  C   UNL A   1      39.492  28.991  27.885  1.00  0.00     0.029 A 
ATOM     44  N   UNL A   1      39.688  29.560  30.041  1.00  0.00    -0.354 N 
ATOM     45  C   UNL A   1      42.939  28.042  32.443  1.00  0.00     0.074 A 
ATOM     46  C   UNL A   1      43.760  27.122  31.685  1.00  0.00     0.031 C 
ATOM     47  C   UNL A   1      38.520  29.878  28.163  1.00  0.00     0.029 A 
ATOM     48  C   UNL A   1      38.604  30.258  29.572  1.00  0.00     0.049 A 
ATOM     49  H   UNL A   1      40.010  29.621  30.969  1.00  0.00     0.167 HD
ATOM     50  C   UNL A   1      43.189  28.411  33.722  1.00  0.00     0.037 A 
ATOM     51  C   UNL A   1      37.774  31.103  30.212  1.00  0.00     0.037 A 
ATOM     52  C   UNL A   1      42.362  29.310  34.483  1.00  0.00     0.049 A 
ATOM     53  C   UNL A   1      37.999  31.402  31.671  1.00  0.00     0.074 A 
ATOM     54  C   UNL A   1      42.519  29.728  35.792  1.00  0.00     0.029 A 
ATOM     55  N   UNL A   1      41.214  29.922  34.002  1.00  0.00    -0.354 N 
ATOM     56  N   UNL A   1      38.969  31.005  32.458  1.00  0.00    -0.248 NA
ATOM     57  C   UNL A   1      37.007  32.265  32.332  1.00  0.00     0.031 C 
ATOM     58  C   UNL A   1      41.442  30.558  36.118  1.00  0.00     0.029 A 
ATOM     59  C   UNL A   1      40.639  30.695  34.997  1.00  0.00     0.049 A 
ATOM     60  H   UNL A   1      40.862  29.822  33.088  1.00  0.00     0.167 HD
ATOM     61  C   UNL A   1      38.720  31.579  33.696  1.00  0.00     0.074 A 
ATOM     62  C   UNL A   1      37.510  32.365  33.556  1.00  0.00     0.031 C 
ATOM     63  C   UNL A   1      39.432  31.469  34.845  1.00  0.00     0.037 A 
BRANCH  50  64
ATOM     64  C   UNL A   1      44.404  27.826  34.380  1.00  0.00     0.064 A 
ATOM     65  C   UNL A   1      45.661  28.441  34.274  1.00  0.00     0.173 A 
ATOM     66  C   UNL A   1      44.309  26.652  35.140  1.00  0.00     0.173 A 
ATOM     67  F   UNL A   1      45.807  29.558  33.546  1.00  0.00    -0.203 F 
ATOM     68  C   UNL A   1      46.782  27.886  34.884  1.00  0.00     0.198 A 
ATOM     69  C   UNL A   1      45.427  26.114  35.771  1.00  0.00     0.198 A 
ATOM     70  F   UNL A   1      43.129  26.026  35.275  1.00  0.00    -0.203 F 
ATOM     71  F   UNL A   1      47.982  28.465  34.732  1.00  0.00    -0.200 F 
ATOM     72  C   UNL A   1      46.664  26.727  35.636  1.00  0.00     0.200 A 
ATOM     73  F   UNL A   1      45.310  24.999  36.505  1.00  0.00    -0.200 F 
ATOM     74  F   UNL A   1      47.744  26.196  36.226  1.00  0.00    -0.200 F 
ENDBRANCH  50  64
BRANCH  51  75
ATOM     75  C   UNL A   1      36.661  31.739  29.464  1.00  0.00     0.064 A 
ATOM     76  C   UNL A   1      35.566  30.982  29.030  1.00  0.00     0.173 A 
ATOM     77  C   UNL A   1      36.653  33.115  29.196  1.00  0.00     0.173 A 
ATOM     78  F   UNL A   1      35.541  29.658  29.241  1.00  0.00    -0.203 F 
ATOM     79  C   UNL A   1      34.501  31.579  28.358  1.00  0.00     0.198 A 
ATOM     80  C   UNL A   1      35.578  33.715  28.544  1.00  0.00     0.198 A 
ATOM     81  F   UNL A   1      37.682  33.882  29.587  1.00  0.00    -0.203 F 
ATOM     82  F   UNL A   1      33.474  30.830  27.935  1.00  0.00    -0.200 F 
ATOM     83  C   UNL A   1      34.503  32.946  28.125  1.00  0.00     0.200 A 
ATOM     84  F   UNL A   1      35.580  35.037  28.329  1.00  0.00    -0.200 F 
ATOM     85  F   UNL A   1      33.471  33.522  27.494  1.00  0.00    -0.200 F 
ENDBRANCH  51  75
BRANCH  63  86
ATOM     86  C   UNL A   1      38.936  32.220  36.046  1.00  0.00     0.064 A 
ATOM     87  C   UNL A   1      38.127  31.603  37.012  1.00  0.00     0.173 A 
ATOM     88  C   UNL A   1      39.337  33.545  36.273  1.00  0.00     0.173 A 
ATOM     89  F   UNL A   1      37.707  30.342  36.835  1.00  0.00    -0.203 F 
ATOM     90  C   UNL A   1      37.728  32.292  38.155  1.00  0.00     0.198 A 
ATOM     91  C   UNL A   1      38.958  34.221  37.429  1.00  0.00     0.198 A 
ATOM     92  F   UNL A   1      40.118  34.177  35.383  1.00  0.00    -0.203 F 
ATOM     93  F   UNL A   1      36.930  31.694  39.049  1.00  0.00    -0.200 F 
ATOM     94  C   UNL A   1      38.151  33.595  38.367  1.00  0.00     0.200 A 
ATOM     95  F   UNL A   1      39.380  35.476  37.638  1.00  0.00    -0.200 F 
ATOM     96  F   UNL A   1      37.779  34.251  39.475  1.00  0.00    -0.200 F 
ENDBRANCH  63  86
ENDBRANCH  37  38
ENDBRANCH  30  32
ENDBRANCH  29  30
ENDBRANCH  28  29
ENDBRANCH  27  28
ENDBRANCH   1  27
TORSDOF 17
ENDMDL
