MODEL 1
REMARK VINA RESULT:     -11.9      0.000      0.000
REMARK SMILES O=C(CCc1ccccc1)Nc1ccccc1Oc1ccsc1C(=O)OCCOCCOC(=O)c1ccc(-c2c3nc(c(-c4c(F)c(F)c(F)c(F)c4F)c4ccc([nH]4)c(-c4c(F)c(F)c(F)c(F)c4F)c4nc(c(-c5c(F)c(F)c(F)c(F)c5F)c5ccc2[nH]5)C=C4)C=C3)cc1
REMARK SMILES IDX 27 1 26 2 24 3 25 4 23 5 19 6 20 7 21 8 22 9 18 10 17 11
REMARK SMILES IDX 12 12 13 13 14 14 16 15 15 16 11 17 1 18 2 19 3 21 4 22 5 23
REMARK SMILES IDX 6 24 10 25 7 26 9 27 8 28 28 29 29 30 30 31 31 32 32 33
REMARK SMILES IDX 33 34 34 35 35 36 36 37 97 38 37 39 96 40 38 41 39 42 40 43
REMARK SMILES IDX 90 44 41 45 95 46 89 47 91 48 42 49 94 50 88 51 87 52 43 54
REMARK SMILES IDX 75 55 55 56 74 57 56 58 59 59 73 60 92 61 57 62 58 63 72 65
REMARK SMILES IDX 93 66 60 67 44 68 45 69 53 70 46 71 47 72 51 73 54 74 48 75
REMARK SMILES IDX 49 76 52 77 50 78 76 79 77 80 85 81 78 82 79 83 83 84 86 85
REMARK SMILES IDX 80 86 81 87 84 88 82 89 61 90 62 91 70 92 63 93 64 94 68 95
REMARK SMILES IDX 71 96 65 97 66 98 69 99 67 100
REMARK H PARENT 11 20 91 53 59 64
REMARK Flexibility Score: inf
ROOT
ATOM      1  C   UNL A   1      32.623  27.964  22.863  1.00  0.00     0.261 C 
ENDROOT
BRANCH   1   2
ATOM      2  O   UNL A   1      32.215  26.662  22.405  1.00  0.00    -0.459 OA
BRANCH   2   3
ATOM      3  C   UNL A   1      32.975  25.601  22.801  1.00  0.00     0.352 C 
ATOM      4  O   UNL A   1      33.784  25.038  22.062  1.00  0.00    -0.245 OA
BRANCH   3   5
ATOM      5  C   UNL A   1      32.679  25.212  24.171  1.00  0.00     0.155 A 
ATOM      6  C   UNL A   1      33.510  24.932  25.246  1.00  0.00     0.152 A 
ATOM      7  C   UNL A   1      32.781  24.649  26.442  1.00  0.00     0.060 A 
ATOM      8  C   UNL A   1      31.423  24.604  26.217  1.00  0.00     0.070 A 
ATOM      9  S   UNL A   1      31.027  24.981  24.602  1.00  0.00    -0.133 S 
BRANCH   6  10
ATOM     10  O   UNL A   1      34.853  24.944  25.077  1.00  0.00    -0.453 OA
BRANCH  10  11
ATOM     11  C   UNL A   1      35.672  23.843  25.084  1.00  0.00     0.151 A 
ATOM     12  C   UNL A   1      35.470  22.618  24.422  1.00  0.00     0.084 A 
ATOM     13  C   UNL A   1      36.467  21.628  24.530  1.00  0.00     0.030 A 
ATOM     14  C   UNL A   1      37.659  21.863  25.218  1.00  0.00     0.002 A 
ATOM     15  C   UNL A   1      36.873  24.061  25.785  1.00  0.00     0.049 A 
ATOM     16  C   UNL A   1      37.864  23.082  25.848  1.00  0.00     0.004 A 
BRANCH  12  17
ATOM     17  N   UNL A   1      34.337  22.230  23.669  1.00  0.00    -0.323 N 
ATOM     18  O   UNL A   1      32.937  21.353  25.245  1.00  0.00    -0.275 OA
ATOM     19  C   UNL A   1      33.290  21.448  24.077  1.00  0.00     0.224 C 
ATOM     20  H   UNL A   1      34.297  22.560  22.743  1.00  0.00     0.170 HD
BRANCH  19  21
ATOM     21  C   UNL A   1      32.585  20.627  23.007  1.00  0.00     0.105 C 
BRANCH  21  22
ATOM     22  C   UNL A   1      31.812  19.402  23.472  1.00  0.00     0.045 C 
BRANCH  22  23
ATOM     23  C   UNL A   1      32.606  18.193  23.912  1.00  0.00    -0.048 A 
ATOM     24  C   UNL A   1      32.581  17.670  25.213  1.00  0.00     0.004 A 
ATOM     25  C   UNL A   1      33.435  17.577  22.964  1.00  0.00     0.004 A 
ATOM     26  C   UNL A   1      33.484  16.680  25.598  1.00  0.00     0.000 A 
ATOM     27  C   UNL A   1      34.302  16.549  23.337  1.00  0.00     0.000 A 
ATOM     28  C   UNL A   1      34.354  16.129  24.662  1.00  0.00     0.000 A 
ENDBRANCH  22  23
ENDBRANCH  21  22
ENDBRANCH  19  21
ENDBRANCH  12  17
ENDBRANCH  10  11
ENDBRANCH   6  10
ENDBRANCH   3   5
ENDBRANCH   2   3
ENDBRANCH   1   2
BRANCH   1  29
ATOM     29  C   UNL A   1      31.427  28.888  23.101  1.00  0.00     0.202 C 
BRANCH  29  30
ATOM     30  O   UNL A   1      31.090  29.138  24.466  1.00  0.00    -0.374 OA
BRANCH  30  31
ATOM     31  C   UNL A   1      32.171  29.611  25.276  1.00  0.00     0.202 C 
BRANCH  31  32
ATOM     32  C   UNL A   1      31.847  30.842  26.139  1.00  0.00     0.261 C 
BRANCH  32  33
ATOM     33  O   UNL A   1      32.619  30.864  27.356  1.00  0.00    -0.460 OA
BRANCH  33  34
ATOM     34  C   UNL A   1      33.415  31.943  27.511  1.00  0.00     0.338 C 
ATOM     35  O   UNL A   1      33.083  33.116  27.552  1.00  0.00    -0.246 OA
BRANCH  34  36
ATOM     36  C   UNL A   1      34.791  31.513  27.827  1.00  0.00     0.060 A 
ATOM     37  C   UNL A   1      35.002  30.136  27.981  1.00  0.00     0.016 A 
ATOM     38  C   UNL A   1      35.825  32.419  28.063  1.00  0.00     0.016 A 
ATOM     39  C   UNL A   1      36.228  29.664  28.443  1.00  0.00     0.010 A 
ATOM     40  C   UNL A   1      37.056  31.943  28.536  1.00  0.00     0.010 A 
ATOM     41  C   UNL A   1      37.245  30.569  28.772  1.00  0.00    -0.014 A 
BRANCH  41  42
ATOM     42  C   UNL A   1      38.427  30.077  29.526  1.00  0.00     0.031 A 
ATOM     43  C   UNL A   1      38.648  30.565  30.933  1.00  0.00     0.074 A 
ATOM     44  C   UNL A   1      39.254  29.159  28.997  1.00  0.00     0.049 A 
ATOM     45  N   UNL A   1      39.611  30.281  31.773  1.00  0.00    -0.248 NA
ATOM     46  C   UNL A   1      37.647  31.504  31.462  1.00  0.00     0.031 C 
ATOM     47  C   UNL A   1      39.117  28.567  27.670  1.00  0.00     0.029 A 
ATOM     48  N   UNL A   1      40.375  28.564  29.520  1.00  0.00    -0.354 N 
ATOM     49  C   UNL A   1      39.335  31.008  32.924  1.00  0.00     0.074 A 
ATOM     50  C   UNL A   1      38.138  31.776  32.662  1.00  0.00     0.031 C 
ATOM     51  C   UNL A   1      40.123  27.696  27.476  1.00  0.00     0.029 A 
ATOM     52  C   UNL A   1      40.990  27.695  28.654  1.00  0.00     0.049 A 
ATOM     53  H   UNL A   1      40.707  28.744  30.429  1.00  0.00     0.167 HD
ATOM     54  C   UNL A   1      40.012  31.025  34.098  1.00  0.00     0.037 A 
ATOM     55  C   UNL A   1      42.136  26.997  28.789  1.00  0.00     0.037 A 
ATOM     56  C   UNL A   1      41.203  30.258  34.358  1.00  0.00     0.049 A 
ATOM     57  C   UNL A   1      42.913  27.089  30.077  1.00  0.00     0.074 A 
ATOM     58  C   UNL A   1      41.957  30.201  35.518  1.00  0.00     0.029 A 
ATOM     59  N   UNL A   1      41.818  29.418  33.441  1.00  0.00    -0.354 N 
ATOM     60  N   UNL A   1      42.642  27.770  31.163  1.00  0.00    -0.248 NA
ATOM     61  C   UNL A   1      44.154  26.305  30.157  1.00  0.00     0.031 C 
ATOM     62  C   UNL A   1      43.061  29.375  35.282  1.00  0.00     0.029 A 
ATOM     63  C   UNL A   1      42.957  28.860  33.999  1.00  0.00     0.049 A 
ATOM     64  H   UNL A   1      41.492  29.243  32.529  1.00  0.00     0.167 HD
ATOM     65  C   UNL A   1      43.655  27.472  32.067  1.00  0.00     0.074 A 
ATOM     66  C   UNL A   1      44.542  26.541  31.403  1.00  0.00     0.031 C 
ATOM     67  C   UNL A   1      43.830  27.926  33.333  1.00  0.00     0.037 A 
BRANCH  54  68
ATOM     68  C   UNL A   1      39.496  31.931  35.180  1.00  0.00     0.064 A 
ATOM     69  C   UNL A   1      39.805  33.301  35.213  1.00  0.00     0.173 A 
ATOM     70  C   UNL A   1      38.664  31.425  36.191  1.00  0.00     0.173 A 
ATOM     71  F   UNL A   1      40.606  33.835  34.278  1.00  0.00    -0.203 F 
ATOM     72  C   UNL A   1      39.331  34.119  36.235  1.00  0.00     0.198 A 
ATOM     73  C   UNL A   1      38.164  32.254  37.192  1.00  0.00     0.198 A 
ATOM     74  F   UNL A   1      38.332  30.126  36.206  1.00  0.00    -0.203 F 
ATOM     75  F   UNL A   1      39.688  35.410  36.278  1.00  0.00    -0.200 F 
ATOM     76  C   UNL A   1      38.506  33.597  37.219  1.00  0.00     0.200 A 
ATOM     77  F   UNL A   1      37.354  31.750  38.133  1.00  0.00    -0.200 F 
ATOM     78  F   UNL A   1      38.047  34.386  38.200  1.00  0.00    -0.200 F 
ENDBRANCH  54  68
BRANCH  55  79
ATOM     79  C   UNL A   1      42.622  26.156  27.663  1.00  0.00     0.064 A 
ATOM     80  C   UNL A   1      42.140  24.855  27.465  1.00  0.00     0.173 A 
ATOM     81  C   UNL A   1      43.590  26.635  26.767  1.00  0.00     0.173 A 
ATOM     82  F   UNL A   1      41.234  24.341  28.311  1.00  0.00    -0.203 F 
ATOM     83  C   UNL A   1      42.618  24.060  26.425  1.00  0.00     0.198 A 
ATOM     84  C   UNL A   1      44.044  25.852  25.709  1.00  0.00     0.198 A 
ATOM     85  F   UNL A   1      44.086  27.873  26.914  1.00  0.00    -0.203 F 
ATOM     86  F   UNL A   1      42.175  22.803  26.288  1.00  0.00    -0.200 F 
ATOM     87  C   UNL A   1      43.564  24.562  25.544  1.00  0.00     0.200 A 
ATOM     88  F   UNL A   1      44.948  26.346  24.853  1.00  0.00    -0.200 F 
ATOM     89  F   UNL A   1      44.019  23.800  24.540  1.00  0.00    -0.200 F 
ENDBRANCH  55  79
BRANCH  67  90
ATOM     90  C   UNL A   1      45.000  27.385  34.108  1.00  0.00     0.064 A 
ATOM     91  C   UNL A   1      46.269  27.981  34.055  1.00  0.00     0.173 A 
ATOM     92  C   UNL A   1      44.836  26.272  34.949  1.00  0.00     0.173 A 
ATOM     93  F   UNL A   1      46.483  29.040  33.260  1.00  0.00    -0.203 F 
ATOM     94  C   UNL A   1      47.335  27.466  34.788  1.00  0.00     0.198 A 
ATOM     95  C   UNL A   1      45.895  25.780  35.707  1.00  0.00     0.198 A 
ATOM     96  F   UNL A   1      43.642  25.667  35.047  1.00  0.00    -0.203 F 
ATOM     97  F   UNL A   1      48.550  28.018  34.678  1.00  0.00    -0.200 F 
ATOM     98  C   UNL A   1      47.145  26.370  35.619  1.00  0.00     0.200 A 
ATOM     99  F   UNL A   1      45.704  24.734  36.523  1.00  0.00    -0.200 F 
ATOM    100  F   UNL A   1      48.171  25.881  36.329  1.00  0.00    -0.200 F 
ENDBRANCH  67  90
ENDBRANCH  41  42
ENDBRANCH  34  36
ENDBRANCH  33  34
ENDBRANCH  32  33
ENDBRANCH  31  32
ENDBRANCH  30  31
ENDBRANCH  29  30
ENDBRANCH   1  29
TORSDOF 20
ENDMDL
MODEL 2
REMARK VINA RESULT:     -11.8      1.044      3.032
REMARK SMILES O=C(CCc1ccccc1)Nc1ccccc1Oc1ccsc1C(=O)OCCOCCOC(=O)c1ccc(-c2c3nc(c(-c4c(F)c(F)c(F)c(F)c4F)c4ccc([nH]4)c(-c4c(F)c(F)c(F)c(F)c4F)c4nc(c(-c5c(F)c(F)c(F)c(F)c5F)c5ccc2[nH]5)C=C4)C=C3)cc1
REMARK SMILES IDX 27 1 26 2 24 3 25 4 23 5 19 6 20 7 21 8 22 9 18 10 17 11
REMARK SMILES IDX 12 12 13 13 14 14 16 15 15 16 11 17 1 18 2 19 3 21 4 22 5 23
REMARK SMILES IDX 6 24 10 25 7 26 9 27 8 28 28 29 29 30 30 31 31 32 32 33
REMARK SMILES IDX 33 34 34 35 35 36 36 37 97 38 37 39 96 40 38 41 39 42 40 43
REMARK SMILES IDX 90 44 41 45 95 46 89 47 91 48 42 49 94 50 88 51 87 52 43 54
REMARK SMILES IDX 75 55 55 56 74 57 56 58 59 59 73 60 92 61 57 62 58 63 72 65
REMARK SMILES IDX 93 66 60 67 44 68 45 69 53 70 46 71 47 72 51 73 54 74 48 75
REMARK SMILES IDX 49 76 52 77 50 78 76 79 77 80 85 81 78 82 79 83 83 84 86 85
REMARK SMILES IDX 80 86 81 87 84 88 82 89 61 90 62 91 70 92 63 93 64 94 68 95
REMARK SMILES IDX 71 96 65 97 66 98 69 99 67 100
REMARK H PARENT 11 20 91 53 59 64
REMARK Flexibility Score: inf
ROOT
ATOM      1  C   UNL A   1      33.133  27.072  23.714  1.00  0.00     0.261 C 
ENDROOT
BRANCH   1   2
ATOM      2  O   UNL A   1      32.269  25.940  23.508  1.00  0.00    -0.459 OA
BRANCH   2   3
ATOM      3  C   UNL A   1      32.808  24.705  23.714  1.00  0.00     0.352 C 
ATOM      4  O   UNL A   1      33.832  24.313  23.152  1.00  0.00    -0.245 OA
BRANCH   3   5
ATOM      5  C   UNL A   1      32.007  23.919  24.639  1.00  0.00     0.155 A 
ATOM      6  C   UNL A   1      31.705  22.564  24.672  1.00  0.00     0.152 A 
ATOM      7  C   UNL A   1      30.924  22.205  25.812  1.00  0.00     0.060 A 
ATOM      8  C   UNL A   1      30.552  23.308  26.549  1.00  0.00     0.070 A 
ATOM      9  S   UNL A   1      31.209  24.750  25.919  1.00  0.00    -0.133 S 
BRANCH   6  10
ATOM     10  O   UNL A   1      32.145  21.755  23.680  1.00  0.00    -0.453 OA
BRANCH  10  11
ATOM     11  C   UNL A   1      32.810  20.567  23.850  1.00  0.00     0.151 A 
ATOM     12  C   UNL A   1      33.997  20.342  24.573  1.00  0.00     0.084 A 
ATOM     13  C   UNL A   1      34.489  19.025  24.655  1.00  0.00     0.030 A 
ATOM     14  C   UNL A   1      33.794  17.948  24.099  1.00  0.00     0.002 A 
ATOM     15  C   UNL A   1      32.128  19.474  23.283  1.00  0.00     0.049 A 
ATOM     16  C   UNL A   1      32.612  18.172  23.410  1.00  0.00     0.004 A 
BRANCH  12  17
ATOM     17  N   UNL A   1      34.804  21.311  25.212  1.00  0.00    -0.323 N 
ATOM     18  O   UNL A   1      34.000  21.334  27.349  1.00  0.00    -0.275 OA
ATOM     19  C   UNL A   1      34.609  21.884  26.440  1.00  0.00     0.224 C 
ATOM     20  H   UNL A   1      35.600  21.610  24.716  1.00  0.00     0.170 HD
BRANCH  19  21
ATOM     21  C   UNL A   1      35.140  23.297  26.635  1.00  0.00     0.105 C 
BRANCH  21  22
ATOM     22  C   UNL A   1      36.248  23.755  25.698  1.00  0.00     0.045 C 
BRANCH  22  23
ATOM     23  C   UNL A   1      37.666  23.355  26.037  1.00  0.00    -0.048 A 
ATOM     24  C   UNL A   1      38.217  22.101  25.741  1.00  0.00     0.004 A 
ATOM     25  C   UNL A   1      38.465  24.291  26.708  1.00  0.00     0.004 A 
ATOM     26  C   UNL A   1      39.460  21.732  26.255  1.00  0.00     0.000 A 
ATOM     27  C   UNL A   1      39.731  23.940  27.177  1.00  0.00     0.000 A 
ATOM     28  C   UNL A   1      40.211  22.648  26.984  1.00  0.00     0.000 A 
ENDBRANCH  22  23
ENDBRANCH  21  22
ENDBRANCH  19  21
ENDBRANCH  12  17
ENDBRANCH  10  11
ENDBRANCH   6  10
ENDBRANCH   3   5
ENDBRANCH   2   3
ENDBRANCH   1   2
BRANCH   1  29
ATOM     29  C   UNL A   1      32.358  28.392  23.713  1.00  0.00     0.202 C 
BRANCH  29  30
ATOM     30  O   UNL A   1      31.572  28.658  24.875  1.00  0.00    -0.374 OA
BRANCH  30  31
ATOM     31  C   UNL A   1      31.410  30.045  25.186  1.00  0.00     0.202 C 
BRANCH  31  32
ATOM     32  C   UNL A   1      31.862  30.452  26.599  1.00  0.00     0.261 C 
BRANCH  32  33
ATOM     33  O   UNL A   1      33.294  30.373  26.749  1.00  0.00    -0.460 OA
BRANCH  33  34
ATOM     34  C   UNL A   1      33.856  31.391  27.435  1.00  0.00     0.338 C 
ATOM     35  O   UNL A   1      33.313  32.404  27.846  1.00  0.00    -0.246 OA
BRANCH  34  36
ATOM     36  C   UNL A   1      35.238  31.041  27.816  1.00  0.00     0.060 A 
ATOM     37  C   UNL A   1      35.515  29.680  28.005  1.00  0.00     0.016 A 
ATOM     38  C   UNL A   1      36.213  32.005  28.075  1.00  0.00     0.016 A 
ATOM     39  C   UNL A   1      36.743  29.282  28.525  1.00  0.00     0.010 A 
ATOM     40  C   UNL A   1      37.446  31.603  28.606  1.00  0.00     0.010 A 
ATOM     41  C   UNL A   1      37.696  30.245  28.877  1.00  0.00    -0.014 A 
BRANCH  41  42
ATOM     42  C   UNL A   1      38.870  29.830  29.688  1.00  0.00     0.031 A 
ATOM     43  C   UNL A   1      39.020  30.372  31.084  1.00  0.00     0.074 A 
ATOM     44  C   UNL A   1      39.754  28.933  29.220  1.00  0.00     0.049 A 
ATOM     45  N   UNL A   1      39.963  30.158  31.966  1.00  0.00    -0.248 NA
ATOM     46  C   UNL A   1      37.960  31.283  31.547  1.00  0.00     0.031 C 
ATOM     47  C   UNL A   1      39.692  28.293  27.909  1.00  0.00     0.029 A 
ATOM     48  N   UNL A   1      40.881  28.404  29.801  1.00  0.00    -0.354 N 
ATOM     49  C   UNL A   1      39.614  30.909  33.082  1.00  0.00     0.074 A 
ATOM     50  C   UNL A   1      38.395  31.615  32.753  1.00  0.00     0.031 C 
ATOM     51  C   UNL A   1      40.740  27.461  27.780  1.00  0.00     0.029 A 
ATOM     52  C   UNL A   1      41.563  27.537  28.986  1.00  0.00     0.049 A 
ATOM     53  H   UNL A   1      41.171  28.628  30.714  1.00  0.00     0.167 HD
ATOM     54  C   UNL A   1      40.247  30.993  34.278  1.00  0.00     0.037 A 
ATOM     55  C   UNL A   1      42.732  26.894  29.184  1.00  0.00     0.037 A 
ATOM     56  C   UNL A   1      41.459  30.288  34.605  1.00  0.00     0.049 A 
ATOM     57  C   UNL A   1      43.457  27.061  30.494  1.00  0.00     0.074 A 
ATOM     58  C   UNL A   1      42.173  30.301  35.792  1.00  0.00     0.029 A 
ATOM     59  N   UNL A   1      42.142  29.447  33.738  1.00  0.00    -0.354 N 
ATOM     60  N   UNL A   1      43.118  27.764  31.547  1.00  0.00    -0.248 NA
ATOM     61  C   UNL A   1      44.727  26.336  30.644  1.00  0.00     0.031 C 
ATOM     62  C   UNL A   1      43.319  29.517  35.622  1.00  0.00     0.029 A 
ATOM     63  C   UNL A   1      43.283  28.957  34.355  1.00  0.00     0.049 A 
ATOM     64  H   UNL A   1      41.858  29.229  32.822  1.00  0.00     0.167 HD
ATOM     65  C   UNL A   1      44.110  27.540  32.496  1.00  0.00     0.074 A 
ATOM     66  C   UNL A   1      45.059  26.628  31.895  1.00  0.00     0.031 C 
ATOM     67  C   UNL A   1      44.219  28.042  33.751  1.00  0.00     0.037 A 
BRANCH  54  68
ATOM     68  C   UNL A   1      39.654  31.910  35.310  1.00  0.00     0.064 A 
ATOM     69  C   UNL A   1      39.961  33.279  35.352  1.00  0.00     0.173 A 
ATOM     70  C   UNL A   1      38.749  31.414  36.262  1.00  0.00     0.173 A 
ATOM     71  F   UNL A   1      40.829  33.804  34.474  1.00  0.00    -0.203 F 
ATOM     72  C   UNL A   1      39.414  34.108  36.329  1.00  0.00     0.198 A 
ATOM     73  C   UNL A   1      38.177  32.253  37.215  1.00  0.00     0.198 A 
ATOM     74  F   UNL A   1      38.415  30.115  36.265  1.00  0.00    -0.203 F 
ATOM     75  F   UNL A   1      39.768  35.399  36.386  1.00  0.00    -0.200 F 
ATOM     76  C   UNL A   1      38.518  33.596  37.255  1.00  0.00     0.200 A 
ATOM     77  F   UNL A   1      37.300  31.758  38.099  1.00  0.00    -0.200 F 
ATOM     78  F   UNL A   1      37.989  34.394  38.192  1.00  0.00    -0.200 F 
ENDBRANCH  54  68
BRANCH  55  79
ATOM     79  C   UNL A   1      43.294  26.039  28.105  1.00  0.00     0.064 A 
ATOM     80  C   UNL A   1      43.981  26.597  27.018  1.00  0.00     0.173 A 
ATOM     81  C   UNL A   1      43.145  24.644  28.136  1.00  0.00     0.173 A 
ATOM     82  F   UNL A   1      44.126  27.927  26.929  1.00  0.00    -0.203 F 
ATOM     83  C   UNL A   1      44.483  25.794  25.996  1.00  0.00     0.198 A 
ATOM     84  C   UNL A   1      43.675  23.840  27.130  1.00  0.00     0.198 A 
ATOM     85  F   UNL A   1      42.494  24.060  29.153  1.00  0.00    -0.203 F 
ATOM     86  F   UNL A   1      45.094  26.357  24.944  1.00  0.00    -0.200 F 
ATOM     87  C   UNL A   1      44.336  24.416  26.056  1.00  0.00     0.200 A 
ATOM     88  F   UNL A   1      43.543  22.509  27.199  1.00  0.00    -0.200 F 
ATOM     89  F   UNL A   1      44.825  23.644  25.076  1.00  0.00    -0.200 F 
ENDBRANCH  55  79
BRANCH  67  90
ATOM     90  C   UNL A   1      45.382  27.578  34.584  1.00  0.00     0.064 A 
ATOM     91  C   UNL A   1      46.618  28.240  34.572  1.00  0.00     0.173 A 
ATOM     92  C   UNL A   1      45.242  26.472  35.438  1.00  0.00     0.173 A 
ATOM     93  F   UNL A   1      46.810  29.296  33.766  1.00  0.00    -0.203 F 
ATOM     94  C   UNL A   1      47.679  27.796  35.359  1.00  0.00     0.198 A 
ATOM     95  C   UNL A   1      46.293  26.051  36.249  1.00  0.00     0.198 A 
ATOM     96  F   UNL A   1      44.079  25.805  35.498  1.00  0.00    -0.203 F 
ATOM     97  F   UNL A   1      48.866  28.412  35.288  1.00  0.00    -0.200 F 
ATOM     98  C   UNL A   1      47.513  26.706  36.201  1.00  0.00     0.200 A 
ATOM     99  F   UNL A   1      46.124  25.010  37.076  1.00  0.00    -0.200 F 
ATOM    100  F   UNL A   1      48.532  26.285  36.962  1.00  0.00    -0.200 F 
ENDBRANCH  67  90
ENDBRANCH  41  42
ENDBRANCH  34  36
ENDBRANCH  33  34
ENDBRANCH  32  33
ENDBRANCH  31  32
ENDBRANCH  30  31
ENDBRANCH  29  30
ENDBRANCH   1  29
TORSDOF 20
ENDMDL
MODEL 3
REMARK VINA RESULT:     -11.3      2.083      2.787
REMARK SMILES O=C(CCc1ccccc1)Nc1ccccc1Oc1ccsc1C(=O)OCCOCCOC(=O)c1ccc(-c2c3nc(c(-c4c(F)c(F)c(F)c(F)c4F)c4ccc([nH]4)c(-c4c(F)c(F)c(F)c(F)c4F)c4nc(c(-c5c(F)c(F)c(F)c(F)c5F)c5ccc2[nH]5)C=C4)C=C3)cc1
REMARK SMILES IDX 27 1 26 2 24 3 25 4 23 5 19 6 20 7 21 8 22 9 18 10 17 11
REMARK SMILES IDX 12 12 13 13 14 14 16 15 15 16 11 17 1 18 2 19 3 21 4 22 5 23
REMARK SMILES IDX 6 24 10 25 7 26 9 27 8 28 28 29 29 30 30 31 31 32 32 33
REMARK SMILES IDX 33 34 34 35 35 36 36 37 97 38 37 39 96 40 38 41 39 42 40 43
REMARK SMILES IDX 90 44 41 45 95 46 89 47 91 48 42 49 94 50 88 51 87 52 43 54
REMARK SMILES IDX 75 55 55 56 74 57 56 58 59 59 73 60 92 61 57 62 58 63 72 65
REMARK SMILES IDX 93 66 60 67 44 68 45 69 53 70 46 71 47 72 51 73 54 74 48 75
REMARK SMILES IDX 49 76 52 77 50 78 76 79 77 80 85 81 78 82 79 83 83 84 86 85
REMARK SMILES IDX 80 86 81 87 84 88 82 89 61 90 62 91 70 92 63 93 64 94 68 95
REMARK SMILES IDX 71 96 65 97 66 98 69 99 67 100
REMARK H PARENT 11 20 91 53 59 64
REMARK Flexibility Score: inf
ROOT
ATOM      1  C   UNL A   1      32.485  28.336  23.003  1.00  0.00     0.261 C 
ENDROOT
BRANCH   1   2
ATOM      2  O   UNL A   1      32.217  27.037  22.444  1.00  0.00    -0.459 OA
BRANCH   2   3
ATOM      3  C   UNL A   1      33.058  26.025  22.801  1.00  0.00     0.352 C 
ATOM      4  O   UNL A   1      33.958  25.605  22.072  1.00  0.00    -0.245 OA
BRANCH   3   5
ATOM      5  C   UNL A   1      32.731  25.497  24.117  1.00  0.00     0.155 A 
ATOM      6  C   UNL A   1      33.538  25.059  25.158  1.00  0.00     0.152 A 
ATOM      7  C   UNL A   1      32.785  24.677  26.310  1.00  0.00     0.060 A 
ATOM      8  C   UNL A   1      31.429  24.721  26.076  1.00  0.00     0.070 A 
ATOM      9  S   UNL A   1      31.067  25.297  24.512  1.00  0.00    -0.133 S 
BRANCH   6  10
ATOM     10  O   UNL A   1      34.882  25.027  24.997  1.00  0.00    -0.453 OA
BRANCH  10  11
ATOM     11  C   UNL A   1      35.668  23.903  25.040  1.00  0.00     0.151 A 
ATOM     12  C   UNL A   1      35.430  22.664  24.416  1.00  0.00     0.084 A 
ATOM     13  C   UNL A   1      36.397  21.649  24.557  1.00  0.00     0.030 A 
ATOM     14  C   UNL A   1      37.597  21.871  25.238  1.00  0.00     0.002 A 
ATOM     15  C   UNL A   1      36.875  24.108  25.734  1.00  0.00     0.049 A 
ATOM     16  C   UNL A   1      37.836  23.103  25.830  1.00  0.00     0.004 A 
BRANCH  12  17
ATOM     17  N   UNL A   1      34.287  22.286  23.674  1.00  0.00    -0.323 N 
ATOM     18  O   UNL A   1      32.925  21.352  25.252  1.00  0.00    -0.275 OA
ATOM     19  C   UNL A   1      33.255  21.483  24.080  1.00  0.00     0.224 C 
ATOM     20  H   UNL A   1      34.226  22.641  22.759  1.00  0.00     0.170 HD
BRANCH  19  21
ATOM     21  C   UNL A   1      32.537  20.684  23.002  1.00  0.00     0.105 C 
BRANCH  21  22
ATOM     22  C   UNL A   1      31.826  19.413  23.440  1.00  0.00     0.045 C 
BRANCH  22  23
ATOM     23  C   UNL A   1      32.677  18.257  23.914  1.00  0.00    -0.048 A 
ATOM     24  C   UNL A   1      33.601  17.582  23.104  1.00  0.00     0.004 A 
ATOM     25  C   UNL A   1      32.511  17.824  25.237  1.00  0.00     0.004 A 
ATOM     26  C   UNL A   1      34.206  16.405  23.547  1.00  0.00     0.000 A 
ATOM     27  C   UNL A   1      33.156  16.677  25.697  1.00  0.00     0.000 A 
ATOM     28  C   UNL A   1      33.972  15.946  24.839  1.00  0.00     0.000 A 
ENDBRANCH  22  23
ENDBRANCH  21  22
ENDBRANCH  19  21
ENDBRANCH  12  17
ENDBRANCH  10  11
ENDBRANCH   6  10
ENDBRANCH   3   5
ENDBRANCH   2   3
ENDBRANCH   1   2
BRANCH   1  29
ATOM     29  C   UNL A   1      31.211  29.014  23.514  1.00  0.00     0.202 C 
BRANCH  29  30
ATOM     30  O   UNL A   1      31.220  29.414  24.884  1.00  0.00    -0.374 OA
BRANCH  30  31
ATOM     31  C   UNL A   1      32.522  29.589  25.451  1.00  0.00     0.202 C 
BRANCH  31  32
ATOM     32  C   UNL A   1      32.611  30.643  26.567  1.00  0.00     0.261 C 
BRANCH  32  33
ATOM     33  O   UNL A   1      33.393  30.178  27.685  1.00  0.00    -0.460 OA
BRANCH  33  34
ATOM     34  C   UNL A   1      34.371  31.018  28.089  1.00  0.00     0.338 C 
ATOM     35  O   UNL A   1      34.259  32.179  28.445  1.00  0.00    -0.246 OA
BRANCH  34  36
ATOM     36  C   UNL A   1      35.641  30.279  28.234  1.00  0.00     0.060 A 
ATOM     37  C   UNL A   1      35.899  29.708  29.488  1.00  0.00     0.016 A 
ATOM     38  C   UNL A   1      36.596  30.221  27.219  1.00  0.00     0.016 A 
ATOM     39  C   UNL A   1      37.142  29.142  29.755  1.00  0.00     0.010 A 
ATOM     40  C   UNL A   1      37.850  29.658  27.492  1.00  0.00     0.010 A 
ATOM     41  C   UNL A   1      38.143  29.161  28.776  1.00  0.00    -0.014 A 
BRANCH  41  42
ATOM     42  C   UNL A   1      39.536  28.820  29.166  1.00  0.00     0.031 A 
ATOM     43  C   UNL A   1      40.284  29.751  30.082  1.00  0.00     0.074 A 
ATOM     44  C   UNL A   1      40.105  27.669  28.769  1.00  0.00     0.049 A 
ATOM     45  N   UNL A   1      41.505  29.663  30.545  1.00  0.00    -0.248 NA
ATOM     46  C   UNL A   1      39.554  30.946  30.536  1.00  0.00     0.031 C 
ATOM     47  C   UNL A   1      39.468  26.659  27.928  1.00  0.00     0.029 A 
ATOM     48  N   UNL A   1      41.353  27.157  29.026  1.00  0.00    -0.354 N 
ATOM     49  C   UNL A   1      41.691  30.789  31.337  1.00  0.00     0.074 A 
ATOM     50  C   UNL A   1      40.473  31.565  31.261  1.00  0.00     0.031 C 
ATOM     51  C   UNL A   1      40.332  25.649  27.731  1.00  0.00     0.029 A 
ATOM     52  C   UNL A   1      41.593  25.958  28.404  1.00  0.00     0.049 A 
ATOM     53  H   UNL A   1      42.012  27.608  29.601  1.00  0.00     0.167 HD
ATOM     54  C   UNL A   1      42.775  31.138  32.071  1.00  0.00     0.037 A 
ATOM     55  C   UNL A   1      42.712  25.207  28.365  1.00  0.00     0.037 A 
ATOM     56  C   UNL A   1      43.987  30.364  32.148  1.00  0.00     0.049 A 
ATOM     57  C   UNL A   1      43.932  25.654  29.129  1.00  0.00     0.074 A 
ATOM     58  C   UNL A   1      45.138  30.630  32.870  1.00  0.00     0.029 A 
ATOM     59  N   UNL A   1      44.206  29.172  31.471  1.00  0.00    -0.354 N 
ATOM     60  N   UNL A   1      44.098  26.713  29.882  1.00  0.00    -0.248 NA
ATOM     61  C   UNL A   1      45.120  24.791  29.042  1.00  0.00     0.031 C 
ATOM     62  C   UNL A   1      46.075  29.632  32.583  1.00  0.00     0.029 A 
ATOM     63  C   UNL A   1      45.484  28.705  31.738  1.00  0.00     0.049 A 
ATOM     64  H   UNL A   1      43.552  28.725  30.890  1.00  0.00     0.167 HD
ATOM     65  C   UNL A   1      45.391  26.628  30.387  1.00  0.00     0.074 A 
ATOM     66  C   UNL A   1      45.962  25.408  29.859  1.00  0.00     0.031 C 
ATOM     67  C   UNL A   1      46.042  27.483  31.215  1.00  0.00     0.037 A 
BRANCH  54  68
ATOM     68  C   UNL A   1      42.710  32.437  32.825  1.00  0.00     0.064 A 
ATOM     69  C   UNL A   1      43.079  33.658  32.235  1.00  0.00     0.173 A 
ATOM     70  C   UNL A   1      42.254  32.465  34.151  1.00  0.00     0.173 A 
ATOM     71  F   UNL A   1      43.534  33.688  30.973  1.00  0.00    -0.203 F 
ATOM     72  C   UNL A   1      43.028  34.848  32.957  1.00  0.00     0.198 A 
ATOM     73  C   UNL A   1      42.171  33.661  34.859  1.00  0.00     0.198 A 
ATOM     74  F   UNL A   1      41.883  31.330  34.763  1.00  0.00    -0.203 F 
ATOM     75  F   UNL A   1      43.441  35.990  32.393  1.00  0.00    -0.200 F 
ATOM     76  C   UNL A   1      42.569  34.849  34.265  1.00  0.00     0.200 A 
ATOM     77  F   UNL A   1      41.712  33.663  36.118  1.00  0.00    -0.200 F 
ATOM     78  F   UNL A   1      42.516  35.995  34.958  1.00  0.00    -0.200 F 
ENDBRANCH  54  68
BRANCH  55  79
ATOM     79  C   UNL A   1      42.732  23.957  27.561  1.00  0.00     0.064 A 
ATOM     80  C   UNL A   1      42.418  22.717  28.135  1.00  0.00     0.173 A 
ATOM     81  C   UNL A   1      43.077  23.976  26.201  1.00  0.00     0.173 A 
ATOM     82  F   UNL A   1      42.109  22.642  29.438  1.00  0.00    -0.203 F 
ATOM     83  C   UNL A   1      42.465  21.544  27.384  1.00  0.00     0.198 A 
ATOM     84  C   UNL A   1      43.091  22.807  25.444  1.00  0.00     0.198 A 
ATOM     85  F   UNL A   1      43.388  25.136  25.603  1.00  0.00    -0.203 F 
ATOM     86  F   UNL A   1      42.207  20.366  27.970  1.00  0.00    -0.200 F 
ATOM     87  C   UNL A   1      42.793  21.591  26.038  1.00  0.00     0.200 A 
ATOM     88  F   UNL A   1      43.397  22.860  24.140  1.00  0.00    -0.200 F 
ATOM     89  F   UNL A   1      42.831  20.464  25.315  1.00  0.00    -0.200 F 
ENDBRANCH  55  79
BRANCH  67  90
ATOM     90  C   UNL A   1      47.433  27.107  31.646  1.00  0.00     0.064 A 
ATOM     91  C   UNL A   1      48.571  27.532  30.945  1.00  0.00     0.173 A 
ATOM     92  C   UNL A   1      47.628  26.337  32.805  1.00  0.00     0.173 A 
ATOM     93  F   UNL A   1      48.440  28.260  29.825  1.00  0.00    -0.203 F 
ATOM     94  C   UNL A   1      49.849  27.176  31.369  1.00  0.00     0.198 A 
ATOM     95  C   UNL A   1      48.909  26.012  33.245  1.00  0.00     0.198 A 
ATOM     96  F   UNL A   1      46.576  25.911  33.520  1.00  0.00    -0.203 F 
ATOM     97  F   UNL A   1      50.918  27.548  30.651  1.00  0.00    -0.200 F 
ATOM     98  C   UNL A   1      50.017  26.423  32.522  1.00  0.00     0.200 A 
ATOM     99  F   UNL A   1      49.069  25.301  34.369  1.00  0.00    -0.200 F 
ATOM    100  F   UNL A   1      51.248  26.088  32.931  1.00  0.00    -0.200 F 
ENDBRANCH  67  90
ENDBRANCH  41  42
ENDBRANCH  34  36
ENDBRANCH  33  34
ENDBRANCH  32  33
ENDBRANCH  31  32
ENDBRANCH  30  31
ENDBRANCH  29  30
ENDBRANCH   1  29
TORSDOF 20
ENDMDL
