MODEL 1
REMARK VINA RESULT:      -9.4      0.000      0.000
REMARK SMILES CCCCC[NH2+][C@](C)(C(=O)OCCOCCOC(=O)c1ccc(-c2c3nc(c(-c4c(F)c(F)c(F)c(F)c4F)c4ccc([nH]4)c(-c4c(F)c(F)c(F)c(F)c4F)c4nc(c(-c5c(F)c(F)c(F)c(F)c5F)c5ccc2[nH]5)C=C4)C=C3)cc1)C(F)(F)F
REMARK SMILES IDX 12 1 11 2 9 3 10 4 7 5 8 6 6 7 5 10 4 11 3 12 2 13 1 14
REMARK SMILES IDX 83 15 84 16 85 17 86 18 13 19 14 20 15 21 16 22 17 23 18 24
REMARK SMILES IDX 19 25 20 26 21 27 82 28 22 29 81 30 23 31 24 32 25 33 75 34
REMARK SMILES IDX 26 35 80 36 74 37 76 38 27 39 79 40 73 41 72 42 28 44 60 45
REMARK SMILES IDX 40 46 59 47 41 48 44 49 58 50 77 51 42 52 43 53 57 55 78 56
REMARK SMILES IDX 45 57 29 58 30 59 38 60 31 61 32 62 36 63 39 64 33 65 34 66
REMARK SMILES IDX 37 67 35 68 61 69 62 70 70 71 63 72 64 73 68 74 71 75 65 76
REMARK SMILES IDX 66 77 69 78 67 79 46 80 47 81 55 82 48 83 49 84 53 85 56 86
REMARK SMILES IDX 50 87 51 88 54 89 52 90
REMARK H PARENT 6 8 6 9 76 43 44 54
REMARK Flexibility Score: inf
ROOT
ATOM      1  C   UNL A   1      34.005  34.567  29.182  1.00  0.00     0.261 C 
ENDROOT
BRANCH   1   2
ATOM      2  O   UNL A   1      33.223  34.576  30.389  1.00  0.00    -0.458 OA
BRANCH   2   3
ATOM      3  C   UNL A   1      32.903  35.806  30.897  1.00  0.00     0.377 C 
ATOM      4  O   UNL A   1      32.849  36.824  30.219  1.00  0.00    -0.244 OA
BRANCH   3   5
ATOM      5  C   UNL A   1      32.727  35.755  32.424  1.00  0.00     0.287 C 
ATOM      6  C   UNL A   1      31.293  36.099  32.888  1.00  0.00     0.103 C 
BRANCH   5   7
ATOM      7  N   UNL A   1      33.076  34.391  32.970  1.00  0.00    -0.325 N 
ATOM      8  H   UNL A   1      32.391  34.148  33.686  1.00  0.00     0.347 HD
ATOM      9  H   UNL A   1      33.067  33.746  32.180  1.00  0.00     0.347 HD
BRANCH   7  10
ATOM     10  C   UNL A   1      34.410  34.310  33.564  1.00  0.00     0.261 C 
BRANCH  10  11
ATOM     11  C   UNL A   1      35.204  33.102  33.063  1.00  0.00     0.061 C 
BRANCH  11  12
ATOM     12  C   UNL A   1      36.483  33.441  32.288  1.00  0.00     0.006 C 
BRANCH  12  13
ATOM     13  C   UNL A   1      37.362  34.541  32.895  1.00  0.00    -0.003 C 
ATOM     14  C   UNL A   1      38.072  34.132  34.176  1.00  0.00     0.004 C 
ENDBRANCH  12  13
ENDBRANCH  11  12
ENDBRANCH  10  11
ENDBRANCH   7  10
ENDBRANCH   5   7
BRANCH   5  15
ATOM     15  C   UNL A   1      33.650  36.896  32.923  1.00  0.00     0.455 C 
ATOM     16  F   UNL A   1      34.930  36.711  32.512  1.00  0.00    -0.164 F 
ATOM     17  F   UNL A   1      33.253  38.088  32.400  1.00  0.00    -0.164 F 
ATOM     18  F   UNL A   1      33.663  37.049  34.262  1.00  0.00    -0.164 F 
ENDBRANCH   5  15
ENDBRANCH   3   5
ENDBRANCH   2   3
ENDBRANCH   1   2
BRANCH   1  19
ATOM     19  C   UNL A   1      33.173  34.098  27.986  1.00  0.00     0.202 C 
BRANCH  19  20
ATOM     20  O   UNL A   1      33.258  32.710  27.670  1.00  0.00    -0.374 OA
BRANCH  20  21
ATOM     21  C   UNL A   1      32.199  32.137  26.905  1.00  0.00     0.202 C 
BRANCH  21  22
ATOM     22  C   UNL A   1      32.206  30.610  26.777  1.00  0.00     0.261 C 
BRANCH  22  23
ATOM     23  O   UNL A   1      33.194  29.990  27.623  1.00  0.00    -0.460 OA
BRANCH  23  24
ATOM     24  C   UNL A   1      34.274  29.518  26.960  1.00  0.00     0.338 C 
ATOM     25  O   UNL A   1      34.312  29.095  25.812  1.00  0.00    -0.246 OA
BRANCH  24  26
ATOM     26  C   UNL A   1      35.508  29.697  27.747  1.00  0.00     0.060 A 
ATOM     27  C   UNL A   1      36.693  29.898  27.028  1.00  0.00     0.016 A 
ATOM     28  C   UNL A   1      35.541  29.509  29.131  1.00  0.00     0.016 A 
ATOM     29  C   UNL A   1      37.922  29.822  27.675  1.00  0.00     0.010 A 
ATOM     30  C   UNL A   1      36.779  29.428  29.781  1.00  0.00     0.010 A 
ATOM     31  C   UNL A   1      37.975  29.525  29.043  1.00  0.00    -0.014 A 
BRANCH  31  32
ATOM     32  C   UNL A   1      39.276  29.103  29.620  1.00  0.00     0.031 A 
ATOM     33  C   UNL A   1      39.768  29.782  30.872  1.00  0.00     0.074 A 
ATOM     34  C   UNL A   1      39.963  28.069  29.103  1.00  0.00     0.049 A 
ATOM     35  N   UNL A   1      40.825  29.524  31.600  1.00  0.00    -0.248 NA
ATOM     36  C   UNL A   1      38.956  30.903  31.373  1.00  0.00     0.031 C 
ATOM     37  C   UNL A   1      39.579  27.309  27.917  1.00  0.00     0.029 A 
ATOM     38  N   UNL A   1      41.126  27.474  29.525  1.00  0.00    -0.354 N 
ATOM     39  C   UNL A   1      40.801  30.444  32.641  1.00  0.00     0.074 A 
ATOM     40  C   UNL A   1      39.647  31.290  32.434  1.00  0.00     0.031 C 
ATOM     41  C   UNL A   1      40.490  26.343  27.705  1.00  0.00     0.029 A 
ATOM     42  C   UNL A   1      41.525  26.425  28.735  1.00  0.00     0.049 A 
ATOM     43  H   UNL A   1      41.626  27.771  30.319  1.00  0.00     0.167 HD
ATOM     44  C   UNL A   1      41.655  30.564  33.686  1.00  0.00     0.037 A 
ATOM     45  C   UNL A   1      42.603  25.624  28.834  1.00  0.00     0.037 A 
ATOM     46  C   UNL A   1      42.800  29.721  33.904  1.00  0.00     0.049 A 
ATOM     47  C   UNL A   1      43.553  25.796  29.992  1.00  0.00     0.074 A 
ATOM     48  C   UNL A   1      43.721  29.762  34.935  1.00  0.00     0.029 A 
ATOM     49  N   UNL A   1      43.177  28.678  33.072  1.00  0.00    -0.354 N 
ATOM     50  N   UNL A   1      43.503  26.649  30.985  1.00  0.00    -0.248 NA
ATOM     51  C   UNL A   1      44.700  24.877  30.048  1.00  0.00     0.031 C 
ATOM     52  C   UNL A   1      44.678  28.766  34.708  1.00  0.00     0.029 A 
ATOM     53  C   UNL A   1      44.326  28.076  33.560  1.00  0.00     0.049 A 
ATOM     54  H   UNL A   1      42.699  28.405  32.254  1.00  0.00     0.167 HD
ATOM     55  C   UNL A   1      44.588  26.350  31.800  1.00  0.00     0.074 A 
ATOM     56  C   UNL A   1      45.272  25.229  31.192  1.00  0.00     0.031 C 
ATOM     57  C   UNL A   1      44.983  26.950  32.951  1.00  0.00     0.037 A 
BRANCH  44  58
ATOM     58  C   UNL A   1      41.390  31.664  34.671  1.00  0.00     0.064 A 
ATOM     59  C   UNL A   1      40.514  31.487  35.752  1.00  0.00     0.173 A 
ATOM     60  C   UNL A   1      42.046  32.898  34.552  1.00  0.00     0.173 A 
ATOM     61  F   UNL A   1      39.851  30.330  35.900  1.00  0.00    -0.203 F 
ATOM     62  C   UNL A   1      40.289  32.513  36.667  1.00  0.00     0.198 A 
ATOM     63  C   UNL A   1      41.838  33.913  35.480  1.00  0.00     0.198 A 
ATOM     64  F   UNL A   1      42.895  33.116  33.536  1.00  0.00    -0.203 F 
ATOM     65  F   UNL A   1      39.419  32.336  37.670  1.00  0.00    -0.200 F 
ATOM     66  C   UNL A   1      40.956  33.722  36.534  1.00  0.00     0.200 A 
ATOM     67  F   UNL A   1      42.489  35.078  35.356  1.00  0.00    -0.200 F 
ATOM     68  F   UNL A   1      40.744  34.706  37.418  1.00  0.00    -0.200 F 
ENDBRANCH  44  58
BRANCH  45  69
ATOM     69  C   UNL A   1      42.843  24.571  27.813  1.00  0.00     0.064 A 
ATOM     70  C   UNL A   1      42.473  23.239  28.043  1.00  0.00     0.173 A 
ATOM     71  C   UNL A   1      43.474  24.874  26.599  1.00  0.00     0.173 A 
ATOM     72  F   UNL A   1      41.891  22.896  29.201  1.00  0.00    -0.203 F 
ATOM     73  C   UNL A   1      42.747  22.245  27.106  1.00  0.00     0.198 A 
ATOM     74  C   UNL A   1      43.723  23.884  25.650  1.00  0.00     0.198 A 
ATOM     75  F   UNL A   1      43.847  26.135  26.332  1.00  0.00    -0.203 F 
ATOM     76  F   UNL A   1      42.429  20.970  27.370  1.00  0.00    -0.200 F 
ATOM     77  C   UNL A   1      43.368  22.569  25.908  1.00  0.00     0.200 A 
ATOM     78  F   UNL A   1      44.314  24.204  24.491  1.00  0.00    -0.200 F 
ATOM     79  F   UNL A   1      43.632  21.613  25.007  1.00  0.00    -0.200 F 
ENDBRANCH  45  69
BRANCH  57  80
ATOM     80  C   UNL A   1      46.181  26.377  33.650  1.00  0.00     0.064 A 
ATOM     81  C   UNL A   1      47.479  26.844  33.394  1.00  0.00     0.173 A 
ATOM     82  C   UNL A   1      46.024  25.365  34.609  1.00  0.00     0.173 A 
ATOM     83  F   UNL A   1      47.682  27.801  32.476  1.00  0.00    -0.203 F 
ATOM     84  C   UNL A   1      48.578  26.295  34.048  1.00  0.00     0.198 A 
ATOM     85  C   UNL A   1      47.123  24.838  35.282  1.00  0.00     0.198 A 
ATOM     86  F   UNL A   1      44.803  24.890  34.898  1.00  0.00    -0.203 F 
ATOM     87  F   UNL A   1      49.813  26.721  33.751  1.00  0.00    -0.200 F 
ATOM     88  C   UNL A   1      48.399  25.297  34.995  1.00  0.00     0.200 A 
ATOM     89  F   UNL A   1      46.947  23.882  36.205  1.00  0.00    -0.200 F 
ATOM     90  F   UNL A   1      49.459  24.771  35.625  1.00  0.00    -0.200 F 
ENDBRANCH  57  80
ENDBRANCH  31  32
ENDBRANCH  24  26
ENDBRANCH  23  24
ENDBRANCH  22  23
ENDBRANCH  21  22
ENDBRANCH  20  21
ENDBRANCH  19  20
ENDBRANCH   1  19
TORSDOF 20
ENDMDL
MODEL 2
REMARK VINA RESULT:      -9.4      5.534     11.186
REMARK SMILES CCCCC[NH2+][C@](C)(C(=O)OCCOCCOC(=O)c1ccc(-c2c3nc(c(-c4c(F)c(F)c(F)c(F)c4F)c4ccc([nH]4)c(-c4c(F)c(F)c(F)c(F)c4F)c4nc(c(-c5c(F)c(F)c(F)c(F)c5F)c5ccc2[nH]5)C=C4)C=C3)cc1)C(F)(F)F
REMARK SMILES IDX 12 1 11 2 9 3 10 4 7 5 8 6 6 7 5 10 4 11 3 12 2 13 1 14
REMARK SMILES IDX 83 15 84 16 85 17 86 18 13 19 14 20 15 21 16 22 17 23 18 24
REMARK SMILES IDX 19 25 20 26 21 27 82 28 22 29 81 30 23 31 24 32 25 33 75 34
REMARK SMILES IDX 26 35 80 36 74 37 76 38 27 39 79 40 73 41 72 42 28 44 60 45
REMARK SMILES IDX 40 46 59 47 41 48 44 49 58 50 77 51 42 52 43 53 57 55 78 56
REMARK SMILES IDX 45 57 29 58 30 59 38 60 31 61 32 62 36 63 39 64 33 65 34 66
REMARK SMILES IDX 37 67 35 68 61 69 62 70 70 71 63 72 64 73 68 74 71 75 65 76
REMARK SMILES IDX 66 77 69 78 67 79 46 80 47 81 55 82 48 83 49 84 53 85 56 86
REMARK SMILES IDX 50 87 51 88 54 89 52 90
REMARK H PARENT 6 8 6 9 76 43 44 54
REMARK Flexibility Score: inf
ROOT
ATOM      1  C   UNL A   1      34.319  22.278  23.989  1.00  0.00     0.261 C 
ENDROOT
BRANCH   1   2
ATOM      2  O   UNL A   1      33.571  23.318  24.643  1.00  0.00    -0.458 OA
BRANCH   2   3
ATOM      3  C   UNL A   1      32.257  23.442  24.281  1.00  0.00     0.377 C 
ATOM      4  O   UNL A   1      31.821  23.097  23.190  1.00  0.00    -0.244 OA
BRANCH   3   5
ATOM      5  C   UNL A   1      31.439  24.158  25.368  1.00  0.00     0.287 C 
ATOM      6  C   UNL A   1      32.249  25.223  26.143  1.00  0.00     0.103 C 
BRANCH   5   7
ATOM      7  N   UNL A   1      30.223  24.835  24.783  1.00  0.00    -0.325 N 
ATOM      8  H   UNL A   1      30.246  24.715  23.770  1.00  0.00     0.347 HD
ATOM      9  H   UNL A   1      29.408  24.399  25.214  1.00  0.00     0.347 HD
BRANCH   7  10
ATOM     10  C   UNL A   1      30.139  26.265  25.075  1.00  0.00     0.261 C 
BRANCH  10  11
ATOM     11  C   UNL A   1      30.161  27.126  23.810  1.00  0.00     0.061 C 
BRANCH  11  12
ATOM     12  C   UNL A   1      31.481  27.860  23.547  1.00  0.00     0.006 C 
BRANCH  12  13
ATOM     13  C   UNL A   1      32.464  27.153  22.608  1.00  0.00    -0.003 C 
ATOM     14  C   UNL A   1      31.808  26.182  21.638  1.00  0.00     0.004 C 
ENDBRANCH  12  13
ENDBRANCH  11  12
ENDBRANCH  10  11
ENDBRANCH   7  10
ENDBRANCH   5   7
BRANCH   5  15
ATOM     15  C   UNL A   1      31.115  23.021  26.371  1.00  0.00     0.455 C 
ATOM     16  F   UNL A   1      32.078  22.912  27.321  1.00  0.00    -0.164 F 
ATOM     17  F   UNL A   1      29.958  23.291  27.034  1.00  0.00    -0.164 F 
ATOM     18  F   UNL A   1      30.958  21.810  25.800  1.00  0.00    -0.164 F 
ENDBRANCH   5  15
ENDBRANCH   3   5
ENDBRANCH   2   3
ENDBRANCH   1   2
BRANCH   1  19
ATOM     19  C   UNL A   1      35.331  21.639  24.943  1.00  0.00     0.202 C 
BRANCH  19  20
ATOM     20  O   UNL A   1      35.641  20.269  24.701  1.00  0.00    -0.374 OA
BRANCH  20  21
ATOM     21  C   UNL A   1      37.005  19.867  24.813  1.00  0.00     0.202 C 
BRANCH  21  22
ATOM     22  C   UNL A   1      38.027  20.991  25.015  1.00  0.00     0.261 C 
BRANCH  22  23
ATOM     23  O   UNL A   1      38.668  20.928  26.304  1.00  0.00    -0.460 OA
BRANCH  23  24
ATOM     24  C   UNL A   1      39.977  21.272  26.291  1.00  0.00     0.338 C 
ATOM     25  O   UNL A   1      40.867  20.772  25.616  1.00  0.00    -0.246 OA
BRANCH  24  26
ATOM     26  C   UNL A   1      40.225  22.472  27.110  1.00  0.00     0.060 A 
ATOM     27  C   UNL A   1      39.434  23.596  26.841  1.00  0.00     0.016 A 
ATOM     28  C   UNL A   1      41.302  22.557  27.996  1.00  0.00     0.016 A 
ATOM     29  C   UNL A   1      39.771  24.832  27.386  1.00  0.00     0.010 A 
ATOM     30  C   UNL A   1      41.642  23.802  28.541  1.00  0.00     0.010 A 
ATOM     31  C   UNL A   1      40.913  24.954  28.189  1.00  0.00    -0.014 A 
BRANCH  31  32
ATOM     32  C   UNL A   1      41.440  26.316  28.456  1.00  0.00     0.031 A 
ATOM     33  C   UNL A   1      42.799  26.685  27.918  1.00  0.00     0.074 A 
ATOM     34  C   UNL A   1      40.689  27.243  29.076  1.00  0.00     0.049 A 
ATOM     35  N   UNL A   1      43.424  27.835  27.951  1.00  0.00    -0.248 NA
ATOM     36  C   UNL A   1      43.554  25.612  27.251  1.00  0.00     0.031 C 
ATOM     37  C   UNL A   1      39.349  27.022  29.612  1.00  0.00     0.029 A 
ATOM     38  N   UNL A   1      40.948  28.564  29.344  1.00  0.00    -0.354 N 
ATOM     39  C   UNL A   1      44.638  27.624  27.308  1.00  0.00     0.074 A 
ATOM     40  C   UNL A   1      44.680  26.230  26.927  1.00  0.00     0.031 C 
ATOM     41  C   UNL A   1      38.900  28.172  30.146  1.00  0.00     0.029 A 
ATOM     42  C   UNL A   1      39.925  29.203  29.997  1.00  0.00     0.049 A 
ATOM     43  H   UNL A   1      41.789  29.010  29.093  1.00  0.00     0.167 HD
ATOM     44  C   UNL A   1      45.623  28.516  27.045  1.00  0.00     0.037 A 
ATOM     45  C   UNL A   1      39.829  30.478  30.424  1.00  0.00     0.037 A 
ATOM     46  C   UNL A   1      45.585  29.905  27.412  1.00  0.00     0.049 A 
ATOM     47  C   UNL A   1      40.952  31.443  30.141  1.00  0.00     0.074 A 
ATOM     48  C   UNL A   1      46.533  30.887  27.185  1.00  0.00     0.029 A 
ATOM     49  N   UNL A   1      44.535  30.511  28.085  1.00  0.00    -0.354 N 
ATOM     50  N   UNL A   1      42.080  31.239  29.507  1.00  0.00    -0.248 NA
ATOM     51  C   UNL A   1      40.775  32.822  30.621  1.00  0.00     0.031 C 
ATOM     52  C   UNL A   1      46.072  32.080  27.754  1.00  0.00     0.029 A 
ATOM     53  C   UNL A   1      44.818  31.851  28.293  1.00  0.00     0.049 A 
ATOM     54  H   UNL A   1      43.710  30.056  28.374  1.00  0.00     0.167 HD
ATOM     55  C   UNL A   1      42.731  32.466  29.481  1.00  0.00     0.074 A 
ATOM     56  C   UNL A   1      41.867  33.412  30.154  1.00  0.00     0.031 C 
ATOM     57  C   UNL A   1      43.938  32.782  28.949  1.00  0.00     0.037 A 
BRANCH  44  58
ATOM     58  C   UNL A   1      46.842  28.007  26.333  1.00  0.00     0.064 A 
ATOM     59  C   UNL A   1      47.998  27.631  27.033  1.00  0.00     0.173 A 
ATOM     60  C   UNL A   1      46.841  27.862  24.937  1.00  0.00     0.173 A 
ATOM     61  F   UNL A   1      48.053  27.766  28.366  1.00  0.00    -0.203 F 
ATOM     62  C   UNL A   1      49.117  27.147  26.358  1.00  0.00     0.198 A 
ATOM     63  C   UNL A   1      47.952  27.355  24.269  1.00  0.00     0.198 A 
ATOM     64  F   UNL A   1      45.759  28.207  24.223  1.00  0.00    -0.203 F 
ATOM     65  F   UNL A   1      50.225  26.830  27.042  1.00  0.00    -0.200 F 
ATOM     66  C   UNL A   1      49.090  27.003  24.979  1.00  0.00     0.200 A 
ATOM     67  F   UNL A   1      47.922  27.209  22.938  1.00  0.00    -0.200 F 
ATOM     68  F   UNL A   1      50.164  26.531  24.332  1.00  0.00    -0.200 F 
ENDBRANCH  44  58
BRANCH  45  69
ATOM     69  C   UNL A   1      38.616  30.926  31.157  1.00  0.00     0.064 A 
ATOM     70  C   UNL A   1      37.506  31.441  30.475  1.00  0.00     0.173 A 
ATOM     71  C   UNL A   1      38.559  30.875  32.556  1.00  0.00     0.173 A 
ATOM     72  F   UNL A   1      37.524  31.535  29.139  1.00  0.00    -0.203 F 
ATOM     73  C   UNL A   1      36.391  31.910  31.169  1.00  0.00     0.198 A 
ATOM     74  C   UNL A   1      37.434  31.319  33.248  1.00  0.00     0.198 A 
ATOM     75  F   UNL A   1      39.598  30.390  33.254  1.00  0.00    -0.203 F 
ATOM     76  F   UNL A   1      35.362  32.444  30.498  1.00  0.00    -0.200 F 
ATOM     77  C   UNL A   1      36.355  31.844  32.554  1.00  0.00     0.200 A 
ATOM     78  F   UNL A   1      37.399  31.243  34.585  1.00  0.00    -0.200 F 
ATOM     79  F   UNL A   1      35.284  32.296  33.221  1.00  0.00    -0.200 F 
ENDBRANCH  45  69
BRANCH  57  80
ATOM     80  C   UNL A   1      44.372  34.217  29.029  1.00  0.00     0.064 A 
ATOM     81  C   UNL A   1      44.039  35.145  28.032  1.00  0.00     0.173 A 
ATOM     82  C   UNL A   1      45.108  34.673  30.133  1.00  0.00     0.173 A 
ATOM     83  F   UNL A   1      43.348  34.755  26.951  1.00  0.00    -0.203 F 
ATOM     84  C   UNL A   1      44.455  36.471  28.122  1.00  0.00     0.198 A 
ATOM     85  C   UNL A   1      45.499  36.005  30.233  1.00  0.00     0.198 A 
ATOM     86  F   UNL A   1      45.443  33.827  31.119  1.00  0.00    -0.203 F 
ATOM     87  F   UNL A   1      44.170  37.329  27.132  1.00  0.00    -0.200 F 
ATOM     88  C   UNL A   1      45.180  36.901  29.223  1.00  0.00     0.200 A 
ATOM     89  F   UNL A   1      46.188  36.422  31.305  1.00  0.00    -0.200 F 
ATOM     90  F   UNL A   1      45.579  38.178  29.309  1.00  0.00    -0.200 F 
ENDBRANCH  57  80
ENDBRANCH  31  32
ENDBRANCH  24  26
ENDBRANCH  23  24
ENDBRANCH  22  23
ENDBRANCH  21  22
ENDBRANCH  20  21
ENDBRANCH  19  20
ENDBRANCH   1  19
TORSDOF 20
ENDMDL
MODEL 3
REMARK VINA RESULT:      -9.2      5.454      8.894
REMARK SMILES CCCCC[NH2+][C@](C)(C(=O)OCCOCCOC(=O)c1ccc(-c2c3nc(c(-c4c(F)c(F)c(F)c(F)c4F)c4ccc([nH]4)c(-c4c(F)c(F)c(F)c(F)c4F)c4nc(c(-c5c(F)c(F)c(F)c(F)c5F)c5ccc2[nH]5)C=C4)C=C3)cc1)C(F)(F)F
REMARK SMILES IDX 12 1 11 2 9 3 10 4 7 5 8 6 6 7 5 10 4 11 3 12 2 13 1 14
REMARK SMILES IDX 83 15 84 16 85 17 86 18 13 19 14 20 15 21 16 22 17 23 18 24
REMARK SMILES IDX 19 25 20 26 21 27 82 28 22 29 81 30 23 31 24 32 25 33 75 34
REMARK SMILES IDX 26 35 80 36 74 37 76 38 27 39 79 40 73 41 72 42 28 44 60 45
REMARK SMILES IDX 40 46 59 47 41 48 44 49 58 50 77 51 42 52 43 53 57 55 78 56
REMARK SMILES IDX 45 57 29 58 30 59 38 60 31 61 32 62 36 63 39 64 33 65 34 66
REMARK SMILES IDX 37 67 35 68 61 69 62 70 70 71 63 72 64 73 68 74 71 75 65 76
REMARK SMILES IDX 66 77 69 78 67 79 46 80 47 81 55 82 48 83 49 84 53 85 56 86
REMARK SMILES IDX 50 87 51 88 54 89 52 90
REMARK H PARENT 6 8 6 9 76 43 44 54
REMARK Flexibility Score: inf
ROOT
ATOM      1  C   UNL A   1      34.525  22.565  24.139  1.00  0.00     0.261 C 
ENDROOT
BRANCH   1   2
ATOM      2  O   UNL A   1      33.542  23.355  24.829  1.00  0.00    -0.458 OA
BRANCH   2   3
ATOM      3  C   UNL A   1      33.764  24.705  24.869  1.00  0.00     0.377 C 
ATOM      4  O   UNL A   1      34.778  25.209  25.335  1.00  0.00    -0.244 OA
BRANCH   3   5
ATOM      5  C   UNL A   1      32.546  25.491  24.357  1.00  0.00     0.287 C 
ATOM      6  C   UNL A   1      31.197  24.808  24.679  1.00  0.00     0.103 C 
BRANCH   5   7
ATOM      7  N   UNL A   1      32.510  26.885  24.938  1.00  0.00    -0.325 N 
ATOM      8  H   UNL A   1      33.347  27.017  25.506  1.00  0.00     0.347 HD
ATOM      9  H   UNL A   1      32.462  27.531  24.150  1.00  0.00     0.347 HD
BRANCH   7  10
ATOM     10  C   UNL A   1      31.340  27.153  25.774  1.00  0.00     0.261 C 
BRANCH  10  11
ATOM     11  C   UNL A   1      31.632  28.156  26.890  1.00  0.00     0.061 C 
BRANCH  11  12
ATOM     12  C   UNL A   1      33.093  28.205  27.355  1.00  0.00     0.006 C 
BRANCH  12  13
ATOM     13  C   UNL A   1      33.831  29.525  27.103  1.00  0.00    -0.003 C 
ATOM     14  C   UNL A   1      35.326  29.461  27.374  1.00  0.00     0.004 C 
ENDBRANCH  12  13
ENDBRANCH  11  12
ENDBRANCH  10  11
ENDBRANCH   7  10
ENDBRANCH   5   7
BRANCH   5  15
ATOM     15  C   UNL A   1      32.719  25.447  22.818  1.00  0.00     0.455 C 
ATOM     16  F   UNL A   1      32.075  24.380  22.280  1.00  0.00    -0.164 F 
ATOM     17  F   UNL A   1      32.165  26.551  22.248  1.00  0.00    -0.164 F 
ATOM     18  F   UNL A   1      34.003  25.405  22.408  1.00  0.00    -0.164 F 
ENDBRANCH   5  15
ENDBRANCH   3   5
ENDBRANCH   2   3
ENDBRANCH   1   2
BRANCH   1  19
ATOM     19  C   UNL A   1      34.555  21.130  24.668  1.00  0.00     0.202 C 
BRANCH  19  20
ATOM     20  O   UNL A   1      35.774  20.713  25.278  1.00  0.00    -0.374 OA
BRANCH  20  21
ATOM     21  C   UNL A   1      36.997  21.139  24.678  1.00  0.00     0.202 C 
BRANCH  21  22
ATOM     22  C   UNL A   1      38.235  20.291  24.989  1.00  0.00     0.261 C 
BRANCH  22  23
ATOM     23  O   UNL A   1      38.701  20.470  26.341  1.00  0.00    -0.460 OA
BRANCH  23  24
ATOM     24  C   UNL A   1      40.033  20.688  26.444  1.00  0.00     0.338 C 
ATOM     25  O   UNL A   1      40.934  19.982  26.010  1.00  0.00    -0.246 OA
BRANCH  24  26
ATOM     26  C   UNL A   1      40.317  22.004  27.042  1.00  0.00     0.060 A 
ATOM     27  C   UNL A   1      39.667  23.109  26.479  1.00  0.00     0.016 A 
ATOM     28  C   UNL A   1      41.309  22.182  28.010  1.00  0.00     0.016 A 
ATOM     29  C   UNL A   1      40.068  24.399  26.812  1.00  0.00     0.010 A 
ATOM     30  C   UNL A   1      41.715  23.482  28.342  1.00  0.00     0.010 A 
ATOM     31  C   UNL A   1      41.136  24.592  27.699  1.00  0.00    -0.014 A 
BRANCH  31  32
ATOM     32  C   UNL A   1      41.764  25.936  27.758  1.00  0.00     0.031 A 
ATOM     33  C   UNL A   1      41.039  27.043  28.479  1.00  0.00     0.074 A 
ATOM     34  C   UNL A   1      42.999  26.148  27.270  1.00  0.00     0.049 A 
ATOM     35  N   UNL A   1      41.428  28.267  28.734  1.00  0.00    -0.248 NA
ATOM     36  C   UNL A   1      39.693  26.726  28.985  1.00  0.00     0.031 C 
ATOM     37  C   UNL A   1      43.817  25.153  26.581  1.00  0.00     0.029 A 
ATOM     38  N   UNL A   1      43.784  27.274  27.295  1.00  0.00    -0.354 N 
ATOM     39  C   UNL A   1      40.381  28.860  29.429  1.00  0.00     0.074 A 
ATOM     40  C   UNL A   1      39.326  27.877  29.526  1.00  0.00     0.031 C 
ATOM     41  C   UNL A   1      44.993  25.713  26.250  1.00  0.00     0.029 A 
ATOM     42  C   UNL A   1      45.005  27.106  26.694  1.00  0.00     0.049 A 
ATOM     43  H   UNL A   1      43.497  28.121  27.707  1.00  0.00     0.167 HD
ATOM     44  C   UNL A   1      40.312  30.107  29.954  1.00  0.00     0.037 A 
ATOM     45  C   UNL A   1      46.017  27.979  26.523  1.00  0.00     0.037 A 
ATOM     46  C   UNL A   1      41.361  31.086  29.869  1.00  0.00     0.049 A 
ATOM     47  C   UNL A   1      45.903  29.370  27.093  1.00  0.00     0.074 A 
ATOM     48  C   UNL A   1      41.385  32.375  30.373  1.00  0.00     0.029 A 
ATOM     49  N   UNL A   1      42.579  30.881  29.238  1.00  0.00    -0.354 N 
ATOM     50  N   UNL A   1      44.921  29.909  27.774  1.00  0.00    -0.248 NA
ATOM     51  C   UNL A   1      47.050  30.266  26.885  1.00  0.00     0.031 C 
ATOM     52  C   UNL A   1      42.604  32.962  30.015  1.00  0.00     0.029 A 
ATOM     53  C   UNL A   1      43.356  32.025  29.329  1.00  0.00     0.049 A 
ATOM     54  H   UNL A   1      42.850  30.046  28.791  1.00  0.00     0.167 HD
ATOM     55  C   UNL A   1      45.343  31.191  28.103  1.00  0.00     0.074 A 
ATOM     56  C   UNL A   1      46.674  31.346  27.557  1.00  0.00     0.031 C 
ATOM     57  C   UNL A   1      44.686  32.155  28.795  1.00  0.00     0.037 A 
BRANCH  44  58
ATOM     58  C   UNL A   1      39.043  30.490  30.657  1.00  0.00     0.064 A 
ATOM     59  C   UNL A   1      38.919  30.394  32.051  1.00  0.00     0.173 A 
ATOM     60  C   UNL A   1      37.951  30.989  29.932  1.00  0.00     0.173 A 
ATOM     61  F   UNL A   1      39.929  29.907  32.787  1.00  0.00    -0.203 F 
ATOM     62  C   UNL A   1      37.739  30.767  32.691  1.00  0.00     0.198 A 
ATOM     63  C   UNL A   1      36.783  31.383  30.576  1.00  0.00     0.198 A 
ATOM     64  F   UNL A   1      38.022  31.100  28.596  1.00  0.00    -0.203 F 
ATOM     65  F   UNL A   1      37.627  30.631  34.020  1.00  0.00    -0.200 F 
ATOM     66  C   UNL A   1      36.675  31.267  31.954  1.00  0.00     0.200 A 
ATOM     67  F   UNL A   1      35.759  31.874  29.864  1.00  0.00    -0.200 F 
ATOM     68  F   UNL A   1      35.543  31.631  32.571  1.00  0.00    -0.200 F 
ENDBRANCH  44  58
BRANCH  45  69
ATOM     69  C   UNL A   1      47.240  27.564  25.788  1.00  0.00     0.064 A 
ATOM     70  C   UNL A   1      48.369  27.087  26.467  1.00  0.00     0.173 A 
ATOM     71  C   UNL A   1      47.312  27.667  24.392  1.00  0.00     0.173 A 
ATOM     72  F   UNL A   1      48.357  26.996  27.804  1.00  0.00    -0.203 F 
ATOM     73  C   UNL A   1      49.532  26.749  25.778  1.00  0.00     0.198 A 
ATOM     74  C   UNL A   1      48.466  27.304  23.701  1.00  0.00     0.198 A 
ATOM     75  F   UNL A   1      46.257  28.120  23.696  1.00  0.00    -0.203 F 
ATOM     76  F   UNL A   1      50.615  26.342  26.455  1.00  0.00    -0.200 F 
ATOM     77  C   UNL A   1      49.579  26.853  24.396  1.00  0.00     0.200 A 
ATOM     78  F   UNL A   1      48.502  27.397  22.365  1.00  0.00    -0.200 F 
ATOM     79  F   UNL A   1      50.698  26.529  23.734  1.00  0.00    -0.200 F 
ENDBRANCH  45  69
BRANCH  57  80
ATOM     80  C   UNL A   1      45.416  33.443  29.043  1.00  0.00     0.064 A 
ATOM     81  C   UNL A   1      45.321  34.527  28.158  1.00  0.00     0.173 A 
ATOM     82  C   UNL A   1      46.201  33.602  30.195  1.00  0.00     0.173 A 
ATOM     83  F   UNL A   1      44.594  34.419  27.036  1.00  0.00    -0.203 F 
ATOM     84  C   UNL A   1      46.010  35.712  28.402  1.00  0.00     0.198 A 
ATOM     85  C   UNL A   1      46.866  34.798  30.450  1.00  0.00     0.198 A 
ATOM     86  F   UNL A   1      46.317  32.598  31.078  1.00  0.00    -0.203 F 
ATOM     87  F   UNL A   1      45.945  36.716  27.517  1.00  0.00    -0.200 F 
ATOM     88  C   UNL A   1      46.777  35.848  29.549  1.00  0.00     0.200 A 
ATOM     89  F   UNL A   1      47.598  34.932  31.565  1.00  0.00    -0.200 F 
ATOM     90  F   UNL A   1      47.439  36.990  29.783  1.00  0.00    -0.200 F 
ENDBRANCH  57  80
ENDBRANCH  31  32
ENDBRANCH  24  26
ENDBRANCH  23  24
ENDBRANCH  22  23
ENDBRANCH  21  22
ENDBRANCH  20  21
ENDBRANCH  19  20
ENDBRANCH   1  19
TORSDOF 20
ENDMDL
