MODEL 1
REMARK VINA RESULT:     -12.5      0.000      0.000
REMARK SMILES Cc1c(CCC(=O)N2CCC(C(=O)OCCOCCOC(=O)c3ccc(-c4c5nc(c(-c6c(F)c(F)c(F)c(F)c6F)c6ccc([nH]6)c(-c6c(F)c(F)c(F)c(F)c6F)c6nc(c(-c7c(F)c(F)c(F)c(F)c7F)c7ccc4[nH]7)C=C6)C=C5)cc3)CC2)c(=O)oc2cc3oc4c(c3cc12)CCCC4
REMARK SMILES IDX 16 1 15 2 14 3 12 4 13 5 11 6 6 7 7 8 8 9 9 10 87 11 10 12
REMARK SMILES IDX 86 13 5 14 4 15 3 16 1 17 2 18 99 19 88 20 91 21 98 22 89 23
REMARK SMILES IDX 90 24 92 25 97 26 93 27 96 28 94 29 95 30 100 31 103 32
REMARK SMILES IDX 101 33 102 34 17 35 18 36 19 37 20 38 21 39 22 40 23 41
REMARK SMILES IDX 24 42 85 43 25 44 84 45 26 46 27 47 28 48 78 49 29 50 83 51
REMARK SMILES IDX 77 52 79 53 30 54 82 55 76 56 75 57 31 59 63 60 43 61 62 62
REMARK SMILES IDX 44 63 47 64 61 65 80 66 45 67 46 68 60 70 81 71 48 72 32 73
REMARK SMILES IDX 33 74 41 75 34 76 35 77 39 78 42 79 36 80 37 81 40 82 38 83
REMARK SMILES IDX 64 84 65 85 73 86 66 87 67 88 71 89 74 90 68 91 69 92 72 93
REMARK SMILES IDX 70 94 49 95 50 96 58 97 51 98 52 99 56 100 59 101 53 102
REMARK SMILES IDX 54 103 57 104 55 105
REMARK H PARENT 79 58 47 69
REMARK Flexibility Score: inf
ROOT
ATOM      1  C   UNL A   1      32.428  28.346  23.617  1.00  0.00     0.202 C 
ENDROOT
BRANCH   1   2
ATOM      2  C   UNL A   1      31.208  28.528  22.701  1.00  0.00     0.261 C 
BRANCH   2   3
ATOM      3  O   UNL A   1      30.722  27.357  21.999  1.00  0.00    -0.463 OA
BRANCH   3   4
ATOM      4  C   UNL A   1      31.584  26.316  21.921  1.00  0.00     0.309 C 
ATOM      5  O   UNL A   1      32.216  26.030  20.906  1.00  0.00    -0.252 OA
BRANCH   4   6
ATOM      6  C   UNL A   1      31.582  25.350  23.084  1.00  0.00     0.103 C 
ATOM      7  C   UNL A   1      32.534  21.835  25.148  1.00  0.00     0.222 C 
ATOM      8  O   UNL A   1      31.628  21.007  25.255  1.00  0.00    -0.275 OA
ATOM      9  N   UNL A   1      32.258  23.164  24.825  1.00  0.00    -0.343 N 
ATOM     10  C   UNL A   1      30.941  23.833  25.020  1.00  0.00     0.120 C 
ATOM     11  C   UNL A   1      33.208  23.909  24.057  1.00  0.00     0.120 C 
ATOM     12  C   UNL A   1      30.411  24.684  23.795  1.00  0.00     0.037 C 
ATOM     13  C   UNL A   1      32.539  24.236  22.745  1.00  0.00     0.037 C 
BRANCH   7  14
ATOM     14  C   UNL A   1      34.010  21.450  25.516  1.00  0.00     0.105 C 
BRANCH  14  15
ATOM     15  C   UNL A   1      34.990  20.782  24.503  1.00  0.00     0.053 C 
BRANCH  15  16
ATOM     16  C   UNL A   1      36.486  20.907  24.816  1.00  0.00     0.042 A 
ATOM     17  C   UNL A   1      36.568  23.370  24.283  1.00  0.00     0.046 C 
ATOM     18  C   UNL A   1      37.128  22.091  24.845  1.00  0.00    -0.030 A 
ATOM     19  C   UNL A   1      38.343  22.139  25.660  1.00  0.00     0.022 A 
ATOM     20  C   UNL A   1      37.282  19.663  25.078  1.00  0.00     0.339 A 
ATOM     21  C   UNL A   1      39.182  21.039  25.716  1.00  0.00     0.142 A 
ATOM     22  C   UNL A   1      38.657  23.243  26.441  1.00  0.00     0.024 A 
ATOM     23  O   UNL A   1      36.757  18.556  25.039  1.00  0.00    -0.246 OA
ATOM     24  O   UNL A   1      38.671  19.808  25.256  1.00  0.00    -0.422 OA
ATOM     25  C   UNL A   1      40.500  21.124  26.213  1.00  0.00     0.095 A 
ATOM     26  C   UNL A   1      39.882  23.311  27.098  1.00  0.00     0.025 A 
ATOM     27  C   UNL A   1      40.834  22.354  26.790  1.00  0.00     0.138 A 
ATOM     28  C   UNL A   1      40.523  24.343  27.811  1.00  0.00     0.001 A 
ATOM     29  O   UNL A   1      42.078  22.924  26.973  1.00  0.00    -0.461 OA
ATOM     30  C   UNL A   1      41.824  24.206  27.386  1.00  0.00     0.108 A 
ATOM     31  C   UNL A   1      39.994  25.684  28.144  1.00  0.00     0.040 C 
ATOM     32  C   UNL A   1      42.510  25.394  26.775  1.00  0.00     0.076 C 
ATOM     33  C   UNL A   1      40.148  26.583  26.912  1.00  0.00     0.005 C 
ATOM     34  C   UNL A   1      41.386  26.211  26.043  1.00  0.00     0.008 C 
ENDBRANCH  15  16
ENDBRANCH  14  15
ENDBRANCH   7  14
ENDBRANCH   4   6
ENDBRANCH   3   4
ENDBRANCH   2   3
ENDBRANCH   1   2
BRANCH   1  35
ATOM     35  O   UNL A   1      32.828  29.420  24.451  1.00  0.00    -0.374 OA
BRANCH  35  36
ATOM     36  C   UNL A   1      31.945  29.892  25.458  1.00  0.00     0.202 C 
BRANCH  36  37
ATOM     37  C   UNL A   1      32.502  30.384  26.808  1.00  0.00     0.261 C 
BRANCH  37  38
ATOM     38  O   UNL A   1      33.932  30.557  26.841  1.00  0.00    -0.460 OA
BRANCH  38  39
ATOM     39  C   UNL A   1      34.658  29.497  27.304  1.00  0.00     0.338 C 
ATOM     40  O   UNL A   1      34.709  28.389  26.844  1.00  0.00    -0.246 OA
BRANCH  39  41
ATOM     41  C   UNL A   1      35.597  29.990  28.343  1.00  0.00     0.060 A 
ATOM     42  C   UNL A   1      35.235  30.988  29.244  1.00  0.00     0.016 A 
ATOM     43  C   UNL A   1      36.876  29.423  28.401  1.00  0.00     0.016 A 
ATOM     44  C   UNL A   1      36.156  31.402  30.214  1.00  0.00     0.010 A 
ATOM     45  C   UNL A   1      37.810  29.878  29.330  1.00  0.00     0.010 A 
ATOM     46  C   UNL A   1      37.449  30.847  30.271  1.00  0.00    -0.014 A 
BRANCH  46  47
ATOM     47  C   UNL A   1      38.323  31.153  31.427  1.00  0.00     0.031 A 
ATOM     48  C   UNL A   1      39.429  30.174  31.708  1.00  0.00     0.074 A 
ATOM     49  C   UNL A   1      38.456  32.406  31.909  1.00  0.00     0.049 A 
ATOM     50  N   UNL A   1      40.609  30.230  31.153  1.00  0.00    -0.248 NA
ATOM     51  C   UNL A   1      39.183  28.927  32.434  1.00  0.00     0.031 C 
ATOM     52  C   UNL A   1      38.535  33.598  31.057  1.00  0.00     0.029 A 
ATOM     53  N   UNL A   1      38.798  32.858  33.164  1.00  0.00    -0.354 N 
ATOM     54  C   UNL A   1      41.253  29.033  31.430  1.00  0.00     0.074 A 
ATOM     55  C   UNL A   1      40.330  28.260  32.231  1.00  0.00     0.031 C 
ATOM     56  C   UNL A   1      39.059  34.608  31.781  1.00  0.00     0.029 A 
ATOM     57  C   UNL A   1      39.212  34.188  33.174  1.00  0.00     0.049 A 
ATOM     58  H   UNL A   1      38.755  32.298  33.973  1.00  0.00     0.167 HD
ATOM     59  C   UNL A   1      42.509  28.733  30.998  1.00  0.00     0.037 A 
ATOM     60  C   UNL A   1      40.129  34.716  34.032  1.00  0.00     0.037 A 
ATOM     61  C   UNL A   1      43.172  29.747  30.237  1.00  0.00     0.049 A 
ATOM     62  C   UNL A   1      41.396  34.064  33.539  1.00  0.00     0.074 A 
ATOM     63  C   UNL A   1      43.396  30.054  28.913  1.00  0.00     0.029 A 
ATOM     64  N   UNL A   1      43.798  30.754  30.932  1.00  0.00    -0.354 N 
ATOM     65  N   UNL A   1      42.114  34.441  32.515  1.00  0.00    -0.248 NA
ATOM     66  C   UNL A   1      41.671  32.707  34.019  1.00  0.00     0.031 C 
ATOM     67  C   UNL A   1      43.707  31.452  28.895  1.00  0.00     0.029 A 
ATOM     68  C   UNL A   1      43.612  31.902  30.210  1.00  0.00     0.049 A 
ATOM     69  H   UNL A   1      44.284  30.666  31.783  1.00  0.00     0.167 HD
ATOM     70  C   UNL A   1      42.744  33.280  32.064  1.00  0.00     0.074 A 
ATOM     71  C   UNL A   1      42.432  32.252  33.035  1.00  0.00     0.031 C 
ATOM     72  C   UNL A   1      43.339  33.169  30.842  1.00  0.00     0.037 A 
BRANCH  59  73
ATOM     73  C   UNL A   1      43.299  27.557  31.419  1.00  0.00     0.064 A 
ATOM     74  C   UNL A   1      43.874  27.583  32.700  1.00  0.00     0.173 A 
ATOM     75  C   UNL A   1      43.712  26.561  30.532  1.00  0.00     0.173 A 
ATOM     76  F   UNL A   1      43.515  28.540  33.574  1.00  0.00    -0.203 F 
ATOM     77  C   UNL A   1      44.866  26.683  33.065  1.00  0.00     0.198 A 
ATOM     78  C   UNL A   1      44.699  25.645  30.906  1.00  0.00     0.198 A 
ATOM     79  F   UNL A   1      43.206  26.506  29.291  1.00  0.00    -0.203 F 
ATOM     80  F   UNL A   1      45.441  26.780  34.271  1.00  0.00    -0.200 F 
ATOM     81  C   UNL A   1      45.286  25.720  32.163  1.00  0.00     0.200 A 
ATOM     82  F   UNL A   1      45.113  24.714  30.035  1.00  0.00    -0.200 F 
ATOM     83  F   UNL A   1      46.271  24.876  32.499  1.00  0.00    -0.200 F 
ENDBRANCH  59  73
BRANCH  60  84
ATOM     84  C   UNL A   1      39.747  34.767  35.481  1.00  0.00     0.064 A 
ATOM     85  C   UNL A   1      40.068  35.922  36.226  1.00  0.00     0.173 A 
ATOM     86  C   UNL A   1      39.114  33.737  36.195  1.00  0.00     0.173 A 
ATOM     87  F   UNL A   1      40.780  36.911  35.662  1.00  0.00    -0.203 F 
ATOM     88  C   UNL A   1      39.669  36.083  37.554  1.00  0.00     0.198 A 
ATOM     89  C   UNL A   1      38.689  33.908  37.515  1.00  0.00     0.198 A 
ATOM     90  F   UNL A   1      38.882  32.545  35.629  1.00  0.00    -0.203 F 
ATOM     91  F   UNL A   1      39.969  37.212  38.210  1.00  0.00    -0.200 F 
ATOM     92  C   UNL A   1      38.951  35.087  38.189  1.00  0.00     0.200 A 
ATOM     93  F   UNL A   1      38.007  32.928  38.125  1.00  0.00    -0.200 F 
ATOM     94  F   UNL A   1      38.519  35.258  39.446  1.00  0.00    -0.200 F 
ENDBRANCH  60  84
BRANCH  72  95
ATOM     95  C   UNL A   1      43.502  34.430  30.077  1.00  0.00     0.064 A 
ATOM     96  C   UNL A   1      42.430  34.935  29.330  1.00  0.00     0.173 A 
ATOM     97  C   UNL A   1      44.680  35.184  30.139  1.00  0.00     0.173 A 
ATOM     98  F   UNL A   1      41.278  34.251  29.253  1.00  0.00    -0.203 F 
ATOM     99  C   UNL A   1      42.521  36.167  28.692  1.00  0.00     0.198 A 
ATOM    100  C   UNL A   1      44.752  36.428  29.524  1.00  0.00     0.198 A 
ATOM    101  F   UNL A   1      45.750  34.743  30.818  1.00  0.00    -0.203 F 
ATOM    102  F   UNL A   1      41.480  36.641  27.996  1.00  0.00    -0.200 F 
ATOM    103  C   UNL A   1      43.678  36.921  28.804  1.00  0.00     0.200 A 
ATOM    104  F   UNL A   1      45.857  37.169  29.651  1.00  0.00    -0.200 F 
ATOM    105  F   UNL A   1      43.753  38.133  28.236  1.00  0.00    -0.200 F 
ENDBRANCH  72  95
ENDBRANCH  46  47
ENDBRANCH  39  41
ENDBRANCH  38  39
ENDBRANCH  37  38
ENDBRANCH  36  37
ENDBRANCH  35  36
ENDBRANCH   1  35
TORSDOF 17
ENDMDL
MODEL 2
REMARK VINA RESULT:     -12.2      3.056      9.909
REMARK SMILES Cc1c(CCC(=O)N2CCC(C(=O)OCCOCCOC(=O)c3ccc(-c4c5nc(c(-c6c(F)c(F)c(F)c(F)c6F)c6ccc([nH]6)c(-c6c(F)c(F)c(F)c(F)c6F)c6nc(c(-c7c(F)c(F)c(F)c(F)c7F)c7ccc4[nH]7)C=C6)C=C5)cc3)CC2)c(=O)oc2cc3oc4c(c3cc12)CCCC4
REMARK SMILES IDX 16 1 15 2 14 3 12 4 13 5 11 6 6 7 7 8 8 9 9 10 87 11 10 12
REMARK SMILES IDX 86 13 5 14 4 15 3 16 1 17 2 18 99 19 88 20 91 21 98 22 89 23
REMARK SMILES IDX 90 24 92 25 97 26 93 27 96 28 94 29 95 30 100 31 103 32
REMARK SMILES IDX 101 33 102 34 17 35 18 36 19 37 20 38 21 39 22 40 23 41
REMARK SMILES IDX 24 42 85 43 25 44 84 45 26 46 27 47 28 48 78 49 29 50 83 51
REMARK SMILES IDX 77 52 79 53 30 54 82 55 76 56 75 57 31 59 63 60 43 61 62 62
REMARK SMILES IDX 44 63 47 64 61 65 80 66 45 67 46 68 60 70 81 71 48 72 32 73
REMARK SMILES IDX 33 74 41 75 34 76 35 77 39 78 42 79 36 80 37 81 40 82 38 83
REMARK SMILES IDX 64 84 65 85 73 86 66 87 67 88 71 89 74 90 68 91 69 92 72 93
REMARK SMILES IDX 70 94 49 95 50 96 58 97 51 98 52 99 56 100 59 101 53 102
REMARK SMILES IDX 54 103 57 104 55 105
REMARK H PARENT 79 58 47 69
REMARK Flexibility Score: inf
ROOT
ATOM      1  C   UNL A   1      34.829  20.991  25.226  1.00  0.00     0.202 C 
ENDROOT
BRANCH   1   2
ATOM      2  C   UNL A   1      33.708  22.004  24.945  1.00  0.00     0.261 C 
BRANCH   2   3
ATOM      3  O   UNL A   1      33.407  22.295  23.558  1.00  0.00    -0.463 OA
BRANCH   3   4
ATOM      4  C   UNL A   1      34.250  23.154  22.939  1.00  0.00     0.309 C 
ATOM      5  O   UNL A   1      35.471  23.013  22.917  1.00  0.00    -0.252 OA
BRANCH   4   6
ATOM      6  C   UNL A   1      33.650  24.452  22.450  1.00  0.00     0.103 C 
ATOM      7  C   UNL A   1      31.369  27.954  22.695  1.00  0.00     0.222 C 
ATOM      8  O   UNL A   1      30.296  27.944  22.090  1.00  0.00    -0.275 OA
ATOM      9  N   UNL A   1      32.368  27.026  22.399  1.00  0.00    -0.343 N 
ATOM     10  C   UNL A   1      32.481  26.274  21.117  1.00  0.00     0.120 C 
ATOM     11  C   UNL A   1      33.237  26.576  23.443  1.00  0.00     0.120 C 
ATOM     12  C   UNL A   1      32.752  24.720  21.250  1.00  0.00     0.037 C 
ATOM     13  C   UNL A   1      32.965  25.103  23.624  1.00  0.00     0.037 C 
BRANCH   7  14
ATOM     14  C   UNL A   1      31.699  29.102  23.713  1.00  0.00     0.105 C 
BRANCH  14  15
ATOM     15  C   UNL A   1      31.276  29.052  25.213  1.00  0.00     0.053 C 
BRANCH  15  16
ATOM     16  C   UNL A   1      32.191  29.779  26.205  1.00  0.00     0.042 A 
ATOM     17  C   UNL A   1      33.403  27.678  26.894  1.00  0.00     0.046 C 
ATOM     18  C   UNL A   1      33.216  29.171  26.832  1.00  0.00    -0.030 A 
ATOM     19  C   UNL A   1      34.297  30.046  27.288  1.00  0.00     0.022 A 
ATOM     20  C   UNL A   1      31.928  31.224  26.516  1.00  0.00     0.339 A 
ATOM     21  C   UNL A   1      34.005  31.309  27.775  1.00  0.00     0.142 A 
ATOM     22  C   UNL A   1      35.631  29.674  27.189  1.00  0.00     0.024 A 
ATOM     23  O   UNL A   1      30.994  31.823  25.995  1.00  0.00    -0.246 OA
ATOM     24  O   UNL A   1      32.722  31.827  27.509  1.00  0.00    -0.422 OA
ATOM     25  C   UNL A   1      34.942  32.065  28.511  1.00  0.00     0.095 A 
ATOM     26  C   UNL A   1      36.624  30.470  27.752  1.00  0.00     0.025 A 
ATOM     27  C   UNL A   1      36.228  31.516  28.568  1.00  0.00     0.138 A 
ATOM     28  C   UNL A   1      38.007  30.275  27.941  1.00  0.00     0.001 A 
ATOM     29  O   UNL A   1      37.228  31.727  29.496  1.00  0.00    -0.461 OA
ATOM     30  C   UNL A   1      38.190  30.796  29.201  1.00  0.00     0.108 A 
ATOM     31  C   UNL A   1      38.836  29.137  27.486  1.00  0.00     0.040 C 
ATOM     32  C   UNL A   1      38.812  29.926  30.254  1.00  0.00     0.076 C 
ATOM     33  C   UNL A   1      38.644  27.977  28.470  1.00  0.00     0.005 C 
ATOM     34  C   UNL A   1      38.361  28.458  29.924  1.00  0.00     0.008 C 
ENDBRANCH  15  16
ENDBRANCH  14  15
ENDBRANCH   7  14
ENDBRANCH   4   6
ENDBRANCH   3   4
ENDBRANCH   2   3
ENDBRANCH   1   2
BRANCH   1  35
ATOM     35  O   UNL A   1      35.996  21.426  25.901  1.00  0.00    -0.374 OA
BRANCH  35  36
ATOM     36  C   UNL A   1      37.272  21.174  25.330  1.00  0.00     0.202 C 
BRANCH  36  37
ATOM     37  C   UNL A   1      38.553  21.575  26.088  1.00  0.00     0.261 C 
BRANCH  37  38
ATOM     38  O   UNL A   1      39.110  22.845  25.696  1.00  0.00    -0.460 OA
BRANCH  38  39
ATOM     39  C   UNL A   1      38.610  23.946  26.332  1.00  0.00     0.338 C 
ATOM     40  O   UNL A   1      37.468  24.160  26.633  1.00  0.00    -0.246 OA
BRANCH  39  41
ATOM     41  C   UNL A   1      39.750  24.753  26.836  1.00  0.00     0.060 A 
ATOM     42  C   UNL A   1      40.095  24.771  28.185  1.00  0.00     0.016 A 
ATOM     43  C   UNL A   1      40.483  25.509  25.914  1.00  0.00     0.016 A 
ATOM     44  C   UNL A   1      41.190  25.538  28.601  1.00  0.00     0.010 A 
ATOM     45  C   UNL A   1      41.535  26.317  26.340  1.00  0.00     0.010 A 
ATOM     46  C   UNL A   1      41.925  26.313  27.682  1.00  0.00    -0.014 A 
BRANCH  46  47
ATOM     47  C   UNL A   1      43.193  26.945  28.113  1.00  0.00     0.031 A 
ATOM     48  C   UNL A   1      43.079  28.283  28.788  1.00  0.00     0.074 A 
ATOM     49  C   UNL A   1      44.311  26.222  28.334  1.00  0.00     0.049 A 
ATOM     50  N   UNL A   1      42.888  28.437  30.070  1.00  0.00    -0.248 NA
ATOM     51  C   UNL A   1      42.917  29.518  28.020  1.00  0.00     0.031 C 
ATOM     52  C   UNL A   1      44.310  24.908  28.986  1.00  0.00     0.029 A 
ATOM     53  N   UNL A   1      45.640  26.578  28.281  1.00  0.00    -0.354 N 
ATOM     54  C   UNL A   1      42.561  29.769  30.282  1.00  0.00     0.074 A 
ATOM     55  C   UNL A   1      42.596  30.399  28.981  1.00  0.00     0.031 C 
ATOM     56  C   UNL A   1      45.561  24.642  29.416  1.00  0.00     0.029 A 
ATOM     57  C   UNL A   1      46.475  25.684  28.947  1.00  0.00     0.049 A 
ATOM     58  H   UNL A   1      45.968  27.383  27.819  1.00  0.00     0.167 HD
ATOM     59  C   UNL A   1      42.283  30.292  31.507  1.00  0.00     0.037 A 
ATOM     60  C   UNL A   1      47.637  26.017  29.576  1.00  0.00     0.037 A 
ATOM     61  C   UNL A   1      42.367  29.388  32.613  1.00  0.00     0.049 A 
ATOM     62  C   UNL A   1      47.114  26.798  30.755  1.00  0.00     0.074 A 
ATOM     63  C   UNL A   1      41.516  28.614  33.372  1.00  0.00     0.029 A 
ATOM     64  N   UNL A   1      43.611  29.151  33.146  1.00  0.00    -0.354 N 
ATOM     65  N   UNL A   1      46.638  26.299  31.865  1.00  0.00    -0.248 NA
ATOM     66  C   UNL A   1      46.790  28.208  30.524  1.00  0.00     0.031 C 
ATOM     67  C   UNL A   1      42.347  27.614  33.971  1.00  0.00     0.029 A 
ATOM     68  C   UNL A   1      43.640  27.830  33.501  1.00  0.00     0.049 A 
ATOM     69  H   UNL A   1      44.339  29.805  33.251  1.00  0.00     0.167 HD
ATOM     70  C   UNL A   1      45.742  27.258  32.341  1.00  0.00     0.074 A 
ATOM     71  C   UNL A   1      45.887  28.407  31.472  1.00  0.00     0.031 C 
ATOM     72  C   UNL A   1      44.810  27.009  33.304  1.00  0.00     0.037 A 
BRANCH  59  73
ATOM     73  C   UNL A   1      42.112  31.731  31.803  1.00  0.00     0.064 A 
ATOM     74  C   UNL A   1      43.251  32.550  31.737  1.00  0.00     0.173 A 
ATOM     75  C   UNL A   1      40.956  32.255  32.386  1.00  0.00     0.173 A 
ATOM     76  F   UNL A   1      44.387  32.073  31.199  1.00  0.00    -0.203 F 
ATOM     77  C   UNL A   1      43.254  33.826  32.283  1.00  0.00     0.198 A 
ATOM     78  C   UNL A   1      40.956  33.545  32.920  1.00  0.00     0.198 A 
ATOM     79  F   UNL A   1      39.849  31.505  32.490  1.00  0.00    -0.203 F 
ATOM     80  F   UNL A   1      44.378  34.555  32.262  1.00  0.00    -0.200 F 
ATOM     81  C   UNL A   1      42.109  34.320  32.885  1.00  0.00     0.200 A 
ATOM     82  F   UNL A   1      39.852  34.026  33.509  1.00  0.00    -0.200 F 
ATOM     83  F   UNL A   1      42.123  35.536  33.448  1.00  0.00    -0.200 F 
ENDBRANCH  59  73
BRANCH  60  84
ATOM     84  C   UNL A   1      48.759  26.503  28.708  1.00  0.00     0.064 A 
ATOM     85  C   UNL A   1      48.973  25.873  27.464  1.00  0.00     0.173 A 
ATOM     86  C   UNL A   1      49.659  27.528  29.037  1.00  0.00     0.173 A 
ATOM     87  F   UNL A   1      48.240  24.804  27.114  1.00  0.00    -0.203 F 
ATOM     88  C   UNL A   1      49.938  26.324  26.560  1.00  0.00     0.198 A 
ATOM     89  C   UNL A   1      50.607  27.999  28.123  1.00  0.00     0.198 A 
ATOM     90  F   UNL A   1      49.637  28.107  30.245  1.00  0.00    -0.203 F 
ATOM     91  F   UNL A   1      50.083  25.713  25.376  1.00  0.00    -0.200 F 
ATOM     92  C   UNL A   1      50.734  27.408  26.879  1.00  0.00     0.200 A 
ATOM     93  F   UNL A   1      51.383  29.041  28.450  1.00  0.00    -0.200 F 
ATOM     94  F   UNL A   1      51.625  27.878  25.995  1.00  0.00    -0.200 F 
ENDBRANCH  60  84
BRANCH  72  95
ATOM     95  C   UNL A   1      44.933  25.712  34.014  1.00  0.00     0.064 A 
ATOM     96  C   UNL A   1      45.514  25.668  35.288  1.00  0.00     0.173 A 
ATOM     97  C   UNL A   1      44.412  24.527  33.482  1.00  0.00     0.173 A 
ATOM     98  F   UNL A   1      46.017  26.782  35.842  1.00  0.00    -0.203 F 
ATOM     99  C   UNL A   1      45.545  24.484  36.018  1.00  0.00     0.198 A 
ATOM    100  C   UNL A   1      44.419  23.356  34.231  1.00  0.00     0.198 A 
ATOM    101  F   UNL A   1      43.864  24.499  32.257  1.00  0.00    -0.203 F 
ATOM    102  F   UNL A   1      46.091  24.465  37.241  1.00  0.00    -0.200 F 
ATOM    103  C   UNL A   1      44.981  23.333  35.495  1.00  0.00     0.200 A 
ATOM    104  F   UNL A   1      43.853  22.249  33.739  1.00  0.00    -0.200 F 
ATOM    105  F   UNL A   1      44.960  22.203  36.216  1.00  0.00    -0.200 F 
ENDBRANCH  72  95
ENDBRANCH  46  47
ENDBRANCH  39  41
ENDBRANCH  38  39
ENDBRANCH  37  38
ENDBRANCH  36  37
ENDBRANCH  35  36
ENDBRANCH   1  35
TORSDOF 17
ENDMDL
MODEL 3
REMARK VINA RESULT:     -12.2      2.142      5.531
REMARK SMILES Cc1c(CCC(=O)N2CCC(C(=O)OCCOCCOC(=O)c3ccc(-c4c5nc(c(-c6c(F)c(F)c(F)c(F)c6F)c6ccc([nH]6)c(-c6c(F)c(F)c(F)c(F)c6F)c6nc(c(-c7c(F)c(F)c(F)c(F)c7F)c7ccc4[nH]7)C=C6)C=C5)cc3)CC2)c(=O)oc2cc3oc4c(c3cc12)CCCC4
REMARK SMILES IDX 16 1 15 2 14 3 12 4 13 5 11 6 6 7 7 8 8 9 9 10 87 11 10 12
REMARK SMILES IDX 86 13 5 14 4 15 3 16 1 17 2 18 99 19 88 20 91 21 98 22 89 23
REMARK SMILES IDX 90 24 92 25 97 26 93 27 96 28 94 29 95 30 100 31 103 32
REMARK SMILES IDX 101 33 102 34 17 35 18 36 19 37 20 38 21 39 22 40 23 41
REMARK SMILES IDX 24 42 85 43 25 44 84 45 26 46 27 47 28 48 78 49 29 50 83 51
REMARK SMILES IDX 77 52 79 53 30 54 82 55 76 56 75 57 31 59 63 60 43 61 62 62
REMARK SMILES IDX 44 63 47 64 61 65 80 66 45 67 46 68 60 70 81 71 48 72 32 73
REMARK SMILES IDX 33 74 41 75 34 76 35 77 39 78 42 79 36 80 37 81 40 82 38 83
REMARK SMILES IDX 64 84 65 85 73 86 66 87 67 88 71 89 74 90 68 91 69 92 72 93
REMARK SMILES IDX 70 94 49 95 50 96 58 97 51 98 52 99 56 100 59 101 53 102
REMARK SMILES IDX 54 103 57 104 55 105
REMARK H PARENT 79 58 47 69
REMARK Flexibility Score: inf
ROOT
ATOM      1  C   UNL A   1      31.417  29.793  24.756  1.00  0.00     0.202 C 
ENDROOT
BRANCH   1   2
ATOM      2  C   UNL A   1      31.949  28.583  23.973  1.00  0.00     0.261 C 
BRANCH   2   3
ATOM      3  O   UNL A   1      31.333  28.295  22.693  1.00  0.00    -0.463 OA
BRANCH   3   4
ATOM      4  C   UNL A   1      31.296  26.991  22.337  1.00  0.00     0.309 C 
ATOM      5  O   UNL A   1      31.090  26.603  21.188  1.00  0.00    -0.252 OA
BRANCH   4   6
ATOM      6  C   UNL A   1      31.290  25.984  23.464  1.00  0.00     0.103 C 
ATOM      7  C   UNL A   1      32.099  22.333  25.347  1.00  0.00     0.222 C 
ATOM      8  O   UNL A   1      31.142  21.569  25.482  1.00  0.00    -0.275 OA
ATOM      9  N   UNL A   1      31.904  23.690  25.087  1.00  0.00    -0.343 N 
ATOM     10  C   UNL A   1      30.654  24.444  25.385  1.00  0.00     0.120 C 
ATOM     11  C   UNL A   1      32.860  24.394  24.287  1.00  0.00     0.120 C 
ATOM     12  C   UNL A   1      30.118  25.378  24.224  1.00  0.00     0.037 C 
ATOM     13  C   UNL A   1      32.140  24.817  23.030  1.00  0.00     0.037 C 
BRANCH   7  14
ATOM     14  C   UNL A   1      33.562  21.830  25.610  1.00  0.00     0.105 C 
BRANCH  14  15
ATOM     15  C   UNL A   1      34.520  21.372  24.467  1.00  0.00     0.053 C 
BRANCH  15  16
ATOM     16  C   UNL A   1      36.021  21.419  24.775  1.00  0.00     0.042 A 
ATOM     17  C   UNL A   1      36.211  23.893  24.332  1.00  0.00     0.046 C 
ATOM     18  C   UNL A   1      36.716  22.570  24.843  1.00  0.00    -0.030 A 
ATOM     19  C   UNL A   1      37.936  22.534  25.651  1.00  0.00     0.022 A 
ATOM     20  C   UNL A   1      36.762  20.131  24.986  1.00  0.00     0.339 A 
ATOM     21  C   UNL A   1      38.725  21.396  25.662  1.00  0.00     0.142 A 
ATOM     22  C   UNL A   1      38.303  23.593  26.470  1.00  0.00     0.024 A 
ATOM     23  O   UNL A   1      36.188  19.051  24.910  1.00  0.00    -0.246 OA
ATOM     24  O   UNL A   1      38.157  20.208  25.161  1.00  0.00    -0.422 OA
ATOM     25  C   UNL A   1      40.048  21.403  26.153  1.00  0.00     0.095 A 
ATOM     26  C   UNL A   1      39.533  23.583  27.121  1.00  0.00     0.025 A 
ATOM     27  C   UNL A   1      40.439  22.595  26.772  1.00  0.00     0.138 A 
ATOM     28  C   UNL A   1      40.223  24.558  27.867  1.00  0.00     0.001 A 
ATOM     29  O   UNL A   1      41.709  23.102  26.968  1.00  0.00    -0.461 OA
ATOM     30  C   UNL A   1      41.515  24.379  27.430  1.00  0.00     0.108 A 
ATOM     31  C   UNL A   1      39.756  25.908  28.253  1.00  0.00     0.040 C 
ATOM     32  C   UNL A   1      42.250  25.556  26.857  1.00  0.00     0.076 C 
ATOM     33  C   UNL A   1      39.945  26.844  27.053  1.00  0.00     0.005 C 
ATOM     34  C   UNL A   1      41.161  26.449  26.163  1.00  0.00     0.008 C 
ENDBRANCH  15  16
ENDBRANCH  14  15
ENDBRANCH   7  14
ENDBRANCH   4   6
ENDBRANCH   3   4
ENDBRANCH   2   3
ENDBRANCH   1   2
BRANCH   1  35
ATOM     35  O   UNL A   1      31.438  29.758  26.173  1.00  0.00    -0.374 OA
BRANCH  35  36
ATOM     36  C   UNL A   1      32.313  28.860  26.840  1.00  0.00     0.202 C 
BRANCH  36  37
ATOM     37  C   UNL A   1      33.836  28.960  26.629  1.00  0.00     0.261 C 
BRANCH  37  38
ATOM     38  O   UNL A   1      34.596  29.181  27.832  1.00  0.00    -0.460 OA
BRANCH  38  39
ATOM     39  C   UNL A   1      35.379  30.299  27.856  1.00  0.00     0.338 C 
ATOM     40  O   UNL A   1      35.047  31.429  27.621  1.00  0.00    -0.246 OA
BRANCH  39  41
ATOM     41  C   UNL A   1      36.682  29.947  28.475  1.00  0.00     0.060 A 
ATOM     42  C   UNL A   1      37.891  30.218  27.840  1.00  0.00     0.016 A 
ATOM     43  C   UNL A   1      36.672  29.325  29.729  1.00  0.00     0.016 A 
ATOM     44  C   UNL A   1      39.091  29.879  28.478  1.00  0.00     0.010 A 
ATOM     45  C   UNL A   1      37.864  28.935  30.335  1.00  0.00     0.010 A 
ATOM     46  C   UNL A   1      39.089  29.240  29.734  1.00  0.00    -0.014 A 
BRANCH  46  47
ATOM     47  C   UNL A   1      40.364  29.082  30.472  1.00  0.00     0.031 A 
ATOM     48  C   UNL A   1      41.596  29.627  29.805  1.00  0.00     0.074 A 
ATOM     49  C   UNL A   1      40.396  28.911  31.811  1.00  0.00     0.049 A 
ATOM     50  N   UNL A   1      42.001  30.862  29.922  1.00  0.00    -0.248 NA
ATOM     51  C   UNL A   1      42.298  28.878  28.763  1.00  0.00     0.031 C 
ATOM     52  C   UNL A   1      39.514  29.624  32.740  1.00  0.00     0.029 A 
ATOM     53  N   UNL A   1      41.335  28.310  32.620  1.00  0.00    -0.354 N 
ATOM     54  C   UNL A   1      42.986  31.066  28.967  1.00  0.00     0.074 A 
ATOM     55  C   UNL A   1      43.138  29.805  28.276  1.00  0.00     0.031 C 
ATOM     56  C   UNL A   1      40.047  29.553  33.977  1.00  0.00     0.029 A 
ATOM     57  C   UNL A   1      41.216  28.673  33.959  1.00  0.00     0.049 A 
ATOM     58  H   UNL A   1      42.020  27.687  32.287  1.00  0.00     0.167 HD
ATOM     59  C   UNL A   1      43.632  32.251  28.790  1.00  0.00     0.037 A 
ATOM     60  C   UNL A   1      42.251  28.764  34.841  1.00  0.00     0.037 A 
ATOM     61  C   UNL A   1      43.259  33.311  29.676  1.00  0.00     0.049 A 
ATOM     62  C   UNL A   1      42.972  29.980  34.315  1.00  0.00     0.074 A 
ATOM     63  C   UNL A   1      42.425  34.408  29.670  1.00  0.00     0.029 A 
ATOM     64  N   UNL A   1      43.843  33.333  30.920  1.00  0.00    -0.354 N 
ATOM     65  N   UNL A   1      42.652  31.227  34.538  1.00  0.00    -0.248 NA
ATOM     66  C   UNL A   1      43.893  29.771  33.195  1.00  0.00     0.031 C 
ATOM     67  C   UNL A   1      42.198  34.719  31.049  1.00  0.00     0.029 A 
ATOM     68  C   UNL A   1      42.883  33.764  31.795  1.00  0.00     0.049 A 
ATOM     69  H   UNL A   1      44.770  33.086  31.138  1.00  0.00     0.167 HD
ATOM     70  C   UNL A   1      43.126  31.929  33.428  1.00  0.00     0.074 A 
ATOM     71  C   UNL A   1      43.882  30.975  32.644  1.00  0.00     0.031 C 
ATOM     72  C   UNL A   1      42.739  33.198  33.114  1.00  0.00     0.037 A 
BRANCH  59  73
ATOM     73  C   UNL A   1      44.807  32.461  27.917  1.00  0.00     0.064 A 
ATOM     74  C   UNL A   1      46.055  32.017  28.385  1.00  0.00     0.173 A 
ATOM     75  C   UNL A   1      44.782  33.294  26.797  1.00  0.00     0.173 A 
ATOM     76  F   UNL A   1      46.119  31.230  29.473  1.00  0.00    -0.203 F 
ATOM     77  C   UNL A   1      47.238  32.434  27.790  1.00  0.00     0.198 A 
ATOM     78  C   UNL A   1      45.972  33.698  26.189  1.00  0.00     0.198 A 
ATOM     79  F   UNL A   1      43.616  33.759  26.324  1.00  0.00    -0.203 F 
ATOM     80  F   UNL A   1      48.413  32.045  28.303  1.00  0.00    -0.200 F 
ATOM     81  C   UNL A   1      47.197  33.283  26.697  1.00  0.00     0.200 A 
ATOM     82  F   UNL A   1      45.939  34.526  25.135  1.00  0.00    -0.200 F 
ATOM     83  F   UNL A   1      48.339  33.718  26.147  1.00  0.00    -0.200 F 
ENDBRANCH  59  73
BRANCH  60  84
ATOM     84  C   UNL A   1      42.954  27.487  35.192  1.00  0.00     0.064 A 
ATOM     85  C   UNL A   1      42.227  26.279  35.141  1.00  0.00     0.173 A 
ATOM     86  C   UNL A   1      44.290  27.379  35.607  1.00  0.00     0.173 A 
ATOM     87  F   UNL A   1      40.912  26.294  34.871  1.00  0.00    -0.203 F 
ATOM     88  C   UNL A   1      42.831  25.040  35.366  1.00  0.00     0.198 A 
ATOM     89  C   UNL A   1      44.903  26.138  35.805  1.00  0.00     0.198 A 
ATOM     90  F   UNL A   1      45.038  28.470  35.822  1.00  0.00    -0.203 F 
ATOM     91  F   UNL A   1      42.106  23.916  35.275  1.00  0.00    -0.200 F 
ATOM     92  C   UNL A   1      44.178  24.969  35.668  1.00  0.00     0.200 A 
ATOM     93  F   UNL A   1      46.206  26.083  36.113  1.00  0.00    -0.200 F 
ATOM     94  F   UNL A   1      44.774  23.780  35.833  1.00  0.00    -0.200 F 
ENDBRANCH  60  84
BRANCH  72  95
ATOM     95  C   UNL A   1      41.950  33.915  34.147  1.00  0.00     0.064 A 
ATOM     96  C   UNL A   1      42.595  34.774  35.045  1.00  0.00     0.173 A 
ATOM     97  C   UNL A   1      40.554  33.822  34.205  1.00  0.00     0.173 A 
ATOM     98  F   UNL A   1      43.931  34.903  35.017  1.00  0.00    -0.203 F 
ATOM     99  C   UNL A   1      41.867  35.539  35.951  1.00  0.00     0.198 A 
ATOM    100  C   UNL A   1      39.833  34.612  35.092  1.00  0.00     0.198 A 
ATOM    101  F   UNL A   1      39.880  32.998  33.387  1.00  0.00    -0.203 F 
ATOM    102  F   UNL A   1      42.501  36.366  36.791  1.00  0.00    -0.200 F 
ATOM    103  C   UNL A   1      40.484  35.469  35.961  1.00  0.00     0.200 A 
ATOM    104  F   UNL A   1      38.497  34.566  35.087  1.00  0.00    -0.200 F 
ATOM    105  F   UNL A   1      39.775  36.243  36.795  1.00  0.00    -0.200 F 
ENDBRANCH  72  95
ENDBRANCH  46  47
ENDBRANCH  39  41
ENDBRANCH  38  39
ENDBRANCH  37  38
ENDBRANCH  36  37
ENDBRANCH  35  36
ENDBRANCH   1  35
TORSDOF 17
ENDMDL
