MODEL 1
REMARK VINA RESULT:     -11.4      0.000      0.000
REMARK SMILES CC[C@@]1(CO)CCCN(c2nc(-c3ccc(C)s3)ccc2C(=O)OCCOCCOC(=O)c2ccc(-c3c4nc(c(-c5c(F)c(F)c(F)c(F)c5F)c5ccc([nH]5)c(-c5c(F)c(F)c(F)c(F)c5F)c5nc(c(-c6c(F)c(F)c(F)c(F)c6F)c6ccc3[nH]6)C=C5)C=C4)cc2)C1
REMARK SMILES IDX 26 1 25 2 24 3 22 4 23 5 21 6 10 7 11 8 12 9 20 10 19 11
REMARK SMILES IDX 9 12 3 13 6 14 96 15 7 16 8 17 2 18 1 19 4 20 5 21 13 23
REMARK SMILES IDX 14 24 18 25 15 26 16 27 17 28 27 29 28 30 29 31 30 32 31 33
REMARK SMILES IDX 32 34 33 35 34 36 95 37 35 38 94 39 36 40 37 41 38 42 88 43
REMARK SMILES IDX 39 44 93 45 87 46 89 47 40 48 92 49 86 50 85 51 41 53 73 54
REMARK SMILES IDX 53 55 72 56 54 57 57 58 71 59 90 60 55 61 56 62 70 64 91 65
REMARK SMILES IDX 58 66 42 67 43 68 51 69 44 70 45 71 49 72 52 73 46 74 47 75
REMARK SMILES IDX 50 76 48 77 74 78 75 79 83 80 76 81 77 82 81 83 84 84 78 85
REMARK SMILES IDX 79 86 82 87 80 88 59 89 60 90 68 91 61 92 62 93 66 94 69 95
REMARK SMILES IDX 63 96 64 97 67 98 65 99
REMARK H PARENT 5 22 89 52 57 63
REMARK Flexibility Score: inf
ROOT
ATOM      1  C   UNL A   1      31.562  27.147  24.805  1.00  0.00     0.202 C 
ENDROOT
BRANCH   1   2
ATOM      2  C   UNL A   1      30.636  25.958  24.543  1.00  0.00     0.261 C 
BRANCH   2   3
ATOM      3  O   UNL A   1      31.403  24.811  24.131  1.00  0.00    -0.460 OA
BRANCH   3   4
ATOM      4  C   UNL A   1      31.812  23.992  25.134  1.00  0.00     0.341 C 
ATOM      5  O   UNL A   1      31.098  23.495  25.989  1.00  0.00    -0.246 OA
BRANCH   4   6
ATOM      6  C   UNL A   1      33.267  23.763  25.016  1.00  0.00     0.102 A 
ATOM      7  C   UNL A   1      33.786  22.481  24.800  1.00  0.00     0.143 A 
ATOM      8  N   UNL A   1      35.108  22.236  24.961  1.00  0.00    -0.229 NA
ATOM      9  C   UNL A   1      35.933  23.258  25.281  1.00  0.00     0.083 A 
ATOM     10  C   UNL A   1      34.144  24.829  25.258  1.00  0.00     0.022 A 
ATOM     11  C   UNL A   1      35.503  24.573  25.388  1.00  0.00     0.031 A 
BRANCH   7  12
ATOM     12  N   UNL A   1      33.053  21.385  24.423  1.00  0.00    -0.355 N 
ATOM     13  C   UNL A   1      33.062  18.960  24.729  1.00  0.00     0.011 C 
ATOM     14  C   UNL A   1      32.142  18.866  23.474  1.00  0.00     0.013 C 
ATOM     15  C   UNL A   1      32.850  20.334  25.402  1.00  0.00     0.127 C 
ATOM     16  C   UNL A   1      32.286  20.057  22.523  1.00  0.00     0.022 C 
ATOM     17  C   UNL A   1      32.194  21.391  23.259  1.00  0.00     0.118 C 
BRANCH  13  18
ATOM     18  C   UNL A   1      32.631  17.827  25.703  1.00  0.00     0.008 C 
ATOM     19  C   UNL A   1      33.358  16.500  25.517  1.00  0.00     0.004 C 
ENDBRANCH  13  18
BRANCH  13  20
ATOM     20  C   UNL A   1      34.553  18.836  24.331  1.00  0.00     0.164 C 
BRANCH  20  21
ATOM     21  O   UNL A   1      35.396  19.357  25.356  1.00  0.00    -0.396 OA
ATOM     22  H   UNL A   1      35.089  19.041  26.219  1.00  0.00     0.210 HD
ENDBRANCH  20  21
ENDBRANCH  13  20
ENDBRANCH   7  12
BRANCH   9  23
ATOM     23  C   UNL A   1      37.284  22.876  25.681  1.00  0.00     0.053 A 
ATOM     24  C   UNL A   1      38.215  23.645  26.355  1.00  0.00     0.022 A 
ATOM     25  S   UNL A   1      37.894  21.312  25.350  1.00  0.00    -0.139 S 
ATOM     26  C   UNL A   1      39.431  22.946  26.594  1.00  0.00     0.016 A 
ATOM     27  C   UNL A   1      39.399  21.665  26.088  1.00  0.00     0.002 A 
ATOM     28  C   UNL A   1      40.472  20.633  26.127  1.00  0.00     0.056 C 
ENDBRANCH   9  23
ENDBRANCH   4   6
ENDBRANCH   3   4
ENDBRANCH   2   3
ENDBRANCH   1   2
BRANCH   1  29
ATOM     29  O   UNL A   1      31.058  28.221  25.602  1.00  0.00    -0.374 OA
BRANCH  29  30
ATOM     30  C   UNL A   1      31.440  29.544  25.249  1.00  0.00     0.202 C 
BRANCH  30  31
ATOM     31  C   UNL A   1      32.773  30.104  25.757  1.00  0.00     0.261 C 
BRANCH  31  32
ATOM     32  O   UNL A   1      32.757  30.426  27.144  1.00  0.00    -0.460 OA
BRANCH  32  33
ATOM     33  C   UNL A   1      33.469  31.538  27.434  1.00  0.00     0.338 C 
ATOM     34  O   UNL A   1      33.082  32.697  27.452  1.00  0.00    -0.246 OA
BRANCH  33  35
ATOM     35  C   UNL A   1      34.792  31.127  27.911  1.00  0.00     0.060 A 
ATOM     36  C   UNL A   1      34.963  29.783  28.259  1.00  0.00     0.016 A 
ATOM     37  C   UNL A   1      35.838  32.045  28.021  1.00  0.00     0.016 A 
ATOM     38  C   UNL A   1      36.181  29.357  28.768  1.00  0.00     0.010 A 
ATOM     39  C   UNL A   1      37.058  31.619  28.539  1.00  0.00     0.010 A 
ATOM     40  C   UNL A   1      37.217  30.283  28.947  1.00  0.00    -0.014 A 
BRANCH  40  41
ATOM     41  C   UNL A   1      38.418  29.878  29.703  1.00  0.00     0.031 A 
ATOM     42  C   UNL A   1      38.601  30.405  31.095  1.00  0.00     0.074 A 
ATOM     43  C   UNL A   1      39.304  29.027  29.160  1.00  0.00     0.049 A 
ATOM     44  N   UNL A   1      39.578  30.197  31.939  1.00  0.00    -0.248 NA
ATOM     45  C   UNL A   1      37.542  31.292  31.604  1.00  0.00     0.031 C 
ATOM     46  C   UNL A   1      39.194  28.435  27.828  1.00  0.00     0.029 A 
ATOM     47  N   UNL A   1      40.469  28.515  29.664  1.00  0.00    -0.354 N 
ATOM     48  C   UNL A   1      39.253  30.929  33.073  1.00  0.00     0.074 A 
ATOM     49  C   UNL A   1      38.012  31.618  32.798  1.00  0.00     0.031 C 
ATOM     50  C   UNL A   1      40.258  27.642  27.617  1.00  0.00     0.029 A 
ATOM     51  C   UNL A   1      41.133  27.699  28.785  1.00  0.00     0.049 A 
ATOM     52  H   UNL A   1      40.799  28.715  30.571  1.00  0.00     0.167 HD
ATOM     53  C   UNL A   1      39.930  31.007  34.242  1.00  0.00     0.037 A 
ATOM     54  C   UNL A   1      42.325  27.087  28.910  1.00  0.00     0.037 A 
ATOM     55  C   UNL A   1      41.167  30.316  34.498  1.00  0.00     0.049 A 
ATOM     56  C   UNL A   1      43.091  27.243  30.197  1.00  0.00     0.074 A 
ATOM     57  C   UNL A   1      41.927  30.304  35.653  1.00  0.00     0.029 A 
ATOM     58  N   UNL A   1      41.832  29.523  33.572  1.00  0.00    -0.354 N 
ATOM     59  N   UNL A   1      42.766  27.908  31.280  1.00  0.00    -0.248 NA
ATOM     60  C   UNL A   1      44.388  26.560  30.280  1.00  0.00     0.031 C 
ATOM     61  C   UNL A   1      43.083  29.557  35.405  1.00  0.00     0.029 A 
ATOM     62  C   UNL A   1      43.011  29.044  34.120  1.00  0.00     0.049 A 
ATOM     63  H   UNL A   1      41.512  29.329  32.662  1.00  0.00     0.167 HD
ATOM     64  C   UNL A   1      43.801  27.700  32.183  1.00  0.00     0.074 A 
ATOM     65  C   UNL A   1      44.757  26.834  31.524  1.00  0.00     0.031 C 
ATOM     66  C   UNL A   1      43.948  28.182  33.443  1.00  0.00     0.037 A 
BRANCH  53  67
ATOM     67  C   UNL A   1      39.366  31.895  35.314  1.00  0.00     0.064 A 
ATOM     68  C   UNL A   1      38.544  31.395  36.336  1.00  0.00     0.173 A 
ATOM     69  C   UNL A   1      39.666  33.265  35.328  1.00  0.00     0.173 A 
ATOM     70  F   UNL A   1      38.210  30.096  36.362  1.00  0.00    -0.203 F 
ATOM     71  C   UNL A   1      38.019  32.239  37.313  1.00  0.00     0.198 A 
ATOM     72  C   UNL A   1      39.169  34.099  36.326  1.00  0.00     0.198 A 
ATOM     73  F   UNL A   1      40.448  33.796  34.376  1.00  0.00    -0.203 F 
ATOM     74  F   UNL A   1      37.192  31.749  38.246  1.00  0.00    -0.200 F 
ATOM     75  C   UNL A   1      38.339  33.588  37.311  1.00  0.00     0.200 A 
ATOM     76  F   UNL A   1      39.490  35.402  36.329  1.00  0.00    -0.200 F 
ATOM     77  F   UNL A   1      37.841  34.399  38.255  1.00  0.00    -0.200 F 
ENDBRANCH  53  67
BRANCH  54  78
ATOM     78  C   UNL A   1      42.863  26.279  27.785  1.00  0.00     0.064 A 
ATOM     79  C   UNL A   1      42.588  24.909  27.679  1.00  0.00     0.173 A 
ATOM     80  C   UNL A   1      43.663  26.862  26.790  1.00  0.00     0.173 A 
ATOM     81  F   UNL A   1      41.845  24.301  28.615  1.00  0.00    -0.203 F 
ATOM     82  C   UNL A   1      43.108  24.149  26.633  1.00  0.00     0.198 A 
ATOM     83  C   UNL A   1      44.155  26.108  25.728  1.00  0.00     0.198 A 
ATOM     84  F   UNL A   1      43.953  28.170  26.841  1.00  0.00    -0.203 F 
ATOM     85  F   UNL A   1      42.866  22.832  26.581  1.00  0.00    -0.200 F 
ATOM     86  C   UNL A   1      43.885  24.751  25.654  1.00  0.00     0.200 A 
ATOM     87  F   UNL A   1      44.891  26.698  24.775  1.00  0.00    -0.200 F 
ATOM     88  F   UNL A   1      44.378  24.022  24.644  1.00  0.00    -0.200 F 
ENDBRANCH  54  78
BRANCH  66  89
ATOM     89  C   UNL A   1      45.173  27.753  34.202  1.00  0.00     0.064 A 
ATOM     90  C   UNL A   1      45.195  26.577  34.966  1.00  0.00     0.173 A 
ATOM     91  C   UNL A   1      46.351  28.512  34.131  1.00  0.00     0.173 A 
ATOM     92  F   UNL A   1      44.091  25.822  35.077  1.00  0.00    -0.203 F 
ATOM     93  C   UNL A   1      46.341  26.194  35.658  1.00  0.00     0.198 A 
ATOM     94  C   UNL A   1      47.506  28.107  34.794  1.00  0.00     0.198 A 
ATOM     95  F   UNL A   1      46.388  29.641  33.407  1.00  0.00    -0.203 F 
ATOM     96  F   UNL A   1      46.322  25.098  36.429  1.00  0.00    -0.200 F 
ATOM     97  C   UNL A   1      47.497  26.955  35.565  1.00  0.00     0.200 A 
ATOM     98  F   UNL A   1      48.627  28.835  34.688  1.00  0.00    -0.200 F 
ATOM     99  F   UNL A   1      48.601  26.582  36.226  1.00  0.00    -0.200 F 
ENDBRANCH  66  89
ENDBRANCH  40  41
ENDBRANCH  33  35
ENDBRANCH  32  33
ENDBRANCH  31  32
ENDBRANCH  30  31
ENDBRANCH  29  30
ENDBRANCH   1  29
TORSDOF 19
ENDMDL
MODEL 2
REMARK VINA RESULT:     -11.1      0.643      7.087
REMARK SMILES CC[C@@]1(CO)CCCN(c2nc(-c3ccc(C)s3)ccc2C(=O)OCCOCCOC(=O)c2ccc(-c3c4nc(c(-c5c(F)c(F)c(F)c(F)c5F)c5ccc([nH]5)c(-c5c(F)c(F)c(F)c(F)c5F)c5nc(c(-c6c(F)c(F)c(F)c(F)c6F)c6ccc3[nH]6)C=C5)C=C4)cc2)C1
REMARK SMILES IDX 26 1 25 2 24 3 22 4 23 5 21 6 10 7 11 8 12 9 20 10 19 11
REMARK SMILES IDX 9 12 3 13 6 14 96 15 7 16 8 17 2 18 1 19 4 20 5 21 13 23
REMARK SMILES IDX 14 24 18 25 15 26 16 27 17 28 27 29 28 30 29 31 30 32 31 33
REMARK SMILES IDX 32 34 33 35 34 36 95 37 35 38 94 39 36 40 37 41 38 42 88 43
REMARK SMILES IDX 39 44 93 45 87 46 89 47 40 48 92 49 86 50 85 51 41 53 73 54
REMARK SMILES IDX 53 55 72 56 54 57 57 58 71 59 90 60 55 61 56 62 70 64 91 65
REMARK SMILES IDX 58 66 42 67 43 68 51 69 44 70 45 71 49 72 52 73 46 74 47 75
REMARK SMILES IDX 50 76 48 77 74 78 75 79 83 80 76 81 77 82 81 83 84 84 78 85
REMARK SMILES IDX 79 86 82 87 80 88 59 89 60 90 68 91 61 92 62 93 66 94 69 95
REMARK SMILES IDX 63 96 64 97 67 98 65 99
REMARK H PARENT 5 22 89 52 57 63
REMARK Flexibility Score: inf
ROOT
ATOM      1  C   UNL A   1      30.676  26.724  24.830  1.00  0.00     0.202 C 
ENDROOT
BRANCH   1   2
ATOM      2  C   UNL A   1      30.095  25.500  25.542  1.00  0.00     0.261 C 
BRANCH   2   3
ATOM      3  O   UNL A   1      31.120  24.509  25.744  1.00  0.00    -0.460 OA
BRANCH   3   4
ATOM      4  C   UNL A   1      31.502  23.828  24.633  1.00  0.00     0.341 C 
ATOM      5  O   UNL A   1      30.761  23.408  23.761  1.00  0.00    -0.246 OA
BRANCH   4   6
ATOM      6  C   UNL A   1      32.973  23.696  24.622  1.00  0.00     0.102 A 
ATOM      7  C   UNL A   1      33.591  22.441  24.569  1.00  0.00     0.143 A 
ATOM      8  N   UNL A   1      34.914  22.311  24.829  1.00  0.00    -0.229 NA
ATOM      9  C   UNL A   1      35.645  23.418  25.088  1.00  0.00     0.083 A 
ATOM     10  C   UNL A   1      33.759  24.842  24.801  1.00  0.00     0.022 A 
ATOM     11  C   UNL A   1      35.122  24.701  25.034  1.00  0.00     0.031 A 
BRANCH   7  12
ATOM     12  N   UNL A   1      32.959  21.263  24.266  1.00  0.00    -0.355 N 
ATOM     13  C   UNL A   1      33.094  18.891  24.843  1.00  0.00     0.011 C 
ATOM     14  C   UNL A   1      32.283  18.599  23.545  1.00  0.00     0.013 C 
ATOM     15  C   UNL A   1      32.745  20.311  25.341  1.00  0.00     0.127 C 
ATOM     16  C   UNL A   1      32.427  19.687  22.478  1.00  0.00     0.022 C 
ATOM     17  C   UNL A   1      32.195  21.082  23.051  1.00  0.00     0.118 C 
BRANCH  13  18
ATOM     18  C   UNL A   1      32.658  17.842  25.906  1.00  0.00     0.008 C 
ATOM     19  C   UNL A   1      32.437  16.431  25.371  1.00  0.00     0.004 C 
ENDBRANCH  13  18
BRANCH  13  20
ATOM     20  C   UNL A   1      34.616  18.829  24.569  1.00  0.00     0.164 C 
BRANCH  20  21
ATOM     21  O   UNL A   1      35.108  17.501  24.732  1.00  0.00    -0.396 OA
ATOM     22  H   UNL A   1      36.016  17.532  25.069  1.00  0.00     0.210 HD
ENDBRANCH  20  21
ENDBRANCH  13  20
ENDBRANCH   7  12
BRANCH   9  23
ATOM     23  C   UNL A   1      36.991  23.178  25.600  1.00  0.00     0.053 A 
ATOM     24  C   UNL A   1      37.824  24.076  26.241  1.00  0.00     0.022 A 
ATOM     25  S   UNL A   1      37.724  21.637  25.469  1.00  0.00    -0.139 S 
ATOM     26  C   UNL A   1      39.066  23.496  26.620  1.00  0.00     0.016 A 
ATOM     27  C   UNL A   1      39.153  22.171  26.249  1.00  0.00     0.002 A 
ATOM     28  C   UNL A   1      40.288  21.230  26.456  1.00  0.00     0.056 C 
ENDBRANCH   9  23
ENDBRANCH   4   6
ENDBRANCH   3   4
ENDBRANCH   2   3
ENDBRANCH   1   2
BRANCH   1  29
ATOM     29  O   UNL A   1      31.070  27.837  25.635  1.00  0.00    -0.374 OA
BRANCH  29  30
ATOM     30  C   UNL A   1      32.197  28.593  25.212  1.00  0.00     0.202 C 
BRANCH  30  31
ATOM     31  C   UNL A   1      32.355  30.042  25.687  1.00  0.00     0.261 C 
BRANCH  31  32
ATOM     32  O   UNL A   1      32.809  30.146  27.032  1.00  0.00    -0.460 OA
BRANCH  32  33
ATOM     33  C   UNL A   1      33.401  31.333  27.296  1.00  0.00     0.338 C 
ATOM     34  O   UNL A   1      32.909  32.450  27.236  1.00  0.00    -0.246 OA
BRANCH  33  35
ATOM     35  C   UNL A   1      34.730  31.070  27.856  1.00  0.00     0.060 A 
ATOM     36  C   UNL A   1      35.026  29.754  28.225  1.00  0.00     0.016 A 
ATOM     37  C   UNL A   1      35.661  32.098  28.019  1.00  0.00     0.016 A 
ATOM     38  C   UNL A   1      36.251  29.466  28.809  1.00  0.00     0.010 A 
ATOM     39  C   UNL A   1      36.886  31.810  28.613  1.00  0.00     0.010 A 
ATOM     40  C   UNL A   1      37.167  30.500  29.041  1.00  0.00    -0.014 A 
BRANCH  40  41
ATOM     41  C   UNL A   1      38.357  30.231  29.870  1.00  0.00     0.031 A 
ATOM     42  C   UNL A   1      39.454  29.382  29.299  1.00  0.00     0.074 A 
ATOM     43  C   UNL A   1      38.462  30.769  31.096  1.00  0.00     0.049 A 
ATOM     44  N   UNL A   1      40.580  29.005  29.844  1.00  0.00    -0.248 NA
ATOM     45  C   UNL A   1      39.250  28.887  27.927  1.00  0.00     0.031 C 
ATOM     46  C   UNL A   1      37.464  31.634  31.724  1.00  0.00     0.029 A 
ATOM     47  N   UNL A   1      39.457  30.665  32.030  1.00  0.00    -0.354 N 
ATOM     48  C   UNL A   1      41.216  28.226  28.887  1.00  0.00     0.074 A 
ATOM     49  C   UNL A   1      40.336  28.150  27.742  1.00  0.00     0.031 C 
ATOM     50  C   UNL A   1      37.898  31.979  32.948  1.00  0.00     0.029 A 
ATOM     51  C   UNL A   1      39.183  31.332  33.197  1.00  0.00     0.049 A 
ATOM     52  H   UNL A   1      40.289  30.160  31.880  1.00  0.00     0.167 HD
ATOM     53  C   UNL A   1      42.432  27.637  28.959  1.00  0.00     0.037 A 
ATOM     54  C   UNL A   1      39.890  31.391  34.341  1.00  0.00     0.037 A 
ATOM     55  C   UNL A   1      43.295  27.720  30.108  1.00  0.00     0.049 A 
ATOM     56  C   UNL A   1      41.210  30.671  34.420  1.00  0.00     0.074 A 
ATOM     57  C   UNL A   1      44.557  27.183  30.282  1.00  0.00     0.029 A 
ATOM     58  N   UNL A   1      42.972  28.377  31.289  1.00  0.00    -0.354 N 
ATOM     59  N   UNL A   1      41.824  29.964  33.501  1.00  0.00    -0.248 NA
ATOM     60  C   UNL A   1      41.937  30.763  35.691  1.00  0.00     0.031 C 
ATOM     61  C   UNL A   1      44.971  27.459  31.588  1.00  0.00     0.029 A 
ATOM     62  C   UNL A   1      43.999  28.228  32.208  1.00  0.00     0.049 A 
ATOM     63  H   UNL A   1      42.139  28.874  31.448  1.00  0.00     0.167 HD
ATOM     64  C   UNL A   1      43.021  29.551  34.072  1.00  0.00     0.074 A 
ATOM     65  C   UNL A   1      43.051  30.101  35.411  1.00  0.00     0.031 C 
ATOM     66  C   UNL A   1      44.006  28.786  33.537  1.00  0.00     0.037 A 
BRANCH  53  67
ATOM     67  C   UNL A   1      42.882  26.825  27.778  1.00  0.00     0.064 A 
ATOM     68  C   UNL A   1      43.667  27.376  26.753  1.00  0.00     0.173 A 
ATOM     69  C   UNL A   1      42.534  25.469  27.678  1.00  0.00     0.173 A 
ATOM     70  F   UNL A   1      44.015  28.671  26.789  1.00  0.00    -0.203 F 
ATOM     71  C   UNL A   1      44.062  26.608  25.659  1.00  0.00     0.198 A 
ATOM     72  C   UNL A   1      42.960  24.696  26.601  1.00  0.00     0.198 A 
ATOM     73  F   UNL A   1      41.785  24.891  28.628  1.00  0.00    -0.203 F 
ATOM     74  F   UNL A   1      44.765  27.170  24.667  1.00  0.00    -0.200 F 
ATOM     75  C   UNL A   1      43.714  25.268  25.589  1.00  0.00     0.200 A 
ATOM     76  F   UNL A   1      42.633  23.397  26.541  1.00  0.00    -0.200 F 
ATOM     77  F   UNL A   1      44.100  24.527  24.540  1.00  0.00    -0.200 F 
ENDBRANCH  53  67
BRANCH  54  78
ATOM     78  C   UNL A   1      39.356  32.153  35.500  1.00  0.00     0.064 A 
ATOM     79  C   UNL A   1      38.525  31.544  36.448  1.00  0.00     0.173 A 
ATOM     80  C   UNL A   1      39.670  33.509  35.684  1.00  0.00     0.173 A 
ATOM     81  F   UNL A   1      38.179  30.255  36.307  1.00  0.00    -0.203 F 
ATOM     82  C   UNL A   1      38.011  32.264  37.525  1.00  0.00     0.198 A 
ATOM     83  C   UNL A   1      39.182  34.219  36.778  1.00  0.00     0.198 A 
ATOM     84  F   UNL A   1      40.466  34.140  34.809  1.00  0.00    -0.203 F 
ATOM     85  F   UNL A   1      37.181  31.668  38.392  1.00  0.00    -0.200 F 
ATOM     86  C   UNL A   1      38.346  33.599  37.693  1.00  0.00     0.200 A 
ATOM     87  F   UNL A   1      39.524  35.504  36.945  1.00  0.00    -0.200 F 
ATOM     88  F   UNL A   1      37.859  34.290  38.733  1.00  0.00    -0.200 F 
ENDBRANCH  54  78
BRANCH  66  89
ATOM     89  C   UNL A   1      45.215  28.528  34.393  1.00  0.00     0.064 A 
ATOM     90  C   UNL A   1      45.295  27.417  35.244  1.00  0.00     0.173 A 
ATOM     91  C   UNL A   1      46.323  29.387  34.328  1.00  0.00     0.173 A 
ATOM     92  F   UNL A   1      44.258  26.572  35.353  1.00  0.00    -0.203 F 
ATOM     93  C   UNL A   1      46.426  27.194  36.025  1.00  0.00     0.198 A 
ATOM     94  C   UNL A   1      47.467  29.141  35.082  1.00  0.00     0.198 A 
ATOM     95  F   UNL A   1      46.303  30.460  33.523  1.00  0.00    -0.203 F 
ATOM     96  F   UNL A   1      46.458  26.158  36.876  1.00  0.00    -0.200 F 
ATOM     97  C   UNL A   1      47.513  28.050  35.938  1.00  0.00     0.200 A 
ATOM     98  F   UNL A   1      48.523  29.960  34.982  1.00  0.00    -0.200 F 
ATOM     99  F   UNL A   1      48.604  27.830  36.684  1.00  0.00    -0.200 F 
ENDBRANCH  66  89
ENDBRANCH  40  41
ENDBRANCH  33  35
ENDBRANCH  32  33
ENDBRANCH  31  32
ENDBRANCH  30  31
ENDBRANCH  29  30
ENDBRANCH   1  29
TORSDOF 19
ENDMDL
MODEL 3
REMARK VINA RESULT:     -10.7      4.838     10.392
REMARK SMILES CC[C@@]1(CO)CCCN(c2nc(-c3ccc(C)s3)ccc2C(=O)OCCOCCOC(=O)c2ccc(-c3c4nc(c(-c5c(F)c(F)c(F)c(F)c5F)c5ccc([nH]5)c(-c5c(F)c(F)c(F)c(F)c5F)c5nc(c(-c6c(F)c(F)c(F)c(F)c6F)c6ccc3[nH]6)C=C5)C=C4)cc2)C1
REMARK SMILES IDX 26 1 25 2 24 3 22 4 23 5 21 6 10 7 11 8 12 9 20 10 19 11
REMARK SMILES IDX 9 12 3 13 6 14 96 15 7 16 8 17 2 18 1 19 4 20 5 21 13 23
REMARK SMILES IDX 14 24 18 25 15 26 16 27 17 28 27 29 28 30 29 31 30 32 31 33
REMARK SMILES IDX 32 34 33 35 34 36 95 37 35 38 94 39 36 40 37 41 38 42 88 43
REMARK SMILES IDX 39 44 93 45 87 46 89 47 40 48 92 49 86 50 85 51 41 53 73 54
REMARK SMILES IDX 53 55 72 56 54 57 57 58 71 59 90 60 55 61 56 62 70 64 91 65
REMARK SMILES IDX 58 66 42 67 43 68 51 69 44 70 45 71 49 72 52 73 46 74 47 75
REMARK SMILES IDX 50 76 48 77 74 78 75 79 83 80 76 81 77 82 81 83 84 84 78 85
REMARK SMILES IDX 79 86 82 87 80 88 59 89 60 90 68 91 61 92 62 93 66 94 69 95
REMARK SMILES IDX 63 96 64 97 67 98 65 99
REMARK H PARENT 5 22 89 52 57 63
REMARK Flexibility Score: inf
ROOT
ATOM      1  C   UNL A   1      41.164  21.759  26.202  1.00  0.00     0.202 C 
ENDROOT
BRANCH   1   2
ATOM      2  C   UNL A   1      39.740  22.225  26.508  1.00  0.00     0.261 C 
BRANCH   2   3
ATOM      3  O   UNL A   1      38.914  22.108  25.335  1.00  0.00    -0.460 OA
BRANCH   3   4
ATOM      4  C   UNL A   1      37.613  22.462  25.499  1.00  0.00     0.341 C 
ATOM      5  O   UNL A   1      37.210  23.539  25.904  1.00  0.00    -0.246 OA
BRANCH   4   6
ATOM      6  C   UNL A   1      36.745  21.343  25.078  1.00  0.00     0.102 A 
ATOM      7  C   UNL A   1      35.376  21.530  24.851  1.00  0.00     0.143 A 
ATOM      8  N   UNL A   1      34.545  20.468  24.732  1.00  0.00    -0.229 NA
ATOM      9  C   UNL A   1      35.061  19.220  24.782  1.00  0.00     0.083 A 
ATOM     10  C   UNL A   1      37.278  20.048  25.037  1.00  0.00     0.022 A 
ATOM     11  C   UNL A   1      36.421  18.966  24.882  1.00  0.00     0.031 A 
BRANCH   7  12
ATOM     12  N   UNL A   1      34.755  22.747  24.730  1.00  0.00    -0.355 N 
ATOM     13  C   UNL A   1      32.670  23.834  25.400  1.00  0.00     0.011 C 
ATOM     14  C   UNL A   1      32.941  24.889  24.286  1.00  0.00     0.013 C 
ATOM     15  C   UNL A   1      34.020  23.251  25.875  1.00  0.00     0.127 C 
ATOM     16  C   UNL A   1      33.828  24.366  23.153  1.00  0.00     0.022 C 
ATOM     17  C   UNL A   1      35.089  23.688  23.682  1.00  0.00     0.118 C 
BRANCH  13  18
ATOM     18  C   UNL A   1      31.976  24.574  26.579  1.00  0.00     0.008 C 
ATOM     19  C   UNL A   1      31.521  25.996  26.273  1.00  0.00     0.004 C 
ENDBRANCH  13  18
BRANCH  13  20
ATOM     20  C   UNL A   1      31.800  22.672  24.861  1.00  0.00     0.164 C 
BRANCH  20  21
ATOM     21  O   UNL A   1      31.778  21.585  25.783  1.00  0.00    -0.396 OA
ATOM     22  H   UNL A   1      31.813  20.748  25.296  1.00  0.00     0.210 HD
ENDBRANCH  20  21
ENDBRANCH  13  20
ENDBRANCH   7  12
BRANCH   9  23
ATOM     23  C   UNL A   1      34.086  18.140  24.899  1.00  0.00     0.053 A 
ATOM     24  C   UNL A   1      32.711  18.227  24.785  1.00  0.00     0.022 A 
ATOM     25  S   UNL A   1      34.582  16.528  25.189  1.00  0.00    -0.139 S 
ATOM     26  C   UNL A   1      32.067  16.968  24.942  1.00  0.00     0.016 A 
ATOM     27  C   UNL A   1      32.969  15.953  25.180  1.00  0.00     0.002 A 
ATOM     28  C   UNL A   1      32.689  14.508  25.407  1.00  0.00     0.056 C 
ENDBRANCH   9  23
ENDBRANCH   4   6
ENDBRANCH   3   4
ENDBRANCH   2   3
ENDBRANCH   1   2
BRANCH   1  29
ATOM     29  O   UNL A   1      41.608  20.537  26.795  1.00  0.00    -0.374 OA
BRANCH  29  30
ATOM     30  C   UNL A   1      41.768  19.409  25.946  1.00  0.00     0.202 C 
BRANCH  30  31
ATOM     31  C   UNL A   1      43.179  18.912  25.611  1.00  0.00     0.261 C 
BRANCH  31  32
ATOM     32  O   UNL A   1      43.633  19.330  24.328  1.00  0.00    -0.460 OA
BRANCH  32  33
ATOM     33  C   UNL A   1      44.869  19.878  24.361  1.00  0.00     0.338 C 
ATOM     34  O   UNL A   1      45.900  19.439  23.874  1.00  0.00    -0.246 OA
BRANCH  33  35
ATOM     35  C   UNL A   1      44.764  21.218  24.943  1.00  0.00     0.060 A 
ATOM     36  C   UNL A   1      44.408  22.266  24.088  1.00  0.00     0.016 A 
ATOM     37  C   UNL A   1      45.016  21.439  26.299  1.00  0.00     0.016 A 
ATOM     38  C   UNL A   1      44.349  23.562  24.581  1.00  0.00     0.010 A 
ATOM     39  C   UNL A   1      44.964  22.740  26.790  1.00  0.00     0.010 A 
ATOM     40  C   UNL A   1      44.666  23.806  25.923  1.00  0.00    -0.014 A 
BRANCH  40  41
ATOM     41  C   UNL A   1      44.832  25.200  26.379  1.00  0.00     0.031 A 
ATOM     42  C   UNL A   1      46.193  25.825  26.296  1.00  0.00     0.074 A 
ATOM     43  C   UNL A   1      43.773  25.896  26.824  1.00  0.00     0.049 A 
ATOM     44  N   UNL A   1      46.577  27.024  26.647  1.00  0.00    -0.248 NA
ATOM     45  C   UNL A   1      47.268  24.982  25.746  1.00  0.00     0.031 C 
ATOM     46  C   UNL A   1      42.407  25.385  26.911  1.00  0.00     0.029 A 
ATOM     47  N   UNL A   1      43.686  27.181  27.287  1.00  0.00    -0.354 N 
ATOM     48  C   UNL A   1      47.936  27.077  26.366  1.00  0.00     0.074 A 
ATOM     49  C   UNL A   1      48.319  25.781  25.853  1.00  0.00     0.031 C 
ATOM     50  C   UNL A   1      41.614  26.351  27.405  1.00  0.00     0.029 A 
ATOM     51  C   UNL A   1      42.425  27.529  27.698  1.00  0.00     0.049 A 
ATOM     52  H   UNL A   1      44.455  27.796  27.323  1.00  0.00     0.167 HD
ATOM     53  C   UNL A   1      48.782  28.123  26.515  1.00  0.00     0.037 A 
ATOM     54  C   UNL A   1      41.988  28.669  28.266  1.00  0.00     0.037 A 
ATOM     55  C   UNL A   1      48.384  29.407  27.030  1.00  0.00     0.049 A 
ATOM     56  C   UNL A   1      42.963  29.794  28.483  1.00  0.00     0.074 A 
ATOM     57  C   UNL A   1      49.151  30.544  27.202  1.00  0.00     0.029 A 
ATOM     58  N   UNL A   1      47.104  29.716  27.470  1.00  0.00    -0.354 N 
ATOM     59  N   UNL A   1      44.240  29.854  28.185  1.00  0.00    -0.248 NA
ATOM     60  C   UNL A   1      42.437  31.013  29.110  1.00  0.00     0.031 C 
ATOM     61  C   UNL A   1      48.353  31.521  27.805  1.00  0.00     0.029 A 
ATOM     62  C   UNL A   1      47.069  31.017  27.945  1.00  0.00     0.049 A 
ATOM     63  H   UNL A   1      46.335  29.103  27.447  1.00  0.00     0.167 HD
ATOM     64  C   UNL A   1      44.663  31.123  28.560  1.00  0.00     0.074 A 
ATOM     65  C   UNL A   1      43.501  31.804  29.094  1.00  0.00     0.031 C 
ATOM     66  C   UNL A   1      45.899  31.675  28.473  1.00  0.00     0.037 A 
BRANCH  53  67
ATOM     67  C   UNL A   1      50.223  27.908  26.149  1.00  0.00     0.064 A 
ATOM     68  C   UNL A   1      50.665  27.943  24.818  1.00  0.00     0.173 A 
ATOM     69  C   UNL A   1      51.180  27.680  27.150  1.00  0.00     0.173 A 
ATOM     70  F   UNL A   1      49.790  28.140  23.820  1.00  0.00    -0.203 F 
ATOM     71  C   UNL A   1      52.005  27.727  24.500  1.00  0.00     0.198 A 
ATOM     72  C   UNL A   1      52.523  27.500  26.831  1.00  0.00     0.198 A 
ATOM     73  F   UNL A   1      50.813  27.637  28.440  1.00  0.00    -0.203 F 
ATOM     74  F   UNL A   1      52.393  27.710  23.218  1.00  0.00    -0.200 F 
ATOM     75  C   UNL A   1      52.933  27.514  25.507  1.00  0.00     0.200 A 
ATOM     76  F   UNL A   1      53.422  27.307  27.808  1.00  0.00    -0.200 F 
ATOM     77  F   UNL A   1      54.223  27.314  25.202  1.00  0.00    -0.200 F 
ENDBRANCH  53  67
BRANCH  54  78
ATOM     78  C   UNL A   1      40.563  28.793  28.671  1.00  0.00     0.064 A 
ATOM     79  C   UNL A   1      39.584  29.211  27.761  1.00  0.00     0.173 A 
ATOM     80  C   UNL A   1      40.152  28.496  29.979  1.00  0.00     0.173 A 
ATOM     81  F   UNL A   1      39.930  29.527  26.503  1.00  0.00    -0.203 F 
ATOM     82  C   UNL A   1      38.252  29.345  28.146  1.00  0.00     0.198 A 
ATOM     83  C   UNL A   1      38.814  28.598  30.355  1.00  0.00     0.198 A 
ATOM     84  F   UNL A   1      41.048  28.087  30.890  1.00  0.00    -0.203 F 
ATOM     85  F   UNL A   1      37.344  29.790  27.267  1.00  0.00    -0.200 F 
ATOM     86  C   UNL A   1      37.867  29.031  29.442  1.00  0.00     0.200 A 
ATOM     87  F   UNL A   1      38.445  28.277  31.603  1.00  0.00    -0.200 F 
ATOM     88  F   UNL A   1      36.584  29.152  29.810  1.00  0.00    -0.200 F 
ENDBRANCH  54  78
BRANCH  66  89
ATOM     89  C   UNL A   1      46.049  33.098  28.933  1.00  0.00     0.064 A 
ATOM     90  C   UNL A   1      46.429  33.414  30.246  1.00  0.00     0.173 A 
ATOM     91  C   UNL A   1      45.846  34.158  28.036  1.00  0.00     0.173 A 
ATOM     92  F   UNL A   1      46.623  32.438  31.147  1.00  0.00    -0.203 F 
ATOM     93  C   UNL A   1      46.568  34.738  30.652  1.00  0.00     0.198 A 
ATOM     94  C   UNL A   1      46.021  35.479  28.435  1.00  0.00     0.198 A 
ATOM     95  F   UNL A   1      45.490  33.911  26.766  1.00  0.00    -0.203 F 
ATOM     96  F   UNL A   1      46.875  35.019  31.926  1.00  0.00    -0.200 F 
ATOM     97  C   UNL A   1      46.371  35.769  29.745  1.00  0.00     0.200 A 
ATOM     98  F   UNL A   1      45.848  36.472  27.552  1.00  0.00    -0.200 F 
ATOM     99  F   UNL A   1      46.512  37.043  30.135  1.00  0.00    -0.200 F 
ENDBRANCH  66  89
ENDBRANCH  40  41
ENDBRANCH  33  35
ENDBRANCH  32  33
ENDBRANCH  31  32
ENDBRANCH  30  31
ENDBRANCH  29  30
ENDBRANCH   1  29
TORSDOF 19
ENDMDL
