MODEL 1
REMARK VINA RESULT:     -10.5      0.000      0.000
REMARK SMILES C#CCN(CC(=O)OCCOCCOC(=O)c1ccc(-c2c3nc(c(-c4c(F)c(F)c(F)c(F)c4F)c4ccc([nH]4)c(-c4c(F)c(F)c(F)c(F)c4F)c4nc(c(-c5c(F)c(F)c(F)c(F)c5F)c5ccc2[nH]5)C=C4)C=C3)cc1)c1ncccc1C(=O)OCC
REMARK SMILES IDX 9 1 8 2 6 3 7 4 5 5 4 6 3 7 2 8 1 9 80 10 81 11 85 12 82 13
REMARK SMILES IDX 84 14 83 15 86 16 87 17 88 18 89 19 90 20 10 21 11 22 12 23
REMARK SMILES IDX 13 24 14 25 15 26 16 27 17 28 18 29 79 30 19 31 78 32 20 33
REMARK SMILES IDX 21 34 22 35 72 36 23 37 77 38 71 39 73 40 24 41 76 42 70 43
REMARK SMILES IDX 69 44 25 46 57 47 37 48 56 49 38 50 41 51 55 52 74 53 39 54
REMARK SMILES IDX 40 55 54 57 75 58 42 59 26 60 27 61 35 62 28 63 29 64 33 65
REMARK SMILES IDX 36 66 30 67 31 68 34 69 32 70 58 71 59 72 67 73 60 74 61 75
REMARK SMILES IDX 65 76 68 77 62 78 63 79 66 80 64 81 43 82 44 83 52 84 45 85
REMARK SMILES IDX 46 86 50 87 53 88 47 89 48 90 51 91 49 92
REMARK H PARENT 73 45 41 56
REMARK Flexibility Score: inf
ROOT
ATOM      1  C   UNL A   1      30.490  25.849  25.578  1.00  0.00     0.261 C 
ENDROOT
BRANCH   1   2
ATOM      2  O   UNL A   1      31.618  25.166  26.152  1.00  0.00    -0.462 OA
BRANCH   2   3
ATOM      3  C   UNL A   1      31.432  23.852  26.472  1.00  0.00     0.325 C 
ATOM      4  O   UNL A   1      31.203  23.440  27.605  1.00  0.00    -0.250 OA
BRANCH   3   5
ATOM      5  C   UNL A   1      31.451  22.946  25.235  1.00  0.00     0.241 C 
BRANCH   5   6
ATOM      6  N   UNL A   1      32.598  22.044  25.215  1.00  0.00    -0.334 N 
BRANCH   6   7
ATOM      7  C   UNL A   1      32.357  20.642  24.817  1.00  0.00     0.208 C 
BRANCH   7   8
ATOM      8  C   UNL A   1      32.142  20.808  23.322  1.00  0.00    -0.085 C 
ATOM      9  C   UNL A   1      31.957  20.951  22.039  1.00  0.00     0.006 C 
ENDBRANCH   7   8
ENDBRANCH   6   7
BRANCH   6  10
ATOM     10  C   UNL A   1      33.870  22.599  25.298  1.00  0.00     0.144 A 
ATOM     11  N   UNL A   1      34.552  22.220  26.409  1.00  0.00    -0.238 NA
ATOM     12  C   UNL A   1      34.499  23.509  24.404  1.00  0.00     0.102 A 
ATOM     13  C   UNL A   1      35.779  22.752  26.659  1.00  0.00     0.113 A 
ATOM     14  C   UNL A   1      35.745  24.084  24.741  1.00  0.00     0.021 A 
ATOM     15  C   UNL A   1      36.399  23.704  25.887  1.00  0.00     0.021 A 
BRANCH  12  16
ATOM     16  C   UNL A   1      34.077  23.899  23.033  1.00  0.00     0.341 C 
ATOM     17  O   UNL A   1      34.360  23.331  21.994  1.00  0.00    -0.246 OA
BRANCH  16  18
ATOM     18  O   UNL A   1      33.254  24.987  23.192  1.00  0.00    -0.462 OA
BRANCH  18  19
ATOM     19  C   UNL A   1      32.082  25.162  22.366  1.00  0.00     0.230 C 
ATOM     20  C   UNL A   1      32.489  25.862  21.065  1.00  0.00     0.049 C 
ENDBRANCH  18  19
ENDBRANCH  16  18
ENDBRANCH  12  16
ENDBRANCH   6  10
ENDBRANCH   5   6
ENDBRANCH   3   5
ENDBRANCH   2   3
ENDBRANCH   1   2
BRANCH   1  21
ATOM     21  C   UNL A   1      30.857  27.241  25.034  1.00  0.00     0.202 C 
BRANCH  21  22
ATOM     22  O   UNL A   1      31.863  27.970  25.742  1.00  0.00    -0.374 OA
BRANCH  22  23
ATOM     23  C   UNL A   1      32.228  29.256  25.236  1.00  0.00     0.202 C 
BRANCH  23  24
ATOM     24  C   UNL A   1      31.790  30.472  26.059  1.00  0.00     0.261 C 
BRANCH  24  25
ATOM     25  O   UNL A   1      32.496  30.557  27.305  1.00  0.00    -0.460 OA
BRANCH  25  26
ATOM     26  C   UNL A   1      33.223  31.677  27.467  1.00  0.00     0.338 C 
ATOM     27  O   UNL A   1      32.815  32.825  27.537  1.00  0.00    -0.246 OA
BRANCH  26  28
ATOM     28  C   UNL A   1      34.642  31.333  27.654  1.00  0.00     0.060 A 
ATOM     29  C   UNL A   1      34.983  29.979  27.704  1.00  0.00     0.016 A 
ATOM     30  C   UNL A   1      35.577  32.314  27.990  1.00  0.00     0.016 A 
ATOM     31  C   UNL A   1      36.237  29.601  28.184  1.00  0.00     0.010 A 
ATOM     32  C   UNL A   1      36.842  31.933  28.454  1.00  0.00     0.010 A 
ATOM     33  C   UNL A   1      37.154  30.572  28.617  1.00  0.00    -0.014 A 
BRANCH  33  34
ATOM     34  C   UNL A   1      38.352  30.140  29.385  1.00  0.00     0.031 A 
ATOM     35  C   UNL A   1      38.536  30.614  30.804  1.00  0.00     0.074 A 
ATOM     36  C   UNL A   1      39.241  29.281  28.856  1.00  0.00     0.049 A 
ATOM     37  N   UNL A   1      39.446  30.273  31.684  1.00  0.00    -0.248 NA
ATOM     38  C   UNL A   1      37.567  31.604  31.297  1.00  0.00     0.031 C 
ATOM     39  C   UNL A   1      39.191  28.748  27.498  1.00  0.00     0.029 A 
ATOM     40  N   UNL A   1      40.356  28.701  29.410  1.00  0.00    -0.354 N 
ATOM     41  C   UNL A   1      39.160  31.006  32.829  1.00  0.00     0.074 A 
ATOM     42  C   UNL A   1      38.019  31.842  32.519  1.00  0.00     0.031 C 
ATOM     43  C   UNL A   1      40.228  27.912  27.322  1.00  0.00     0.029 A 
ATOM     44  C   UNL A   1      41.019  27.860  28.552  1.00  0.00     0.049 A 
ATOM     45  H   UNL A   1      40.651  28.872  30.333  1.00  0.00     0.167 HD
ATOM     46  C   UNL A   1      39.774  30.974  34.037  1.00  0.00     0.037 A 
ATOM     47  C   UNL A   1      42.133  27.126  28.737  1.00  0.00     0.037 A 
ATOM     48  C   UNL A   1      40.905  30.141  34.358  1.00  0.00     0.049 A 
ATOM     49  C   UNL A   1      42.810  27.112  30.082  1.00  0.00     0.074 A 
ATOM     50  C   UNL A   1      41.563  30.008  35.568  1.00  0.00     0.029 A 
ATOM     51  N   UNL A   1      41.553  29.309  33.458  1.00  0.00    -0.354 N 
ATOM     52  N   UNL A   1      42.488  27.752  31.180  1.00  0.00    -0.248 NA
ATOM     53  C   UNL A   1      43.997  26.255  30.218  1.00  0.00     0.031 C 
ATOM     54  C   UNL A   1      42.643  29.135  35.388  1.00  0.00     0.029 A 
ATOM     55  C   UNL A   1      42.622  28.679  34.080  1.00  0.00     0.049 A 
ATOM     56  H   UNL A   1      41.294  29.183  32.517  1.00  0.00     0.167 HD
ATOM     57  C   UNL A   1      43.409  27.355  32.141  1.00  0.00     0.074 A 
ATOM     58  C   UNL A   1      44.298  26.409  31.500  1.00  0.00     0.031 C 
ATOM     59  C   UNL A   1      43.504  27.737  33.439  1.00  0.00     0.037 A 
BRANCH  46  60
ATOM     60  C   UNL A   1      39.244  31.890  35.102  1.00  0.00     0.064 A 
ATOM     61  C   UNL A   1      39.513  33.268  35.094  1.00  0.00     0.173 A 
ATOM     62  C   UNL A   1      38.444  31.385  36.138  1.00  0.00     0.173 A 
ATOM     63  F   UNL A   1      40.280  33.801  34.131  1.00  0.00    -0.203 F 
ATOM     64  C   UNL A   1      39.034  34.097  36.106  1.00  0.00     0.198 A 
ATOM     65  C   UNL A   1      37.941  32.222  37.130  1.00  0.00     0.198 A 
ATOM     66  F   UNL A   1      38.149  30.077  36.189  1.00  0.00    -0.203 F 
ATOM     67  F   UNL A   1      39.352  35.400  36.110  1.00  0.00    -0.200 F 
ATOM     68  C   UNL A   1      38.245  33.574  37.120  1.00  0.00     0.200 A 
ATOM     69  F   UNL A   1      37.168  31.718  38.102  1.00  0.00    -0.200 F 
ATOM     70  F   UNL A   1      37.786  34.374  38.092  1.00  0.00    -0.200 F 
ENDBRANCH  46  60
BRANCH  47  71
ATOM     71  C   UNL A   1      42.666  26.317  27.612  1.00  0.00     0.064 A 
ATOM     72  C   UNL A   1      43.655  26.824  26.758  1.00  0.00     0.173 A 
ATOM     73  C   UNL A   1      42.202  25.015  27.377  1.00  0.00     0.173 A 
ATOM     74  F   UNL A   1      44.111  28.072  26.928  1.00  0.00    -0.203 F 
ATOM     75  C   UNL A   1      44.155  26.059  25.705  1.00  0.00     0.198 A 
ATOM     76  C   UNL A   1      42.720  24.243  26.341  1.00  0.00     0.198 A 
ATOM     77  F   UNL A   1      41.256  24.487  28.167  1.00  0.00    -0.203 F 
ATOM     78  F   UNL A   1      45.074  26.578  24.882  1.00  0.00    -0.200 F 
ATOM     79  C   UNL A   1      43.692  24.767  25.503  1.00  0.00     0.200 A 
ATOM     80  F   UNL A   1      42.279  22.991  26.156  1.00  0.00    -0.200 F 
ATOM     81  F   UNL A   1      44.180  24.029  24.496  1.00  0.00    -0.200 F 
ENDBRANCH  47  71
BRANCH  59  82
ATOM     82  C   UNL A   1      44.587  27.106  34.270  1.00  0.00     0.064 A 
ATOM     83  C   UNL A   1      44.386  25.900  34.958  1.00  0.00     0.173 A 
ATOM     84  C   UNL A   1      45.855  27.703  34.354  1.00  0.00     0.173 A 
ATOM     85  F   UNL A   1      43.189  25.293  34.921  1.00  0.00    -0.203 F 
ATOM     86  C   UNL A   1      45.401  25.334  35.726  1.00  0.00     0.198 A 
ATOM     87  C   UNL A   1      46.877  27.119  35.098  1.00  0.00     0.198 A 
ATOM     88  F   UNL A   1      46.105  28.852  33.709  1.00  0.00    -0.203 F 
ATOM     89  F   UNL A   1      45.168  24.210  36.418  1.00  0.00    -0.200 F 
ATOM     90  C   UNL A   1      46.647  25.940  35.791  1.00  0.00     0.200 A 
ATOM     91  F   UNL A   1      48.084  27.699  35.148  1.00  0.00    -0.200 F 
ATOM     92  F   UNL A   1      47.624  25.393  36.528  1.00  0.00    -0.200 F 
ENDBRANCH  59  82
ENDBRANCH  33  34
ENDBRANCH  26  28
ENDBRANCH  25  26
ENDBRANCH  24  25
ENDBRANCH  23  24
ENDBRANCH  22  23
ENDBRANCH  21  22
ENDBRANCH   1  21
TORSDOF 21
ENDMDL
MODEL 2
REMARK VINA RESULT:     -10.2      1.205      2.591
REMARK SMILES C#CCN(CC(=O)OCCOCCOC(=O)c1ccc(-c2c3nc(c(-c4c(F)c(F)c(F)c(F)c4F)c4ccc([nH]4)c(-c4c(F)c(F)c(F)c(F)c4F)c4nc(c(-c5c(F)c(F)c(F)c(F)c5F)c5ccc2[nH]5)C=C4)C=C3)cc1)c1ncccc1C(=O)OCC
REMARK SMILES IDX 9 1 8 2 6 3 7 4 5 5 4 6 3 7 2 8 1 9 80 10 81 11 85 12 82 13
REMARK SMILES IDX 84 14 83 15 86 16 87 17 88 18 89 19 90 20 10 21 11 22 12 23
REMARK SMILES IDX 13 24 14 25 15 26 16 27 17 28 18 29 79 30 19 31 78 32 20 33
REMARK SMILES IDX 21 34 22 35 72 36 23 37 77 38 71 39 73 40 24 41 76 42 70 43
REMARK SMILES IDX 69 44 25 46 57 47 37 48 56 49 38 50 41 51 55 52 74 53 39 54
REMARK SMILES IDX 40 55 54 57 75 58 42 59 26 60 27 61 35 62 28 63 29 64 33 65
REMARK SMILES IDX 36 66 30 67 31 68 34 69 32 70 58 71 59 72 67 73 60 74 61 75
REMARK SMILES IDX 65 76 68 77 62 78 63 79 66 80 64 81 43 82 44 83 52 84 45 85
REMARK SMILES IDX 46 86 50 87 53 88 47 89 48 90 51 91 49 92
REMARK H PARENT 73 45 41 56
REMARK Flexibility Score: inf
ROOT
ATOM      1  C   UNL A   1      30.766  26.056  25.834  1.00  0.00     0.261 C 
ENDROOT
BRANCH   1   2
ATOM      2  O   UNL A   1      31.692  25.669  26.865  1.00  0.00    -0.462 OA
BRANCH   2   3
ATOM      3  C   UNL A   1      32.197  24.404  26.782  1.00  0.00     0.325 C 
ATOM      4  O   UNL A   1      31.666  23.412  27.271  1.00  0.00    -0.250 OA
BRANCH   3   5
ATOM      5  C   UNL A   1      33.466  24.342  25.924  1.00  0.00     0.241 C 
BRANCH   5   6
ATOM      6  N   UNL A   1      33.410  23.293  24.910  1.00  0.00    -0.334 N 
BRANCH   6   7
ATOM      7  C   UNL A   1      32.581  23.544  23.714  1.00  0.00     0.208 C 
BRANCH   7   8
ATOM      8  C   UNL A   1      33.150  24.876  23.253  1.00  0.00    -0.085 C 
ATOM      9  C   UNL A   1      33.638  26.018  22.857  1.00  0.00     0.006 C 
ENDBRANCH   7   8
ENDBRANCH   6   7
BRANCH   6  10
ATOM     10  C   UNL A   1      34.334  22.258  24.988  1.00  0.00     0.144 A 
ATOM     11  N   UNL A   1      35.617  22.686  25.094  1.00  0.00    -0.238 NA
ATOM     12  C   UNL A   1      34.098  20.856  24.936  1.00  0.00     0.102 A 
ATOM     13  C   UNL A   1      36.632  21.779  25.098  1.00  0.00     0.113 A 
ATOM     14  C   UNL A   1      35.188  19.958  24.876  1.00  0.00     0.021 A 
ATOM     15  C   UNL A   1      36.478  20.422  24.956  1.00  0.00     0.021 A 
BRANCH  12  16
ATOM     16  C   UNL A   1      32.806  20.130  25.048  1.00  0.00     0.341 C 
ATOM     17  O   UNL A   1      31.706  20.545  24.728  1.00  0.00    -0.246 OA
BRANCH  16  18
ATOM     18  O   UNL A   1      33.121  18.880  25.523  1.00  0.00    -0.462 OA
BRANCH  18  19
ATOM     19  C   UNL A   1      32.940  17.705  24.704  1.00  0.00     0.230 C 
ATOM     20  C   UNL A   1      33.047  16.458  25.588  1.00  0.00     0.049 C 
ENDBRANCH  18  19
ENDBRANCH  16  18
ENDBRANCH  12  16
ENDBRANCH   6  10
ENDBRANCH   5   6
ENDBRANCH   3   5
ENDBRANCH   2   3
ENDBRANCH   1   2
BRANCH   1  21
ATOM     21  C   UNL A   1      31.017  27.486  25.323  1.00  0.00     0.202 C 
BRANCH  21  22
ATOM     22  O   UNL A   1      32.190  28.150  25.799  1.00  0.00    -0.374 OA
BRANCH  22  23
ATOM     23  C   UNL A   1      32.441  29.474  25.323  1.00  0.00     0.202 C 
BRANCH  23  24
ATOM     24  C   UNL A   1      32.016  30.629  26.237  1.00  0.00     0.261 C 
BRANCH  24  25
ATOM     25  O   UNL A   1      32.775  30.655  27.453  1.00  0.00    -0.460 OA
BRANCH  25  26
ATOM     26  C   UNL A   1      33.553  31.741  27.610  1.00  0.00     0.338 C 
ATOM     27  O   UNL A   1      33.197  32.904  27.703  1.00  0.00    -0.246 OA
BRANCH  26  28
ATOM     28  C   UNL A   1      34.960  31.333  27.759  1.00  0.00     0.060 A 
ATOM     29  C   UNL A   1      35.236  29.968  27.857  1.00  0.00     0.016 A 
ATOM     30  C   UNL A   1      35.955  32.280  28.012  1.00  0.00     0.016 A 
ATOM     31  C   UNL A   1      36.489  29.548  28.306  1.00  0.00     0.010 A 
ATOM     32  C   UNL A   1      37.217  31.856  28.444  1.00  0.00     0.010 A 
ATOM     33  C   UNL A   1      37.469  30.489  28.657  1.00  0.00    -0.014 A 
BRANCH  33  34
ATOM     34  C   UNL A   1      38.675  30.032  29.397  1.00  0.00     0.031 A 
ATOM     35  C   UNL A   1      38.897  30.493  30.815  1.00  0.00     0.074 A 
ATOM     36  C   UNL A   1      39.537  29.160  28.845  1.00  0.00     0.049 A 
ATOM     37  N   UNL A   1      39.819  30.132  31.674  1.00  0.00    -0.248 NA
ATOM     38  C   UNL A   1      37.956  31.498  31.334  1.00  0.00     0.031 C 
ATOM     39  C   UNL A   1      39.450  28.637  27.486  1.00  0.00     0.029 A 
ATOM     40  N   UNL A   1      40.653  28.557  29.372  1.00  0.00    -0.354 N 
ATOM     41  C   UNL A   1      39.570  30.862  32.829  1.00  0.00     0.074 A 
ATOM     42  C   UNL A   1      38.438  31.720  32.548  1.00  0.00     0.031 C 
ATOM     43  C   UNL A   1      40.468  27.783  27.283  1.00  0.00     0.029 A 
ATOM     44  C   UNL A   1      41.283  27.710  28.496  1.00  0.00     0.049 A 
ATOM     45  H   UNL A   1      40.970  28.718  30.290  1.00  0.00     0.167 HD
ATOM     46  C   UNL A   1      40.209  30.812  34.023  1.00  0.00     0.037 A 
ATOM     47  C   UNL A   1      42.388  26.955  28.653  1.00  0.00     0.037 A 
ATOM     48  C   UNL A   1      41.330  29.957  34.316  1.00  0.00     0.049 A 
ATOM     49  C   UNL A   1      43.092  26.921  29.984  1.00  0.00     0.074 A 
ATOM     50  C   UNL A   1      42.012  29.805  35.511  1.00  0.00     0.029 A 
ATOM     51  N   UNL A   1      41.945  29.119  33.398  1.00  0.00    -0.354 N 
ATOM     52  N   UNL A   1      42.804  27.560  31.091  1.00  0.00    -0.248 NA
ATOM     53  C   UNL A   1      44.266  26.042  30.090  1.00  0.00     0.031 C 
ATOM     54  C   UNL A   1      43.072  28.914  35.304  1.00  0.00     0.029 A 
ATOM     55  C   UNL A   1      43.015  28.467  33.994  1.00  0.00     0.049 A 
ATOM     56  H   UNL A   1      41.664  29.003  32.462  1.00  0.00     0.167 HD
ATOM     57  C   UNL A   1      43.738  27.141  32.030  1.00  0.00     0.074 A 
ATOM     58  C   UNL A   1      44.597  26.183  31.366  1.00  0.00     0.031 C 
ATOM     59  C   UNL A   1      43.867  27.513  33.329  1.00  0.00     0.037 A 
BRANCH  46  60
ATOM     60  C   UNL A   1      39.717  31.731  35.105  1.00  0.00     0.064 A 
ATOM     61  C   UNL A   1      38.788  31.308  36.069  1.00  0.00     0.173 A 
ATOM     62  C   UNL A   1      40.190  33.049  35.185  1.00  0.00     0.173 A 
ATOM     63  F   UNL A   1      38.297  30.060  36.031  1.00  0.00    -0.203 F 
ATOM     64  C   UNL A   1      38.323  32.182  37.048  1.00  0.00     0.198 A 
ATOM     65  C   UNL A   1      39.746  33.911  36.184  1.00  0.00     0.198 A 
ATOM     66  F   UNL A   1      41.084  33.503  34.294  1.00  0.00    -0.203 F 
ATOM     67  F   UNL A   1      37.393  31.773  37.923  1.00  0.00    -0.200 F 
ATOM     68  C   UNL A   1      38.806  33.481  37.107  1.00  0.00     0.200 A 
ATOM     69  F   UNL A   1      40.223  35.162  36.248  1.00  0.00    -0.200 F 
ATOM     70  F   UNL A   1      38.356  34.321  38.050  1.00  0.00    -0.200 F 
ENDBRANCH  46  60
BRANCH  47  71
ATOM     71  C   UNL A   1      42.883  26.145  27.512  1.00  0.00     0.064 A 
ATOM     72  C   UNL A   1      43.852  26.644  26.632  1.00  0.00     0.173 A 
ATOM     73  C   UNL A   1      42.401  24.846  27.288  1.00  0.00     0.173 A 
ATOM     74  F   UNL A   1      44.323  27.889  26.792  1.00  0.00    -0.203 F 
ATOM     75  C   UNL A   1      44.316  25.878  25.565  1.00  0.00     0.198 A 
ATOM     76  C   UNL A   1      42.884  24.073  26.237  1.00  0.00     0.198 A 
ATOM     77  F   UNL A   1      41.472  24.325  28.103  1.00  0.00    -0.203 F 
ATOM     78  F   UNL A   1      45.217  26.391  24.717  1.00  0.00    -0.200 F 
ATOM     79  C   UNL A   1      43.837  24.590  25.373  1.00  0.00     0.200 A 
ATOM     80  F   UNL A   1      42.428  22.824  26.062  1.00  0.00    -0.200 F 
ATOM     81  F   UNL A   1      44.291  23.850  24.352  1.00  0.00    -0.200 F 
ENDBRANCH  47  71
BRANCH  59  82
ATOM     82  C   UNL A   1      44.956  26.858  34.133  1.00  0.00     0.064 A 
ATOM     83  C   UNL A   1      46.219  27.448  34.288  1.00  0.00     0.173 A 
ATOM     84  C   UNL A   1      44.721  25.636  34.782  1.00  0.00     0.173 A 
ATOM     85  F   UNL A   1      46.501  28.611  33.680  1.00  0.00    -0.203 F 
ATOM     86  C   UNL A   1      47.216  26.823  35.035  1.00  0.00     0.198 A 
ATOM     87  C   UNL A   1      45.709  25.028  35.552  1.00  0.00     0.198 A 
ATOM     88  F   UNL A   1      43.528  25.032  34.675  1.00  0.00    -0.203 F 
ATOM     89  F   UNL A   1      48.432  27.379  35.124  1.00  0.00    -0.200 F 
ATOM     90  C   UNL A   1      46.959  25.618  35.670  1.00  0.00     0.200 A 
ATOM     91  F   UNL A   1      45.454  23.870  36.177  1.00  0.00    -0.200 F 
ATOM     92  F   UNL A   1      47.918  25.018  36.390  1.00  0.00    -0.200 F 
ENDBRANCH  59  82
ENDBRANCH  33  34
ENDBRANCH  26  28
ENDBRANCH  25  26
ENDBRANCH  24  25
ENDBRANCH  23  24
ENDBRANCH  22  23
ENDBRANCH  21  22
ENDBRANCH   1  21
TORSDOF 21
ENDMDL
MODEL 3
REMARK VINA RESULT:      -9.8      4.279      9.897
REMARK SMILES C#CCN(CC(=O)OCCOCCOC(=O)c1ccc(-c2c3nc(c(-c4c(F)c(F)c(F)c(F)c4F)c4ccc([nH]4)c(-c4c(F)c(F)c(F)c(F)c4F)c4nc(c(-c5c(F)c(F)c(F)c(F)c5F)c5ccc2[nH]5)C=C4)C=C3)cc1)c1ncccc1C(=O)OCC
REMARK SMILES IDX 9 1 8 2 6 3 7 4 5 5 4 6 3 7 2 8 1 9 80 10 81 11 85 12 82 13
REMARK SMILES IDX 84 14 83 15 86 16 87 17 88 18 89 19 90 20 10 21 11 22 12 23
REMARK SMILES IDX 13 24 14 25 15 26 16 27 17 28 18 29 79 30 19 31 78 32 20 33
REMARK SMILES IDX 21 34 22 35 72 36 23 37 77 38 71 39 73 40 24 41 76 42 70 43
REMARK SMILES IDX 69 44 25 46 57 47 37 48 56 49 38 50 41 51 55 52 74 53 39 54
REMARK SMILES IDX 40 55 54 57 75 58 42 59 26 60 27 61 35 62 28 63 29 64 33 65
REMARK SMILES IDX 36 66 30 67 31 68 34 69 32 70 58 71 59 72 67 73 60 74 61 75
REMARK SMILES IDX 65 76 68 77 62 78 63 79 66 80 64 81 43 82 44 83 52 84 45 85
REMARK SMILES IDX 46 86 50 87 53 88 47 89 48 90 51 91 49 92
REMARK H PARENT 73 45 41 56
REMARK Flexibility Score: inf
ROOT
ATOM      1  C   UNL A   1      35.762  22.706  25.753  1.00  0.00     0.261 C 
ENDROOT
BRANCH   1   2
ATOM      2  O   UNL A   1      34.679  23.495  25.227  1.00  0.00    -0.462 OA
BRANCH   2   3
ATOM      3  C   UNL A   1      34.804  23.909  23.933  1.00  0.00     0.325 C 
ATOM      4  O   UNL A   1      35.842  23.843  23.281  1.00  0.00    -0.250 OA
BRANCH   3   5
ATOM      5  C   UNL A   1      33.471  24.388  23.347  1.00  0.00     0.241 C 
BRANCH   5   6
ATOM      6  N   UNL A   1      33.009  25.637  23.946  1.00  0.00    -0.334 N 
BRANCH   6   7
ATOM      7  C   UNL A   1      33.987  26.736  24.073  1.00  0.00     0.208 C 
BRANCH   7   8
ATOM      8  C   UNL A   1      33.645  27.256  25.460  1.00  0.00    -0.085 C 
ATOM      9  C   UNL A   1      33.352  27.703  26.649  1.00  0.00     0.006 C 
ENDBRANCH   7   8
ENDBRANCH   6   7
BRANCH   6  10
ATOM     10  C   UNL A   1      31.640  25.819  24.106  1.00  0.00     0.144 A 
ATOM     11  N   UNL A   1      31.077  26.571  23.126  1.00  0.00    -0.238 NA
ATOM     12  C   UNL A   1      30.802  25.354  25.157  1.00  0.00     0.102 A 
ATOM     13  C   UNL A   1      29.758  26.896  23.201  1.00  0.00     0.113 A 
ATOM     14  C   UNL A   1      29.454  25.774  25.225  1.00  0.00     0.021 A 
ATOM     15  C   UNL A   1      28.920  26.559  24.234  1.00  0.00     0.021 A 
BRANCH  12  16
ATOM     16  C   UNL A   1      31.108  24.347  26.207  1.00  0.00     0.341 C 
ATOM     17  O   UNL A   1      31.732  24.533  27.237  1.00  0.00    -0.246 OA
BRANCH  16  18
ATOM     18  O   UNL A   1      30.487  23.190  25.805  1.00  0.00    -0.462 OA
BRANCH  18  19
ATOM     19  C   UNL A   1      31.033  22.383  24.739  1.00  0.00     0.230 C 
ATOM     20  C   UNL A   1      31.979  21.337  25.338  1.00  0.00     0.049 C 
ENDBRANCH  18  19
ENDBRANCH  16  18
ENDBRANCH  12  16
ENDBRANCH   6  10
ENDBRANCH   5   6
ENDBRANCH   3   5
ENDBRANCH   2   3
ENDBRANCH   1   2
BRANCH   1  21
ATOM     21  C   UNL A   1      35.708  21.243  25.280  1.00  0.00     0.202 C 
BRANCH  21  22
ATOM     22  O   UNL A   1      36.817  20.766  24.514  1.00  0.00    -0.374 OA
BRANCH  22  23
ATOM     23  C   UNL A   1      37.371  19.497  24.869  1.00  0.00     0.202 C 
BRANCH  23  24
ATOM     24  C   UNL A   1      38.828  19.489  25.346  1.00  0.00     0.261 C 
BRANCH  24  25
ATOM     25  O   UNL A   1      39.272  20.797  25.730  1.00  0.00    -0.460 OA
BRANCH  25  26
ATOM     26  C   UNL A   1      40.423  20.822  26.426  1.00  0.00     0.338 C 
ATOM     27  O   UNL A   1      41.300  19.974  26.442  1.00  0.00    -0.246 OA
BRANCH  26  28
ATOM     28  C   UNL A   1      40.553  22.104  27.136  1.00  0.00     0.060 A 
ATOM     29  C   UNL A   1      39.901  23.217  26.598  1.00  0.00     0.016 A 
ATOM     30  C   UNL A   1      41.470  22.254  28.179  1.00  0.00     0.016 A 
ATOM     31  C   UNL A   1      40.239  24.495  27.041  1.00  0.00     0.010 A 
ATOM     32  C   UNL A   1      41.793  23.537  28.636  1.00  0.00     0.010 A 
ATOM     33  C   UNL A   1      41.229  24.668  28.022  1.00  0.00    -0.014 A 
BRANCH  33  34
ATOM     34  C   UNL A   1      41.772  26.031  28.266  1.00  0.00     0.031 A 
ATOM     35  C   UNL A   1      43.126  26.401  27.718  1.00  0.00     0.074 A 
ATOM     36  C   UNL A   1      41.045  26.961  28.910  1.00  0.00     0.049 A 
ATOM     37  N   UNL A   1      43.737  27.562  27.721  1.00  0.00    -0.248 NA
ATOM     38  C   UNL A   1      43.896  25.321  27.084  1.00  0.00     0.031 C 
ATOM     39  C   UNL A   1      39.726  26.741  29.497  1.00  0.00     0.029 A 
ATOM     40  N   UNL A   1      41.317  28.282  29.170  1.00  0.00    -0.354 N 
ATOM     41  C   UNL A   1      44.958  27.349  27.093  1.00  0.00     0.074 A 
ATOM     42  C   UNL A   1      45.021  25.941  26.762  1.00  0.00     0.031 C 
ATOM     43  C   UNL A   1      39.298  27.891  30.044  1.00  0.00     0.029 A 
ATOM     44  C   UNL A   1      40.317  28.923  29.856  1.00  0.00     0.049 A 
ATOM     45  H   UNL A   1      42.150  28.725  28.890  1.00  0.00     0.167 HD
ATOM     46  C   UNL A   1      45.932  28.245  26.799  1.00  0.00     0.037 A 
ATOM     47  C   UNL A   1      40.229  30.199  30.281  1.00  0.00     0.037 A 
ATOM     48  C   UNL A   1      45.876  29.649  27.118  1.00  0.00     0.049 A 
ATOM     49  C   UNL A   1      41.326  31.177  29.955  1.00  0.00     0.074 A 
ATOM     50  C   UNL A   1      46.795  30.639  26.818  1.00  0.00     0.029 A 
ATOM     51  N   UNL A   1      44.849  30.258  27.822  1.00  0.00    -0.354 N 
ATOM     52  N   UNL A   1      42.443  30.983  29.297  1.00  0.00    -0.248 NA
ATOM     53  C   UNL A   1      41.139  32.561  30.416  1.00  0.00     0.031 C 
ATOM     54  C   UNL A   1      46.349  31.840  27.385  1.00  0.00     0.029 A 
ATOM     55  C   UNL A   1      45.124  31.608  27.990  1.00  0.00     0.049 A 
ATOM     56  H   UNL A   1      44.043  29.801  28.155  1.00  0.00     0.167 HD
ATOM     57  C   UNL A   1      43.075  32.218  29.240  1.00  0.00     0.074 A 
ATOM     58  C   UNL A   1      42.212  33.160  29.920  1.00  0.00     0.031 C 
ATOM     59  C   UNL A   1      44.262  32.543  28.667  1.00  0.00     0.037 A 
BRANCH  46  60
ATOM     60  C   UNL A   1      47.160  27.723  26.110  1.00  0.00     0.064 A 
ATOM     61  C   UNL A   1      47.231  27.604  24.714  1.00  0.00     0.173 A 
ATOM     62  C   UNL A   1      48.287  27.347  26.857  1.00  0.00     0.173 A 
ATOM     63  F   UNL A   1      46.177  27.940  23.953  1.00  0.00    -0.203 F 
ATOM     64  C   UNL A   1      48.368  27.092  24.094  1.00  0.00     0.198 A 
ATOM     65  C   UNL A   1      49.434  26.866  26.232  1.00  0.00     0.198 A 
ATOM     66  F   UNL A   1      48.277  27.448  28.195  1.00  0.00    -0.203 F 
ATOM     67  F   UNL A   1      48.391  26.934  22.763  1.00  0.00    -0.200 F 
ATOM     68  C   UNL A   1      49.470  26.728  24.853  1.00  0.00     0.200 A 
ATOM     69  F   UNL A   1      50.503  26.526  26.966  1.00  0.00    -0.200 F 
ATOM     70  F   UNL A   1      50.563  26.235  24.255  1.00  0.00    -0.200 F 
ENDBRANCH  46  60
BRANCH  47  71
ATOM     71  C   UNL A   1      39.031  30.629  31.046  1.00  0.00     0.064 A 
ATOM     72  C   UNL A   1      37.909  31.163  30.399  1.00  0.00     0.173 A 
ATOM     73  C   UNL A   1      38.985  30.500  32.442  1.00  0.00     0.173 A 
ATOM     74  F   UNL A   1      37.919  31.328  29.069  1.00  0.00    -0.203 F 
ATOM     75  C   UNL A   1      36.786  31.561  31.122  1.00  0.00     0.198 A 
ATOM     76  C   UNL A   1      37.852  30.874  33.160  1.00  0.00     0.198 A 
ATOM     77  F   UNL A   1      40.034  29.994  33.105  1.00  0.00    -0.203 F 
ATOM     78  F   UNL A   1      35.740  32.102  30.484  1.00  0.00    -0.200 F 
ATOM     79  C   UNL A   1      36.756  31.409  32.501  1.00  0.00     0.200 A 
ATOM     80  F   UNL A   1      37.822  30.714  34.490  1.00  0.00    -0.200 F 
ATOM     81  F   UNL A   1      35.672  31.783  33.194  1.00  0.00    -0.200 F 
ENDBRANCH  47  71
BRANCH  59  82
ATOM     82  C   UNL A   1      44.686  33.984  28.720  1.00  0.00     0.064 A 
ATOM     83  C   UNL A   1      45.480  34.486  29.762  1.00  0.00     0.173 A 
ATOM     84  C   UNL A   1      44.317  34.870  27.695  1.00  0.00     0.173 A 
ATOM     85  F   UNL A   1      45.852  33.685  30.773  1.00  0.00    -0.203 F 
ATOM     86  C   UNL A   1      45.859  35.826  29.794  1.00  0.00     0.198 A 
ATOM     87  C   UNL A   1      44.723  36.202  27.714  1.00  0.00     0.198 A 
ATOM     88  F   UNL A   1      43.566  34.442  26.669  1.00  0.00    -0.203 F 
ATOM     89  F   UNL A   1      46.572  36.294  30.828  1.00  0.00    -0.200 F 
ATOM     90  C   UNL A   1      45.486  36.681  28.769  1.00  0.00     0.200 A 
ATOM     91  F   UNL A   1      44.372  37.023  26.715  1.00  0.00    -0.200 F 
ATOM     92  F   UNL A   1      45.853  37.970  28.799  1.00  0.00    -0.200 F 
ENDBRANCH  59  82
ENDBRANCH  33  34
ENDBRANCH  26  28
ENDBRANCH  25  26
ENDBRANCH  24  25
ENDBRANCH  23  24
ENDBRANCH  22  23
ENDBRANCH  21  22
ENDBRANCH   1  21
TORSDOF 21
ENDMDL
