MODEL 1
REMARK VINA RESULT:     -12.0      0.000      0.000
REMARK SMILES O=C(OCCOCCOC(=O)c1cc(Br)ccc1OC(=O)c1ccc(F)cc1)c1ccc(-c2c3nc(c(-c4c(F)c(F)c(F)c(F)c4F)c4ccc([nH]4)c(-c4c(F)c(F)c(F)c(F)c4F)c4nc(c(-c5c(F)c(F)c(F)c(F)c5F)c5ccc2[nH]5)C=C4)C=C3)cc1
REMARK SMILES IDX 7 1 6 2 5 3 4 4 3 5 2 6 1 7 29 8 30 9 91 10 31 11 90 12
REMARK SMILES IDX 32 13 33 14 34 15 84 16 35 17 89 18 83 19 85 20 36 21 88 22
REMARK SMILES IDX 82 23 81 24 37 26 69 27 49 28 68 29 50 30 53 31 67 32 86 33
REMARK SMILES IDX 51 34 52 35 66 37 87 38 54 39 38 40 39 41 47 42 40 43 41 44
REMARK SMILES IDX 45 45 48 46 42 47 43 48 46 49 44 50 70 51 71 52 79 53 72 54
REMARK SMILES IDX 73 55 77 56 80 57 74 58 75 59 78 60 76 61 55 62 56 63 64 64
REMARK SMILES IDX 57 65 58 66 62 67 65 68 59 69 60 70 63 71 61 72 8 73 9 74
REMARK SMILES IDX 10 75 11 76 12 77 13 78 18 79 14 80 17 81 15 82 16 83 19 84
REMARK SMILES IDX 20 85 21 86 22 87 23 88 28 89 24 90 27 91 25 92 26 93
REMARK H PARENT 85 25 53 36
REMARK Flexibility Score: inf
ROOT
ATOM      1  C   UNL A   1      33.043  30.216  27.220  1.00  0.00     0.202 C 
ENDROOT
BRANCH   1   2
ATOM      2  O   UNL A   1      31.768  30.717  26.836  1.00  0.00    -0.374 OA
BRANCH   2   3
ATOM      3  C   UNL A   1      31.636  32.131  26.750  1.00  0.00     0.202 C 
BRANCH   3   4
ATOM      4  C   UNL A   1      32.713  32.808  27.598  1.00  0.00     0.261 C 
BRANCH   4   5
ATOM      5  O   UNL A   1      32.335  34.165  27.877  1.00  0.00    -0.460 OA
BRANCH   5   6
ATOM      6  C   UNL A   1      32.983  34.982  28.743  1.00  0.00     0.338 C 
ATOM      7  O   UNL A   1      32.534  36.099  28.989  1.00  0.00    -0.246 OA
BRANCH   6   8
ATOM      8  C   UNL A   1      34.129  34.497  29.564  1.00  0.00     0.060 A 
ATOM      9  C   UNL A   1      34.007  33.839  30.790  1.00  0.00     0.016 A 
ATOM     10  C   UNL A   1      35.399  34.572  28.974  1.00  0.00     0.016 A 
ATOM     11  C   UNL A   1      35.113  33.292  31.431  1.00  0.00     0.010 A 
ATOM     12  C   UNL A   1      36.506  33.978  29.588  1.00  0.00     0.010 A 
ATOM     13  C   UNL A   1      36.364  33.323  30.818  1.00  0.00    -0.014 A 
BRANCH  13  14
ATOM     14  C   UNL A   1      37.509  32.667  31.486  1.00  0.00     0.031 A 
ATOM     15  C   UNL A   1      38.243  31.575  30.773  1.00  0.00     0.074 A 
ATOM     16  C   UNL A   1      37.921  33.107  32.692  1.00  0.00     0.049 A 
ATOM     17  N   UNL A   1      39.195  30.794  31.213  1.00  0.00    -0.248 NA
ATOM     18  C   UNL A   1      37.859  31.330  29.374  1.00  0.00     0.031 C 
ATOM     19  C   UNL A   1      37.335  34.234  33.421  1.00  0.00     0.029 A 
ATOM     20  N   UNL A   1      38.940  32.683  33.505  1.00  0.00    -0.354 N 
ATOM     21  C   UNL A   1      39.504  29.950  30.157  1.00  0.00     0.074 A 
ATOM     22  C   UNL A   1      38.636  30.305  29.056  1.00  0.00     0.031 C 
ATOM     23  C   UNL A   1      38.036  34.444  34.546  1.00  0.00     0.029 A 
ATOM     24  C   UNL A   1      39.057  33.410  34.666  1.00  0.00     0.049 A 
ATOM     25  H   UNL A   1      39.533  31.931  33.279  1.00  0.00     0.167 HD
ATOM     26  C   UNL A   1      40.429  28.965  30.123  1.00  0.00     0.037 A 
ATOM     27  C   UNL A   1      39.873  33.234  35.723  1.00  0.00     0.037 A 
ATOM     28  C   UNL A   1      41.280  28.636  31.233  1.00  0.00     0.049 A 
ATOM     29  C   UNL A   1      40.819  32.065  35.700  1.00  0.00     0.074 A 
ATOM     30  C   UNL A   1      42.199  27.609  31.345  1.00  0.00     0.029 A 
ATOM     31  N   UNL A   1      41.317  29.342  32.429  1.00  0.00    -0.354 N 
ATOM     32  N   UNL A   1      41.044  31.206  34.734  1.00  0.00    -0.248 NA
ATOM     33  C   UNL A   1      41.601  31.817  36.918  1.00  0.00     0.031 C 
ATOM     34  C   UNL A   1      42.761  27.668  32.624  1.00  0.00     0.029 A 
ATOM     35  C   UNL A   1      42.232  28.764  33.291  1.00  0.00     0.049 A 
ATOM     36  H   UNL A   1      40.774  30.138  32.632  1.00  0.00     0.167 HD
ATOM     37  C   UNL A   1      41.995  30.322  35.220  1.00  0.00     0.074 A 
ATOM     38  C   UNL A   1      42.323  30.762  36.562  1.00  0.00     0.031 C 
ATOM     39  C   UNL A   1      42.540  29.237  34.618  1.00  0.00     0.037 A 
BRANCH  26  40
ATOM     40  C   UNL A   1      40.520  28.146  28.870  1.00  0.00     0.064 A 
ATOM     41  C   UNL A   1      41.340  28.564  27.813  1.00  0.00     0.173 A 
ATOM     42  C   UNL A   1      39.796  26.955  28.711  1.00  0.00     0.173 A 
ATOM     43  F   UNL A   1      42.057  29.693  27.918  1.00  0.00    -0.203 F 
ATOM     44  C   UNL A   1      41.429  27.823  26.637  1.00  0.00     0.198 A 
ATOM     45  C   UNL A   1      39.908  26.202  27.544  1.00  0.00     0.198 A 
ATOM     46  F   UNL A   1      39.017  26.501  29.703  1.00  0.00    -0.203 F 
ATOM     47  F   UNL A   1      42.208  28.251  25.634  1.00  0.00    -0.200 F 
ATOM     48  C   UNL A   1      40.718  26.640  26.506  1.00  0.00     0.200 A 
ATOM     49  F   UNL A   1      39.244  25.044  27.430  1.00  0.00    -0.200 F 
ATOM     50  F   UNL A   1      40.821  25.916  25.383  1.00  0.00    -0.200 F 
ENDBRANCH  26  40
BRANCH  27  51
ATOM     51  C   UNL A   1      39.798  34.153  36.893  1.00  0.00     0.064 A 
ATOM     52  C   UNL A   1      40.572  35.322  36.959  1.00  0.00     0.173 A 
ATOM     53  C   UNL A   1      38.959  33.873  37.980  1.00  0.00     0.173 A 
ATOM     54  F   UNL A   1      41.387  35.647  35.943  1.00  0.00    -0.203 F 
ATOM     55  C   UNL A   1      40.537  36.154  38.076  1.00  0.00     0.198 A 
ATOM     56  C   UNL A   1      38.898  34.723  39.085  1.00  0.00     0.198 A 
ATOM     57  F   UNL A   1      38.174  32.784  37.958  1.00  0.00    -0.203 F 
ATOM     58  F   UNL A   1      41.319  37.240  38.125  1.00  0.00    -0.200 F 
ATOM     59  C   UNL A   1      39.695  35.857  39.136  1.00  0.00     0.200 A 
ATOM     60  F   UNL A   1      38.061  34.448  40.095  1.00  0.00    -0.200 F 
ATOM     61  F   UNL A   1      39.648  36.665  40.204  1.00  0.00    -0.200 F 
ENDBRANCH  27  51
BRANCH  39  62
ATOM     62  C   UNL A   1      43.563  28.461  35.390  1.00  0.00     0.064 A 
ATOM     63  C   UNL A   1      44.931  28.684  35.174  1.00  0.00     0.173 A 
ATOM     64  C   UNL A   1      43.189  27.433  36.266  1.00  0.00     0.173 A 
ATOM     65  F   UNL A   1      45.334  29.653  34.338  1.00  0.00    -0.203 F 
ATOM     66  C   UNL A   1      45.889  27.887  35.791  1.00  0.00     0.198 A 
ATOM     67  C   UNL A   1      44.152  26.655  36.902  1.00  0.00     0.198 A 
ATOM     68  F   UNL A   1      41.892  27.193  36.512  1.00  0.00    -0.203 F 
ATOM     69  F   UNL A   1      47.190  28.089  35.538  1.00  0.00    -0.200 F 
ATOM     70  C   UNL A   1      45.500  26.875  36.655  1.00  0.00     0.200 A 
ATOM     71  F   UNL A   1      43.776  25.691  37.754  1.00  0.00    -0.200 F 
ATOM     72  F   UNL A   1      46.424  26.109  37.250  1.00  0.00    -0.200 F 
ENDBRANCH  39  62
ENDBRANCH  13  14
ENDBRANCH   6   8
ENDBRANCH   5   6
ENDBRANCH   4   5
ENDBRANCH   3   4
ENDBRANCH   2   3
ENDBRANCH   1   2
BRANCH   1  73
ATOM     73  C   UNL A   1      33.548  29.221  26.179  1.00  0.00     0.261 C 
BRANCH  73  74
ATOM     74  O   UNL A   1      33.634  27.913  26.767  1.00  0.00    -0.460 OA
BRANCH  74  75
ATOM     75  C   UNL A   1      32.601  27.063  26.504  1.00  0.00     0.342 C 
ATOM     76  O   UNL A   1      31.484  27.101  26.969  1.00  0.00    -0.246 OA
BRANCH  75  77
ATOM     77  C   UNL A   1      33.037  26.177  25.396  1.00  0.00     0.103 A 
ATOM     78  C   UNL A   1      34.024  25.207  25.627  1.00  0.00     0.035 A 
ATOM     79  C   UNL A   1      32.561  26.377  24.092  1.00  0.00     0.145 A 
ATOM     80  C   UNL A   1      34.553  24.486  24.558  1.00  0.00     0.019 A 
ATOM     81  C   UNL A   1      33.095  25.651  23.022  1.00  0.00     0.049 A 
ATOM     82  Br  UNL A   1      35.947  23.249  24.871  1.00  0.00    -0.051 Br
ATOM     83  C   UNL A   1      34.096  24.705  23.259  1.00  0.00     0.019 A 
BRANCH  79  84
ATOM     84  O   UNL A   1      31.712  27.455  23.783  1.00  0.00    -0.422 OA
BRANCH  84  85
ATOM     85  C   UNL A   1      30.384  27.134  23.554  1.00  0.00     0.343 C 
ATOM     86  O   UNL A   1      29.927  26.022  23.347  1.00  0.00    -0.246 OA
BRANCH  85  87
ATOM     87  C   UNL A   1      29.582  28.393  23.475  1.00  0.00     0.060 A 
ATOM     88  C   UNL A   1      28.225  28.305  23.133  1.00  0.00     0.019 A 
ATOM     89  C   UNL A   1      30.142  29.657  23.716  1.00  0.00     0.019 A 
ATOM     90  C   UNL A   1      27.445  29.462  23.022  1.00  0.00     0.040 A 
ATOM     91  C   UNL A   1      29.362  30.813  23.601  1.00  0.00     0.040 A 
ATOM     92  C   UNL A   1      28.021  30.706  23.256  1.00  0.00     0.123 A 
ATOM     93  F   UNL A   1      27.280  31.815  23.151  1.00  0.00    -0.207 F 
ENDBRANCH  85  87
ENDBRANCH  84  85
ENDBRANCH  79  84
ENDBRANCH  75  77
ENDBRANCH  74  75
ENDBRANCH  73  74
ENDBRANCH   1  73
TORSDOF 17
ENDMDL
MODEL 2
REMARK VINA RESULT:     -12.0      0.687      7.463
REMARK SMILES O=C(OCCOCCOC(=O)c1cc(Br)ccc1OC(=O)c1ccc(F)cc1)c1ccc(-c2c3nc(c(-c4c(F)c(F)c(F)c(F)c4F)c4ccc([nH]4)c(-c4c(F)c(F)c(F)c(F)c4F)c4nc(c(-c5c(F)c(F)c(F)c(F)c5F)c5ccc2[nH]5)C=C4)C=C3)cc1
REMARK SMILES IDX 7 1 6 2 5 3 4 4 3 5 2 6 1 7 29 8 30 9 91 10 31 11 90 12
REMARK SMILES IDX 32 13 33 14 34 15 84 16 35 17 89 18 83 19 85 20 36 21 88 22
REMARK SMILES IDX 82 23 81 24 37 26 69 27 49 28 68 29 50 30 53 31 67 32 86 33
REMARK SMILES IDX 51 34 52 35 66 37 87 38 54 39 38 40 39 41 47 42 40 43 41 44
REMARK SMILES IDX 45 45 48 46 42 47 43 48 46 49 44 50 70 51 71 52 79 53 72 54
REMARK SMILES IDX 73 55 77 56 80 57 74 58 75 59 78 60 76 61 55 62 56 63 64 64
REMARK SMILES IDX 57 65 58 66 62 67 65 68 59 69 60 70 63 71 61 72 8 73 9 74
REMARK SMILES IDX 10 75 11 76 12 77 13 78 18 79 14 80 17 81 15 82 16 83 19 84
REMARK SMILES IDX 20 85 21 86 22 87 23 88 28 89 24 90 27 91 25 92 26 93
REMARK H PARENT 85 25 53 36
REMARK Flexibility Score: inf
ROOT
ATOM      1  C   UNL A   1      32.841  30.295  27.173  1.00  0.00     0.202 C 
ENDROOT
BRANCH   1   2
ATOM      2  O   UNL A   1      31.547  30.769  26.820  1.00  0.00    -0.374 OA
BRANCH   2   3
ATOM      3  C   UNL A   1      31.406  32.174  26.647  1.00  0.00     0.202 C 
BRANCH   3   4
ATOM      4  C   UNL A   1      32.611  32.897  27.249  1.00  0.00     0.261 C 
BRANCH   4   5
ATOM      5  O   UNL A   1      32.215  34.190  27.731  1.00  0.00    -0.460 OA
BRANCH   5   6
ATOM      6  C   UNL A   1      32.909  34.918  28.640  1.00  0.00     0.338 C 
ATOM      7  O   UNL A   1      32.518  36.038  28.959  1.00  0.00    -0.246 OA
BRANCH   6   8
ATOM      8  C   UNL A   1      34.034  34.325  29.420  1.00  0.00     0.060 A 
ATOM      9  C   UNL A   1      33.879  33.479  30.520  1.00  0.00     0.016 A 
ATOM     10  C   UNL A   1      35.322  34.513  28.901  1.00  0.00     0.016 A 
ATOM     11  C   UNL A   1      34.972  32.854  31.110  1.00  0.00     0.010 A 
ATOM     12  C   UNL A   1      36.418  33.846  29.457  1.00  0.00     0.010 A 
ATOM     13  C   UNL A   1      36.244  33.001  30.562  1.00  0.00    -0.014 A 
BRANCH  13  14
ATOM     14  C   UNL A   1      37.377  32.264  31.163  1.00  0.00     0.031 A 
ATOM     15  C   UNL A   1      37.841  32.631  32.537  1.00  0.00     0.074 A 
ATOM     16  C   UNL A   1      37.928  31.229  30.498  1.00  0.00     0.049 A 
ATOM     17  N   UNL A   1      38.878  32.196  33.204  1.00  0.00    -0.248 NA
ATOM     18  C   UNL A   1      37.026  33.617  33.264  1.00  0.00     0.031 C 
ATOM     19  C   UNL A   1      37.477  30.728  29.197  1.00  0.00     0.029 A 
ATOM     20  N   UNL A   1      38.963  30.393  30.831  1.00  0.00    -0.354 N 
ATOM     21  C   UNL A   1      38.855  32.873  34.414  1.00  0.00     0.074 A 
ATOM     22  C   UNL A   1      37.708  33.754  34.391  1.00  0.00     0.031 C 
ATOM     23  C   UNL A   1      38.196  29.644  28.868  1.00  0.00     0.029 A 
ATOM     24  C   UNL A   1      39.220  29.430  29.884  1.00  0.00     0.049 A 
ATOM     25  H   UNL A   1      39.474  30.475  31.669  1.00  0.00     0.167 HD
ATOM     26  C   UNL A   1      39.724  32.765  35.444  1.00  0.00     0.037 A 
ATOM     27  C   UNL A   1      40.197  28.506  29.829  1.00  0.00     0.037 A 
ATOM     28  C   UNL A   1      40.855  31.878  35.439  1.00  0.00     0.049 A 
ATOM     29  C   UNL A   1      41.211  28.479  30.940  1.00  0.00     0.074 A 
ATOM     30  C   UNL A   1      41.848  31.737  36.390  1.00  0.00     0.029 A 
ATOM     31  N   UNL A   1      41.134  30.969  34.426  1.00  0.00    -0.354 N 
ATOM     32  N   UNL A   1      41.243  29.189  32.043  1.00  0.00    -0.248 NA
ATOM     33  C   UNL A   1      42.341  27.553  30.789  1.00  0.00     0.031 C 
ATOM     34  C   UNL A   1      42.753  30.775  35.931  1.00  0.00     0.029 A 
ATOM     35  C   UNL A   1      42.294  30.275  34.720  1.00  0.00     0.049 A 
ATOM     36  H   UNL A   1      40.586  30.838  33.619  1.00  0.00     0.167 HD
ATOM     37  C   UNL A   1      42.386  28.793  32.721  1.00  0.00     0.074 A 
ATOM     38  C   UNL A   1      43.011  27.762  31.915  1.00  0.00     0.031 C 
ATOM     39  C   UNL A   1      42.881  29.247  33.898  1.00  0.00     0.037 A 
BRANCH  26  40
ATOM     40  C   UNL A   1      39.513  33.666  36.623  1.00  0.00     0.064 A 
ATOM     41  C   UNL A   1      38.741  33.234  37.712  1.00  0.00     0.173 A 
ATOM     42  C   UNL A   1      40.065  34.954  36.678  1.00  0.00     0.173 A 
ATOM     43  F   UNL A   1      38.195  32.009  37.710  1.00  0.00    -0.203 F 
ATOM     44  C   UNL A   1      38.524  34.061  38.811  1.00  0.00     0.198 A 
ATOM     45  C   UNL A   1      39.868  35.769  37.791  1.00  0.00     0.198 A 
ATOM     46  F   UNL A   1      40.830  35.404  35.673  1.00  0.00    -0.203 F 
ATOM     47  F   UNL A   1      37.770  33.632  39.833  1.00  0.00    -0.200 F 
ATOM     48  C   UNL A   1      39.092  35.325  38.852  1.00  0.00     0.200 A 
ATOM     49  F   UNL A   1      40.442  36.979  37.843  1.00  0.00    -0.200 F 
ATOM     50  F   UNL A   1      38.901  36.112  39.920  1.00  0.00    -0.200 F 
ENDBRANCH  26  40
BRANCH  27  51
ATOM     51  C   UNL A   1      40.284  27.571  28.672  1.00  0.00     0.064 A 
ATOM     52  C   UNL A   1      39.640  26.323  28.687  1.00  0.00     0.173 A 
ATOM     53  C   UNL A   1      41.028  27.900  27.531  1.00  0.00     0.173 A 
ATOM     54  F   UNL A   1      38.907  25.958  29.750  1.00  0.00    -0.203 F 
ATOM     55  C   UNL A   1      39.764  25.431  27.625  1.00  0.00     0.198 A 
ATOM     56  C   UNL A   1      41.124  27.020  26.452  1.00  0.00     0.198 A 
ATOM     57  F   UNL A   1      41.639  29.091  27.450  1.00  0.00    -0.203 F 
ATOM     58  F   UNL A   1      39.172  24.231  27.687  1.00  0.00    -0.200 F 
ATOM     59  C   UNL A   1      40.501  25.782  26.505  1.00  0.00     0.200 A 
ATOM     60  F   UNL A   1      41.813  27.376  25.359  1.00  0.00    -0.200 F 
ATOM     61  F   UNL A   1      40.607  24.931  25.474  1.00  0.00    -0.200 F 
ENDBRANCH  27  51
BRANCH  39  62
ATOM     62  C   UNL A   1      44.147  28.622  34.400  1.00  0.00     0.064 A 
ATOM     63  C   UNL A   1      44.096  27.518  35.264  1.00  0.00     0.173 A 
ATOM     64  C   UNL A   1      45.401  29.177  34.106  1.00  0.00     0.173 A 
ATOM     65  F   UNL A   1      42.918  26.960  35.579  1.00  0.00    -0.203 F 
ATOM     66  C   UNL A   1      45.256  27.006  35.835  1.00  0.00     0.198 A 
ATOM     67  C   UNL A   1      46.561  28.644  34.658  1.00  0.00     0.198 A 
ATOM     68  F   UNL A   1      45.497  30.225  33.274  1.00  0.00    -0.203 F 
ATOM     69  F   UNL A   1      45.182  25.977  36.691  1.00  0.00    -0.200 F 
ATOM     70  C   UNL A   1      46.487  27.568  35.531  1.00  0.00     0.200 A 
ATOM     71  F   UNL A   1      47.753  29.173  34.347  1.00  0.00    -0.200 F 
ATOM     72  F   UNL A   1      47.604  27.072  36.080  1.00  0.00    -0.200 F 
ENDBRANCH  39  62
ENDBRANCH  13  14
ENDBRANCH   6   8
ENDBRANCH   5   6
ENDBRANCH   4   5
ENDBRANCH   3   4
ENDBRANCH   2   3
ENDBRANCH   1   2
BRANCH   1  73
ATOM     73  C   UNL A   1      33.332  29.291  26.133  1.00  0.00     0.261 C 
BRANCH  73  74
ATOM     74  O   UNL A   1      33.498  28.004  26.748  1.00  0.00    -0.460 OA
BRANCH  74  75
ATOM     75  C   UNL A   1      32.527  27.082  26.491  1.00  0.00     0.342 C 
ATOM     76  O   UNL A   1      31.395  27.070  26.920  1.00  0.00    -0.246 OA
BRANCH  75  77
ATOM     77  C   UNL A   1      33.051  26.179  25.437  1.00  0.00     0.103 A 
ATOM     78  C   UNL A   1      34.057  25.252  25.750  1.00  0.00     0.035 A 
ATOM     79  C   UNL A   1      32.639  26.322  24.104  1.00  0.00     0.145 A 
ATOM     80  C   UNL A   1      34.667  24.518  24.735  1.00  0.00     0.019 A 
ATOM     81  C   UNL A   1      33.254  25.583  23.088  1.00  0.00     0.049 A 
ATOM     82  Br  UNL A   1      36.083  23.341  25.160  1.00  0.00    -0.051 Br
ATOM     83  C   UNL A   1      34.273  24.681  23.407  1.00  0.00     0.019 A 
BRANCH  79  84
ATOM     84  O   UNL A   1      31.771  27.358  23.717  1.00  0.00    -0.422 OA
BRANCH  84  85
ATOM     85  C   UNL A   1      30.435  27.017  23.598  1.00  0.00     0.343 C 
ATOM     86  O   UNL A   1      29.974  25.891  23.507  1.00  0.00    -0.246 OA
BRANCH  85  87
ATOM     87  C   UNL A   1      29.619  28.264  23.471  1.00  0.00     0.060 A 
ATOM     88  C   UNL A   1      28.264  28.150  23.129  1.00  0.00     0.019 A 
ATOM     89  C   UNL A   1      30.166  29.542  23.667  1.00  0.00     0.019 A 
ATOM     90  C   UNL A   1      27.473  29.294  22.974  1.00  0.00     0.040 A 
ATOM     91  C   UNL A   1      29.375  30.685  23.508  1.00  0.00     0.040 A 
ATOM     92  C   UNL A   1      28.036  30.551  23.164  1.00  0.00     0.123 A 
ATOM     93  F   UNL A   1      27.283  31.647  23.017  1.00  0.00    -0.207 F 
ENDBRANCH  85  87
ENDBRANCH  84  85
ENDBRANCH  79  84
ENDBRANCH  75  77
ENDBRANCH  74  75
ENDBRANCH  73  74
ENDBRANCH   1  73
TORSDOF 17
ENDMDL
MODEL 3
REMARK VINA RESULT:     -11.9      2.149      3.500
REMARK SMILES O=C(OCCOCCOC(=O)c1cc(Br)ccc1OC(=O)c1ccc(F)cc1)c1ccc(-c2c3nc(c(-c4c(F)c(F)c(F)c(F)c4F)c4ccc([nH]4)c(-c4c(F)c(F)c(F)c(F)c4F)c4nc(c(-c5c(F)c(F)c(F)c(F)c5F)c5ccc2[nH]5)C=C4)C=C3)cc1
REMARK SMILES IDX 7 1 6 2 5 3 4 4 3 5 2 6 1 7 29 8 30 9 91 10 31 11 90 12
REMARK SMILES IDX 32 13 33 14 34 15 84 16 35 17 89 18 83 19 85 20 36 21 88 22
REMARK SMILES IDX 82 23 81 24 37 26 69 27 49 28 68 29 50 30 53 31 67 32 86 33
REMARK SMILES IDX 51 34 52 35 66 37 87 38 54 39 38 40 39 41 47 42 40 43 41 44
REMARK SMILES IDX 45 45 48 46 42 47 43 48 46 49 44 50 70 51 71 52 79 53 72 54
REMARK SMILES IDX 73 55 77 56 80 57 74 58 75 59 78 60 76 61 55 62 56 63 64 64
REMARK SMILES IDX 57 65 58 66 62 67 65 68 59 69 60 70 63 71 61 72 8 73 9 74
REMARK SMILES IDX 10 75 11 76 12 77 13 78 18 79 14 80 17 81 15 82 16 83 19 84
REMARK SMILES IDX 20 85 21 86 22 87 23 88 28 89 24 90 27 91 25 92 26 93
REMARK H PARENT 85 25 53 36
REMARK Flexibility Score: inf
ROOT
ATOM      1  C   UNL A   1      32.114  26.679  26.043  1.00  0.00     0.202 C 
ENDROOT
BRANCH   1   2
ATOM      2  O   UNL A   1      32.657  27.857  26.629  1.00  0.00    -0.374 OA
BRANCH   2   3
ATOM      3  C   UNL A   1      31.759  28.672  27.373  1.00  0.00     0.202 C 
BRANCH   3   4
ATOM      4  C   UNL A   1      31.693  30.070  26.759  1.00  0.00     0.261 C 
BRANCH   4   5
ATOM      5  O   UNL A   1      33.017  30.532  26.451  1.00  0.00    -0.460 OA
BRANCH   5   6
ATOM      6  C   UNL A   1      33.716  31.420  27.199  1.00  0.00     0.338 C 
ATOM      7  O   UNL A   1      33.202  32.486  27.528  1.00  0.00    -0.246 OA
BRANCH   6   8
ATOM      8  C   UNL A   1      35.030  31.065  27.807  1.00  0.00     0.060 A 
ATOM      9  C   UNL A   1      36.066  31.971  28.048  1.00  0.00     0.016 A 
ATOM     10  C   UNL A   1      35.156  29.762  28.310  1.00  0.00     0.016 A 
ATOM     11  C   UNL A   1      37.209  31.594  28.745  1.00  0.00     0.010 A 
ATOM     12  C   UNL A   1      36.278  29.393  29.058  1.00  0.00     0.010 A 
ATOM     13  C   UNL A   1      37.308  30.314  29.288  1.00  0.00    -0.014 A 
BRANCH  13  14
ATOM     14  C   UNL A   1      38.500  29.964  30.091  1.00  0.00     0.031 A 
ATOM     15  C   UNL A   1      39.568  29.111  29.480  1.00  0.00     0.074 A 
ATOM     16  C   UNL A   1      38.644  30.473  31.330  1.00  0.00     0.049 A 
ATOM     17  N   UNL A   1      40.632  28.595  30.036  1.00  0.00    -0.248 NA
ATOM     18  C   UNL A   1      39.422  28.800  28.049  1.00  0.00     0.031 C 
ATOM     19  C   UNL A   1      37.708  31.399  31.974  1.00  0.00     0.029 A 
ATOM     20  N   UNL A   1      39.639  30.313  32.260  1.00  0.00    -0.354 N 
ATOM     21  C   UNL A   1      41.267  27.878  29.032  1.00  0.00     0.074 A 
ATOM     22  C   UNL A   1      40.468  28.017  27.835  1.00  0.00     0.031 C 
ATOM     23  C   UNL A   1      38.198  31.762  33.169  1.00  0.00     0.029 A 
ATOM     24  C   UNL A   1      39.431  31.025  33.418  1.00  0.00     0.049 A 
ATOM     25  H   UNL A   1      40.428  29.743  32.112  1.00  0.00     0.167 HD
ATOM     26  C   UNL A   1      42.413  27.166  29.117  1.00  0.00     0.037 A 
ATOM     27  C   UNL A   1      40.139  31.047  34.563  1.00  0.00     0.037 A 
ATOM     28  C   UNL A   1      43.188  27.048  30.321  1.00  0.00     0.049 A 
ATOM     29  C   UNL A   1      41.352  30.162  34.663  1.00  0.00     0.074 A 
ATOM     30  C   UNL A   1      44.322  26.291  30.549  1.00  0.00     0.029 A 
ATOM     31  N   UNL A   1      42.905  27.719  31.504  1.00  0.00    -0.354 N 
ATOM     32  N   UNL A   1      41.900  29.408  33.740  1.00  0.00    -0.248 NA
ATOM     33  C   UNL A   1      42.027  30.102  35.965  1.00  0.00     0.031 C 
ATOM     34  C   UNL A   1      44.700  26.471  31.884  1.00  0.00     0.029 A 
ATOM     35  C   UNL A   1      43.834  27.381  32.473  1.00  0.00     0.049 A 
ATOM     36  H   UNL A   1      42.155  28.343  31.633  1.00  0.00     0.167 HD
ATOM     37  C   UNL A   1      42.985  28.790  34.342  1.00  0.00     0.074 A 
ATOM     38  C   UNL A   1      43.033  29.276  35.708  1.00  0.00     0.031 C 
ATOM     39  C   UNL A   1      43.857  27.894  33.820  1.00  0.00     0.037 A 
BRANCH  26  40
ATOM     40  C   UNL A   1      42.854  26.421  27.893  1.00  0.00     0.064 A 
ATOM     41  C   UNL A   1      42.383  25.122  27.650  1.00  0.00     0.173 A 
ATOM     42  C   UNL A   1      43.744  26.983  26.965  1.00  0.00     0.173 A 
ATOM     43  F   UNL A   1      41.527  24.542  28.504  1.00  0.00    -0.203 F 
ATOM     44  C   UNL A   1      42.791  24.410  26.525  1.00  0.00     0.198 A 
ATOM     45  C   UNL A   1      44.129  26.277  25.827  1.00  0.00     0.198 A 
ATOM     46  F   UNL A   1      44.204  28.230  27.141  1.00  0.00    -0.203 F 
ATOM     47  F   UNL A   1      42.339  23.165  26.322  1.00  0.00    -0.200 F 
ATOM     48  C   UNL A   1      43.658  24.990  25.612  1.00  0.00     0.200 A 
ATOM     49  F   UNL A   1      44.943  26.849  24.930  1.00  0.00    -0.200 F 
ATOM     50  F   UNL A   1      44.033  24.312  24.518  1.00  0.00    -0.200 F 
ENDBRANCH  26  40
BRANCH  27  51
ATOM     51  C   UNL A   1      39.696  31.894  35.705  1.00  0.00     0.064 A 
ATOM     52  C   UNL A   1      38.664  31.486  36.565  1.00  0.00     0.173 A 
ATOM     53  C   UNL A   1      40.286  33.142  35.951  1.00  0.00     0.173 A 
ATOM     54  F   UNL A   1      38.069  30.298  36.383  1.00  0.00    -0.203 F 
ATOM     55  C   UNL A   1      38.218  32.303  37.602  1.00  0.00     0.198 A 
ATOM     56  C   UNL A   1      39.862  33.945  37.010  1.00  0.00     0.198 A 
ATOM     57  F   UNL A   1      41.296  33.570  35.179  1.00  0.00    -0.203 F 
ATOM     58  F   UNL A   1      37.204  31.902  38.379  1.00  0.00    -0.200 F 
ATOM     59  C   UNL A   1      38.822  33.530  37.828  1.00  0.00     0.200 A 
ATOM     60  F   UNL A   1      40.468  35.118  37.244  1.00  0.00    -0.200 F 
ATOM     61  F   UNL A   1      38.405  34.309  38.836  1.00  0.00    -0.200 F 
ENDBRANCH  27  51
BRANCH  39  62
ATOM     62  C   UNL A   1      44.951  27.395  34.714  1.00  0.00     0.064 A 
ATOM     63  C   UNL A   1      46.194  28.042  34.737  1.00  0.00     0.173 A 
ATOM     64  C   UNL A   1      44.799  26.222  35.467  1.00  0.00     0.173 A 
ATOM     65  F   UNL A   1      46.388  29.163  34.026  1.00  0.00    -0.203 F 
ATOM     66  C   UNL A   1      47.257  27.518  35.467  1.00  0.00     0.198 A 
ATOM     67  C   UNL A   1      45.856  25.716  36.217  1.00  0.00     0.198 A 
ATOM     68  F   UNL A   1      43.622  25.578  35.483  1.00  0.00    -0.203 F 
ATOM     69  F   UNL A   1      48.450  28.129  35.442  1.00  0.00    -0.200 F 
ATOM     70  C   UNL A   1      47.086  26.358  36.206  1.00  0.00     0.200 A 
ATOM     71  F   UNL A   1      45.685  24.607  36.949  1.00  0.00    -0.200 F 
ATOM     72  F   UNL A   1      48.110  25.855  36.910  1.00  0.00    -0.200 F 
ENDBRANCH  39  62
ENDBRANCH  13  14
ENDBRANCH   6   8
ENDBRANCH   5   6
ENDBRANCH   4   5
ENDBRANCH   3   4
ENDBRANCH   2   3
ENDBRANCH   1   2
BRANCH   1  73
ATOM     73  C   UNL A   1      33.098  25.521  26.192  1.00  0.00     0.261 C 
BRANCH  73  74
ATOM     74  O   UNL A   1      34.136  25.643  25.205  1.00  0.00    -0.460 OA
BRANCH  74  75
ATOM     75  C   UNL A   1      34.854  24.515  24.941  1.00  0.00     0.342 C 
ATOM     76  O   UNL A   1      35.954  24.232  25.359  1.00  0.00    -0.246 OA
BRANCH  75  77
ATOM     77  C   UNL A   1      33.964  23.599  24.185  1.00  0.00     0.103 A 
ATOM     78  C   UNL A   1      33.623  22.352  24.729  1.00  0.00     0.035 A 
ATOM     79  C   UNL A   1      33.558  23.915  22.881  1.00  0.00     0.145 A 
ATOM     80  C   UNL A   1      32.927  21.424  23.958  1.00  0.00     0.019 A 
ATOM     81  C   UNL A   1      32.859  22.980  22.110  1.00  0.00     0.049 A 
ATOM     82  Br  UNL A   1      32.554  19.714  24.671  1.00  0.00    -0.051 Br
ATOM     83  C   UNL A   1      32.546  21.731  22.652  1.00  0.00     0.019 A 
BRANCH  79  84
ATOM     84  O   UNL A   1      34.027  25.069  22.230  1.00  0.00    -0.422 OA
BRANCH  84  85
ATOM     85  C   UNL A   1      33.144  25.671  21.349  1.00  0.00     0.343 C 
ATOM     86  O   UNL A   1      33.032  25.439  20.157  1.00  0.00    -0.246 OA
BRANCH  85  87
ATOM     87  C   UNL A   1      32.409  26.762  22.060  1.00  0.00     0.060 A 
ATOM     88  C   UNL A   1      31.018  26.657  22.196  1.00  0.00     0.019 A 
ATOM     89  C   UNL A   1      33.061  27.891  22.580  1.00  0.00     0.019 A 
ATOM     90  C   UNL A   1      30.289  27.669  22.831  1.00  0.00     0.040 A 
ATOM     91  C   UNL A   1      32.330  28.904  23.211  1.00  0.00     0.040 A 
ATOM     92  C   UNL A   1      30.952  28.784  23.332  1.00  0.00     0.123 A 
ATOM     93  F   UNL A   1      30.259  29.754  23.940  1.00  0.00    -0.207 F 
ENDBRANCH  85  87
ENDBRANCH  84  85
ENDBRANCH  79  84
ENDBRANCH  75  77
ENDBRANCH  74  75
ENDBRANCH  73  74
ENDBRANCH   1  73
TORSDOF 17
ENDMDL
