MODEL 1
REMARK VINA RESULT:     -11.0      0.000      0.000
REMARK SMILES COCC[C@H]([NH3+])C(=O)N1CC(n2cc(C(=O)OCCOCCOC(=O)c3ccc(-c4c5nc(c(-c6c(F)c(F)c(F)c(F)c6F)c6ccc([nH]6)c(-c6c(F)c(F)c(F)c(F)c6F)c6nc(c(-c7c(F)c(F)c(F)c(F)c7F)c7ccc4[nH]7)C=C6)C=C5)cc3)nn2)C1
REMARK SMILES IDX 18 1 17 2 15 3 16 4 14 5 12 6 13 7 90 8 89 9 11 10 7 11 8 12
REMARK SMILES IDX 9 13 10 14 91 15 5 16 4 17 3 18 2 19 1 20 6 21 19 25 20 26
REMARK SMILES IDX 21 27 22 28 23 29 24 30 25 31 26 32 27 33 88 34 28 35 87 36
REMARK SMILES IDX 29 37 30 38 31 39 81 40 32 41 86 42 80 43 82 44 33 45 85 46
REMARK SMILES IDX 79 47 78 48 34 50 66 51 46 52 65 53 47 54 50 55 64 56 83 57
REMARK SMILES IDX 48 58 49 59 63 61 84 62 51 63 35 64 36 65 44 66 37 67 38 68
REMARK SMILES IDX 42 69 45 70 39 71 40 72 43 73 41 74 67 75 68 76 76 77 69 78
REMARK SMILES IDX 70 79 74 80 77 81 71 82 72 83 75 84 73 85 52 86 53 87 61 88
REMARK SMILES IDX 54 89 55 90 59 91 62 92 56 93 57 94 60 95 58 96
REMARK H PARENT 6 22 6 23 6 24 82 49 50 60
REMARK Flexibility Score: inf
ROOT
ATOM      1  C   UNL A   1      38.693  22.302  26.251  1.00  0.00     0.261 C 
ENDROOT
BRANCH   1   2
ATOM      2  O   UNL A   1      37.861  22.206  25.082  1.00  0.00    -0.458 OA
BRANCH   2   3
ATOM      3  C   UNL A   1      37.038  21.115  25.063  1.00  0.00     0.360 C 
ATOM      4  O   UNL A   1      37.436  19.951  24.989  1.00  0.00    -0.244 OA
BRANCH   3   5
ATOM      5  C   UNL A   1      35.640  21.447  25.261  1.00  0.00     0.190 A 
ATOM      6  N   UNL A   1      33.727  22.315  25.786  1.00  0.00    -0.245 N 
ATOM      7  C   UNL A   1      35.048  22.314  26.163  1.00  0.00     0.147 A 
ATOM      8  N   UNL A   1      33.491  21.388  24.848  1.00  0.00    -0.066 NA
ATOM      9  N   UNL A   1      34.655  20.869  24.497  1.00  0.00    -0.123 NA
BRANCH   6  10
ATOM     10  C   UNL A   1      32.757  23.281  26.208  1.00  0.00     0.148 C 
ATOM     11  C   UNL A   1      30.501  25.386  25.313  1.00  0.00     0.280 C 
ATOM     12  O   UNL A   1      30.295  25.766  26.469  1.00  0.00    -0.268 OA
ATOM     13  N   UNL A   1      31.376  24.361  25.041  1.00  0.00    -0.333 N 
ATOM     14  C   UNL A   1      31.327  23.051  25.732  1.00  0.00     0.149 C 
ATOM     15  C   UNL A   1      32.814  24.513  25.320  1.00  0.00     0.149 C 
BRANCH  11  16
ATOM     16  C   UNL A   1      29.849  26.094  24.093  1.00  0.00     0.273 C 
BRANCH  16  17
ATOM     17  C   UNL A   1      30.501  27.390  23.587  1.00  0.00     0.104 C 
BRANCH  17  18
ATOM     18  C   UNL A   1      29.624  28.622  23.339  1.00  0.00     0.166 C 
BRANCH  18  19
ATOM     19  O   UNL A   1      29.436  28.941  21.968  1.00  0.00    -0.384 OA
ATOM     20  C   UNL A   1      29.394  30.334  21.691  1.00  0.00     0.194 C 
ENDBRANCH  18  19
ENDBRANCH  17  18
ENDBRANCH  16  17
BRANCH  16  21
ATOM     21  N   UNL A   1      28.380  26.165  24.242  1.00  0.00    -0.347 N 
ATOM     22  H   UNL A   1      27.938  26.030  23.333  1.00  0.00     0.345 HD
ATOM     23  H   UNL A   1      28.119  27.077  24.615  1.00  0.00     0.345 HD
ATOM     24  H   UNL A   1      28.067  25.435  24.883  1.00  0.00     0.345 HD
ENDBRANCH  16  21
ENDBRANCH  11  16
ENDBRANCH   6  10
ENDBRANCH   3   5
ENDBRANCH   2   3
ENDBRANCH   1   2
BRANCH   1  25
ATOM     25  C   UNL A   1      40.022  21.560  26.096  1.00  0.00     0.202 C 
BRANCH  25  26
ATOM     26  O   UNL A   1      40.367  20.558  27.051  1.00  0.00    -0.374 OA
BRANCH  26  27
ATOM     27  C   UNL A   1      41.722  20.163  27.243  1.00  0.00     0.202 C 
BRANCH  27  28
ATOM     28  C   UNL A   1      42.360  19.230  26.224  1.00  0.00     0.261 C 
BRANCH  28  29
ATOM     29  O   UNL A   1      42.825  19.936  25.087  1.00  0.00    -0.460 OA
BRANCH  29  30
ATOM     30  C   UNL A   1      44.168  20.063  25.029  1.00  0.00     0.338 C 
ATOM     31  O   UNL A   1      45.007  19.175  25.118  1.00  0.00    -0.246 OA
BRANCH  30  32
ATOM     32  C   UNL A   1      44.495  21.489  24.986  1.00  0.00     0.060 A 
ATOM     33  C   UNL A   1      45.595  21.877  25.754  1.00  0.00     0.016 A 
ATOM     34  C   UNL A   1      43.509  22.394  24.569  1.00  0.00     0.016 A 
ATOM     35  C   UNL A   1      45.533  23.096  26.381  1.00  0.00     0.010 A 
ATOM     36  C   UNL A   1      43.436  23.599  25.211  1.00  0.00     0.010 A 
ATOM     37  C   UNL A   1      44.387  23.872  26.191  1.00  0.00    -0.014 A 
BRANCH  37  38
ATOM     38  C   UNL A   1      44.211  25.038  27.016  1.00  0.00     0.031 A 
ATOM     39  C   UNL A   1      45.307  26.008  26.843  1.00  0.00     0.074 A 
ATOM     40  C   UNL A   1      43.101  25.221  27.752  1.00  0.00     0.049 A 
ATOM     41  N   UNL A   1      46.223  26.313  27.698  1.00  0.00    -0.248 NA
ATOM     42  C   UNL A   1      45.542  26.530  25.487  1.00  0.00     0.031 C 
ATOM     43  C   UNL A   1      41.873  24.423  27.783  1.00  0.00     0.029 A 
ATOM     44  N   UNL A   1      42.813  26.260  28.580  1.00  0.00    -0.354 N 
ATOM     45  C   UNL A   1      47.032  27.233  27.045  1.00  0.00     0.074 A 
ATOM     46  C   UNL A   1      46.715  27.140  25.646  1.00  0.00     0.031 C 
ATOM     47  C   UNL A   1      40.899  25.130  28.403  1.00  0.00     0.029 A 
ATOM     48  C   UNL A   1      41.466  26.365  28.911  1.00  0.00     0.049 A 
ATOM     49  H   UNL A   1      43.497  26.883  28.914  1.00  0.00     0.167 HD
ATOM     50  C   UNL A   1      47.676  28.206  27.742  1.00  0.00     0.037 A 
ATOM     51  C   UNL A   1      40.896  27.470  29.453  1.00  0.00     0.037 A 
ATOM     52  C   UNL A   1      47.770  27.868  29.140  1.00  0.00     0.049 A 
ATOM     53  C   UNL A   1      41.998  28.264  30.074  1.00  0.00     0.074 A 
ATOM     54  C   UNL A   1      48.340  26.821  29.839  1.00  0.00     0.029 A 
ATOM     55  N   UNL A   1      46.873  28.448  30.007  1.00  0.00    -0.354 N 
ATOM     56  N   UNL A   1      42.677  27.852  31.112  1.00  0.00    -0.248 NA
ATOM     57  C   UNL A   1      42.681  29.239  29.231  1.00  0.00     0.031 C 
ATOM     58  C   UNL A   1      47.416  26.526  30.884  1.00  0.00     0.029 A 
ATOM     59  C   UNL A   1      46.376  27.452  30.811  1.00  0.00     0.049 A 
ATOM     60  H   UNL A   1      46.632  29.402  30.044  1.00  0.00     0.167 HD
ATOM     61  C   UNL A   1      43.996  28.178  30.828  1.00  0.00     0.074 A 
ATOM     62  C   UNL A   1      43.931  29.075  29.676  1.00  0.00     0.031 C 
ATOM     63  C   UNL A   1      45.035  27.457  31.347  1.00  0.00     0.037 A 
BRANCH  50  64
ATOM     64  C   UNL A   1      47.849  29.611  27.226  1.00  0.00     0.064 A 
ATOM     65  C   UNL A   1      49.119  30.208  27.307  1.00  0.00     0.173 A 
ATOM     66  C   UNL A   1      46.780  30.489  26.931  1.00  0.00     0.173 A 
ATOM     67  F   UNL A   1      50.202  29.471  27.596  1.00  0.00    -0.203 F 
ATOM     68  C   UNL A   1      49.291  31.589  27.187  1.00  0.00     0.198 A 
ATOM     69  C   UNL A   1      46.965  31.857  26.754  1.00  0.00     0.198 A 
ATOM     70  F   UNL A   1      45.502  30.095  26.916  1.00  0.00    -0.203 F 
ATOM     71  F   UNL A   1      50.498  32.127  27.403  1.00  0.00    -0.200 F 
ATOM     72  C   UNL A   1      48.213  32.412  26.918  1.00  0.00     0.200 A 
ATOM     73  F   UNL A   1      45.901  32.636  26.508  1.00  0.00    -0.200 F 
ATOM     74  F   UNL A   1      48.364  33.741  26.866  1.00  0.00    -0.200 F 
ENDBRANCH  50  64
BRANCH  51  75
ATOM     75  C   UNL A   1      39.567  28.045  29.120  1.00  0.00     0.064 A 
ATOM     76  C   UNL A   1      38.566  28.194  30.092  1.00  0.00     0.173 A 
ATOM     77  C   UNL A   1      39.337  28.697  27.890  1.00  0.00     0.173 A 
ATOM     78  F   UNL A   1      38.727  27.657  31.311  1.00  0.00    -0.203 F 
ATOM     79  C   UNL A   1      37.412  28.951  29.852  1.00  0.00     0.198 A 
ATOM     80  C   UNL A   1      38.184  29.444  27.647  1.00  0.00     0.198 A 
ATOM     81  F   UNL A   1      40.268  28.702  26.926  1.00  0.00    -0.203 F 
ATOM     82  F   UNL A   1      36.502  29.114  30.823  1.00  0.00    -0.200 F 
ATOM     83  C   UNL A   1      37.225  29.580  28.631  1.00  0.00     0.200 A 
ATOM     84  F   UNL A   1      38.039  30.079  26.476  1.00  0.00    -0.200 F 
ATOM     85  F   UNL A   1      36.147  30.347  28.418  1.00  0.00    -0.200 F 
ENDBRANCH  51  75
BRANCH  63  86
ATOM     86  C   UNL A   1      44.724  26.420  32.392  1.00  0.00     0.064 A 
ATOM     87  C   UNL A   1      44.448  25.073  32.097  1.00  0.00     0.173 A 
ATOM     88  C   UNL A   1      44.884  26.760  33.741  1.00  0.00     0.173 A 
ATOM     89  F   UNL A   1      44.391  24.645  30.831  1.00  0.00    -0.203 F 
ATOM     90  C   UNL A   1      44.297  24.124  33.107  1.00  0.00     0.198 A 
ATOM     91  C   UNL A   1      44.769  25.804  34.747  1.00  0.00     0.198 A 
ATOM     92  F   UNL A   1      45.210  28.016  34.082  1.00  0.00    -0.203 F 
ATOM     93  F   UNL A   1      44.029  22.846  32.795  1.00  0.00    -0.200 F 
ATOM     94  C   UNL A   1      44.466  24.489  34.431  1.00  0.00     0.200 A 
ATOM     95  F   UNL A   1      44.987  26.151  36.023  1.00  0.00    -0.200 F 
ATOM     96  F   UNL A   1      44.368  23.568  35.402  1.00  0.00    -0.200 F 
ENDBRANCH  63  86
ENDBRANCH  37  38
ENDBRANCH  30  32
ENDBRANCH  29  30
ENDBRANCH  28  29
ENDBRANCH  27  28
ENDBRANCH  26  27
ENDBRANCH  25  26
ENDBRANCH   1  25
TORSDOF 20
ENDMDL
MODEL 2
REMARK VINA RESULT:     -10.9      3.739      5.549
REMARK SMILES COCC[C@H]([NH3+])C(=O)N1CC(n2cc(C(=O)OCCOCCOC(=O)c3ccc(-c4c5nc(c(-c6c(F)c(F)c(F)c(F)c6F)c6ccc([nH]6)c(-c6c(F)c(F)c(F)c(F)c6F)c6nc(c(-c7c(F)c(F)c(F)c(F)c7F)c7ccc4[nH]7)C=C6)C=C5)cc3)nn2)C1
REMARK SMILES IDX 18 1 17 2 15 3 16 4 14 5 12 6 13 7 90 8 89 9 11 10 7 11 8 12
REMARK SMILES IDX 9 13 10 14 91 15 5 16 4 17 3 18 2 19 1 20 6 21 19 25 20 26
REMARK SMILES IDX 21 27 22 28 23 29 24 30 25 31 26 32 27 33 88 34 28 35 87 36
REMARK SMILES IDX 29 37 30 38 31 39 81 40 32 41 86 42 80 43 82 44 33 45 85 46
REMARK SMILES IDX 79 47 78 48 34 50 66 51 46 52 65 53 47 54 50 55 64 56 83 57
REMARK SMILES IDX 48 58 49 59 63 61 84 62 51 63 35 64 36 65 44 66 37 67 38 68
REMARK SMILES IDX 42 69 45 70 39 71 40 72 43 73 41 74 67 75 68 76 76 77 69 78
REMARK SMILES IDX 70 79 74 80 77 81 71 82 72 83 75 84 73 85 52 86 53 87 61 88
REMARK SMILES IDX 54 89 55 90 59 91 62 92 56 93 57 94 60 95 58 96
REMARK H PARENT 6 22 6 23 6 24 82 49 50 60
REMARK Flexibility Score: inf
ROOT
ATOM      1  C   UNL A   1      42.188  19.551  27.419  1.00  0.00     0.261 C 
ENDROOT
BRANCH   1   2
ATOM      2  O   UNL A   1      40.929  20.191  27.692  1.00  0.00    -0.458 OA
BRANCH   2   3
ATOM      3  C   UNL A   1      40.968  21.557  27.647  1.00  0.00     0.360 C 
ATOM      4  O   UNL A   1      41.903  22.235  28.077  1.00  0.00    -0.244 OA
BRANCH   3   5
ATOM      5  C   UNL A   1      39.850  22.140  26.930  1.00  0.00     0.190 A 
ATOM      6  N   UNL A   1      38.044  22.563  25.815  1.00  0.00    -0.245 N 
ATOM      7  C   UNL A   1      38.942  21.555  26.065  1.00  0.00     0.147 A 
ATOM      8  N   UNL A   1      38.462  23.724  26.336  1.00  0.00    -0.066 NA
ATOM      9  N   UNL A   1      39.550  23.475  27.045  1.00  0.00    -0.123 NA
BRANCH   6  10
ATOM     10  C   UNL A   1      36.752  22.378  25.224  1.00  0.00     0.148 C 
ATOM     11  C   UNL A   1      34.241  20.415  24.818  1.00  0.00     0.280 C 
ATOM     12  O   UNL A   1      33.657  21.200  24.065  1.00  0.00    -0.268 OA
ATOM     13  N   UNL A   1      35.428  20.753  25.425  1.00  0.00    -0.333 N 
ATOM     14  C   UNL A   1      35.620  22.014  26.178  1.00  0.00     0.149 C 
ATOM     15  C   UNL A   1      36.638  20.989  24.619  1.00  0.00     0.149 C 
BRANCH  11  16
ATOM     16  C   UNL A   1      33.715  18.973  25.059  1.00  0.00     0.273 C 
BRANCH  16  17
ATOM     17  C   UNL A   1      33.078  18.237  23.870  1.00  0.00     0.104 C 
BRANCH  17  18
ATOM     18  C   UNL A   1      33.259  16.720  23.746  1.00  0.00     0.166 C 
BRANCH  18  19
ATOM     19  O   UNL A   1      33.628  16.073  24.954  1.00  0.00    -0.384 OA
ATOM     20  C   UNL A   1      32.691  15.108  25.412  1.00  0.00     0.194 C 
ENDBRANCH  18  19
ENDBRANCH  17  18
ENDBRANCH  16  17
BRANCH  16  21
ATOM     21  N   UNL A   1      32.942  18.893  26.316  1.00  0.00    -0.347 N 
ATOM     22  H   UNL A   1      33.564  18.641  27.084  1.00  0.00     0.345 HD
ATOM     23  H   UNL A   1      32.214  18.184  26.223  1.00  0.00     0.345 HD
ATOM     24  H   UNL A   1      32.512  19.797  26.509  1.00  0.00     0.345 HD
ENDBRANCH  16  21
ENDBRANCH  11  16
ENDBRANCH   6  10
ENDBRANCH   3   5
ENDBRANCH   2   3
ENDBRANCH   1   2
BRANCH   1  25
ATOM     25  C   UNL A   1      42.301  19.056  25.976  1.00  0.00     0.202 C 
BRANCH  25  26
ATOM     26  O   UNL A   1      43.032  19.837  25.033  1.00  0.00    -0.374 OA
BRANCH  26  27
ATOM     27  C   UNL A   1      43.953  20.834  25.463  1.00  0.00     0.202 C 
BRANCH  27  28
ATOM     28  C   UNL A   1      43.804  22.247  24.920  1.00  0.00     0.261 C 
BRANCH  28  29
ATOM     29  O   UNL A   1      44.118  23.221  25.900  1.00  0.00    -0.460 OA
BRANCH  29  30
ATOM     30  C   UNL A   1      43.863  24.490  25.517  1.00  0.00     0.338 C 
ATOM     31  O   UNL A   1      44.416  25.128  24.630  1.00  0.00    -0.246 OA
BRANCH  30  32
ATOM     32  C   UNL A   1      42.890  25.066  26.447  1.00  0.00     0.060 A 
ATOM     33  C   UNL A   1      41.946  25.921  25.875  1.00  0.00     0.016 A 
ATOM     34  C   UNL A   1      43.194  25.084  27.815  1.00  0.00     0.016 A 
ATOM     35  C   UNL A   1      41.554  27.013  26.607  1.00  0.00     0.010 A 
ATOM     36  C   UNL A   1      42.821  26.184  28.537  1.00  0.00     0.010 A 
ATOM     37  C   UNL A   1      42.108  27.182  27.879  1.00  0.00    -0.014 A 
BRANCH  37  38
ATOM     38  C   UNL A   1      41.882  28.431  28.559  1.00  0.00     0.031 A 
ATOM     39  C   UNL A   1      42.895  29.441  28.209  1.00  0.00     0.074 A 
ATOM     40  C   UNL A   1      40.793  28.631  29.322  1.00  0.00     0.049 A 
ATOM     41  N   UNL A   1      43.821  29.916  28.971  1.00  0.00    -0.248 NA
ATOM     42  C   UNL A   1      43.033  29.799  26.788  1.00  0.00     0.031 C 
ATOM     43  C   UNL A   1      39.630  27.762  29.516  1.00  0.00     0.029 A 
ATOM     44  N   UNL A   1      40.465  29.746  30.026  1.00  0.00    -0.354 N 
ATOM     45  C   UNL A   1      44.533  30.796  28.167  1.00  0.00     0.074 A 
ATOM     46  C   UNL A   1      44.164  30.503  26.809  1.00  0.00     0.031 C 
ATOM     47  C   UNL A   1      38.633  28.476  30.091  1.00  0.00     0.029 A 
ATOM     48  C   UNL A   1      39.129  29.802  30.410  1.00  0.00     0.049 A 
ATOM     49  H   UNL A   1      41.115  30.452  30.244  1.00  0.00     0.167 HD
ATOM     50  C   UNL A   1      45.132  31.892  28.702  1.00  0.00     0.037 A 
ATOM     51  C   UNL A   1      38.502  30.927  30.837  1.00  0.00     0.037 A 
ATOM     52  C   UNL A   1      45.309  31.745  30.125  1.00  0.00     0.049 A 
ATOM     53  C   UNL A   1      39.568  31.866  31.297  1.00  0.00     0.074 A 
ATOM     54  C   UNL A   1      45.984  30.838  30.920  1.00  0.00     0.029 A 
ATOM     55  N   UNL A   1      44.409  32.369  30.957  1.00  0.00    -0.354 N 
ATOM     56  N   UNL A   1      40.319  31.638  32.342  1.00  0.00    -0.248 NA
ATOM     57  C   UNL A   1      40.142  32.769  30.304  1.00  0.00     0.031 C 
ATOM     58  C   UNL A   1      45.129  30.618  32.039  1.00  0.00     0.029 A 
ATOM     59  C   UNL A   1      44.021  31.455  31.904  1.00  0.00     0.049 A 
ATOM     60  H   UNL A   1      44.100  33.302  30.886  1.00  0.00     0.167 HD
ATOM     61  C   UNL A   1      41.598  32.013  31.952  1.00  0.00     0.074 A 
ATOM     62  C   UNL A   1      41.418  32.748  30.701  1.00  0.00     0.031 C 
ATOM     63  C   UNL A   1      42.708  31.438  32.503  1.00  0.00     0.037 A 
BRANCH  50  64
ATOM     64  C   UNL A   1      45.179  33.228  28.005  1.00  0.00     0.064 A 
ATOM     65  C   UNL A   1      46.431  33.766  27.661  1.00  0.00     0.173 A 
ATOM     66  C   UNL A   1      44.088  34.124  27.925  1.00  0.00     0.173 A 
ATOM     67  F   UNL A   1      47.538  33.008  27.717  1.00  0.00    -0.203 F 
ATOM     68  C   UNL A   1      46.589  35.116  27.346  1.00  0.00     0.198 A 
ATOM     69  C   UNL A   1      44.241  35.455  27.553  1.00  0.00     0.198 A 
ATOM     70  F   UNL A   1      42.851  33.795  28.312  1.00  0.00    -0.203 F 
ATOM     71  F   UNL A   1      47.818  35.613  27.155  1.00  0.00    -0.200 F 
ATOM     72  C   UNL A   1      45.495  35.961  27.298  1.00  0.00     0.200 A 
ATOM     73  F   UNL A   1      43.167  36.258  27.528  1.00  0.00    -0.200 F 
ATOM     74  F   UNL A   1      45.651  37.269  27.059  1.00  0.00    -0.200 F 
ENDBRANCH  50  64
BRANCH  51  75
ATOM     75  C   UNL A   1      37.122  31.362  30.503  1.00  0.00     0.064 A 
ATOM     76  C   UNL A   1      36.238  31.824  31.491  1.00  0.00     0.173 A 
ATOM     77  C   UNL A   1      36.723  31.574  29.167  1.00  0.00     0.173 A 
ATOM     78  F   UNL A   1      36.563  31.717  32.788  1.00  0.00    -0.203 F 
ATOM     79  C   UNL A   1      35.035  32.463  31.162  1.00  0.00     0.198 A 
ATOM     80  C   UNL A   1      35.521  32.202  28.839  1.00  0.00     0.198 A 
ATOM     81  F   UNL A   1      37.533  31.261  28.145  1.00  0.00    -0.203 F 
ATOM     82  F   UNL A   1      34.241  32.937  32.132  1.00  0.00    -0.200 F 
ATOM     83  C   UNL A   1      34.680  32.655  29.836  1.00  0.00     0.200 A 
ATOM     84  F   UNL A   1      35.214  32.417  27.553  1.00  0.00    -0.200 F 
ATOM     85  F   UNL A   1      33.555  33.312  29.521  1.00  0.00    -0.200 F 
ENDBRANCH  51  75
BRANCH  63  86
ATOM     86  C   UNL A   1      42.518  30.525  33.685  1.00  0.00     0.064 A 
ATOM     87  C   UNL A   1      42.448  30.975  35.015  1.00  0.00     0.173 A 
ATOM     88  C   UNL A   1      42.223  29.177  33.449  1.00  0.00     0.173 A 
ATOM     89  F   UNL A   1      42.608  32.270  35.312  1.00  0.00    -0.203 F 
ATOM     90  C   UNL A   1      42.139  30.106  36.061  1.00  0.00     0.198 A 
ATOM     91  C   UNL A   1      41.878  28.318  34.490  1.00  0.00     0.198 A 
ATOM     92  F   UNL A   1      42.211  28.703  32.194  1.00  0.00    -0.203 F 
ATOM     93  F   UNL A   1      42.084  30.564  37.322  1.00  0.00    -0.200 F 
ATOM     94  C   UNL A   1      41.846  28.780  35.796  1.00  0.00     0.200 A 
ATOM     95  F   UNL A   1      41.542  27.049  34.221  1.00  0.00    -0.200 F 
ATOM     96  F   UNL A   1      41.502  27.954  36.794  1.00  0.00    -0.200 F 
ENDBRANCH  63  86
ENDBRANCH  37  38
ENDBRANCH  30  32
ENDBRANCH  29  30
ENDBRANCH  28  29
ENDBRANCH  27  28
ENDBRANCH  26  27
ENDBRANCH  25  26
ENDBRANCH   1  25
TORSDOF 20
ENDMDL
MODEL 3
REMARK VINA RESULT:     -10.7      3.010      4.388
REMARK SMILES COCC[C@H]([NH3+])C(=O)N1CC(n2cc(C(=O)OCCOCCOC(=O)c3ccc(-c4c5nc(c(-c6c(F)c(F)c(F)c(F)c6F)c6ccc([nH]6)c(-c6c(F)c(F)c(F)c(F)c6F)c6nc(c(-c7c(F)c(F)c(F)c(F)c7F)c7ccc4[nH]7)C=C6)C=C5)cc3)nn2)C1
REMARK SMILES IDX 18 1 17 2 15 3 16 4 14 5 12 6 13 7 90 8 89 9 11 10 7 11 8 12
REMARK SMILES IDX 9 13 10 14 91 15 5 16 4 17 3 18 2 19 1 20 6 21 19 25 20 26
REMARK SMILES IDX 21 27 22 28 23 29 24 30 25 31 26 32 27 33 88 34 28 35 87 36
REMARK SMILES IDX 29 37 30 38 31 39 81 40 32 41 86 42 80 43 82 44 33 45 85 46
REMARK SMILES IDX 79 47 78 48 34 50 66 51 46 52 65 53 47 54 50 55 64 56 83 57
REMARK SMILES IDX 48 58 49 59 63 61 84 62 51 63 35 64 36 65 44 66 37 67 38 68
REMARK SMILES IDX 42 69 45 70 39 71 40 72 43 73 41 74 67 75 68 76 76 77 69 78
REMARK SMILES IDX 70 79 74 80 77 81 71 82 72 83 75 84 73 85 52 86 53 87 61 88
REMARK SMILES IDX 54 89 55 90 59 91 62 92 56 93 57 94 60 95 58 96
REMARK H PARENT 6 22 6 23 6 24 82 49 50 60
REMARK Flexibility Score: inf
ROOT
ATOM      1  C   UNL A   1      35.173  21.369  26.105  1.00  0.00     0.261 C 
ENDROOT
BRANCH   1   2
ATOM      2  O   UNL A   1      34.371  22.411  25.521  1.00  0.00    -0.458 OA
BRANCH   2   3
ATOM      3  C   UNL A   1      33.028  22.162  25.532  1.00  0.00     0.360 C 
ATOM      4  O   UNL A   1      32.535  21.037  25.631  1.00  0.00    -0.244 OA
BRANCH   3   5
ATOM      5  C   UNL A   1      32.221  23.367  25.535  1.00  0.00     0.190 A 
ATOM      6  N   UNL A   1      30.914  25.037  25.099  1.00  0.00    -0.245 N 
ATOM      7  C   UNL A   1      31.690  24.088  24.479  1.00  0.00     0.147 A 
ATOM      8  N   UNL A   1      31.094  25.019  26.426  1.00  0.00    -0.066 NA
ATOM      9  N   UNL A   1      31.868  23.985  26.710  1.00  0.00    -0.123 NA
BRANCH   6  10
ATOM     10  C   UNL A   1      29.918  25.832  24.445  1.00  0.00     0.148 C 
ATOM     11  C   UNL A   1      29.201  28.658  23.093  1.00  0.00     0.280 C 
ATOM     12  O   UNL A   1      28.025  28.343  22.888  1.00  0.00    -0.268 OA
ATOM     13  N   UNL A   1      30.101  27.762  23.623  1.00  0.00    -0.333 N 
ATOM     14  C   UNL A   1      30.296  26.398  23.080  1.00  0.00     0.149 C 
ATOM     15  C   UNL A   1      29.927  27.250  24.992  1.00  0.00     0.149 C 
BRANCH  11  16
ATOM     16  C   UNL A   1      29.713  30.103  22.845  1.00  0.00     0.273 C 
BRANCH  16  17
ATOM     17  C   UNL A   1      28.742  31.263  23.117  1.00  0.00     0.104 C 
BRANCH  17  18
ATOM     18  C   UNL A   1      29.062  32.654  22.561  1.00  0.00     0.166 C 
BRANCH  18  19
ATOM     19  O   UNL A   1      28.028  33.222  21.771  1.00  0.00    -0.384 OA
ATOM     20  C   UNL A   1      27.791  32.547  20.543  1.00  0.00     0.194 C 
ENDBRANCH  18  19
ENDBRANCH  17  18
ENDBRANCH  16  17
BRANCH  16  21
ATOM     21  N   UNL A   1      30.436  30.198  21.559  1.00  0.00    -0.347 N 
ATOM     22  H   UNL A   1      30.226  29.379  20.989  1.00  0.00     0.345 HD
ATOM     23  H   UNL A   1      31.440  30.241  21.735  1.00  0.00     0.345 HD
ATOM     24  H   UNL A   1      30.142  31.040  21.064  1.00  0.00     0.345 HD
ENDBRANCH  16  21
ENDBRANCH  11  16
ENDBRANCH   6  10
ENDBRANCH   3   5
ENDBRANCH   2   3
ENDBRANCH   1   2
BRANCH   1  25
ATOM     25  C   UNL A   1      35.845  20.480  25.057  1.00  0.00     0.202 C 
BRANCH  25  26
ATOM     26  O   UNL A   1      37.093  20.889  24.502  1.00  0.00    -0.374 OA
BRANCH  26  27
ATOM     27  C   UNL A   1      37.807  21.998  25.038  1.00  0.00     0.202 C 
BRANCH  27  28
ATOM     28  C   UNL A   1      38.960  21.730  25.994  1.00  0.00     0.261 C 
BRANCH  28  29
ATOM     29  O   UNL A   1      39.314  22.890  26.726  1.00  0.00    -0.460 OA
BRANCH  29  30
ATOM     30  C   UNL A   1      40.574  22.872  27.210  1.00  0.00     0.338 C 
ATOM     31  O   UNL A   1      41.139  21.952  27.787  1.00  0.00    -0.246 OA
BRANCH  30  32
ATOM     32  C   UNL A   1      41.143  24.214  27.067  1.00  0.00     0.060 A 
ATOM     33  C   UNL A   1      42.215  24.505  27.912  1.00  0.00     0.016 A 
ATOM     34  C   UNL A   1      40.369  25.211  26.458  1.00  0.00     0.016 A 
ATOM     35  C   UNL A   1      42.303  25.781  28.408  1.00  0.00     0.010 A 
ATOM     36  C   UNL A   1      40.443  26.477  26.969  1.00  0.00     0.010 A 
ATOM     37  C   UNL A   1      41.329  26.704  28.018  1.00  0.00    -0.014 A 
BRANCH  37  38
ATOM     38  C   UNL A   1      41.279  27.969  28.703  1.00  0.00     0.031 A 
ATOM     39  C   UNL A   1      42.404  28.844  28.332  1.00  0.00     0.074 A 
ATOM     40  C   UNL A   1      40.241  28.304  29.490  1.00  0.00     0.049 A 
ATOM     41  N   UNL A   1      43.400  29.195  29.074  1.00  0.00    -0.248 NA
ATOM     42  C   UNL A   1      42.556  29.185  26.908  1.00  0.00     0.031 C 
ATOM     43  C   UNL A   1      38.981  27.590  29.708  1.00  0.00     0.029 A 
ATOM     44  N   UNL A   1      40.072  29.450  30.201  1.00  0.00    -0.354 N 
ATOM     45  C   UNL A   1      44.200  29.980  28.254  1.00  0.00     0.074 A 
ATOM     46  C   UNL A   1      43.767  29.739  26.905  1.00  0.00     0.031 C 
ATOM     47  C   UNL A   1      38.096  28.423  30.305  1.00  0.00     0.029 A 
ATOM     48  C   UNL A   1      38.763  29.674  30.614  1.00  0.00     0.049 A 
ATOM     49  H   UNL A   1      40.811  30.067  30.404  1.00  0.00     0.167 HD
ATOM     50  C   UNL A   1      44.944  30.989  28.777  1.00  0.00     0.037 A 
ATOM     51  C   UNL A   1      38.293  30.869  31.054  1.00  0.00     0.037 A 
ATOM     52  C   UNL A   1      45.132  30.817  30.195  1.00  0.00     0.049 A 
ATOM     53  C   UNL A   1      39.480  31.664  31.491  1.00  0.00     0.074 A 
ATOM     54  C   UNL A   1      45.703  29.829  30.975  1.00  0.00     0.029 A 
ATOM     55  N   UNL A   1      44.337  31.548  31.046  1.00  0.00    -0.354 N 
ATOM     56  N   UNL A   1      40.218  31.339  32.519  1.00  0.00    -0.248 NA
ATOM     57  C   UNL A   1      40.142  32.489  30.486  1.00  0.00     0.031 C 
ATOM     58  C   UNL A   1      44.851  29.716  32.113  1.00  0.00     0.029 A 
ATOM     59  C   UNL A   1      43.856  30.687  32.002  1.00  0.00     0.049 A 
ATOM     60  H   UNL A   1      44.148  32.513  30.982  1.00  0.00     0.167 HD
ATOM     61  C   UNL A   1      41.525  31.550  32.102  1.00  0.00     0.074 A 
ATOM     62  C   UNL A   1      41.413  32.305  30.856  1.00  0.00     0.031 C 
ATOM     63  C   UNL A   1      42.565  30.836  32.629  1.00  0.00     0.037 A 
BRANCH  50  64
ATOM     64  C   UNL A   1      45.146  32.310  28.079  1.00  0.00     0.064 A 
ATOM     65  C   UNL A   1      46.442  32.661  27.660  1.00  0.00     0.173 A 
ATOM     66  C   UNL A   1      44.197  33.357  28.066  1.00  0.00     0.173 A 
ATOM     67  F   UNL A   1      47.425  31.748  27.648  1.00  0.00    -0.203 F 
ATOM     68  C   UNL A   1      46.778  33.977  27.336  1.00  0.00     0.198 A 
ATOM     69  C   UNL A   1      44.522  34.655  27.685  1.00  0.00     0.198 A 
ATOM     70  F   UNL A   1      42.950  33.211  28.527  1.00  0.00    -0.203 F 
ATOM     71  F   UNL A   1      48.053  34.289  27.071  1.00  0.00    -0.200 F 
ATOM     72  C   UNL A   1      45.820  34.974  27.356  1.00  0.00     0.200 A 
ATOM     73  F   UNL A   1      43.578  35.607  27.727  1.00  0.00    -0.200 F 
ATOM     74  F   UNL A   1      46.152  36.246  27.108  1.00  0.00    -0.200 F 
ENDBRANCH  50  64
BRANCH  51  75
ATOM     75  C   UNL A   1      36.973  31.477  30.750  1.00  0.00     0.064 A 
ATOM     76  C   UNL A   1      36.065  31.809  31.767  1.00  0.00     0.173 A 
ATOM     77  C   UNL A   1      36.676  31.981  29.466  1.00  0.00     0.173 A 
ATOM     78  F   UNL A   1      36.298  31.420  33.030  1.00  0.00    -0.203 F 
ATOM     79  C   UNL A   1      34.935  32.599  31.518  1.00  0.00     0.198 A 
ATOM     80  C   UNL A   1      35.547  32.761  29.216  1.00  0.00     0.198 A 
ATOM     81  F   UNL A   1      37.523  31.808  28.442  1.00  0.00    -0.203 F 
ATOM     82  F   UNL A   1      34.118  32.939  32.525  1.00  0.00    -0.200 F 
ATOM     83  C   UNL A   1      34.680  33.079  30.243  1.00  0.00     0.200 A 
ATOM     84  F   UNL A   1      35.338  33.251  27.986  1.00  0.00    -0.200 F 
ATOM     85  F   UNL A   1      33.629  33.878  30.013  1.00  0.00    -0.200 F 
ENDBRANCH  51  75
BRANCH  63  86
ATOM     86  C   UNL A   1      42.286  29.952  33.815  1.00  0.00     0.064 A 
ATOM     87  C   UNL A   1      41.828  28.627  33.709  1.00  0.00     0.173 A 
ATOM     88  C   UNL A   1      42.662  30.400  35.087  1.00  0.00     0.173 A 
ATOM     89  F   UNL A   1      41.555  28.087  32.516  1.00  0.00    -0.203 F 
ATOM     90  C   UNL A   1      41.712  27.806  34.831  1.00  0.00     0.198 A 
ATOM     91  C   UNL A   1      42.580  29.568  36.201  1.00  0.00     0.198 A 
ATOM     92  F   UNL A   1      43.166  31.634  35.242  1.00  0.00    -0.203 F 
ATOM     93  F   UNL A   1      41.267  26.546  34.700  1.00  0.00    -0.200 F 
ATOM     94  C   UNL A   1      42.096  28.275  36.075  1.00  0.00     0.200 A 
ATOM     95  F   UNL A   1      43.004  30.009  37.394  1.00  0.00    -0.200 F 
ATOM     96  F   UNL A   1      42.030  27.473  37.147  1.00  0.00    -0.200 F 
ENDBRANCH  63  86
ENDBRANCH  37  38
ENDBRANCH  30  32
ENDBRANCH  29  30
ENDBRANCH  28  29
ENDBRANCH  27  28
ENDBRANCH  26  27
ENDBRANCH  25  26
ENDBRANCH   1  25
TORSDOF 20
ENDMDL
