MODEL 1
REMARK VINA RESULT:     -12.3      0.000      0.000
REMARK SMILES Cc1cccc(Cn2c(=O)c3sccc3n(CC(=O)OCCOCCOC(=O)c3ccc(-c4c5nc(c(-c6c(F)c(F)c(F)c(F)c6F)c6ccc([nH]6)c(-c6c(F)c(F)c(F)c(F)c6F)c6nc(c(-c7c(F)c(F)c(F)c(F)c7F)c7ccc4[nH]7)C=C6)C=C5)cc3)c2=O)c1
REMARK SMILES IDX 22 1 21 2 20 3 18 4 19 5 17 6 16 7 8 8 9 9 92 10 10 11 11 12
REMARK SMILES IDX 93 13 12 14 15 15 13 16 14 17 7 18 6 19 1 20 2 21 3 22 94 23
REMARK SMILES IDX 4 24 5 25 23 26 24 27 25 28 26 29 27 30 28 31 29 32 30 33
REMARK SMILES IDX 91 34 31 35 90 36 32 37 33 38 34 39 84 40 35 41 89 42 83 43
REMARK SMILES IDX 85 44 36 45 88 46 82 47 81 48 37 50 69 51 49 52 68 53 50 54
REMARK SMILES IDX 53 55 67 56 86 57 51 58 52 59 66 61 87 62 54 63 38 64 39 65
REMARK SMILES IDX 47 66 40 67 41 68 45 69 48 70 42 71 43 72 46 73 44 74 70 75
REMARK SMILES IDX 71 76 79 77 72 78 73 79 77 80 80 81 74 82 75 83 78 84 76 85
REMARK SMILES IDX 55 86 56 87 64 88 57 89 58 90 62 91 65 92 59 93 60 94 63 95
REMARK SMILES IDX 61 96
REMARK H PARENT 85 49 53 60
REMARK Flexibility Score: inf
ROOT
ATOM      1  C   UNL A   1      33.343  27.607  24.985  1.00  0.00     0.202 C 
ENDROOT
BRANCH   1   2
ATOM      2  C   UNL A   1      33.611  26.685  26.129  1.00  0.00     0.261 C 
BRANCH   2   3
ATOM      3  O   UNL A   1      32.383  26.262  26.712  1.00  0.00    -0.462 OA
BRANCH   3   4
ATOM      4  C   UNL A   1      31.209  26.244  26.003  1.00  0.00     0.326 C 
ATOM      5  O   UNL A   1      30.561  27.210  25.671  1.00  0.00    -0.250 OA
BRANCH   4   6
ATOM      6  C   UNL A   1      30.778  24.791  25.781  1.00  0.00     0.250 C 
BRANCH   6   7
ATOM      7  N   UNL A   1      31.675  24.213  24.777  1.00  0.00    -0.281 N 
ATOM      8  N   UNL A   1      33.600  22.868  24.344  1.00  0.00    -0.254 N 
ATOM      9  C   UNL A   1      33.834  23.427  23.086  1.00  0.00     0.274 A 
ATOM     10  C   UNL A   1      32.677  23.366  25.260  1.00  0.00     0.332 A 
ATOM     11  O   UNL A   1      34.801  23.127  22.389  1.00  0.00    -0.268 OA
ATOM     12  C   UNL A   1      32.849  24.408  22.708  1.00  0.00     0.116 A 
ATOM     13  O   UNL A   1      32.767  23.147  26.473  1.00  0.00    -0.247 OA
ATOM     14  S   UNL A   1      32.903  25.295  21.260  1.00  0.00    -0.136 S 
ATOM     15  C   UNL A   1      31.789  24.758  23.501  1.00  0.00     0.070 A 
ATOM     16  C   UNL A   1      31.468  26.142  21.666  1.00  0.00     0.068 A 
ATOM     17  C   UNL A   1      30.974  25.757  22.894  1.00  0.00     0.039 A 
BRANCH   8  18
ATOM     18  C   UNL A   1      34.451  21.773  24.804  1.00  0.00     0.166 C 
BRANCH  18  19
ATOM     19  C   UNL A   1      33.804  20.444  24.451  1.00  0.00    -0.028 A 
ATOM     20  C   UNL A   1      34.600  16.721  24.585  1.00  0.00     0.044 C 
ATOM     21  C   UNL A   1      33.948  18.027  24.243  1.00  0.00    -0.051 A 
ATOM     22  C   UNL A   1      32.819  18.034  23.414  1.00  0.00     0.003 A 
ATOM     23  C   UNL A   1      34.455  19.237  24.735  1.00  0.00     0.009 A 
ATOM     24  C   UNL A   1      32.153  19.223  23.146  1.00  0.00     0.001 A 
ATOM     25  C   UNL A   1      32.618  20.411  23.700  1.00  0.00     0.005 A 
ENDBRANCH  18  19
ENDBRANCH   8  18
ENDBRANCH   6   7
ENDBRANCH   4   6
ENDBRANCH   3   4
ENDBRANCH   2   3
ENDBRANCH   1   2
BRANCH   1  26
ATOM     26  O   UNL A   1      33.903  28.846  25.399  1.00  0.00    -0.374 OA
BRANCH  26  27
ATOM     27  C   UNL A   1      32.971  29.816  25.829  1.00  0.00     0.202 C 
BRANCH  27  28
ATOM     28  C   UNL A   1      33.211  30.336  27.249  1.00  0.00     0.261 C 
BRANCH  28  29
ATOM     29  O   UNL A   1      34.373  31.191  27.264  1.00  0.00    -0.460 OA
BRANCH  29  30
ATOM     30  C   UNL A   1      35.018  31.275  28.460  1.00  0.00     0.338 C 
ATOM     31  O   UNL A   1      34.971  32.230  29.218  1.00  0.00    -0.246 OA
BRANCH  30  32
ATOM     32  C   UNL A   1      36.032  30.185  28.557  1.00  0.00     0.060 A 
ATOM     33  C   UNL A   1      36.282  29.576  29.801  1.00  0.00     0.016 A 
ATOM     34  C   UNL A   1      36.948  30.040  27.516  1.00  0.00     0.016 A 
ATOM     35  C   UNL A   1      37.516  28.960  30.048  1.00  0.00     0.010 A 
ATOM     36  C   UNL A   1      38.203  29.552  27.808  1.00  0.00     0.010 A 
ATOM     37  C   UNL A   1      38.510  29.027  29.075  1.00  0.00    -0.014 A 
BRANCH  37  38
ATOM     38  C   UNL A   1      39.905  28.612  29.237  1.00  0.00     0.031 A 
ATOM     39  C   UNL A   1      40.234  27.224  28.839  1.00  0.00     0.074 A 
ATOM     40  C   UNL A   1      40.911  29.478  29.534  1.00  0.00     0.049 A 
ATOM     41  N   UNL A   1      41.323  26.628  29.172  1.00  0.00    -0.248 NA
ATOM     42  C   UNL A   1      39.331  26.347  28.088  1.00  0.00     0.031 C 
ATOM     43  C   UNL A   1      42.351  29.299  29.316  1.00  0.00     0.029 A 
ATOM     44  N   UNL A   1      40.862  30.751  30.131  1.00  0.00    -0.354 N 
ATOM     45  C   UNL A   1      41.430  25.501  28.395  1.00  0.00     0.074 A 
ATOM     46  C   UNL A   1      40.103  25.275  27.896  1.00  0.00     0.031 C 
ATOM     47  C   UNL A   1      43.030  30.203  30.046  1.00  0.00     0.029 A 
ATOM     48  C   UNL A   1      42.055  30.918  30.852  1.00  0.00     0.049 A 
ATOM     49  H   UNL A   1      40.129  31.404  30.057  1.00  0.00     0.167 HD
ATOM     50  C   UNL A   1      42.679  25.011  28.157  1.00  0.00     0.037 A 
ATOM     51  C   UNL A   1      42.042  31.085  32.201  1.00  0.00     0.037 A 
ATOM     52  C   UNL A   1      43.657  25.683  29.034  1.00  0.00     0.049 A 
ATOM     53  C   UNL A   1      42.769  29.942  32.844  1.00  0.00     0.074 A 
ATOM     54  C   UNL A   1      44.684  26.586  28.813  1.00  0.00     0.029 A 
ATOM     55  N   UNL A   1      43.430  25.694  30.415  1.00  0.00    -0.354 N 
ATOM     56  N   UNL A   1      42.978  28.814  32.220  1.00  0.00    -0.248 NA
ATOM     57  C   UNL A   1      43.370  29.969  34.169  1.00  0.00     0.031 C 
ATOM     58  C   UNL A   1      45.013  27.192  30.063  1.00  0.00     0.029 A 
ATOM     59  C   UNL A   1      44.220  26.631  31.054  1.00  0.00     0.049 A 
ATOM     60  H   UNL A   1      42.787  25.107  30.874  1.00  0.00     0.167 HD
ATOM     61  C   UNL A   1      43.769  28.007  32.973  1.00  0.00     0.074 A 
ATOM     62  C   UNL A   1      43.970  28.765  34.199  1.00  0.00     0.031 C 
ATOM     63  C   UNL A   1      44.176  26.790  32.511  1.00  0.00     0.037 A 
BRANCH  50  64
ATOM     64  C   UNL A   1      43.058  24.077  27.014  1.00  0.00     0.064 A 
ATOM     65  C   UNL A   1      42.622  22.732  27.027  1.00  0.00     0.173 A 
ATOM     66  C   UNL A   1      43.903  24.391  25.924  1.00  0.00     0.173 A 
ATOM     67  F   UNL A   1      41.832  22.268  28.004  1.00  0.00    -0.203 F 
ATOM     68  C   UNL A   1      42.996  21.802  26.046  1.00  0.00     0.198 A 
ATOM     69  C   UNL A   1      44.240  23.474  24.921  1.00  0.00     0.198 A 
ATOM     70  F   UNL A   1      44.494  25.578  25.783  1.00  0.00    -0.203 F 
ATOM     71  F   UNL A   1      42.583  20.531  26.144  1.00  0.00    -0.200 F 
ATOM     72  C   UNL A   1      43.794  22.176  24.985  1.00  0.00     0.200 A 
ATOM     73  F   UNL A   1      45.025  23.864  23.905  1.00  0.00    -0.200 F 
ATOM     74  F   UNL A   1      44.143  21.293  24.041  1.00  0.00    -0.200 F 
ENDBRANCH  50  64
BRANCH  51  75
ATOM     75  C   UNL A   1      40.822  31.807  32.669  1.00  0.00     0.064 A 
ATOM     76  C   UNL A   1      40.673  33.153  32.261  1.00  0.00     0.173 A 
ATOM     77  C   UNL A   1      39.655  31.120  33.034  1.00  0.00     0.173 A 
ATOM     78  F   UNL A   1      41.751  33.861  31.885  1.00  0.00    -0.203 F 
ATOM     79  C   UNL A   1      39.414  33.730  32.086  1.00  0.00     0.198 A 
ATOM     80  C   UNL A   1      38.394  31.705  32.859  1.00  0.00     0.198 A 
ATOM     81  F   UNL A   1      39.718  29.840  33.423  1.00  0.00    -0.203 F 
ATOM     82  F   UNL A   1      39.306  34.949  31.533  1.00  0.00    -0.200 F 
ATOM     83  C   UNL A   1      38.274  32.990  32.345  1.00  0.00     0.200 A 
ATOM     84  F   UNL A   1      37.287  30.985  33.087  1.00  0.00    -0.200 F 
ATOM     85  F   UNL A   1      37.068  33.482  32.030  1.00  0.00    -0.200 F 
ENDBRANCH  51  75
BRANCH  63  86
ATOM     86  C   UNL A   1      44.638  25.656  33.391  1.00  0.00     0.064 A 
ATOM     87  C   UNL A   1      45.958  25.175  33.417  1.00  0.00     0.173 A 
ATOM     88  C   UNL A   1      43.781  25.125  34.384  1.00  0.00     0.173 A 
ATOM     89  F   UNL A   1      46.915  25.691  32.637  1.00  0.00    -0.203 F 
ATOM     90  C   UNL A   1      46.366  24.183  34.309  1.00  0.00     0.198 A 
ATOM     91  C   UNL A   1      44.215  24.198  35.327  1.00  0.00     0.198 A 
ATOM     92  F   UNL A   1      42.503  25.514  34.501  1.00  0.00    -0.203 F 
ATOM     93  F   UNL A   1      47.621  23.718  34.248  1.00  0.00    -0.200 F 
ATOM     94  C   UNL A   1      45.501  23.707  35.274  1.00  0.00     0.200 A 
ATOM     95  F   UNL A   1      43.383  23.805  36.301  1.00  0.00    -0.200 F 
ATOM     96  F   UNL A   1      45.915  22.799  36.165  1.00  0.00    -0.200 F 
ENDBRANCH  63  86
ENDBRANCH  37  38
ENDBRANCH  30  32
ENDBRANCH  29  30
ENDBRANCH  28  29
ENDBRANCH  27  28
ENDBRANCH  26  27
ENDBRANCH   1  26
TORSDOF 17
ENDMDL
MODEL 2
REMARK VINA RESULT:     -12.1      5.283     10.715
REMARK SMILES Cc1cccc(Cn2c(=O)c3sccc3n(CC(=O)OCCOCCOC(=O)c3ccc(-c4c5nc(c(-c6c(F)c(F)c(F)c(F)c6F)c6ccc([nH]6)c(-c6c(F)c(F)c(F)c(F)c6F)c6nc(c(-c7c(F)c(F)c(F)c(F)c7F)c7ccc4[nH]7)C=C6)C=C5)cc3)c2=O)c1
REMARK SMILES IDX 22 1 21 2 20 3 18 4 19 5 17 6 16 7 8 8 9 9 92 10 10 11 11 12
REMARK SMILES IDX 93 13 12 14 15 15 13 16 14 17 7 18 6 19 1 20 2 21 3 22 94 23
REMARK SMILES IDX 4 24 5 25 23 26 24 27 25 28 26 29 27 30 28 31 29 32 30 33
REMARK SMILES IDX 91 34 31 35 90 36 32 37 33 38 34 39 84 40 35 41 89 42 83 43
REMARK SMILES IDX 85 44 36 45 88 46 82 47 81 48 37 50 69 51 49 52 68 53 50 54
REMARK SMILES IDX 53 55 67 56 86 57 51 58 52 59 66 61 87 62 54 63 38 64 39 65
REMARK SMILES IDX 47 66 40 67 41 68 45 69 48 70 42 71 43 72 46 73 44 74 70 75
REMARK SMILES IDX 71 76 79 77 72 78 73 79 77 80 80 81 74 82 75 83 78 84 76 85
REMARK SMILES IDX 55 86 56 87 64 88 57 89 58 90 62 91 65 92 59 93 60 94 63 95
REMARK SMILES IDX 61 96
REMARK H PARENT 85 49 53 60
REMARK Flexibility Score: inf
ROOT
ATOM      1  C   UNL A   1      47.501  26.383  26.090  1.00  0.00     0.202 C 
ENDROOT
BRANCH   1   2
ATOM      2  C   UNL A   1      47.045  26.217  24.677  1.00  0.00     0.261 C 
BRANCH   2   3
ATOM      3  O   UNL A   1      46.759  24.848  24.414  1.00  0.00    -0.462 OA
BRANCH   3   4
ATOM      4  C   UNL A   1      45.596  24.254  24.831  1.00  0.00     0.326 C 
ATOM      5  O   UNL A   1      44.477  24.562  24.493  1.00  0.00    -0.250 OA
BRANCH   4   6
ATOM      6  C   UNL A   1      45.923  23.194  25.887  1.00  0.00     0.250 C 
BRANCH   6   7
ATOM      7  N   UNL A   1      44.702  22.420  26.128  1.00  0.00    -0.281 N 
ATOM      8  N   UNL A   1      42.876  21.957  27.597  1.00  0.00    -0.254 N 
ATOM      9  C   UNL A   1      42.630  20.693  27.058  1.00  0.00     0.274 A 
ATOM     10  C   UNL A   1      43.994  22.731  27.293  1.00  0.00     0.332 A 
ATOM     11  O   UNL A   1      41.775  19.930  27.502  1.00  0.00    -0.268 OA
ATOM     12  C   UNL A   1      43.497  20.367  25.953  1.00  0.00     0.116 A 
ATOM     13  O   UNL A   1      44.411  23.613  28.050  1.00  0.00    -0.247 OA
ATOM     14  S   UNL A   1      43.468  18.879  25.134  1.00  0.00    -0.136 S 
ATOM     15  C   UNL A   1      44.465  21.211  25.479  1.00  0.00     0.070 A 
ATOM     16  C   UNL A   1      44.743  19.368  24.097  1.00  0.00     0.068 A 
ATOM     17  C   UNL A   1      45.185  20.641  24.390  1.00  0.00     0.039 A 
BRANCH   8  18
ATOM     18  C   UNL A   1      41.994  22.468  28.643  1.00  0.00     0.166 C 
BRANCH  18  19
ATOM     19  C   UNL A   1      40.946  23.377  28.024  1.00  0.00    -0.028 A 
ATOM     20  C   UNL A   1      37.854  23.131  25.813  1.00  0.00     0.044 C 
ATOM     21  C   UNL A   1      39.028  23.683  26.562  1.00  0.00    -0.051 A 
ATOM     22  C   UNL A   1      39.276  25.062  26.531  1.00  0.00     0.003 A 
ATOM     23  C   UNL A   1      39.883  22.841  27.286  1.00  0.00     0.009 A 
ATOM     24  C   UNL A   1      40.312  25.605  27.279  1.00  0.00     0.001 A 
ATOM     25  C   UNL A   1      41.110  24.772  28.055  1.00  0.00     0.005 A 
ENDBRANCH  18  19
ENDBRANCH   8  18
ENDBRANCH   6   7
ENDBRANCH   4   6
ENDBRANCH   3   4
ENDBRANCH   2   3
ENDBRANCH   1   2
BRANCH   1  26
ATOM     26  O   UNL A   1      46.602  27.338  26.635  1.00  0.00    -0.374 OA
BRANCH  26  27
ATOM     27  C   UNL A   1      45.711  26.839  27.612  1.00  0.00     0.202 C 
BRANCH  27  28
ATOM     28  C   UNL A   1      44.241  26.845  27.187  1.00  0.00     0.261 C 
BRANCH  28  29
ATOM     29  O   UNL A   1      44.006  27.920  26.257  1.00  0.00    -0.460 OA
BRANCH  29  30
ATOM     30  C   UNL A   1      42.715  28.073  25.856  1.00  0.00     0.338 C 
ATOM     31  O   UNL A   1      42.252  27.663  24.803  1.00  0.00    -0.246 OA
BRANCH  30  32
ATOM     32  C   UNL A   1      42.037  29.078  26.726  1.00  0.00     0.060 A 
ATOM     33  C   UNL A   1      42.806  29.878  27.593  1.00  0.00     0.016 A 
ATOM     34  C   UNL A   1      40.663  28.961  26.925  1.00  0.00     0.016 A 
ATOM     35  C   UNL A   1      42.225  30.427  28.744  1.00  0.00     0.010 A 
ATOM     36  C   UNL A   1      40.132  29.390  28.121  1.00  0.00     0.010 A 
ATOM     37  C   UNL A   1      40.905  30.107  29.051  1.00  0.00    -0.014 A 
BRANCH  37  38
ATOM     38  C   UNL A   1      40.207  30.430  30.297  1.00  0.00     0.031 A 
ATOM     39  C   UNL A   1      39.433  31.693  30.314  1.00  0.00     0.074 A 
ATOM     40  C   UNL A   1      40.078  29.555  31.329  1.00  0.00     0.049 A 
ATOM     41  N   UNL A   1      39.004  32.250  31.391  1.00  0.00    -0.248 NA
ATOM     42  C   UNL A   1      39.131  32.490  29.122  1.00  0.00     0.031 C 
ATOM     43  C   UNL A   1      39.091  29.576  32.414  1.00  0.00     0.029 A 
ATOM     44  N   UNL A   1      40.842  28.418  31.652  1.00  0.00    -0.354 N 
ATOM     45  C   UNL A   1      38.090  33.206  31.024  1.00  0.00     0.074 A 
ATOM     46  C   UNL A   1      38.350  33.444  29.632  1.00  0.00     0.031 C 
ATOM     47  C   UNL A   1      39.501  28.766  33.408  1.00  0.00     0.029 A 
ATOM     48  C   UNL A   1      40.825  28.289  33.050  1.00  0.00     0.049 A 
ATOM     49  H   UNL A   1      41.303  27.824  31.016  1.00  0.00     0.167 HD
ATOM     50  C   UNL A   1      37.128  33.543  31.927  1.00  0.00     0.037 A 
ATOM     51  C   UNL A   1      41.972  28.370  33.776  1.00  0.00     0.037 A 
ATOM     52  C   UNL A   1      37.451  32.964  33.245  1.00  0.00     0.049 A 
ATOM     53  C   UNL A   1      41.884  29.547  34.700  1.00  0.00     0.074 A 
ATOM     54  C   UNL A   1      36.894  31.956  34.015  1.00  0.00     0.029 A 
ATOM     55  N   UNL A   1      38.709  33.221  33.805  1.00  0.00    -0.354 N 
ATOM     56  N   UNL A   1      41.041  30.524  34.502  1.00  0.00    -0.248 NA
ATOM     57  C   UNL A   1      42.653  29.711  35.924  1.00  0.00     0.031 C 
ATOM     58  C   UNL A   1      37.861  31.561  34.988  1.00  0.00     0.029 A 
ATOM     59  C   UNL A   1      38.991  32.354  34.844  1.00  0.00     0.049 A 
ATOM     60  H   UNL A   1      39.317  33.930  33.496  1.00  0.00     0.167 HD
ATOM     61  C   UNL A   1      41.076  31.387  35.549  1.00  0.00     0.074 A 
ATOM     62  C   UNL A   1      42.121  30.849  36.407  1.00  0.00     0.031 C 
ATOM     63  C   UNL A   1      40.241  32.464  35.602  1.00  0.00     0.037 A 
BRANCH  50  64
ATOM     64  C   UNL A   1      35.804  34.222  31.596  1.00  0.00     0.064 A 
ATOM     65  C   UNL A   1      35.235  35.142  32.506  1.00  0.00     0.173 A 
ATOM     66  C   UNL A   1      34.995  33.970  30.462  1.00  0.00     0.173 A 
ATOM     67  F   UNL A   1      35.864  35.476  33.641  1.00  0.00    -0.203 F 
ATOM     68  C   UNL A   1      33.987  35.746  32.296  1.00  0.00     0.198 A 
ATOM     69  C   UNL A   1      33.770  34.606  30.232  1.00  0.00     0.198 A 
ATOM     70  F   UNL A   1      35.309  33.063  29.536  1.00  0.00    -0.203 F 
ATOM     71  F   UNL A   1      33.486  36.576  33.222  1.00  0.00    -0.200 F 
ATOM     72  C   UNL A   1      33.260  35.489  31.154  1.00  0.00     0.200 A 
ATOM     73  F   UNL A   1      33.081  34.329  29.115  1.00  0.00    -0.200 F 
ATOM     74  F   UNL A   1      32.072  36.072  30.946  1.00  0.00    -0.200 F 
ENDBRANCH  50  64
BRANCH  51  75
ATOM     75  C   UNL A   1      43.152  27.844  33.028  1.00  0.00     0.064 A 
ATOM     76  C   UNL A   1      43.969  28.789  32.367  1.00  0.00     0.173 A 
ATOM     77  C   UNL A   1      43.738  26.612  33.352  1.00  0.00     0.173 A 
ATOM     78  F   UNL A   1      43.471  29.994  32.043  1.00  0.00    -0.203 F 
ATOM     79  C   UNL A   1      45.334  28.570  32.174  1.00  0.00     0.198 A 
ATOM     80  C   UNL A   1      45.108  26.396  33.153  1.00  0.00     0.198 A 
ATOM     81  F   UNL A   1      43.028  25.671  33.987  1.00  0.00    -0.203 F 
ATOM     82  F   UNL A   1      46.112  29.556  31.700  1.00  0.00    -0.200 F 
ATOM     83  C   UNL A   1      45.910  27.389  32.607  1.00  0.00     0.200 A 
ATOM     84  F   UNL A   1      45.676  25.263  33.592  1.00  0.00    -0.200 F 
ATOM     85  F   UNL A   1      47.242  27.238  32.568  1.00  0.00    -0.200 F 
ENDBRANCH  51  75
BRANCH  63  86
ATOM     86  C   UNL A   1      40.493  33.697  36.432  1.00  0.00     0.064 A 
ATOM     87  C   UNL A   1      41.433  34.687  36.097  1.00  0.00     0.173 A 
ATOM     88  C   UNL A   1      39.649  34.010  37.524  1.00  0.00     0.173 A 
ATOM     89  F   UNL A   1      42.197  34.595  35.001  1.00  0.00    -0.203 F 
ATOM     90  C   UNL A   1      41.574  35.856  36.844  1.00  0.00     0.198 A 
ATOM     91  C   UNL A   1      39.736  35.216  38.214  1.00  0.00     0.198 A 
ATOM     92  F   UNL A   1      38.684  33.176  37.938  1.00  0.00    -0.203 F 
ATOM     93  F   UNL A   1      42.529  36.737  36.516  1.00  0.00    -0.200 F 
ATOM     94  C   UNL A   1      40.716  36.129  37.890  1.00  0.00     0.200 A 
ATOM     95  F   UNL A   1      38.847  35.495  39.176  1.00  0.00    -0.200 F 
ATOM     96  F   UNL A   1      40.817  37.279  38.566  1.00  0.00    -0.200 F 
ENDBRANCH  63  86
ENDBRANCH  37  38
ENDBRANCH  30  32
ENDBRANCH  29  30
ENDBRANCH  28  29
ENDBRANCH  27  28
ENDBRANCH  26  27
ENDBRANCH   1  26
TORSDOF 17
ENDMDL
MODEL 3
REMARK VINA RESULT:     -12.1      2.395      3.726
REMARK SMILES Cc1cccc(Cn2c(=O)c3sccc3n(CC(=O)OCCOCCOC(=O)c3ccc(-c4c5nc(c(-c6c(F)c(F)c(F)c(F)c6F)c6ccc([nH]6)c(-c6c(F)c(F)c(F)c(F)c6F)c6nc(c(-c7c(F)c(F)c(F)c(F)c7F)c7ccc4[nH]7)C=C6)C=C5)cc3)c2=O)c1
REMARK SMILES IDX 22 1 21 2 20 3 18 4 19 5 17 6 16 7 8 8 9 9 92 10 10 11 11 12
REMARK SMILES IDX 93 13 12 14 15 15 13 16 14 17 7 18 6 19 1 20 2 21 3 22 94 23
REMARK SMILES IDX 4 24 5 25 23 26 24 27 25 28 26 29 27 30 28 31 29 32 30 33
REMARK SMILES IDX 91 34 31 35 90 36 32 37 33 38 34 39 84 40 35 41 89 42 83 43
REMARK SMILES IDX 85 44 36 45 88 46 82 47 81 48 37 50 69 51 49 52 68 53 50 54
REMARK SMILES IDX 53 55 67 56 86 57 51 58 52 59 66 61 87 62 54 63 38 64 39 65
REMARK SMILES IDX 47 66 40 67 41 68 45 69 48 70 42 71 43 72 46 73 44 74 70 75
REMARK SMILES IDX 71 76 79 77 72 78 73 79 77 80 80 81 74 82 75 83 78 84 76 85
REMARK SMILES IDX 55 86 56 87 64 88 57 89 58 90 62 91 65 92 59 93 60 94 63 95
REMARK SMILES IDX 61 96
REMARK H PARENT 85 49 53 60
REMARK Flexibility Score: inf
ROOT
ATOM      1  C   UNL A   1      31.555  30.185  26.074  1.00  0.00     0.202 C 
ENDROOT
BRANCH   1   2
ATOM      2  C   UNL A   1      32.644  29.443  25.372  1.00  0.00     0.261 C 
BRANCH   2   3
ATOM      3  O   UNL A   1      32.320  29.289  23.994  1.00  0.00    -0.462 OA
BRANCH   3   4
ATOM      4  C   UNL A   1      33.042  28.472  23.163  1.00  0.00     0.326 C 
ATOM      5  O   UNL A   1      34.198  28.625  22.841  1.00  0.00    -0.250 OA
BRANCH   4   6
ATOM      6  C   UNL A   1      32.126  27.376  22.612  1.00  0.00     0.250 C 
BRANCH   6   7
ATOM      7  N   UNL A   1      32.430  26.140  23.337  1.00  0.00    -0.281 N 
ATOM      8  N   UNL A   1      33.527  24.018  23.314  1.00  0.00    -0.254 N 
ATOM      9  C   UNL A   1      32.714  23.473  24.309  1.00  0.00     0.274 A 
ATOM     10  C   UNL A   1      33.285  25.241  22.691  1.00  0.00     0.332 A 
ATOM     11  O   UNL A   1      32.803  22.305  24.681  1.00  0.00    -0.268 OA
ATOM     12  C   UNL A   1      31.748  24.407  24.830  1.00  0.00     0.116 A 
ATOM     13  O   UNL A   1      33.734  25.512  21.573  1.00  0.00    -0.247 OA
ATOM     14  S   UNL A   1      30.589  24.013  26.009  1.00  0.00    -0.136 S 
ATOM     15  C   UNL A   1      31.636  25.699  24.393  1.00  0.00     0.070 A 
ATOM     16  C   UNL A   1      29.942  25.600  25.974  1.00  0.00     0.068 A 
ATOM     17  C   UNL A   1      30.596  26.403  25.064  1.00  0.00     0.039 A 
BRANCH   8  18
ATOM     18  C   UNL A   1      34.629  23.222  22.781  1.00  0.00     0.166 C 
BRANCH  18  19
ATOM     19  C   UNL A   1      35.738  23.132  23.817  1.00  0.00    -0.028 A 
ATOM     20  C   UNL A   1      38.250  20.595  25.142  1.00  0.00     0.044 C 
ATOM     21  C   UNL A   1      37.388  21.814  25.019  1.00  0.00    -0.051 A 
ATOM     22  C   UNL A   1      37.470  22.814  25.997  1.00  0.00     0.003 A 
ATOM     23  C   UNL A   1      36.499  21.964  23.946  1.00  0.00     0.009 A 
ATOM     24  C   UNL A   1      36.737  23.986  25.864  1.00  0.00     0.001 A 
ATOM     25  C   UNL A   1      35.913  24.160  24.758  1.00  0.00     0.005 A 
ENDBRANCH  18  19
ENDBRANCH   8  18
ENDBRANCH   6   7
ENDBRANCH   4   6
ENDBRANCH   3   4
ENDBRANCH   2   3
ENDBRANCH   1   2
BRANCH   1  26
ATOM     26  O   UNL A   1      32.238  31.196  26.803  1.00  0.00    -0.374 OA
BRANCH  26  27
ATOM     27  C   UNL A   1      33.513  30.832  27.289  1.00  0.00     0.202 C 
BRANCH  27  28
ATOM     28  C   UNL A   1      34.358  32.008  27.787  1.00  0.00     0.261 C 
BRANCH  28  29
ATOM     29  O   UNL A   1      34.407  31.997  29.228  1.00  0.00    -0.460 OA
BRANCH  29  30
ATOM     30  C   UNL A   1      34.716  33.188  29.810  1.00  0.00     0.338 C 
ATOM     31  O   UNL A   1      34.043  34.203  29.733  1.00  0.00    -0.246 OA
BRANCH  30  32
ATOM     32  C   UNL A   1      36.133  33.162  30.277  1.00  0.00     0.060 A 
ATOM     33  C   UNL A   1      37.156  33.613  29.421  1.00  0.00     0.016 A 
ATOM     34  C   UNL A   1      36.449  32.380  31.386  1.00  0.00     0.016 A 
ATOM     35  C   UNL A   1      38.467  33.147  29.586  1.00  0.00     0.010 A 
ATOM     36  C   UNL A   1      37.707  31.824  31.462  1.00  0.00     0.010 A 
ATOM     37  C   UNL A   1      38.722  32.182  30.558  1.00  0.00    -0.014 A 
BRANCH  37  38
ATOM     38  C   UNL A   1      39.979  31.451  30.738  1.00  0.00     0.031 A 
ATOM     39  C   UNL A   1      40.079  30.133  30.070  1.00  0.00     0.074 A 
ATOM     40  C   UNL A   1      41.087  32.001  31.301  1.00  0.00     0.049 A 
ATOM     41  N   UNL A   1      40.982  29.260  30.351  1.00  0.00    -0.248 NA
ATOM     42  C   UNL A   1      39.127  29.641  29.072  1.00  0.00     0.031 C 
ATOM     43  C   UNL A   1      42.480  31.561  31.169  1.00  0.00     0.029 A 
ATOM     44  N   UNL A   1      41.211  33.108  32.160  1.00  0.00    -0.354 N 
ATOM     45  C   UNL A   1      40.965  28.316  29.355  1.00  0.00     0.074 A 
ATOM     46  C   UNL A   1      39.693  28.488  28.711  1.00  0.00     0.031 C 
ATOM     47  C   UNL A   1      43.224  32.133  32.135  1.00  0.00     0.029 A 
ATOM     48  C   UNL A   1      42.313  32.865  32.997  1.00  0.00     0.049 A 
ATOM     49  H   UNL A   1      40.633  33.906  32.173  1.00  0.00     0.167 HD
ATOM     50  C   UNL A   1      42.115  27.626  29.118  1.00  0.00     0.037 A 
ATOM     51  C   UNL A   1      42.161  32.758  34.343  1.00  0.00     0.037 A 
ATOM     52  C   UNL A   1      43.086  27.880  30.199  1.00  0.00     0.049 A 
ATOM     53  C   UNL A   1      42.566  31.380  34.773  1.00  0.00     0.074 A 
ATOM     54  C   UNL A   1      44.288  28.564  30.269  1.00  0.00     0.029 A 
ATOM     55  N   UNL A   1      42.692  27.663  31.525  1.00  0.00    -0.354 N 
ATOM     56  N   UNL A   1      42.629  30.382  33.934  1.00  0.00    -0.248 NA
ATOM     57  C   UNL A   1      42.987  31.010  36.116  1.00  0.00     0.031 C 
ATOM     58  C   UNL A   1      44.567  28.822  31.645  1.00  0.00     0.029 A 
ATOM     59  C   UNL A   1      43.562  28.259  32.419  1.00  0.00     0.049 A 
ATOM     60  H   UNL A   1      41.895  27.150  31.788  1.00  0.00     0.167 HD
ATOM     61  C   UNL A   1      43.146  29.289  34.552  1.00  0.00     0.074 A 
ATOM     62  C   UNL A   1      43.334  29.723  35.928  1.00  0.00     0.031 C 
ATOM     63  C   UNL A   1      43.364  28.130  33.866  1.00  0.00     0.037 A 
BRANCH  50  64
ATOM     64  C   UNL A   1      42.447  26.879  27.831  1.00  0.00     0.064 A 
ATOM     65  C   UNL A   1      41.831  25.637  27.556  1.00  0.00     0.173 A 
ATOM     66  C   UNL A   1      43.408  27.264  26.866  1.00  0.00     0.173 A 
ATOM     67  F   UNL A   1      40.912  25.120  28.381  1.00  0.00    -0.203 F 
ATOM     68  C   UNL A   1      42.147  24.866  26.427  1.00  0.00     0.198 A 
ATOM     69  C   UNL A   1      43.691  26.515  25.718  1.00  0.00     0.198 A 
ATOM     70  F   UNL A   1      44.166  28.354  26.993  1.00  0.00    -0.203 F 
ATOM     71  F   UNL A   1      41.556  23.676  26.251  1.00  0.00    -0.200 F 
ATOM     72  C   UNL A   1      43.066  25.310  25.501  1.00  0.00     0.200 A 
ATOM     73  F   UNL A   1      44.597  26.969  24.838  1.00  0.00    -0.200 F 
ATOM     74  F   UNL A   1      43.362  24.580  24.418  1.00  0.00    -0.200 F 
ENDBRANCH  50  64
BRANCH  51  75
ATOM     75  C   UNL A   1      41.055  33.619  34.858  1.00  0.00     0.064 A 
ATOM     76  C   UNL A   1      39.834  32.980  35.173  1.00  0.00     0.173 A 
ATOM     77  C   UNL A   1      41.310  34.847  35.483  1.00  0.00     0.173 A 
ATOM     78  F   UNL A   1      39.537  31.792  34.618  1.00  0.00    -0.203 F 
ATOM     79  C   UNL A   1      38.986  33.469  36.168  1.00  0.00     0.198 A 
ATOM     80  C   UNL A   1      40.454  35.336  36.478  1.00  0.00     0.198 A 
ATOM     81  F   UNL A   1      42.450  35.506  35.239  1.00  0.00    -0.203 F 
ATOM     82  F   UNL A   1      37.925  32.747  36.561  1.00  0.00    -0.200 F 
ATOM     83  C   UNL A   1      39.320  34.626  36.850  1.00  0.00     0.200 A 
ATOM     84  F   UNL A   1      40.784  36.444  37.158  1.00  0.00    -0.200 F 
ATOM     85  F   UNL A   1      38.595  35.014  37.909  1.00  0.00    -0.200 F 
ENDBRANCH  51  75
BRANCH  63  86
ATOM     86  C   UNL A   1      43.482  26.770  34.507  1.00  0.00     0.064 A 
ATOM     87  C   UNL A   1      42.381  26.012  34.941  1.00  0.00     0.173 A 
ATOM     88  C   UNL A   1      44.729  26.101  34.543  1.00  0.00     0.173 A 
ATOM     89  F   UNL A   1      41.125  26.459  34.825  1.00  0.00    -0.203 F 
ATOM     90  C   UNL A   1      42.526  24.720  35.448  1.00  0.00     0.198 A 
ATOM     91  C   UNL A   1      44.857  24.783  34.970  1.00  0.00     0.198 A 
ATOM     92  F   UNL A   1      45.862  26.688  34.130  1.00  0.00    -0.203 F 
ATOM     93  F   UNL A   1      41.449  24.067  35.904  1.00  0.00    -0.200 F 
ATOM     94  C   UNL A   1      43.759  24.100  35.447  1.00  0.00     0.200 A 
ATOM     95  F   UNL A   1      46.047  24.173  34.891  1.00  0.00    -0.200 F 
ATOM     96  F   UNL A   1      43.883  22.840  35.879  1.00  0.00    -0.200 F 
ENDBRANCH  63  86
ENDBRANCH  37  38
ENDBRANCH  30  32
ENDBRANCH  29  30
ENDBRANCH  28  29
ENDBRANCH  27  28
ENDBRANCH  26  27
ENDBRANCH   1  26
TORSDOF 17
ENDMDL
