MODEL 1
REMARK VINA RESULT:     -12.5      0.000      0.000
REMARK SMILES CS(=O)(=O)c1ccc(C2=NN(c3ccc(C(=O)OCCOCCOC(=O)c4ccc(-c5c6nc(c(-c7c(F)c(F)c(F)c(F)c7F)c7ccc([nH]7)c(-c7c(F)c(F)c(F)c(F)c7F)c7nc(c(-c8c(F)c(F)c(F)c(F)c8F)c8ccc5[nH]8)C=C7)C=C6)cc4)cc3)[C@H](c3cccs3)C2)cc1
REMARK SMILES IDX 20 1 19 2 18 3 16 4 17 5 15 6 12 7 13 8 91 9 14 10 90 11
REMARK SMILES IDX 11 12 9 13 10 14 98 15 92 16 8 17 5 18 6 19 100 20 7 21
REMARK SMILES IDX 99 22 2 23 1 24 3 25 4 26 93 27 94 28 97 29 95 30 96 31
REMARK SMILES IDX 21 32 22 33 23 34 24 35 25 36 26 37 27 38 28 39 89 40 29 41
REMARK SMILES IDX 88 42 30 43 31 44 32 45 82 46 33 47 87 48 81 49 83 50 34 51
REMARK SMILES IDX 86 52 80 53 79 54 35 56 67 57 47 58 66 59 48 60 51 61 65 62
REMARK SMILES IDX 84 63 49 64 50 65 64 67 85 68 52 69 36 70 37 71 45 72 38 73
REMARK SMILES IDX 39 74 43 75 46 76 40 77 41 78 44 79 42 80 68 81 69 82 77 83
REMARK SMILES IDX 70 84 71 85 75 86 78 87 72 88 73 89 76 90 74 91 53 92 54 93
REMARK SMILES IDX 62 94 55 95 56 96 60 97 63 98 57 99 58 100 61 101 59 102
REMARK H PARENT 83 55 51 66
REMARK Flexibility Score: inf
ROOT
ATOM      1  C   UNL A   1      34.025  33.746  29.927  1.00  0.00     0.202 C 
ENDROOT
BRANCH   1   2
ATOM      2  C   UNL A   1      33.975  33.615  28.403  1.00  0.00     0.261 C 
BRANCH   2   3
ATOM      3  O   UNL A   1      33.492  32.319  28.016  1.00  0.00    -0.460 OA
BRANCH   3   4
ATOM      4  C   UNL A   1      34.451  31.424  27.678  1.00  0.00     0.338 C 
ATOM      5  O   UNL A   1      35.660  31.580  27.775  1.00  0.00    -0.246 OA
BRANCH   4   6
ATOM      6  C   UNL A   1      33.839  30.138  27.265  1.00  0.00     0.060 A 
ATOM      7  C   UNL A   1      32.807  27.712  26.297  1.00  0.00     0.060 A 
ATOM      8  C   UNL A   1      34.187  27.887  26.435  1.00  0.00     0.029 A 
ATOM      9  C   UNL A   1      31.951  28.731  26.740  1.00  0.00     0.029 A 
ATOM     10  C   UNL A   1      34.703  29.096  26.902  1.00  0.00     0.018 A 
ATOM     11  C   UNL A   1      32.457  29.941  27.224  1.00  0.00     0.018 A 
BRANCH   7  12
ATOM     12  N   UNL A   1      32.282  26.618  25.600  1.00  0.00    -0.257 N 
ATOM     13  C   UNL A   1      32.609  24.660  24.822  1.00  0.00     0.071 C 
ATOM     14  N   UNL A   1      32.662  25.351  25.919  1.00  0.00    -0.176 NA
ATOM     15  C   UNL A   1      32.336  25.433  23.564  1.00  0.00     0.091 C 
ATOM     16  C   UNL A   1      32.040  26.813  24.157  1.00  0.00     0.154 C 
BRANCH  13  17
ATOM     17  C   UNL A   1      32.786  23.199  24.787  1.00  0.00    -0.002 A 
ATOM     18  C   UNL A   1      32.992  20.430  24.662  1.00  0.00     0.067 A 
ATOM     19  C   UNL A   1      31.830  21.011  25.177  1.00  0.00     0.021 A 
ATOM     20  C   UNL A   1      34.049  21.224  24.202  1.00  0.00     0.021 A 
ATOM     21  C   UNL A   1      31.736  22.401  25.255  1.00  0.00     0.011 A 
ATOM     22  C   UNL A   1      33.942  22.617  24.259  1.00  0.00     0.011 A 
BRANCH  18  23
ATOM     23  S   UNL A   1      33.086  18.657  24.540  1.00  0.00     0.175 S 
ATOM     24  C   UNL A   1      32.462  18.312  22.916  1.00  0.00     0.163 C 
ATOM     25  O   UNL A   1      32.151  18.102  25.501  1.00  0.00    -0.224 OA
ATOM     26  O   UNL A   1      34.491  18.306  24.577  1.00  0.00    -0.224 OA
ENDBRANCH  18  23
ENDBRANCH  13  17
BRANCH  16  27
ATOM     27  C   UNL A   1      30.692  27.420  23.829  1.00  0.00     0.030 A 
ATOM     28  C   UNL A   1      29.459  26.811  23.999  1.00  0.00     0.017 A 
ATOM     29  S   UNL A   1      30.515  28.950  23.075  1.00  0.00    -0.147 S 
ATOM     30  C   UNL A   1      28.381  27.592  23.499  1.00  0.00     0.012 A 
ATOM     31  C   UNL A   1      28.815  28.796  22.995  1.00  0.00     0.065 A 
ENDBRANCH  16  27
ENDBRANCH   7  12
ENDBRANCH   4   6
ENDBRANCH   3   4
ENDBRANCH   2   3
ENDBRANCH   1   2
BRANCH   1  32
ATOM     32  O   UNL A   1      34.351  35.039  30.433  1.00  0.00    -0.374 OA
BRANCH  32  33
ATOM     33  C   UNL A   1      33.968  35.327  31.780  1.00  0.00     0.202 C 
BRANCH  33  34
ATOM     34  C   UNL A   1      34.906  34.804  32.873  1.00  0.00     0.261 C 
BRANCH  34  35
ATOM     35  O   UNL A   1      36.055  34.138  32.320  1.00  0.00    -0.460 OA
BRANCH  35  36
ATOM     36  C   UNL A   1      36.450  33.032  32.991  1.00  0.00     0.338 C 
ATOM     37  O   UNL A   1      36.019  32.614  34.056  1.00  0.00    -0.246 OA
BRANCH  36  38
ATOM     38  C   UNL A   1      37.397  32.256  32.168  1.00  0.00     0.060 A 
ATOM     39  C   UNL A   1      38.393  31.536  32.838  1.00  0.00     0.016 A 
ATOM     40  C   UNL A   1      37.359  32.284  30.772  1.00  0.00     0.016 A 
ATOM     41  C   UNL A   1      39.389  30.882  32.116  1.00  0.00     0.010 A 
ATOM     42  C   UNL A   1      38.365  31.633  30.048  1.00  0.00     0.010 A 
ATOM     43  C   UNL A   1      39.402  30.961  30.717  1.00  0.00    -0.014 A 
BRANCH  43  44
ATOM     44  C   UNL A   1      40.580  30.457  29.968  1.00  0.00     0.031 A 
ATOM     45  C   UNL A   1      41.733  31.387  29.709  1.00  0.00     0.074 A 
ATOM     46  C   UNL A   1      40.635  29.180  29.549  1.00  0.00     0.049 A 
ATOM     47  N   UNL A   1      42.845  31.171  29.054  1.00  0.00    -0.248 NA
ATOM     48  C   UNL A   1      41.615  32.744  30.265  1.00  0.00     0.031 C 
ATOM     49  C   UNL A   1      39.599  28.175  29.771  1.00  0.00     0.029 A 
ATOM     50  N   UNL A   1      41.605  28.516  28.841  1.00  0.00    -0.354 N 
ATOM     51  C   UNL A   1      43.556  32.363  29.115  1.00  0.00     0.074 A 
ATOM     52  C   UNL A   1      42.738  33.308  29.844  1.00  0.00     0.031 C 
ATOM     53  C   UNL A   1      39.984  27.020  29.202  1.00  0.00     0.029 A 
ATOM     54  C   UNL A   1      41.278  27.216  28.549  1.00  0.00     0.049 A 
ATOM     55  H   UNL A   1      42.455  28.933  28.570  1.00  0.00     0.167 HD
ATOM     56  C   UNL A   1      44.784  32.640  28.616  1.00  0.00     0.037 A 
ATOM     57  C   UNL A   1      41.940  26.296  27.820  1.00  0.00     0.037 A 
ATOM     58  C   UNL A   1      45.598  31.698  27.894  1.00  0.00     0.049 A 
ATOM     59  C   UNL A   1      43.274  26.652  27.217  1.00  0.00     0.074 A 
ATOM     60  C   UNL A   1      46.865  31.878  27.368  1.00  0.00     0.029 A 
ATOM     61  N   UNL A   1      45.220  30.399  27.591  1.00  0.00    -0.354 N 
ATOM     62  N   UNL A   1      43.952  27.771  27.302  1.00  0.00    -0.248 NA
ATOM     63  C   UNL A   1      43.938  25.613  26.416  1.00  0.00     0.031 C 
ATOM     64  C   UNL A   1      47.234  30.703  26.703  1.00  0.00     0.029 A 
ATOM     65  C   UNL A   1      46.218  29.774  26.861  1.00  0.00     0.049 A 
ATOM     66  H   UNL A   1      44.368  29.982  27.854  1.00  0.00     0.167 HD
ATOM     67  C   UNL A   1      45.129  27.563  26.594  1.00  0.00     0.074 A 
ATOM     68  C   UNL A   1      45.080  26.204  26.095  1.00  0.00     0.031 C 
ATOM     69  C   UNL A   1      46.158  28.418  26.378  1.00  0.00     0.037 A 
BRANCH  56  70
ATOM     70  C   UNL A   1      45.316  34.029  28.816  1.00  0.00     0.064 A 
ATOM     71  C   UNL A   1      45.052  35.058  27.901  1.00  0.00     0.173 A 
ATOM     72  C   UNL A   1      46.070  34.342  29.957  1.00  0.00     0.173 A 
ATOM     73  F   UNL A   1      44.348  34.807  26.787  1.00  0.00    -0.203 F 
ATOM     74  C   UNL A   1      45.541  36.346  28.111  1.00  0.00     0.198 A 
ATOM     75  C   UNL A   1      46.534  35.635  30.178  1.00  0.00     0.198 A 
ATOM     76  F   UNL A   1      46.348  33.394  30.865  1.00  0.00    -0.203 F 
ATOM     77  F   UNL A   1      45.312  37.304  27.203  1.00  0.00    -0.200 F 
ATOM     78  C   UNL A   1      46.275  36.635  29.252  1.00  0.00     0.200 A 
ATOM     79  F   UNL A   1      47.233  35.915  31.286  1.00  0.00    -0.200 F 
ATOM     80  F   UNL A   1      46.738  37.875  29.456  1.00  0.00    -0.200 F 
ENDBRANCH  56  70
BRANCH  57  81
ATOM     81  C   UNL A   1      41.348  24.950  27.606  1.00  0.00     0.064 A 
ATOM     82  C   UNL A   1      40.247  24.770  26.757  1.00  0.00     0.173 A 
ATOM     83  C   UNL A   1      41.857  23.821  28.264  1.00  0.00     0.173 A 
ATOM     84  F   UNL A   1      39.709  25.824  26.126  1.00  0.00    -0.203 F 
ATOM     85  C   UNL A   1      39.667  23.514  26.589  1.00  0.00     0.198 A 
ATOM     86  C   UNL A   1      41.293  22.562  28.073  1.00  0.00     0.198 A 
ATOM     87  F   UNL A   1      42.907  23.940  29.089  1.00  0.00    -0.203 F 
ATOM     88  F   UNL A   1      38.585  23.378  25.810  1.00  0.00    -0.200 F 
ATOM     89  C   UNL A   1      40.193  22.411  27.243  1.00  0.00     0.200 A 
ATOM     90  F   UNL A   1      41.812  21.496  28.699  1.00  0.00    -0.200 F 
ATOM     91  F   UNL A   1      39.635  21.203  27.081  1.00  0.00    -0.200 F 
ENDBRANCH  57  81
BRANCH  69  92
ATOM     92  C   UNL A   1      47.332  27.903  25.596  1.00  0.00     0.064 A 
ATOM     93  C   UNL A   1      47.316  27.844  24.194  1.00  0.00     0.173 A 
ATOM     94  C   UNL A   1      48.503  27.503  26.256  1.00  0.00     0.173 A 
ATOM     95  F   UNL A   1      46.214  28.202  23.516  1.00  0.00    -0.203 F 
ATOM     96  C   UNL A   1      48.420  27.381  23.485  1.00  0.00     0.198 A 
ATOM     97  C   UNL A   1      49.616  27.068  25.542  1.00  0.00     0.198 A 
ATOM     98  F   UNL A   1      48.574  27.546  27.595  1.00  0.00    -0.203 F 
ATOM     99  F   UNL A   1      48.366  27.290  22.148  1.00  0.00    -0.200 F 
ATOM    100  C   UNL A   1      49.572  27.000  24.159  1.00  0.00     0.200 A 
ATOM    101  F   UNL A   1      50.733  26.714  26.193  1.00  0.00    -0.200 F 
ATOM    102  F   UNL A   1      50.637  26.562  23.473  1.00  0.00    -0.200 F 
ENDBRANCH  69  92
ENDBRANCH  43  44
ENDBRANCH  36  38
ENDBRANCH  35  36
ENDBRANCH  34  35
ENDBRANCH  33  34
ENDBRANCH  32  33
ENDBRANCH   1  32
TORSDOF 18
ENDMDL
MODEL 2
REMARK VINA RESULT:     -12.0      5.890     12.060
REMARK SMILES CS(=O)(=O)c1ccc(C2=NN(c3ccc(C(=O)OCCOCCOC(=O)c4ccc(-c5c6nc(c(-c7c(F)c(F)c(F)c(F)c7F)c7ccc([nH]7)c(-c7c(F)c(F)c(F)c(F)c7F)c7nc(c(-c8c(F)c(F)c(F)c(F)c8F)c8ccc5[nH]8)C=C7)C=C6)cc4)cc3)[C@H](c3cccs3)C2)cc1
REMARK SMILES IDX 20 1 19 2 18 3 16 4 17 5 15 6 12 7 13 8 91 9 14 10 90 11
REMARK SMILES IDX 11 12 9 13 10 14 98 15 92 16 8 17 5 18 6 19 100 20 7 21
REMARK SMILES IDX 99 22 2 23 1 24 3 25 4 26 93 27 94 28 97 29 95 30 96 31
REMARK SMILES IDX 21 32 22 33 23 34 24 35 25 36 26 37 27 38 28 39 89 40 29 41
REMARK SMILES IDX 88 42 30 43 31 44 32 45 82 46 33 47 87 48 81 49 83 50 34 51
REMARK SMILES IDX 86 52 80 53 79 54 35 56 67 57 47 58 66 59 48 60 51 61 65 62
REMARK SMILES IDX 84 63 49 64 50 65 64 67 85 68 52 69 36 70 37 71 45 72 38 73
REMARK SMILES IDX 39 74 43 75 46 76 40 77 41 78 44 79 42 80 68 81 69 82 77 83
REMARK SMILES IDX 70 84 71 85 75 86 78 87 72 88 73 89 76 90 74 91 53 92 54 93
REMARK SMILES IDX 62 94 55 95 56 96 60 97 63 98 57 99 58 100 61 101 59 102
REMARK H PARENT 83 55 51 66
REMARK Flexibility Score: inf
ROOT
ATOM      1  C   UNL A   1      44.180  20.432  25.261  1.00  0.00     0.202 C 
ENDROOT
BRANCH   1   2
ATOM      2  C   UNL A   1      44.019  21.948  25.400  1.00  0.00     0.261 C 
BRANCH   2   3
ATOM      3  O   UNL A   1      44.007  22.336  26.783  1.00  0.00    -0.460 OA
BRANCH   3   4
ATOM      4  C   UNL A   1      45.148  22.915  27.228  1.00  0.00     0.338 C 
ATOM      5  O   UNL A   1      46.189  23.051  26.601  1.00  0.00    -0.246 OA
BRANCH   4   6
ATOM      6  C   UNL A   1      44.946  23.488  28.580  1.00  0.00     0.060 A 
ATOM      7  C   UNL A   1      44.786  24.556  31.173  1.00  0.00     0.060 A 
ATOM      8  C   UNL A   1      45.644  25.125  30.227  1.00  0.00     0.029 A 
ATOM      9  C   UNL A   1      43.941  23.510  30.773  1.00  0.00     0.029 A 
ATOM     10  C   UNL A   1      45.736  24.587  28.944  1.00  0.00     0.018 A 
ATOM     11  C   UNL A   1      44.014  22.973  29.485  1.00  0.00     0.018 A 
BRANCH   7  12
ATOM     12  N   UNL A   1      44.861  24.910  32.525  1.00  0.00    -0.257 N 
ATOM     13  C   UNL A   1      44.728  24.277  34.557  1.00  0.00     0.071 C 
ATOM     14  N   UNL A   1      45.345  24.029  33.442  1.00  0.00    -0.176 NA
ATOM     15  C   UNL A   1      43.608  25.274  34.487  1.00  0.00     0.091 C 
ATOM     16  C   UNL A   1      43.769  25.758  33.044  1.00  0.00     0.154 C 
BRANCH  13  17
ATOM     17  C   UNL A   1      45.097  23.645  35.834  1.00  0.00    -0.002 A 
ATOM     18  C   UNL A   1      45.908  22.397  38.181  1.00  0.00     0.067 A 
ATOM     19  C   UNL A   1      45.885  21.670  36.988  1.00  0.00     0.021 A 
ATOM     20  C   UNL A   1      45.535  23.746  38.208  1.00  0.00     0.021 A 
ATOM     21  C   UNL A   1      45.461  22.293  35.815  1.00  0.00     0.011 A 
ATOM     22  C   UNL A   1      45.134  24.375  37.025  1.00  0.00     0.011 A 
BRANCH  18  23
ATOM     23  S   UNL A   1      46.480  21.598  39.665  1.00  0.00     0.175 S 
ATOM     24  C   UNL A   1      46.767  19.923  39.158  1.00  0.00     0.163 C 
ATOM     25  O   UNL A   1      45.380  21.592  40.612  1.00  0.00    -0.224 OA
ATOM     26  O   UNL A   1      47.753  22.200  40.004  1.00  0.00    -0.224 OA
ENDBRANCH  18  23
ENDBRANCH  13  17
BRANCH  16  27
ATOM     27  C   UNL A   1      43.987  27.243  32.844  1.00  0.00     0.030 A 
ATOM     28  C   UNL A   1      43.395  28.031  31.869  1.00  0.00     0.017 A 
ATOM     29  S   UNL A   1      45.116  28.154  33.758  1.00  0.00    -0.147 S 
ATOM     30  C   UNL A   1      43.880  29.368  31.868  1.00  0.00     0.012 A 
ATOM     31  C   UNL A   1      44.801  29.577  32.867  1.00  0.00     0.065 A 
ENDBRANCH  16  27
ENDBRANCH   7  12
ENDBRANCH   4   6
ENDBRANCH   3   4
ENDBRANCH   2   3
ENDBRANCH   1   2
BRANCH   1  32
ATOM     32  O   UNL A   1      42.984  19.699  25.003  1.00  0.00    -0.374 OA
BRANCH  32  33
ATOM     33  C   UNL A   1      42.155  19.391  26.127  1.00  0.00     0.202 C 
BRANCH  33  34
ATOM     34  C   UNL A   1      40.644  19.525  25.906  1.00  0.00     0.261 C 
BRANCH  34  35
ATOM     35  O   UNL A   1      40.055  20.485  26.802  1.00  0.00    -0.460 OA
BRANCH  35  36
ATOM     36  C   UNL A   1      39.353  21.471  26.199  1.00  0.00     0.338 C 
ATOM     37  O   UNL A   1      38.432  21.351  25.404  1.00  0.00    -0.246 OA
BRANCH  36  38
ATOM     38  C   UNL A   1      39.736  22.779  26.763  1.00  0.00     0.060 A 
ATOM     39  C   UNL A   1      39.234  23.925  26.134  1.00  0.00     0.016 A 
ATOM     40  C   UNL A   1      40.621  22.890  27.839  1.00  0.00     0.016 A 
ATOM     41  C   UNL A   1      39.655  25.188  26.543  1.00  0.00     0.010 A 
ATOM     42  C   UNL A   1      41.049  24.160  28.244  1.00  0.00     0.010 A 
ATOM     43  C   UNL A   1      40.596  25.311  27.575  1.00  0.00    -0.014 A 
BRANCH  43  44
ATOM     44  C   UNL A   1      41.206  26.634  27.854  1.00  0.00     0.031 A 
ATOM     45  C   UNL A   1      42.600  26.913  27.365  1.00  0.00     0.074 A 
ATOM     46  C   UNL A   1      40.518  27.585  28.510  1.00  0.00     0.049 A 
ATOM     47  N   UNL A   1      43.337  27.983  27.518  1.00  0.00    -0.248 NA
ATOM     48  C   UNL A   1      43.250  25.840  26.596  1.00  0.00     0.031 C 
ATOM     49  C   UNL A   1      39.149  27.447  29.001  1.00  0.00     0.029 A 
ATOM     50  N   UNL A   1      40.884  28.855  28.880  1.00  0.00    -0.354 N 
ATOM     51  C   UNL A   1      44.537  27.712  26.872  1.00  0.00     0.074 A 
ATOM     52  C   UNL A   1      44.441  26.366  26.351  1.00  0.00     0.031 C 
ATOM     53  C   UNL A   1      38.791  28.586  29.618  1.00  0.00     0.029 A 
ATOM     54  C   UNL A   1      39.917  29.519  29.593  1.00  0.00     0.049 A 
ATOM     55  H   UNL A   1      41.757  29.251  28.655  1.00  0.00     0.167 HD
ATOM     56  C   UNL A   1      45.615  28.516  26.721  1.00  0.00     0.037 A 
ATOM     57  C   UNL A   1      39.948  30.733  30.174  1.00  0.00     0.037 A 
ATOM     58  C   UNL A   1      45.707  29.856  27.238  1.00  0.00     0.049 A 
ATOM     59  C   UNL A   1      41.187  31.582  30.050  1.00  0.00     0.074 A 
ATOM     60  C   UNL A   1      46.749  30.758  27.117  1.00  0.00     0.029 A 
ATOM     61  N   UNL A   1      44.719  30.484  27.982  1.00  0.00    -0.354 N 
ATOM     62  N   UNL A   1      42.305  31.329  29.415  1.00  0.00    -0.248 NA
ATOM     63  C   UNL A   1      41.166  32.889  30.724  1.00  0.00     0.031 C 
ATOM     64  C   UNL A   1      46.413  31.914  27.830  1.00  0.00     0.029 A 
ATOM     65  C   UNL A   1      45.139  31.752  28.350  1.00  0.00     0.049 A 
ATOM     66  H   UNL A   1      43.849  30.087  28.214  1.00  0.00     0.167 HD
ATOM     67  C   UNL A   1      43.106  32.451  29.586  1.00  0.00     0.074 A 
ATOM     68  C   UNL A   1      42.341  33.394  30.375  1.00  0.00     0.031 C 
ATOM     69  C   UNL A   1      44.362  32.682  29.130  1.00  0.00     0.037 A 
BRANCH  56  70
ATOM     70  C   UNL A   1      46.796  27.960  25.981  1.00  0.00     0.064 A 
ATOM     71  C   UNL A   1      46.855  27.961  24.580  1.00  0.00     0.173 A 
ATOM     72  C   UNL A   1      47.899  27.454  26.684  1.00  0.00     0.173 A 
ATOM     73  F   UNL A   1      45.820  28.422  23.861  1.00  0.00    -0.203 F 
ATOM     74  C   UNL A   1      47.967  27.457  23.909  1.00  0.00     0.198 A 
ATOM     75  C   UNL A   1      49.020  26.975  26.012  1.00  0.00     0.198 A 
ATOM     76  F   UNL A   1      47.895  27.433  28.026  1.00  0.00    -0.203 F 
ATOM     77  F   UNL A   1      47.984  27.429  22.570  1.00  0.00    -0.200 F 
ATOM     78  C   UNL A   1      49.051  26.970  24.626  1.00  0.00     0.200 A 
ATOM     79  F   UNL A   1      50.071  26.517  26.706  1.00  0.00    -0.200 F 
ATOM     80  F   UNL A   1      50.123  26.492  23.979  1.00  0.00    -0.200 F 
ENDBRANCH  56  70
BRANCH  57  81
ATOM     81  C   UNL A   1      38.772  31.220  30.942  1.00  0.00     0.064 A 
ATOM     82  C   UNL A   1      38.683  31.030  32.328  1.00  0.00     0.173 A 
ATOM     83  C   UNL A   1      37.703  31.864  30.301  1.00  0.00     0.173 A 
ATOM     84  F   UNL A   1      39.668  30.396  32.982  1.00  0.00    -0.203 F 
ATOM     85  C   UNL A   1      37.561  31.449  33.041  1.00  0.00     0.198 A 
ATOM     86  C   UNL A   1      36.595  32.308  31.020  1.00  0.00     0.198 A 
ATOM     87  F   UNL A   1      37.738  32.068  28.977  1.00  0.00    -0.203 F 
ATOM     88  F   UNL A   1      37.480  31.213  34.357  1.00  0.00    -0.200 F 
ATOM     89  C   UNL A   1      36.521  32.092  32.387  1.00  0.00     0.200 A 
ATOM     90  F   UNL A   1      35.597  32.938  30.385  1.00  0.00    -0.200 F 
ATOM     91  F   UNL A   1      35.443  32.496  33.073  1.00  0.00    -0.200 F 
ENDBRANCH  57  81
BRANCH  69  92
ATOM     92  C   UNL A   1      44.977  34.016  29.442  1.00  0.00     0.064 A 
ATOM     93  C   UNL A   1      44.828  35.115  28.583  1.00  0.00     0.173 A 
ATOM     94  C   UNL A   1      45.688  34.207  30.636  1.00  0.00     0.173 A 
ATOM     95  F   UNL A   1      44.169  34.980  27.422  1.00  0.00    -0.203 F 
ATOM     96  C   UNL A   1      45.388  36.349  28.899  1.00  0.00     0.198 A 
ATOM     97  C   UNL A   1      46.222  35.450  30.962  1.00  0.00     0.198 A 
ATOM     98  F   UNL A   1      45.853  33.189  31.496  1.00  0.00    -0.203 F 
ATOM     99  F   UNL A   1      45.273  37.374  28.042  1.00  0.00    -0.200 F 
ATOM    100  C   UNL A   1      46.079  36.518  30.090  1.00  0.00     0.200 A 
ATOM    101  F   UNL A   1      46.876  35.615  32.120  1.00  0.00    -0.200 F 
ATOM    102  F   UNL A   1      46.611  37.710  30.395  1.00  0.00    -0.200 F 
ENDBRANCH  69  92
ENDBRANCH  43  44
ENDBRANCH  36  38
ENDBRANCH  35  36
ENDBRANCH  34  35
ENDBRANCH  33  34
ENDBRANCH  32  33
ENDBRANCH   1  32
TORSDOF 18
ENDMDL
MODEL 3
REMARK VINA RESULT:     -11.5      4.335      6.918
REMARK SMILES CS(=O)(=O)c1ccc(C2=NN(c3ccc(C(=O)OCCOCCOC(=O)c4ccc(-c5c6nc(c(-c7c(F)c(F)c(F)c(F)c7F)c7ccc([nH]7)c(-c7c(F)c(F)c(F)c(F)c7F)c7nc(c(-c8c(F)c(F)c(F)c(F)c8F)c8ccc5[nH]8)C=C7)C=C6)cc4)cc3)[C@H](c3cccs3)C2)cc1
REMARK SMILES IDX 20 1 19 2 18 3 16 4 17 5 15 6 12 7 13 8 91 9 14 10 90 11
REMARK SMILES IDX 11 12 9 13 10 14 98 15 92 16 8 17 5 18 6 19 100 20 7 21
REMARK SMILES IDX 99 22 2 23 1 24 3 25 4 26 93 27 94 28 97 29 95 30 96 31
REMARK SMILES IDX 21 32 22 33 23 34 24 35 25 36 26 37 27 38 28 39 89 40 29 41
REMARK SMILES IDX 88 42 30 43 31 44 32 45 82 46 33 47 87 48 81 49 83 50 34 51
REMARK SMILES IDX 86 52 80 53 79 54 35 56 67 57 47 58 66 59 48 60 51 61 65 62
REMARK SMILES IDX 84 63 49 64 50 65 64 67 85 68 52 69 36 70 37 71 45 72 38 73
REMARK SMILES IDX 39 74 43 75 46 76 40 77 41 78 44 79 42 80 68 81 69 82 77 83
REMARK SMILES IDX 70 84 71 85 75 86 78 87 72 88 73 89 76 90 74 91 53 92 54 93
REMARK SMILES IDX 62 94 55 95 56 96 60 97 63 98 57 99 58 100 61 101 59 102
REMARK H PARENT 83 55 51 66
REMARK Flexibility Score: inf
ROOT
ATOM      1  C   UNL A   1      37.830  32.350  38.191  1.00  0.00     0.202 C 
ENDROOT
BRANCH   1   2
ATOM      2  C   UNL A   1      38.487  32.072  36.837  1.00  0.00     0.261 C 
BRANCH   2   3
ATOM      3  O   UNL A   1      37.504  31.692  35.860  1.00  0.00    -0.460 OA
BRANCH   3   4
ATOM      4  C   UNL A   1      37.325  32.577  34.850  1.00  0.00     0.338 C 
ATOM      5  O   UNL A   1      37.165  33.784  34.959  1.00  0.00    -0.246 OA
BRANCH   4   6
ATOM      6  C   UNL A   1      37.463  31.901  33.538  1.00  0.00     0.060 A 
ATOM      7  C   UNL A   1      37.580  30.466  31.126  1.00  0.00     0.060 A 
ATOM      8  C   UNL A   1      36.349  30.885  31.639  1.00  0.00     0.029 A 
ATOM      9  C   UNL A   1      38.754  30.860  31.786  1.00  0.00     0.029 A 
ATOM     10  C   UNL A   1      36.288  31.585  32.844  1.00  0.00     0.018 A 
ATOM     11  C   UNL A   1      38.704  31.575  32.985  1.00  0.00     0.018 A 
BRANCH   7  12
ATOM     12  N   UNL A   1      37.652  29.554  30.067  1.00  0.00    -0.257 N 
ATOM     13  C   UNL A   1      38.851  28.190  28.950  1.00  0.00     0.071 C 
ATOM     14  N   UNL A   1      38.452  28.457  30.156  1.00  0.00    -0.176 NA
ATOM     15  C   UNL A   1      38.491  29.196  27.895  1.00  0.00     0.091 C 
ATOM     16  C   UNL A   1      37.581  30.121  28.706  1.00  0.00     0.154 C 
BRANCH  13  17
ATOM     17  C   UNL A   1      39.600  26.970  28.607  1.00  0.00    -0.002 A 
ATOM     18  C   UNL A   1      41.063  24.665  28.089  1.00  0.00     0.067 A 
ATOM     19  C   UNL A   1      41.681  25.742  28.731  1.00  0.00     0.021 A 
ATOM     20  C   UNL A   1      39.717  24.729  27.710  1.00  0.00     0.021 A 
ATOM     21  C   UNL A   1      40.949  26.904  28.974  1.00  0.00     0.011 A 
ATOM     22  C   UNL A   1      38.980  25.887  27.977  1.00  0.00     0.011 A 
BRANCH  18  23
ATOM     23  S   UNL A   1      42.000  23.177  27.813  1.00  0.00     0.175 S 
ATOM     24  C   UNL A   1      42.526  23.317  26.125  1.00  0.00     0.163 C 
ATOM     25  O   UNL A   1      41.080  22.058  27.899  1.00  0.00    -0.224 OA
ATOM     26  O   UNL A   1      43.168  23.249  28.666  1.00  0.00    -0.224 OA
ENDBRANCH  18  23
ENDBRANCH  13  17
BRANCH  16  27
ATOM     27  C   UNL A   1      36.171  30.315  28.187  1.00  0.00     0.030 A 
ATOM     28  C   UNL A   1      35.360  29.332  27.640  1.00  0.00     0.017 A 
ATOM     29  S   UNL A   1      35.409  31.849  28.102  1.00  0.00    -0.147 S 
ATOM     30  C   UNL A   1      34.129  29.844  27.143  1.00  0.00     0.012 A 
ATOM     31  C   UNL A   1      34.015  31.197  27.358  1.00  0.00     0.065 A 
ENDBRANCH  16  27
ENDBRANCH   7  12
ENDBRANCH   4   6
ENDBRANCH   3   4
ENDBRANCH   2   3
ENDBRANCH   1   2
BRANCH   1  32
ATOM     32  O   UNL A   1      38.049  33.650  38.735  1.00  0.00    -0.374 OA
BRANCH  32  33
ATOM     33  C   UNL A   1      38.810  33.730  39.943  1.00  0.00     0.202 C 
BRANCH  33  34
ATOM     34  C   UNL A   1      39.335  35.120  40.318  1.00  0.00     0.261 C 
BRANCH  34  35
ATOM     35  O   UNL A   1      40.500  35.476  39.553  1.00  0.00    -0.460 OA
BRANCH  35  36
ATOM     36  C   UNL A   1      40.261  36.272  38.486  1.00  0.00     0.338 C 
ATOM     37  O   UNL A   1      39.742  37.379  38.485  1.00  0.00    -0.246 OA
BRANCH  36  38
ATOM     38  C   UNL A   1      40.877  35.694  37.278  1.00  0.00     0.060 A 
ATOM     39  C   UNL A   1      40.028  35.362  36.215  1.00  0.00     0.016 A 
ATOM     40  C   UNL A   1      42.245  35.416  37.206  1.00  0.00     0.016 A 
ATOM     41  C   UNL A   1      40.532  34.702  35.097  1.00  0.00     0.010 A 
ATOM     42  C   UNL A   1      42.748  34.746  36.085  1.00  0.00     0.010 A 
ATOM     43  C   UNL A   1      41.889  34.355  35.043  1.00  0.00    -0.014 A 
BRANCH  43  44
ATOM     44  C   UNL A   1      42.372  33.463  33.961  1.00  0.00     0.031 A 
ATOM     45  C   UNL A   1      42.692  34.053  32.616  1.00  0.00     0.074 A 
ATOM     46  C   UNL A   1      42.550  32.148  34.182  1.00  0.00     0.049 A 
ATOM     47  N   UNL A   1      43.098  33.460  31.522  1.00  0.00    -0.248 NA
ATOM     48  C   UNL A   1      42.533  35.510  32.487  1.00  0.00     0.031 C 
ATOM     49  C   UNL A   1      42.311  31.467  35.451  1.00  0.00     0.029 A 
ATOM     50  N   UNL A   1      42.970  31.152  33.336  1.00  0.00    -0.354 N 
ATOM     51  C   UNL A   1      43.238  34.467  30.576  1.00  0.00     0.074 A 
ATOM     52  C   UNL A   1      42.845  35.705  31.214  1.00  0.00     0.031 C 
ATOM     53  C   UNL A   1      42.579  30.158  35.299  1.00  0.00     0.029 A 
ATOM     54  C   UNL A   1      42.978  29.908  33.915  1.00  0.00     0.049 A 
ATOM     55  H   UNL A   1      43.241  31.316  32.404  1.00  0.00     0.167 HD
ATOM     56  C   UNL A   1      43.664  34.369  29.295  1.00  0.00     0.037 A 
ATOM     57  C   UNL A   1      43.255  28.703  33.380  1.00  0.00     0.037 A 
ATOM     58  C   UNL A   1      44.058  33.137  28.663  1.00  0.00     0.049 A 
ATOM     59  C   UNL A   1      43.661  28.612  31.932  1.00  0.00     0.074 A 
ATOM     60  C   UNL A   1      44.526  32.938  27.376  1.00  0.00     0.029 A 
ATOM     61  N   UNL A   1      44.022  31.892  29.272  1.00  0.00    -0.354 N 
ATOM     62  N   UNL A   1      43.817  29.572  31.052  1.00  0.00    -0.248 NA
ATOM     63  C   UNL A   1      43.931  27.267  31.402  1.00  0.00     0.031 C 
ATOM     64  C   UNL A   1      44.726  31.566  27.189  1.00  0.00     0.029 A 
ATOM     65  C   UNL A   1      44.434  30.916  28.378  1.00  0.00     0.049 A 
ATOM     66  H   UNL A   1      43.745  31.725  30.202  1.00  0.00     0.167 HD
ATOM     67  C   UNL A   1      44.231  28.954  29.879  1.00  0.00     0.074 A 
ATOM     68  C   UNL A   1      44.313  27.536  30.162  1.00  0.00     0.031 C 
ATOM     69  C   UNL A   1      44.518  29.510  28.676  1.00  0.00     0.037 A 
BRANCH  56  70
ATOM     70  C   UNL A   1      43.709  35.628  28.480  1.00  0.00     0.064 A 
ATOM     71  C   UNL A   1      42.563  36.145  27.859  1.00  0.00     0.173 A 
ATOM     72  C   UNL A   1      44.907  36.347  28.351  1.00  0.00     0.173 A 
ATOM     73  F   UNL A   1      41.396  35.489  27.941  1.00  0.00    -0.203 F 
ATOM     74  C   UNL A   1      42.619  37.325  27.120  1.00  0.00     0.198 A 
ATOM     75  C   UNL A   1      44.954  37.539  27.635  1.00  0.00     0.198 A 
ATOM     76  F   UNL A   1      46.031  35.897  28.929  1.00  0.00    -0.203 F 
ATOM     77  F   UNL A   1      41.522  37.778  26.500  1.00  0.00    -0.200 F 
ATOM     78  C   UNL A   1      43.813  38.024  27.014  1.00  0.00     0.200 A 
ATOM     79  F   UNL A   1      46.105  38.220  27.544  1.00  0.00    -0.200 F 
ATOM     80  F   UNL A   1      43.864  39.163  26.309  1.00  0.00    -0.200 F 
ENDBRANCH  56  70
BRANCH  57  81
ATOM     81  C   UNL A   1      43.146  27.477  34.213  1.00  0.00     0.064 A 
ATOM     82  C   UNL A   1      44.287  26.858  34.742  1.00  0.00     0.173 A 
ATOM     83  C   UNL A   1      41.901  26.888  34.478  1.00  0.00     0.173 A 
ATOM     84  F   UNL A   1      45.502  27.368  34.494  1.00  0.00    -0.203 F 
ATOM     85  C   UNL A   1      44.188  25.684  35.489  1.00  0.00     0.198 A 
ATOM     86  C   UNL A   1      41.801  25.732  35.249  1.00  0.00     0.198 A 
ATOM     87  F   UNL A   1      40.780  27.440  33.994  1.00  0.00    -0.203 F 
ATOM     88  F   UNL A   1      45.297  25.086  35.941  1.00  0.00    -0.200 F 
ATOM     89  C   UNL A   1      42.945  25.125  35.745  1.00  0.00     0.200 A 
ATOM     90  F   UNL A   1      40.597  25.201  35.502  1.00  0.00    -0.200 F 
ATOM     91  F   UNL A   1      42.849  23.999  36.464  1.00  0.00    -0.200 F 
ENDBRANCH  57  81
BRANCH  69  92
ATOM     92  C   UNL A   1      44.980  28.590  27.583  1.00  0.00     0.064 A 
ATOM     93  C   UNL A   1      46.333  28.253  27.427  1.00  0.00     0.173 A 
ATOM     94  C   UNL A   1      44.053  28.007  26.707  1.00  0.00     0.173 A 
ATOM     95  F   UNL A   1      47.261  28.795  28.230  1.00  0.00    -0.203 F 
ATOM     96  C   UNL A   1      46.742  27.383  26.420  1.00  0.00     0.198 A 
ATOM     97  C   UNL A   1      44.462  27.115  25.719  1.00  0.00     0.198 A 
ATOM     98  F   UNL A   1      42.746  28.291  26.817  1.00  0.00    -0.203 F 
ATOM     99  F   UNL A   1      48.045  27.110  26.260  1.00  0.00    -0.200 F 
ATOM    100  C   UNL A   1      45.805  26.810  25.571  1.00  0.00     0.200 A 
ATOM    101  F   UNL A   1      43.555  26.552  24.910  1.00  0.00    -0.200 F 
ATOM    102  F   UNL A   1      46.201  25.968  24.606  1.00  0.00    -0.200 F 
ENDBRANCH  69  92
ENDBRANCH  43  44
ENDBRANCH  36  38
ENDBRANCH  35  36
ENDBRANCH  34  35
ENDBRANCH  33  34
ENDBRANCH  32  33
ENDBRANCH   1  32
TORSDOF 18
ENDMDL
