MODEL 1
REMARK VINA RESULT:     -11.3      0.000      0.000
REMARK SMILES O=C(OCCOCCOC(=O)c1cc(N2CCN(c3ccc(F)cc3)CC2)ccc1NC(=O)C1CCCC1)c1ccc(-c2c3nc(c(-c4c(F)c(F)c(F)c(F)c4F)c4ccc([nH]4)c(-c4c(F)c(F)c(F)c(F)c4F)c4nc(c(-c5c(F)c(F)c(F)c(F)c5F)c5ccc2[nH]5)C=C4)C=C3)cc1
REMARK SMILES IDX 6 1 5 2 4 3 3 4 2 5 1 6 39 7 40 8 101 9 41 10 100 11 42 12
REMARK SMILES IDX 43 13 44 14 94 15 45 16 99 17 93 18 95 19 46 20 98 21 92 22
REMARK SMILES IDX 91 23 47 25 79 26 59 27 78 28 60 29 63 30 77 31 96 32 61 33
REMARK SMILES IDX 62 34 76 36 97 37 64 38 48 39 49 40 57 41 50 42 51 43 55 44
REMARK SMILES IDX 58 45 52 46 53 47 56 48 54 49 80 50 81 51 89 52 82 53 83 54
REMARK SMILES IDX 87 55 90 56 84 57 85 58 88 59 86 60 65 61 66 62 74 63 67 64
REMARK SMILES IDX 68 65 72 66 75 67 69 68 70 69 73 70 71 71 7 72 8 73 9 74
REMARK SMILES IDX 10 75 11 76 12 77 13 78 30 79 14 80 29 81 28 82 31 83 32 84
REMARK SMILES IDX 33 86 34 87 35 88 38 89 36 90 37 91 15 92 16 93 27 94 17 95
REMARK SMILES IDX 26 96 18 97 19 98 20 99 25 100 21 101 24 102 22 103 23 104
REMARK H PARENT 95 24 63 35 31 85
REMARK Flexibility Score: inf
ROOT
ATOM      1  O   UNL A   1      36.778  22.219  25.819  1.00  0.00    -0.374 OA
ENDROOT
BRANCH   1   2
ATOM      2  C   UNL A   1      36.945  21.212  24.819  1.00  0.00     0.202 C 
BRANCH   2   3
ATOM      3  C   UNL A   1      38.108  20.253  25.077  1.00  0.00     0.261 C 
BRANCH   3   4
ATOM      4  O   UNL A   1      38.708  20.536  26.349  1.00  0.00    -0.460 OA
BRANCH   4   5
ATOM      5  C   UNL A   1      40.011  20.758  26.627  1.00  0.00     0.338 C 
ATOM      6  O   UNL A   1      40.773  19.794  26.675  1.00  0.00    -0.246 OA
BRANCH   5   7
ATOM      7  C   UNL A   1      40.594  22.111  26.870  1.00  0.00     0.060 A 
ATOM      8  C   UNL A   1      40.263  23.274  26.167  1.00  0.00     0.016 A 
ATOM      9  C   UNL A   1      41.460  22.230  27.968  1.00  0.00     0.016 A 
ATOM     10  C   UNL A   1      40.761  24.513  26.525  1.00  0.00     0.010 A 
ATOM     11  C   UNL A   1      41.971  23.473  28.341  1.00  0.00     0.010 A 
ATOM     12  C   UNL A   1      41.618  24.612  27.610  1.00  0.00    -0.014 A 
BRANCH  12  13
ATOM     13  C   UNL A   1      42.259  25.905  27.855  1.00  0.00     0.031 A 
ATOM     14  C   UNL A   1      41.517  26.888  28.693  1.00  0.00     0.074 A 
ATOM     15  C   UNL A   1      43.505  26.124  27.409  1.00  0.00     0.049 A 
ATOM     16  N   UNL A   1      41.783  28.139  28.934  1.00  0.00    -0.248 NA
ATOM     17  C   UNL A   1      40.303  26.383  29.356  1.00  0.00     0.031 C 
ATOM     18  C   UNL A   1      44.339  25.138  26.721  1.00  0.00     0.029 A 
ATOM     19  N   UNL A   1      44.283  27.244  27.471  1.00  0.00    -0.354 N 
ATOM     20  C   UNL A   1      40.743  28.587  29.735  1.00  0.00     0.074 A 
ATOM     21  C   UNL A   1      39.848  27.474  29.950  1.00  0.00     0.031 C 
ATOM     22  C   UNL A   1      45.510  25.709  26.398  1.00  0.00     0.029 A 
ATOM     23  C   UNL A   1      45.469  27.114  26.793  1.00  0.00     0.049 A 
ATOM     24  H   UNL A   1      44.022  28.063  27.952  1.00  0.00     0.167 HD
ATOM     25  C   UNL A   1      40.558  29.836  30.219  1.00  0.00     0.037 A 
ATOM     26  C   UNL A   1      46.376  28.055  26.476  1.00  0.00     0.037 A 
ATOM     27  C   UNL A   1      41.480  30.907  29.957  1.00  0.00     0.049 A 
ATOM     28  C   UNL A   1      46.108  29.462  26.938  1.00  0.00     0.074 A 
ATOM     29  C   UNL A   1      41.402  32.232  30.330  1.00  0.00     0.029 A 
ATOM     30  N   UNL A   1      42.660  30.757  29.232  1.00  0.00    -0.354 N 
ATOM     31  N   UNL A   1      45.091  29.920  27.634  1.00  0.00    -0.248 NA
ATOM     32  C   UNL A   1      47.092  30.483  26.567  1.00  0.00     0.031 C 
ATOM     33  C   UNL A   1      42.504  32.897  29.780  1.00  0.00     0.029 A 
ATOM     34  C   UNL A   1      43.307  31.972  29.125  1.00  0.00     0.049 A 
ATOM     35  H   UNL A   1      42.984  29.909  28.851  1.00  0.00     0.167 HD
ATOM     36  C   UNL A   1      45.323  31.275  27.809  1.00  0.00     0.074 A 
ATOM     37  C   UNL A   1      46.579  31.564  27.143  1.00  0.00     0.031 C 
ATOM     38  C   UNL A   1      44.572  32.197  28.464  1.00  0.00     0.037 A 
BRANCH  25  39
ATOM     39  C   UNL A   1      39.277  30.094  30.955  1.00  0.00     0.064 A 
ATOM     40  C   UNL A   1      38.092  30.460  30.297  1.00  0.00     0.173 A 
ATOM     41  C   UNL A   1      39.261  30.065  32.357  1.00  0.00     0.173 A 
ATOM     42  F   UNL A   1      38.058  30.535  28.958  1.00  0.00    -0.203 F 
ATOM     43  C   UNL A   1      36.960  30.841  31.016  1.00  0.00     0.198 A 
ATOM     44  C   UNL A   1      38.118  30.411  33.073  1.00  0.00     0.198 A 
ATOM     45  F   UNL A   1      40.366  29.731  33.041  1.00  0.00    -0.203 F 
ATOM     46  F   UNL A   1      35.872  31.278  30.367  1.00  0.00    -0.200 F 
ATOM     47  C   UNL A   1      36.974  30.816  32.402  1.00  0.00     0.200 A 
ATOM     48  F   UNL A   1      38.133  30.382  34.413  1.00  0.00    -0.200 F 
ATOM     49  F   UNL A   1      35.893  31.205  33.092  1.00  0.00    -0.200 F 
ENDBRANCH  25  39
BRANCH  26  50
ATOM     50  C   UNL A   1      47.553  27.691  25.646  1.00  0.00     0.064 A 
ATOM     51  C   UNL A   1      47.494  27.710  24.247  1.00  0.00     0.173 A 
ATOM     52  C   UNL A   1      48.786  27.368  26.239  1.00  0.00     0.173 A 
ATOM     53  F   UNL A   1      46.338  27.996  23.630  1.00  0.00    -0.203 F 
ATOM     54  C   UNL A   1      48.619  27.420  23.474  1.00  0.00     0.198 A 
ATOM     55  C   UNL A   1      49.915  27.108  25.467  1.00  0.00     0.198 A 
ATOM     56  F   UNL A   1      48.901  27.339  27.575  1.00  0.00    -0.203 F 
ATOM     57  F   UNL A   1      48.529  27.422  22.137  1.00  0.00    -0.200 F 
ATOM     58  C   UNL A   1      49.831  27.130  24.084  1.00  0.00     0.200 A 
ATOM     59  F   UNL A   1      51.088  26.847  26.063  1.00  0.00    -0.200 F 
ATOM     60  F   UNL A   1      50.915  26.872  23.340  1.00  0.00    -0.200 F 
ENDBRANCH  26  50
BRANCH  38  61
ATOM     61  C   UNL A   1      45.118  33.590  28.543  1.00  0.00     0.064 A 
ATOM     62  C   UNL A   1      46.043  33.966  29.525  1.00  0.00     0.173 A 
ATOM     63  C   UNL A   1      44.788  34.523  27.547  1.00  0.00     0.173 A 
ATOM     64  F   UNL A   1      46.375  33.111  30.504  1.00  0.00    -0.203 F 
ATOM     65  C   UNL A   1      46.620  35.231  29.507  1.00  0.00     0.198 A 
ATOM     66  C   UNL A   1      45.392  35.774  27.515  1.00  0.00     0.198 A 
ATOM     67  F   UNL A   1      43.913  34.201  26.582  1.00  0.00    -0.203 F 
ATOM     68  F   UNL A   1      47.487  35.583  30.467  1.00  0.00    -0.200 F 
ATOM     69  C   UNL A   1      46.306  36.128  28.496  1.00  0.00     0.200 A 
ATOM     70  F   UNL A   1      45.101  36.630  26.525  1.00  0.00    -0.200 F 
ATOM     71  F   UNL A   1      46.887  37.334  28.464  1.00  0.00    -0.200 F 
ENDBRANCH  38  61
ENDBRANCH  12  13
ENDBRANCH   5   7
ENDBRANCH   4   5
ENDBRANCH   3   4
ENDBRANCH   2   3
ENDBRANCH   1   2
BRANCH   1  72
ATOM     72  C   UNL A   1      36.384  23.519  25.365  1.00  0.00     0.202 C 
BRANCH  72  73
ATOM     73  C   UNL A   1      35.866  23.399  23.931  1.00  0.00     0.261 C 
BRANCH  73  74
ATOM     74  O   UNL A   1      35.243  24.646  23.602  1.00  0.00    -0.460 OA
BRANCH  74  75
ATOM     75  C   UNL A   1      34.038  24.558  22.973  1.00  0.00     0.340 C 
ATOM     76  O   UNL A   1      33.779  23.859  22.016  1.00  0.00    -0.246 OA
BRANCH  75  77
ATOM     77  C   UNL A   1      33.021  25.296  23.781  1.00  0.00     0.085 A 
ATOM     78  C   UNL A   1      33.331  26.622  24.120  1.00  0.00     0.043 A 
ATOM     79  C   UNL A   1      31.786  24.755  24.177  1.00  0.00     0.055 A 
ATOM     80  C   UNL A   1      32.412  27.445  24.782  1.00  0.00     0.038 A 
ATOM     81  C   UNL A   1      30.857  25.573  24.828  1.00  0.00     0.029 A 
ATOM     82  C   UNL A   1      31.168  26.907  25.118  1.00  0.00     0.028 A 
BRANCH  79  83
ATOM     83  N   UNL A   1      31.485  23.413  23.897  1.00  0.00    -0.325 N 
ATOM     84  C   UNL A   1      31.931  22.276  24.502  1.00  0.00     0.227 C 
ATOM     85  H   UNL A   1      30.858  23.272  23.151  1.00  0.00     0.169 HD
ATOM     86  O   UNL A   1      31.582  21.195  24.023  1.00  0.00    -0.274 OA
BRANCH  84  87
ATOM     87  C   UNL A   1      32.849  22.365  25.707  1.00  0.00     0.079 C 
ATOM     88  C   UNL A   1      32.091  22.769  26.973  1.00  0.00     0.013 C 
ATOM     89  C   UNL A   1      33.460  21.039  26.165  1.00  0.00     0.013 C 
ATOM     90  C   UNL A   1      33.074  22.460  28.097  1.00  0.00     0.001 C 
ATOM     91  C   UNL A   1      33.978  21.352  27.562  1.00  0.00     0.001 C 
ENDBRANCH  84  87
ENDBRANCH  79  83
BRANCH  80  92
ATOM     92  N   UNL A   1      32.762  28.735  25.096  1.00  0.00    -0.368 N 
ATOM     93  C   UNL A   1      31.769  29.768  25.428  1.00  0.00     0.138 C 
ATOM     94  C   UNL A   1      34.159  29.025  25.457  1.00  0.00     0.138 C 
ATOM     95  C   UNL A   1      31.894  30.257  26.892  1.00  0.00     0.138 C 
ATOM     96  C   UNL A   1      34.260  29.477  26.931  1.00  0.00     0.138 C 
ATOM     97  N   UNL A   1      33.296  30.547  27.230  1.00  0.00    -0.368 N 
BRANCH  97  98
ATOM     98  C   UNL A   1      33.696  31.822  27.564  1.00  0.00     0.037 A 
ATOM     99  C   UNL A   1      35.059  32.126  27.706  1.00  0.00     0.029 A 
ATOM    100  C   UNL A   1      32.773  32.859  27.763  1.00  0.00     0.029 A 
ATOM    101  C   UNL A   1      35.489  33.420  28.014  1.00  0.00     0.041 A 
ATOM    102  C   UNL A   1      33.194  34.153  28.091  1.00  0.00     0.041 A 
ATOM    103  C   UNL A   1      34.549  34.422  28.207  1.00  0.00     0.123 A 
ATOM    104  F   UNL A   1      34.955  35.663  28.507  1.00  0.00    -0.207 F 
ENDBRANCH  97  98
ENDBRANCH  80  92
ENDBRANCH  75  77
ENDBRANCH  74  75
ENDBRANCH  73  74
ENDBRANCH  72  73
ENDBRANCH   1  72
TORSDOF 18
ENDMDL
MODEL 2
REMARK VINA RESULT:     -11.3      7.269     15.297
REMARK SMILES O=C(OCCOCCOC(=O)c1cc(N2CCN(c3ccc(F)cc3)CC2)ccc1NC(=O)C1CCCC1)c1ccc(-c2c3nc(c(-c4c(F)c(F)c(F)c(F)c4F)c4ccc([nH]4)c(-c4c(F)c(F)c(F)c(F)c4F)c4nc(c(-c5c(F)c(F)c(F)c(F)c5F)c5ccc2[nH]5)C=C4)C=C3)cc1
REMARK SMILES IDX 6 1 5 2 4 3 3 4 2 5 1 6 39 7 40 8 101 9 41 10 100 11 42 12
REMARK SMILES IDX 43 13 44 14 94 15 45 16 99 17 93 18 95 19 46 20 98 21 92 22
REMARK SMILES IDX 91 23 47 25 79 26 59 27 78 28 60 29 63 30 77 31 96 32 61 33
REMARK SMILES IDX 62 34 76 36 97 37 64 38 48 39 49 40 57 41 50 42 51 43 55 44
REMARK SMILES IDX 58 45 52 46 53 47 56 48 54 49 80 50 81 51 89 52 82 53 83 54
REMARK SMILES IDX 87 55 90 56 84 57 85 58 88 59 86 60 65 61 66 62 74 63 67 64
REMARK SMILES IDX 68 65 72 66 75 67 69 68 70 69 73 70 71 71 7 72 8 73 9 74
REMARK SMILES IDX 10 75 11 76 12 77 13 78 30 79 14 80 29 81 28 82 31 83 32 84
REMARK SMILES IDX 33 86 34 87 35 88 38 89 36 90 37 91 15 92 16 93 27 94 17 95
REMARK SMILES IDX 26 96 18 97 19 98 20 99 25 100 21 101 24 102 22 103 23 104
REMARK H PARENT 95 24 63 35 31 85
REMARK Flexibility Score: inf
ROOT
ATOM      1  O   UNL A   1      44.623  38.480  29.065  1.00  0.00    -0.374 OA
ENDROOT
BRANCH   1   2
ATOM      2  C   UNL A   1      45.639  37.834  29.833  1.00  0.00     0.202 C 
BRANCH   2   3
ATOM      3  C   UNL A   1      47.067  38.138  29.377  1.00  0.00     0.261 C 
BRANCH   3   4
ATOM      4  O   UNL A   1      47.480  37.186  28.386  1.00  0.00    -0.460 OA
BRANCH   4   5
ATOM      5  C   UNL A   1      46.722  36.569  27.454  1.00  0.00     0.338 C 
ATOM      6  O   UNL A   1      46.449  37.178  26.421  1.00  0.00    -0.246 OA
BRANCH   5   7
ATOM      7  C   UNL A   1      46.197  35.178  27.593  1.00  0.00     0.060 A 
ATOM      8  C   UNL A   1      46.526  34.286  28.619  1.00  0.00     0.016 A 
ATOM      9  C   UNL A   1      45.210  34.788  26.673  1.00  0.00     0.016 A 
ATOM     10  C   UNL A   1      45.911  33.054  28.744  1.00  0.00     0.010 A 
ATOM     11  C   UNL A   1      44.583  33.548  26.786  1.00  0.00     0.010 A 
ATOM     12  C   UNL A   1      44.942  32.683  27.825  1.00  0.00    -0.014 A 
BRANCH  12  13
ATOM     13  C   UNL A   1      44.438  31.310  27.884  1.00  0.00     0.031 A 
ATOM     14  C   UNL A   1      45.240  30.257  27.202  1.00  0.00     0.074 A 
ATOM     15  C   UNL A   1      43.347  31.033  28.615  1.00  0.00     0.049 A 
ATOM     16  N   UNL A   1      44.949  29.009  26.974  1.00  0.00    -0.248 NA
ATOM     17  C   UNL A   1      46.564  30.675  26.708  1.00  0.00     0.031 C 
ATOM     18  C   UNL A   1      42.614  31.999  29.433  1.00  0.00     0.029 A 
ATOM     19  N   UNL A   1      42.670  29.860  28.785  1.00  0.00    -0.354 N 
ATOM     20  C   UNL A   1      46.030  28.503  26.268  1.00  0.00     0.074 A 
ATOM     21  C   UNL A   1      46.987  29.573  26.111  1.00  0.00     0.031 C 
ATOM     22  C   UNL A   1      41.567  31.381  30.002  1.00  0.00     0.029 A 
ATOM     23  C   UNL A   1      41.523  30.003  29.523  1.00  0.00     0.049 A 
ATOM     24  H   UNL A   1      42.973  28.998  28.416  1.00  0.00     0.167 HD
ATOM     25  C   UNL A   1      46.176  27.252  25.776  1.00  0.00     0.037 A 
ATOM     26  C   UNL A   1      40.523  29.125  29.722  1.00  0.00     0.037 A 
ATOM     27  C   UNL A   1      45.177  26.234  25.952  1.00  0.00     0.049 A 
ATOM     28  C   UNL A   1      40.655  27.767  29.087  1.00  0.00     0.074 A 
ATOM     29  C   UNL A   1      45.157  24.942  25.470  1.00  0.00     0.029 A 
ATOM     30  N   UNL A   1      44.001  26.417  26.675  1.00  0.00    -0.354 N 
ATOM     31  N   UNL A   1      41.636  27.294  28.351  1.00  0.00    -0.248 NA
ATOM     32  C   UNL A   1      39.550  26.826  29.290  1.00  0.00     0.031 C 
ATOM     33  C   UNL A   1      43.941  24.363  25.849  1.00  0.00     0.029 A 
ATOM     34  C   UNL A   1      43.235  25.268  26.631  1.00  0.00     0.049 A 
ATOM     35  H   UNL A   1      43.751  27.243  27.147  1.00  0.00     0.167 HD
ATOM     36  C   UNL A   1      41.283  25.995  28.025  1.00  0.00     0.074 A 
ATOM     37  C   UNL A   1      39.993  25.755  28.644  1.00  0.00     0.031 C 
ATOM     38  C   UNL A   1      41.961  25.079  27.287  1.00  0.00     0.037 A 
BRANCH  25  39
ATOM     39  C   UNL A   1      47.387  26.996  24.929  1.00  0.00     0.064 A 
ATOM     40  C   UNL A   1      48.513  26.312  25.413  1.00  0.00     0.173 A 
ATOM     41  C   UNL A   1      47.456  27.530  23.633  1.00  0.00     0.173 A 
ATOM     42  F   UNL A   1      48.514  25.808  26.657  1.00  0.00    -0.203 F 
ATOM     43  C   UNL A   1      49.680  26.222  24.655  1.00  0.00     0.198 A 
ATOM     44  C   UNL A   1      48.610  27.407  22.863  1.00  0.00     0.198 A 
ATOM     45  F   UNL A   1      46.414  28.201  23.120  1.00  0.00    -0.203 F 
ATOM     46  F   UNL A   1      50.772  25.647  25.176  1.00  0.00    -0.200 F 
ATOM     47  C   UNL A   1      49.727  26.769  23.382  1.00  0.00     0.200 A 
ATOM     48  F   UNL A   1      48.652  27.933  21.632  1.00  0.00    -0.200 F 
ATOM     49  F   UNL A   1      50.856  26.702  22.663  1.00  0.00    -0.200 F 
ENDBRANCH  25  39
BRANCH  26  50
ATOM     50  C   UNL A   1      39.322  29.540  30.492  1.00  0.00     0.064 A 
ATOM     51  C   UNL A   1      39.272  29.422  31.886  1.00  0.00     0.173 A 
ATOM     52  C   UNL A   1      38.213  30.116  29.848  1.00  0.00     0.173 A 
ATOM     53  F   UNL A   1      40.296  28.865  32.548  1.00  0.00    -0.203 F 
ATOM     54  C   UNL A   1      38.162  29.864  32.607  1.00  0.00     0.198 A 
ATOM     55  C   UNL A   1      37.119  30.584  30.571  1.00  0.00     0.198 A 
ATOM     56  F   UNL A   1      38.210  30.256  28.514  1.00  0.00    -0.203 F 
ATOM     57  F   UNL A   1      38.130  29.719  33.939  1.00  0.00    -0.200 F 
ATOM     58  C   UNL A   1      37.091  30.455  31.950  1.00  0.00     0.200 A 
ATOM     59  F   UNL A   1      36.096  31.170  29.932  1.00  0.00    -0.200 F 
ATOM     60  F   UNL A   1      36.035  30.896  32.646  1.00  0.00    -0.200 F 
ENDBRANCH  26  50
BRANCH  38  61
ATOM     61  C   UNL A   1      41.350  23.717  27.159  1.00  0.00     0.064 A 
ATOM     62  C   UNL A   1      40.211  23.489  26.378  1.00  0.00     0.173 A 
ATOM     63  C   UNL A   1      41.989  22.612  27.742  1.00  0.00     0.173 A 
ATOM     64  F   UNL A   1      39.560  24.519  25.815  1.00  0.00    -0.203 F 
ATOM     65  C   UNL A   1      39.731  22.198  26.184  1.00  0.00     0.198 A 
ATOM     66  C   UNL A   1      41.525  21.321  27.519  1.00  0.00     0.198 A 
ATOM     67  F   UNL A   1      43.089  22.785  28.492  1.00  0.00    -0.203 F 
ATOM     68  F   UNL A   1      38.626  21.999  25.451  1.00  0.00    -0.200 F 
ATOM     69  C   UNL A   1      40.396  21.116  26.742  1.00  0.00     0.200 A 
ATOM     70  F   UNL A   1      42.181  20.276  28.043  1.00  0.00    -0.200 F 
ATOM     71  F   UNL A   1      39.949  19.871  26.528  1.00  0.00    -0.200 F 
ENDBRANCH  38  61
ENDBRANCH  12  13
ENDBRANCH   5   7
ENDBRANCH   4   5
ENDBRANCH   3   4
ENDBRANCH   2   3
ENDBRANCH   1   2
BRANCH   1  72
ATOM     72  C   UNL A   1      43.462  37.704  28.750  1.00  0.00     0.202 C 
BRANCH  72  73
ATOM     73  C   UNL A   1      43.064  37.987  27.301  1.00  0.00     0.261 C 
BRANCH  73  74
ATOM     74  O   UNL A   1      43.691  39.219  26.924  1.00  0.00    -0.460 OA
BRANCH  74  75
ATOM     75  C   UNL A   1      42.882  40.315  26.916  1.00  0.00     0.340 C 
ATOM     76  O   UNL A   1      41.767  40.387  27.389  1.00  0.00    -0.246 OA
BRANCH  75  77
ATOM     77  C   UNL A   1      43.669  41.487  26.426  1.00  0.00     0.085 A 
ATOM     78  C   UNL A   1      43.235  42.078  25.228  1.00  0.00     0.043 A 
ATOM     79  C   UNL A   1      44.772  42.035  27.103  1.00  0.00     0.055 A 
ATOM     80  C   UNL A   1      43.827  43.243  24.728  1.00  0.00     0.038 A 
ATOM     81  C   UNL A   1      45.362  43.206  26.617  1.00  0.00     0.029 A 
ATOM     82  C   UNL A   1      44.885  43.806  25.445  1.00  0.00     0.028 A 
BRANCH  79  83
ATOM     83  N   UNL A   1      45.255  41.421  28.269  1.00  0.00    -0.325 N 
ATOM     84  C   UNL A   1      45.056  41.753  29.576  1.00  0.00     0.227 C 
ATOM     85  H   UNL A   1      45.824  40.631  28.120  1.00  0.00     0.169 HD
ATOM     86  O   UNL A   1      45.655  41.100  30.432  1.00  0.00    -0.274 OA
BRANCH  84  87
ATOM     87  C   UNL A   1      44.143  42.909  29.936  1.00  0.00     0.079 C 
ATOM     88  C   UNL A   1      43.272  42.592  31.154  1.00  0.00     0.013 C 
ATOM     89  C   UNL A   1      44.849  44.174  30.428  1.00  0.00     0.013 C 
ATOM     90  C   UNL A   1      42.714  43.949  31.564  1.00  0.00     0.001 C 
ATOM     91  C   UNL A   1      43.728  44.979  31.071  1.00  0.00     0.001 C 
ENDBRANCH  84  87
ENDBRANCH  79  83
BRANCH  80  92
ATOM     92  N   UNL A   1      43.369  43.783  23.551  1.00  0.00    -0.368 N 
ATOM     93  C   UNL A   1      44.241  44.523  22.626  1.00  0.00     0.138 C 
ATOM     94  C   UNL A   1      42.077  43.326  23.015  1.00  0.00     0.138 C 
ATOM     95  C   UNL A   1      44.406  43.800  21.266  1.00  0.00     0.138 C 
ATOM     96  C   UNL A   1      42.273  42.579  21.678  1.00  0.00     0.138 C 
ATOM     97  N   UNL A   1      43.103  43.357  20.745  1.00  0.00    -0.368 N 
BRANCH  97  98
ATOM     98  C   UNL A   1      42.605  43.859  19.563  1.00  0.00     0.037 A 
ATOM     99  C   UNL A   1      43.471  44.392  18.596  1.00  0.00     0.029 A 
ATOM    100  C   UNL A   1      41.232  43.848  19.274  1.00  0.00     0.029 A 
ATOM    101  C   UNL A   1      42.990  44.878  17.376  1.00  0.00     0.041 A 
ATOM    102  C   UNL A   1      40.741  44.350  18.064  1.00  0.00     0.041 A 
ATOM    103  C   UNL A   1      41.627  44.855  17.124  1.00  0.00     0.123 A 
ATOM    104  F   UNL A   1      41.160  45.324  15.959  1.00  0.00    -0.207 F 
ENDBRANCH  97  98
ENDBRANCH  80  92
ENDBRANCH  75  77
ENDBRANCH  74  75
ENDBRANCH  73  74
ENDBRANCH  72  73
ENDBRANCH   1  72
TORSDOF 18
ENDMDL
MODEL 3
REMARK VINA RESULT:     -11.1      3.652      9.287
REMARK SMILES O=C(OCCOCCOC(=O)c1cc(N2CCN(c3ccc(F)cc3)CC2)ccc1NC(=O)C1CCCC1)c1ccc(-c2c3nc(c(-c4c(F)c(F)c(F)c(F)c4F)c4ccc([nH]4)c(-c4c(F)c(F)c(F)c(F)c4F)c4nc(c(-c5c(F)c(F)c(F)c(F)c5F)c5ccc2[nH]5)C=C4)C=C3)cc1
REMARK SMILES IDX 6 1 5 2 4 3 3 4 2 5 1 6 39 7 40 8 101 9 41 10 100 11 42 12
REMARK SMILES IDX 43 13 44 14 94 15 45 16 99 17 93 18 95 19 46 20 98 21 92 22
REMARK SMILES IDX 91 23 47 25 79 26 59 27 78 28 60 29 63 30 77 31 96 32 61 33
REMARK SMILES IDX 62 34 76 36 97 37 64 38 48 39 49 40 57 41 50 42 51 43 55 44
REMARK SMILES IDX 58 45 52 46 53 47 56 48 54 49 80 50 81 51 89 52 82 53 83 54
REMARK SMILES IDX 87 55 90 56 84 57 85 58 88 59 86 60 65 61 66 62 74 63 67 64
REMARK SMILES IDX 68 65 72 66 75 67 69 68 70 69 73 70 71 71 7 72 8 73 9 74
REMARK SMILES IDX 10 75 11 76 12 77 13 78 30 79 14 80 29 81 28 82 31 83 32 84
REMARK SMILES IDX 33 86 34 87 35 88 38 89 36 90 37 91 15 92 16 93 27 94 17 95
REMARK SMILES IDX 26 96 18 97 19 98 20 99 25 100 21 101 24 102 22 103 23 104
REMARK H PARENT 95 24 63 35 31 85
REMARK Flexibility Score: inf
ROOT
ATOM      1  O   UNL A   1      34.292  33.668  28.358  1.00  0.00    -0.374 OA
ENDROOT
BRANCH   1   2
ATOM      2  C   UNL A   1      33.722  34.649  29.227  1.00  0.00     0.202 C 
BRANCH   2   3
ATOM      3  C   UNL A   1      33.981  34.404  30.714  1.00  0.00     0.261 C 
BRANCH   3   4
ATOM      4  O   UNL A   1      35.303  33.880  30.903  1.00  0.00    -0.460 OA
BRANCH   4   5
ATOM      5  C   UNL A   1      35.660  32.642  31.310  1.00  0.00     0.338 C 
ATOM      6  O   UNL A   1      34.900  32.026  32.054  1.00  0.00    -0.246 OA
BRANCH   5   7
ATOM      7  C   UNL A   1      36.926  31.963  30.902  1.00  0.00     0.060 A 
ATOM      8  C   UNL A   1      37.815  31.318  31.767  1.00  0.00     0.016 A 
ATOM      9  C   UNL A   1      37.173  31.879  29.522  1.00  0.00     0.016 A 
ATOM     10  C   UNL A   1      38.910  30.613  31.301  1.00  0.00     0.010 A 
ATOM     11  C   UNL A   1      38.273  31.172  29.037  1.00  0.00     0.010 A 
ATOM     12  C   UNL A   1      39.140  30.543  29.936  1.00  0.00    -0.014 A 
BRANCH  12  13
ATOM     13  C   UNL A   1      40.396  29.938  29.488  1.00  0.00     0.031 A 
ATOM     14  C   UNL A   1      41.610  30.801  29.490  1.00  0.00     0.074 A 
ATOM     15  C   UNL A   1      40.435  28.631  29.189  1.00  0.00     0.049 A 
ATOM     16  N   UNL A   1      42.796  30.567  29.008  1.00  0.00    -0.248 NA
ATOM     17  C   UNL A   1      41.463  32.119  30.133  1.00  0.00     0.031 C 
ATOM     18  C   UNL A   1      39.311  27.703  29.323  1.00  0.00     0.029 A 
ATOM     19  N   UNL A   1      41.457  27.861  28.713  1.00  0.00    -0.354 N 
ATOM     20  C   UNL A   1      43.523  31.724  29.243  1.00  0.00     0.074 A 
ATOM     21  C   UNL A   1      42.652  32.656  29.919  1.00  0.00     0.031 C 
ATOM     22  C   UNL A   1      39.702  26.486  28.910  1.00  0.00     0.029 A 
ATOM     23  C   UNL A   1      41.072  26.578  28.418  1.00  0.00     0.049 A 
ATOM     24  H   UNL A   1      42.377  28.192  28.593  1.00  0.00     0.167 HD
ATOM     25  C   UNL A   1      44.804  31.974  28.890  1.00  0.00     0.037 A 
ATOM     26  C   UNL A   1      41.746  25.618  27.759  1.00  0.00     0.037 A 
ATOM     27  C   UNL A   1      45.616  31.008  28.203  1.00  0.00     0.049 A 
ATOM     28  C   UNL A   1      43.136  25.944  27.286  1.00  0.00     0.074 A 
ATOM     29  C   UNL A   1      46.907  31.133  27.733  1.00  0.00     0.029 A 
ATOM     30  N   UNL A   1      45.188  29.722  27.880  1.00  0.00    -0.354 N 
ATOM     31  N   UNL A   1      43.815  27.061  27.433  1.00  0.00    -0.248 NA
ATOM     32  C   UNL A   1      43.852  24.899  26.549  1.00  0.00     0.031 C 
ATOM     33  C   UNL A   1      47.238  29.944  27.073  1.00  0.00     0.029 A 
ATOM     34  C   UNL A   1      46.182  29.051  27.194  1.00  0.00     0.049 A 
ATOM     35  H   UNL A   1      44.307  29.347  28.106  1.00  0.00     0.167 HD
ATOM     36  C   UNL A   1      45.045  26.847  26.833  1.00  0.00     0.074 A 
ATOM     37  C   UNL A   1      45.018  25.491  26.317  1.00  0.00     0.031 C 
ATOM     38  C   UNL A   1      46.105  27.688  26.720  1.00  0.00     0.037 A 
BRANCH  25  39
ATOM     39  C   UNL A   1      45.317  33.360  29.144  1.00  0.00     0.064 A 
ATOM     40  C   UNL A   1      46.044  33.694  30.298  1.00  0.00     0.173 A 
ATOM     41  C   UNL A   1      44.992  34.397  28.256  1.00  0.00     0.173 A 
ATOM     42  F   UNL A   1      46.355  32.748  31.197  1.00  0.00    -0.203 F 
ATOM     43  C   UNL A   1      46.375  35.018  30.580  1.00  0.00     0.198 A 
ATOM     44  C   UNL A   1      45.356  35.715  28.522  1.00  0.00     0.198 A 
ATOM     45  F   UNL A   1      44.291  34.140  27.142  1.00  0.00    -0.203 F 
ATOM     46  F   UNL A   1      46.985  35.323  31.733  1.00  0.00    -0.200 F 
ATOM     47  C   UNL A   1      46.031  36.027  29.693  1.00  0.00     0.200 A 
ATOM     48  F   UNL A   1      45.025  36.687  27.661  1.00  0.00    -0.200 F 
ATOM     49  F   UNL A   1      46.329  37.302  29.976  1.00  0.00    -0.200 F 
ENDBRANCH  25  39
BRANCH  26  50
ATOM     50  C   UNL A   1      41.083  24.320  27.473  1.00  0.00     0.064 A 
ATOM     51  C   UNL A   1      40.046  24.219  26.538  1.00  0.00     0.173 A 
ATOM     52  C   UNL A   1      41.514  23.134  28.095  1.00  0.00     0.173 A 
ATOM     53  F   UNL A   1      39.586  25.321  25.928  1.00  0.00    -0.203 F 
ATOM     54  C   UNL A   1      39.465  22.987  26.235  1.00  0.00     0.198 A 
ATOM     55  C   UNL A   1      40.953  21.902  27.770  1.00  0.00     0.198 A 
ATOM     56  F   UNL A   1      42.505  23.172  28.997  1.00  0.00    -0.203 F 
ATOM     57  F   UNL A   1      38.458  22.923  25.353  1.00  0.00    -0.200 F 
ATOM     58  C   UNL A   1      39.927  21.828  26.843  1.00  0.00     0.200 A 
ATOM     59  F   UNL A   1      41.416  20.784  28.348  1.00  0.00    -0.200 F 
ATOM     60  F   UNL A   1      39.381  20.644  26.536  1.00  0.00    -0.200 F 
ENDBRANCH  26  50
BRANCH  38  61
ATOM     61  C   UNL A   1      47.340  27.147  26.068  1.00  0.00     0.064 A 
ATOM     62  C   UNL A   1      47.586  27.315  24.700  1.00  0.00     0.173 A 
ATOM     63  C   UNL A   1      48.337  26.551  26.855  1.00  0.00     0.173 A 
ATOM     64  F   UNL A   1      46.654  27.866  23.908  1.00  0.00    -0.203 F 
ATOM     65  C   UNL A   1      48.792  26.904  24.141  1.00  0.00     0.198 A 
ATOM     66  C   UNL A   1      49.553  26.172  26.298  1.00  0.00     0.198 A 
ATOM     67  F   UNL A   1      48.146  26.378  28.172  1.00  0.00    -0.203 F 
ATOM     68  F   UNL A   1      49.003  27.052  22.825  1.00  0.00    -0.200 F 
ATOM     69  C   UNL A   1      49.778  26.347  24.942  1.00  0.00     0.200 A 
ATOM     70  F   UNL A   1      50.511  25.652  27.079  1.00  0.00    -0.200 F 
ATOM     71  F   UNL A   1      50.950  25.981  24.406  1.00  0.00    -0.200 F 
ENDBRANCH  38  61
ENDBRANCH  12  13
ENDBRANCH   5   7
ENDBRANCH   4   5
ENDBRANCH   3   4
ENDBRANCH   2   3
ENDBRANCH   1   2
BRANCH   1  72
ATOM     72  C   UNL A   1      33.466  32.549  28.020  1.00  0.00     0.202 C 
BRANCH  72  73
ATOM     73  C   UNL A   1      34.368  31.361  27.682  1.00  0.00     0.261 C 
BRANCH  73  74
ATOM     74  O   UNL A   1      33.517  30.303  27.223  1.00  0.00    -0.460 OA
BRANCH  74  75
ATOM     75  C   UNL A   1      34.153  29.183  26.779  1.00  0.00     0.340 C 
ATOM     76  O   UNL A   1      35.298  28.865  27.022  1.00  0.00    -0.246 OA
BRANCH  75  77
ATOM     77  C   UNL A   1      33.150  28.292  26.121  1.00  0.00     0.085 A 
ATOM     78  C   UNL A   1      33.492  26.935  26.012  1.00  0.00     0.043 A 
ATOM     79  C   UNL A   1      31.899  28.726  25.651  1.00  0.00     0.055 A 
ATOM     80  C   UNL A   1      32.591  25.989  25.511  1.00  0.00     0.038 A 
ATOM     81  C   UNL A   1      30.988  27.786  25.159  1.00  0.00     0.029 A 
ATOM     82  C   UNL A   1      31.332  26.429  25.101  1.00  0.00     0.028 A 
BRANCH  79  83
ATOM     83  N   UNL A   1      31.566  30.089  25.698  1.00  0.00    -0.325 N 
ATOM     84  C   UNL A   1      30.678  30.795  24.943  1.00  0.00     0.227 C 
ATOM     85  H   UNL A   1      32.046  30.613  26.379  1.00  0.00     0.169 HD
ATOM     86  O   UNL A   1      30.614  32.014  25.120  1.00  0.00    -0.274 OA
BRANCH  84  87
ATOM     87  C   UNL A   1      29.828  30.087  23.906  1.00  0.00     0.079 C 
ATOM     88  C   UNL A   1      28.541  30.856  23.600  1.00  0.00     0.013 C 
ATOM     89  C   UNL A   1      30.436  30.004  22.504  1.00  0.00     0.013 C 
ATOM     90  C   UNL A   1      28.021  30.201  22.326  1.00  0.00     0.001 C 
ATOM     91  C   UNL A   1      29.250  29.626  21.626  1.00  0.00     0.001 C 
ENDBRANCH  84  87
ENDBRANCH  79  83
BRANCH  80  92
ATOM     92  N   UNL A   1      32.972  24.672  25.421  1.00  0.00    -0.368 N 
ATOM     93  C   UNL A   1      32.407  23.622  26.282  1.00  0.00     0.138 C 
ATOM     94  C   UNL A   1      33.693  24.221  24.220  1.00  0.00     0.138 C 
ATOM     95  C   UNL A   1      31.590  22.579  25.480  1.00  0.00     0.138 C 
ATOM     96  C   UNL A   1      32.844  23.209  23.420  1.00  0.00     0.138 C 
ATOM     97  N   UNL A   1      32.331  22.137  24.287  1.00  0.00    -0.368 N 
BRANCH  97  98
ATOM     98  C   UNL A   1      32.725  20.825  24.143  1.00  0.00     0.037 A 
ATOM     99  C   UNL A   1      32.162  20.020  23.140  1.00  0.00     0.029 A 
ATOM    100  C   UNL A   1      33.699  20.249  24.972  1.00  0.00     0.029 A 
ATOM    101  C   UNL A   1      32.570  18.695  22.957  1.00  0.00     0.041 A 
ATOM    102  C   UNL A   1      34.098  18.919  24.807  1.00  0.00     0.041 A 
ATOM    103  C   UNL A   1      33.533  18.156  23.795  1.00  0.00     0.123 A 
ATOM    104  F   UNL A   1      33.924  16.886  23.627  1.00  0.00    -0.207 F 
ENDBRANCH  97  98
ENDBRANCH  80  92
ENDBRANCH  75  77
ENDBRANCH  74  75
ENDBRANCH  73  74
ENDBRANCH  72  73
ENDBRANCH   1  72
TORSDOF 18
ENDMDL
