MODEL 1
REMARK VINA RESULT:     -10.6      0.000      0.000
REMARK SMILES CN(C)c1ccc(C(=O)NCCCC(=O)OCCOCCOC(=O)c2ccc(-c3c4nc(c(-c5c(F)c(F)c(F)c(F)c5F)c5ccc([nH]5)c(-c5c(F)c(F)c(F)c(F)c5F)c5nc(c(-c6c(F)c(F)c(F)c(F)c6F)c6ccc3[nH]6)C=C5)C=C4)cc2)cn1
REMARK SMILES IDX 17 1 16 2 14 3 15 4 13 5 12 6 11 7 10 8 8 9 9 10 7 12 4 13
REMARK SMILES IDX 5 14 89 15 6 16 88 17 2 18 1 19 3 20 18 21 19 22 20 23 21 24
REMARK SMILES IDX 22 25 23 26 24 27 25 28 26 29 87 30 27 31 86 32 28 33 29 34
REMARK SMILES IDX 30 35 80 36 31 37 85 38 79 39 81 40 32 41 84 42 78 43 77 44
REMARK SMILES IDX 33 46 65 47 45 48 64 49 46 50 49 51 63 52 82 53 47 54 48 55
REMARK SMILES IDX 62 57 83 58 50 59 34 60 35 61 43 62 36 63 37 64 41 65 44 66
REMARK SMILES IDX 38 67 39 68 42 69 40 70 66 71 67 72 75 73 68 74 69 75 73 76
REMARK SMILES IDX 76 77 70 78 71 79 74 80 72 81 51 82 52 83 60 84 53 85 54 86
REMARK SMILES IDX 58 87 61 88 55 89 56 90 59 91 57 92
REMARK H PARENT 10 11 81 45 49 56
REMARK Flexibility Score: inf
ROOT
ATOM      1  C   UNL A   1      33.170  19.644  25.357  1.00  0.00     0.261 C 
ENDROOT
BRANCH   1   2
ATOM      2  O   UNL A   1      32.144  20.276  24.566  1.00  0.00    -0.463 OA
BRANCH   2   3
ATOM      3  C   UNL A   1      32.154  20.067  23.227  1.00  0.00     0.305 C 
ATOM      4  O   UNL A   1      32.189  18.971  22.686  1.00  0.00    -0.252 OA
BRANCH   3   5
ATOM      5  C   UNL A   1      32.139  21.377  22.461  1.00  0.00     0.124 C 
BRANCH   5   6
ATOM      6  C   UNL A   1      32.306  22.648  23.308  1.00  0.00     0.033 C 
BRANCH   6   7
ATOM      7  C   UNL A   1      30.997  23.379  23.619  1.00  0.00     0.117 C 
BRANCH   7   8
ATOM      8  N   UNL A   1      30.673  23.247  25.025  1.00  0.00    -0.352 N 
ATOM      9  C   UNL A   1      30.964  23.965  26.151  1.00  0.00     0.252 C 
ATOM     10  O   UNL A   1      30.504  23.525  27.207  1.00  0.00    -0.269 OA
ATOM     11  H   UNL A   1      30.115  22.458  25.212  1.00  0.00     0.163 HD
BRANCH   9  12
ATOM     12  C   UNL A   1      31.734  25.233  26.185  1.00  0.00     0.058 A 
ATOM     13  C   UNL A   1      32.854  27.794  26.266  1.00  0.00     0.127 A 
ATOM     14  C   UNL A   1      33.657  26.683  26.016  1.00  0.00     0.048 A 
ATOM     15  N   UNL A   1      31.536  27.645  26.501  1.00  0.00    -0.239 NA
ATOM     16  C   UNL A   1      33.103  25.397  26.017  1.00  0.00     0.019 A 
ATOM     17  C   UNL A   1      31.009  26.393  26.442  1.00  0.00     0.127 A 
BRANCH  13  18
ATOM     18  N   UNL A   1      33.418  29.066  26.292  1.00  0.00    -0.363 N 
ATOM     19  C   UNL A   1      32.475  30.165  26.153  1.00  0.00     0.144 C 
ATOM     20  C   UNL A   1      34.537  29.233  27.205  1.00  0.00     0.144 C 
ENDBRANCH  13  18
ENDBRANCH   9  12
ENDBRANCH   7   8
ENDBRANCH   6   7
ENDBRANCH   5   6
ENDBRANCH   3   5
ENDBRANCH   2   3
ENDBRANCH   1   2
BRANCH   1  21
ATOM     21  C   UNL A   1      34.527  20.285  25.048  1.00  0.00     0.202 C 
BRANCH  21  22
ATOM     22  O   UNL A   1      34.718  21.590  25.602  1.00  0.00    -0.374 OA
BRANCH  22  23
ATOM     23  C   UNL A   1      36.047  21.925  25.992  1.00  0.00     0.202 C 
BRANCH  23  24
ATOM     24  C   UNL A   1      37.141  21.014  25.423  1.00  0.00     0.261 C 
BRANCH  24  25
ATOM     25  O   UNL A   1      38.370  21.730  25.198  1.00  0.00    -0.460 OA
BRANCH  25  26
ATOM     26  C   UNL A   1      39.333  21.474  26.114  1.00  0.00     0.338 C 
ATOM     27  O   UNL A   1      39.888  20.404  26.326  1.00  0.00    -0.246 OA
BRANCH  26  28
ATOM     28  C   UNL A   1      39.772  22.718  26.769  1.00  0.00     0.060 A 
ATOM     29  C   UNL A   1      39.216  23.913  26.298  1.00  0.00     0.016 A 
ATOM     30  C   UNL A   1      40.762  22.736  27.756  1.00  0.00     0.016 A 
ATOM     31  C   UNL A   1      39.688  25.134  26.771  1.00  0.00     0.010 A 
ATOM     32  C   UNL A   1      41.235  23.966  28.229  1.00  0.00     0.010 A 
ATOM     33  C   UNL A   1      40.727  25.171  27.711  1.00  0.00    -0.014 A 
BRANCH  33  34
ATOM     34  C   UNL A   1      41.345  26.479  28.043  1.00  0.00     0.031 A 
ATOM     35  C   UNL A   1      42.752  26.769  27.599  1.00  0.00     0.074 A 
ATOM     36  C   UNL A   1      40.632  27.429  28.672  1.00  0.00     0.049 A 
ATOM     37  N   UNL A   1      43.452  27.869  27.716  1.00  0.00    -0.248 NA
ATOM     38  C   UNL A   1      43.465  25.670  26.931  1.00  0.00     0.031 C 
ATOM     39  C   UNL A   1      39.251  27.283  29.125  1.00  0.00     0.029 A 
ATOM     40  N   UNL A   1      40.971  28.712  29.025  1.00  0.00    -0.354 N 
ATOM     41  C   UNL A   1      44.684  27.598  27.136  1.00  0.00     0.074 A 
ATOM     42  C   UNL A   1      44.650  26.217  26.703  1.00  0.00     0.031 C 
ATOM     43  C   UNL A   1      38.852  28.439  29.683  1.00  0.00     0.029 A 
ATOM     44  C   UNL A   1      39.957  29.395  29.648  1.00  0.00     0.049 A 
ATOM     45  H   UNL A   1      41.857  29.103  28.847  1.00  0.00     0.167 HD
ATOM     46  C   UNL A   1      45.741  28.428  26.963  1.00  0.00     0.037 A 
ATOM     47  C   UNL A   1      39.927  30.650  30.135  1.00  0.00     0.037 A 
ATOM     48  C   UNL A   1      45.778  29.801  27.398  1.00  0.00     0.049 A 
ATOM     49  C   UNL A   1      41.140  31.529  29.999  1.00  0.00     0.074 A 
ATOM     50  C   UNL A   1      46.791  30.731  27.243  1.00  0.00     0.029 A 
ATOM     51  N   UNL A   1      44.757  30.438  28.088  1.00  0.00    -0.354 N 
ATOM     52  N   UNL A   1      42.285  31.279  29.412  1.00  0.00    -0.248 NA
ATOM     53  C   UNL A   1      41.051  32.871  30.593  1.00  0.00     0.031 C 
ATOM     54  C   UNL A   1      46.406  31.912  27.887  1.00  0.00     0.029 A 
ATOM     55  C   UNL A   1      45.129  31.738  28.397  1.00  0.00     0.049 A 
ATOM     56  H   UNL A   1      43.893  30.027  28.324  1.00  0.00     0.167 HD
ATOM     57  C   UNL A   1      43.044  32.436  29.544  1.00  0.00     0.074 A 
ATOM     58  C   UNL A   1      42.221  33.394  30.254  1.00  0.00     0.031 C 
ATOM     59  C   UNL A   1      44.307  32.681  29.114  1.00  0.00     0.037 A 
BRANCH  46  60
ATOM     60  C   UNL A   1      46.961  27.855  26.301  1.00  0.00     0.064 A 
ATOM     61  C   UNL A   1      47.082  27.790  24.903  1.00  0.00     0.173 A 
ATOM     62  C   UNL A   1      48.024  27.363  27.072  1.00  0.00     0.173 A 
ATOM     63  F   UNL A   1      46.088  28.233  24.118  1.00  0.00    -0.203 F 
ATOM     64  C   UNL A   1      48.202  27.218  24.306  1.00  0.00     0.198 A 
ATOM     65  C   UNL A   1      49.157  26.821  26.471  1.00  0.00     0.198 A 
ATOM     66  F   UNL A   1      47.963  27.405  28.413  1.00  0.00    -0.203 F 
ATOM     67  F   UNL A   1      48.267  27.110  22.972  1.00  0.00    -0.200 F 
ATOM     68  C   UNL A   1      49.241  26.738  25.090  1.00  0.00     0.200 A 
ATOM     69  F   UNL A   1      50.164  26.366  27.231  1.00  0.00    -0.200 F 
ATOM     70  F   UNL A   1      50.316  26.183  24.515  1.00  0.00    -0.200 F 
ENDBRANCH  46  60
BRANCH  47  71
ATOM     71  C   UNL A   1      38.689  31.156  30.781  1.00  0.00     0.064 A 
ATOM     72  C   UNL A   1      37.694  31.792  30.028  1.00  0.00     0.173 A 
ATOM     73  C   UNL A   1      38.473  31.006  32.159  1.00  0.00     0.173 A 
ATOM     74  F   UNL A   1      37.868  31.981  28.712  1.00  0.00    -0.203 F 
ATOM     75  C   UNL A   1      36.530  32.266  30.630  1.00  0.00     0.198 A 
ATOM     76  C   UNL A   1      37.299  31.458  32.755  1.00  0.00     0.198 A 
ATOM     77  F   UNL A   1      39.399  30.407  32.921  1.00  0.00    -0.203 F 
ATOM     78  F   UNL A   1      35.607  32.900  29.894  1.00  0.00    -0.200 F 
ATOM     79  C   UNL A   1      36.330  32.091  31.992  1.00  0.00     0.200 A 
ATOM     80  F   UNL A   1      37.104  31.277  34.068  1.00  0.00    -0.200 F 
ATOM     81  F   UNL A   1      35.205  32.536  32.568  1.00  0.00    -0.200 F 
ENDBRANCH  47  71
BRANCH  59  82
ATOM     82  C   UNL A   1      44.870  34.047  29.384  1.00  0.00     0.064 A 
ATOM     83  C   UNL A   1      45.611  34.323  30.543  1.00  0.00     0.173 A 
ATOM     84  C   UNL A   1      44.679  35.091  28.467  1.00  0.00     0.173 A 
ATOM     85  F   UNL A   1      45.810  33.365  31.460  1.00  0.00    -0.203 F 
ATOM     86  C   UNL A   1      46.111  35.600  30.789  1.00  0.00     0.198 A 
ATOM     87  C   UNL A   1      45.206  36.359  28.700  1.00  0.00     0.198 A 
ATOM     88  F   UNL A   1      43.983  34.882  27.339  1.00  0.00    -0.203 F 
ATOM     89  F   UNL A   1      46.767  35.852  31.929  1.00  0.00    -0.200 F 
ATOM     90  C   UNL A   1      45.913  36.615  29.865  1.00  0.00     0.200 A 
ATOM     91  F   UNL A   1      45.025  37.335  27.799  1.00  0.00    -0.200 F 
ATOM     92  F   UNL A   1      46.395  37.842  30.102  1.00  0.00    -0.200 F 
ENDBRANCH  59  82
ENDBRANCH  33  34
ENDBRANCH  26  28
ENDBRANCH  25  26
ENDBRANCH  24  25
ENDBRANCH  23  24
ENDBRANCH  22  23
ENDBRANCH  21  22
ENDBRANCH   1  21
TORSDOF 19
ENDMDL
MODEL 2
REMARK VINA RESULT:     -10.5      1.454      3.129
REMARK SMILES CN(C)c1ccc(C(=O)NCCCC(=O)OCCOCCOC(=O)c2ccc(-c3c4nc(c(-c5c(F)c(F)c(F)c(F)c5F)c5ccc([nH]5)c(-c5c(F)c(F)c(F)c(F)c5F)c5nc(c(-c6c(F)c(F)c(F)c(F)c6F)c6ccc3[nH]6)C=C5)C=C4)cc2)cn1
REMARK SMILES IDX 17 1 16 2 14 3 15 4 13 5 12 6 11 7 10 8 8 9 9 10 7 12 4 13
REMARK SMILES IDX 5 14 89 15 6 16 88 17 2 18 1 19 3 20 18 21 19 22 20 23 21 24
REMARK SMILES IDX 22 25 23 26 24 27 25 28 26 29 87 30 27 31 86 32 28 33 29 34
REMARK SMILES IDX 30 35 80 36 31 37 85 38 79 39 81 40 32 41 84 42 78 43 77 44
REMARK SMILES IDX 33 46 65 47 45 48 64 49 46 50 49 51 63 52 82 53 47 54 48 55
REMARK SMILES IDX 62 57 83 58 50 59 34 60 35 61 43 62 36 63 37 64 41 65 44 66
REMARK SMILES IDX 38 67 39 68 42 69 40 70 66 71 67 72 75 73 68 74 69 75 73 76
REMARK SMILES IDX 76 77 70 78 71 79 74 80 72 81 51 82 52 83 60 84 53 85 54 86
REMARK SMILES IDX 58 87 61 88 55 89 56 90 59 91 57 92
REMARK H PARENT 10 11 81 45 49 56
REMARK Flexibility Score: inf
ROOT
ATOM      1  C   UNL A   1      34.387  22.940  23.345  1.00  0.00     0.261 C 
ENDROOT
BRANCH   1   2
ATOM      2  O   UNL A   1      33.761  24.167  23.770  1.00  0.00    -0.463 OA
BRANCH   2   3
ATOM      3  C   UNL A   1      33.739  25.205  22.899  1.00  0.00     0.305 C 
ATOM      4  O   UNL A   1      33.533  25.111  21.697  1.00  0.00    -0.252 OA
BRANCH   3   5
ATOM      5  C   UNL A   1      34.030  26.521  23.596  1.00  0.00     0.124 C 
BRANCH   5   6
ATOM      6  C   UNL A   1      33.587  27.787  22.844  1.00  0.00     0.033 C 
BRANCH   6   7
ATOM      7  C   UNL A   1      33.192  28.957  23.751  1.00  0.00     0.117 C 
BRANCH   7   8
ATOM      8  N   UNL A   1      31.765  29.191  23.671  1.00  0.00    -0.352 N 
ATOM      9  C   UNL A   1      30.651  28.443  23.935  1.00  0.00     0.252 C 
ATOM     10  O   UNL A   1      29.568  28.996  23.733  1.00  0.00    -0.269 OA
ATOM     11  H   UNL A   1      31.548  30.097  23.354  1.00  0.00     0.163 HD
BRANCH   9  12
ATOM     12  C   UNL A   1      30.654  27.063  24.481  1.00  0.00     0.058 A 
ATOM     13  C   UNL A   1      30.821  24.610  25.811  1.00  0.00     0.127 A 
ATOM     14  C   UNL A   1      30.425  24.660  24.477  1.00  0.00     0.048 A 
ATOM     15  N   UNL A   1      31.099  25.742  26.484  1.00  0.00    -0.239 NA
ATOM     16  C   UNL A   1      30.300  25.892  23.823  1.00  0.00     0.019 A 
ATOM     17  C   UNL A   1      31.026  26.923  25.814  1.00  0.00     0.127 A 
BRANCH  13  18
ATOM     18  N   UNL A   1      30.914  23.382  26.462  1.00  0.00    -0.363 N 
ATOM     19  C   UNL A   1      32.204  23.099  27.069  1.00  0.00     0.144 C 
ATOM     20  C   UNL A   1      29.715  22.959  27.167  1.00  0.00     0.144 C 
ENDBRANCH  13  18
ENDBRANCH   9  12
ENDBRANCH   7   8
ENDBRANCH   6   7
ENDBRANCH   5   6
ENDBRANCH   3   5
ENDBRANCH   2   3
ENDBRANCH   1   2
BRANCH   1  21
ATOM     21  C   UNL A   1      33.594  21.744  23.881  1.00  0.00     0.202 C 
BRANCH  21  22
ATOM     22  O   UNL A   1      34.366  20.786  24.610  1.00  0.00    -0.374 OA
BRANCH  22  23
ATOM     23  C   UNL A   1      35.481  21.293  25.338  1.00  0.00     0.202 C 
BRANCH  23  24
ATOM     24  C   UNL A   1      36.829  20.644  25.002  1.00  0.00     0.261 C 
BRANCH  24  25
ATOM     25  O   UNL A   1      37.898  21.608  24.987  1.00  0.00    -0.460 OA
BRANCH  25  26
ATOM     26  C   UNL A   1      38.931  21.298  25.805  1.00  0.00     0.338 C 
ATOM     27  O   UNL A   1      39.501  20.219  25.903  1.00  0.00    -0.246 OA
BRANCH  26  28
ATOM     28  C   UNL A   1      39.420  22.499  26.503  1.00  0.00     0.060 A 
ATOM     29  C   UNL A   1      38.831  23.720  26.155  1.00  0.00     0.016 A 
ATOM     30  C   UNL A   1      40.483  22.458  27.409  1.00  0.00     0.016 A 
ATOM     31  C   UNL A   1      39.339  24.910  26.667  1.00  0.00     0.010 A 
ATOM     32  C   UNL A   1      40.993  23.657  27.923  1.00  0.00     0.010 A 
ATOM     33  C   UNL A   1      40.447  24.890  27.524  1.00  0.00    -0.014 A 
BRANCH  33  34
ATOM     34  C   UNL A   1      41.091  26.177  27.890  1.00  0.00     0.031 A 
ATOM     35  C   UNL A   1      42.510  26.443  27.471  1.00  0.00     0.074 A 
ATOM     36  C   UNL A   1      40.391  27.130  28.529  1.00  0.00     0.049 A 
ATOM     37  N   UNL A   1      43.233  27.524  27.619  1.00  0.00    -0.248 NA
ATOM     38  C   UNL A   1      43.206  25.341  26.790  1.00  0.00     0.031 C 
ATOM     39  C   UNL A   1      39.002  27.008  28.961  1.00  0.00     0.029 A 
ATOM     40  N   UNL A   1      40.755  28.398  28.912  1.00  0.00    -0.354 N 
ATOM     41  C   UNL A   1      44.466  27.236  27.049  1.00  0.00     0.074 A 
ATOM     42  C   UNL A   1      44.407  25.866  26.588  1.00  0.00     0.031 C 
ATOM     43  C   UNL A   1      38.621  28.161  29.537  1.00  0.00     0.029 A 
ATOM     44  C   UNL A   1      39.749  29.091  29.536  1.00  0.00     0.049 A 
ATOM     45  H   UNL A   1      41.651  28.772  28.754  1.00  0.00     0.167 HD
ATOM     46  C   UNL A   1      45.544  28.046  26.908  1.00  0.00     0.037 A 
ATOM     47  C   UNL A   1      39.740  30.337  30.048  1.00  0.00     0.037 A 
ATOM     48  C   UNL A   1      45.606  29.408  27.370  1.00  0.00     0.049 A 
ATOM     49  C   UNL A   1      40.975  31.190  29.946  1.00  0.00     0.074 A 
ATOM     50  C   UNL A   1      46.642  30.318  27.247  1.00  0.00     0.029 A 
ATOM     51  N   UNL A   1      44.591  30.055  28.060  1.00  0.00    -0.354 N 
ATOM     52  N   UNL A   1      42.122  30.926  29.368  1.00  0.00    -0.248 NA
ATOM     53  C   UNL A   1      40.908  32.522  30.565  1.00  0.00     0.031 C 
ATOM     54  C   UNL A   1      46.276  31.494  27.910  1.00  0.00     0.029 A 
ATOM     55  C   UNL A   1      44.988  31.340  28.400  1.00  0.00     0.049 A 
ATOM     56  H   UNL A   1      43.715  29.659  28.276  1.00  0.00     0.167 HD
ATOM     57  C   UNL A   1      42.904  32.062  29.533  1.00  0.00     0.074 A 
ATOM     58  C   UNL A   1      42.094  33.024  30.252  1.00  0.00     0.031 C 
ATOM     59  C   UNL A   1      44.178  32.286  29.125  1.00  0.00     0.037 A 
BRANCH  46  60
ATOM     60  C   UNL A   1      46.759  27.458  26.249  1.00  0.00     0.064 A 
ATOM     61  C   UNL A   1      47.745  26.781  26.985  1.00  0.00     0.173 A 
ATOM     62  C   UNL A   1      46.941  27.571  24.863  1.00  0.00     0.173 A 
ATOM     63  F   UNL A   1      47.627  26.656  28.316  1.00  0.00    -0.203 F 
ATOM     64  C   UNL A   1      48.885  26.277  26.364  1.00  0.00     0.198 A 
ATOM     65  C   UNL A   1      48.067  27.039  24.240  1.00  0.00     0.198 A 
ATOM     66  F   UNL A   1      46.028  28.204  24.110  1.00  0.00    -0.203 F 
ATOM     67  F   UNL A   1      49.842  25.691  27.096  1.00  0.00    -0.200 F 
ATOM     68  C   UNL A   1      49.043  26.403  24.992  1.00  0.00     0.200 A 
ATOM     69  F   UNL A   1      48.214  27.152  22.912  1.00  0.00    -0.200 F 
ATOM     70  F   UNL A   1      50.143  25.922  24.395  1.00  0.00    -0.200 F 
ENDBRANCH  46  60
BRANCH  47  71
ATOM     71  C   UNL A   1      38.506  30.859  30.688  1.00  0.00     0.064 A 
ATOM     72  C   UNL A   1      38.337  30.801  32.077  1.00  0.00     0.173 A 
ATOM     73  C   UNL A   1      37.477  31.433  29.925  1.00  0.00     0.173 A 
ATOM     74  F   UNL A   1      39.283  30.239  32.844  1.00  0.00    -0.203 F 
ATOM     75  C   UNL A   1      37.181  31.293  32.681  1.00  0.00     0.198 A 
ATOM     76  C   UNL A   1      36.334  31.945  30.532  1.00  0.00     0.198 A 
ATOM     77  F   UNL A   1      37.592  31.506  28.592  1.00  0.00    -0.203 F 
ATOM     78  F   UNL A   1      37.029  31.198  34.009  1.00  0.00    -0.200 F 
ATOM     79  C   UNL A   1      36.185  31.872  31.909  1.00  0.00     0.200 A 
ATOM     80  F   UNL A   1      35.379  32.514  29.785  1.00  0.00    -0.200 F 
ATOM     81  F   UNL A   1      35.079  32.355  32.492  1.00  0.00    -0.200 F 
ENDBRANCH  47  71
BRANCH  59  82
ATOM     82  C   UNL A   1      44.769  33.634  29.430  1.00  0.00     0.064 A 
ATOM     83  C   UNL A   1      44.616  34.720  28.556  1.00  0.00     0.173 A 
ATOM     84  C   UNL A   1      45.483  33.846  30.619  1.00  0.00     0.173 A 
ATOM     85  F   UNL A   1      43.956  34.567  27.399  1.00  0.00    -0.203 F 
ATOM     86  C   UNL A   1      45.186  35.959  28.844  1.00  0.00     0.198 A 
ATOM     87  C   UNL A   1      46.024  35.094  30.920  1.00  0.00     0.198 A 
ATOM     88  F   UNL A   1      45.654  32.844  31.495  1.00  0.00    -0.203 F 
ATOM     89  F   UNL A   1      45.074  36.966  27.967  1.00  0.00    -0.200 F 
ATOM     90  C   UNL A   1      45.883  36.146  30.028  1.00  0.00     0.200 A 
ATOM     91  F   UNL A   1      46.687  35.277  32.070  1.00  0.00    -0.200 F 
ATOM     92  F   UNL A   1      46.429  37.339  30.304  1.00  0.00    -0.200 F 
ENDBRANCH  59  82
ENDBRANCH  33  34
ENDBRANCH  26  28
ENDBRANCH  25  26
ENDBRANCH  24  25
ENDBRANCH  23  24
ENDBRANCH  22  23
ENDBRANCH  21  22
ENDBRANCH   1  21
TORSDOF 19
ENDMDL
MODEL 3
REMARK VINA RESULT:     -10.2      1.502      2.482
REMARK SMILES CN(C)c1ccc(C(=O)NCCCC(=O)OCCOCCOC(=O)c2ccc(-c3c4nc(c(-c5c(F)c(F)c(F)c(F)c5F)c5ccc([nH]5)c(-c5c(F)c(F)c(F)c(F)c5F)c5nc(c(-c6c(F)c(F)c(F)c(F)c6F)c6ccc3[nH]6)C=C5)C=C4)cc2)cn1
REMARK SMILES IDX 17 1 16 2 14 3 15 4 13 5 12 6 11 7 10 8 8 9 9 10 7 12 4 13
REMARK SMILES IDX 5 14 89 15 6 16 88 17 2 18 1 19 3 20 18 21 19 22 20 23 21 24
REMARK SMILES IDX 22 25 23 26 24 27 25 28 26 29 87 30 27 31 86 32 28 33 29 34
REMARK SMILES IDX 30 35 80 36 31 37 85 38 79 39 81 40 32 41 84 42 78 43 77 44
REMARK SMILES IDX 33 46 65 47 45 48 64 49 46 50 49 51 63 52 82 53 47 54 48 55
REMARK SMILES IDX 62 57 83 58 50 59 34 60 35 61 43 62 36 63 37 64 41 65 44 66
REMARK SMILES IDX 38 67 39 68 42 69 40 70 66 71 67 72 75 73 68 74 69 75 73 76
REMARK SMILES IDX 76 77 70 78 71 79 74 80 72 81 51 82 52 83 60 84 53 85 54 86
REMARK SMILES IDX 58 87 61 88 55 89 56 90 59 91 57 92
REMARK H PARENT 10 11 81 45 49 56
REMARK Flexibility Score: inf
ROOT
ATOM      1  C   UNL A   1      35.329  23.175  23.517  1.00  0.00     0.261 C 
ENDROOT
BRANCH   1   2
ATOM      2  O   UNL A   1      34.724  24.358  24.076  1.00  0.00    -0.463 OA
BRANCH   2   3
ATOM      3  C   UNL A   1      34.119  25.224  23.228  1.00  0.00     0.305 C 
ATOM      4  O   UNL A   1      33.724  24.948  22.104  1.00  0.00    -0.252 OA
BRANCH   3   5
ATOM      5  C   UNL A   1      34.006  26.609  23.836  1.00  0.00     0.124 C 
BRANCH   5   6
ATOM      6  C   UNL A   1      33.606  27.734  22.867  1.00  0.00     0.033 C 
BRANCH   6   7
ATOM      7  C   UNL A   1      32.896  28.919  23.529  1.00  0.00     0.117 C 
BRANCH   7   8
ATOM      8  N   UNL A   1      31.490  28.916  23.183  1.00  0.00    -0.352 N 
ATOM      9  C   UNL A   1      30.450  28.053  23.391  1.00  0.00     0.252 C 
ATOM     10  O   UNL A   1      29.361  28.395  22.925  1.00  0.00    -0.269 OA
ATOM     11  H   UNL A   1      31.222  29.719  22.682  1.00  0.00     0.163 HD
BRANCH   9  12
ATOM     12  C   UNL A   1      30.527  26.786  24.162  1.00  0.00     0.058 A 
ATOM     13  C   UNL A   1      30.741  24.616  25.911  1.00  0.00     0.127 A 
ATOM     14  C   UNL A   1      30.645  24.405  24.538  1.00  0.00     0.048 A 
ATOM     15  N   UNL A   1      30.700  25.864  26.415  1.00  0.00    -0.239 NA
ATOM     16  C   UNL A   1      30.495  25.490  23.665  1.00  0.00     0.019 A 
ATOM     17  C   UNL A   1      30.612  26.906  25.545  1.00  0.00     0.127 A 
BRANCH  13  18
ATOM     18  N   UNL A   1      30.859  23.530  26.773  1.00  0.00    -0.363 N 
ATOM     19  C   UNL A   1      29.608  22.869  27.113  1.00  0.00     0.144 C 
ATOM     20  C   UNL A   1      32.040  22.705  26.579  1.00  0.00     0.144 C 
ENDBRANCH  13  18
ENDBRANCH   9  12
ENDBRANCH   7   8
ENDBRANCH   6   7
ENDBRANCH   5   6
ENDBRANCH   3   5
ENDBRANCH   2   3
ENDBRANCH   1   2
BRANCH   1  21
ATOM     21  C   UNL A   1      34.754  21.930  24.200  1.00  0.00     0.202 C 
BRANCH  21  22
ATOM     22  O   UNL A   1      35.730  21.006  24.691  1.00  0.00    -0.374 OA
BRANCH  22  23
ATOM     23  C   UNL A   1      37.048  21.515  24.873  1.00  0.00     0.202 C 
BRANCH  23  24
ATOM     24  C   UNL A   1      38.077  20.496  25.375  1.00  0.00     0.261 C 
BRANCH  24  25
ATOM     25  O   UNL A   1      39.409  21.041  25.387  1.00  0.00    -0.460 OA
BRANCH  25  26
ATOM     26  C   UNL A   1      40.055  20.891  26.568  1.00  0.00     0.338 C 
ATOM     27  O   UNL A   1      40.429  19.844  27.080  1.00  0.00    -0.246 OA
BRANCH  26  28
ATOM     28  C   UNL A   1      40.409  22.203  27.137  1.00  0.00     0.060 A 
ATOM     29  C   UNL A   1      39.820  23.329  26.551  1.00  0.00     0.016 A 
ATOM     30  C   UNL A   1      41.356  22.346  28.155  1.00  0.00     0.016 A 
ATOM     31  C   UNL A   1      40.216  24.605  26.941  1.00  0.00     0.010 A 
ATOM     32  C   UNL A   1      41.753  23.631  28.546  1.00  0.00     0.010 A 
ATOM     33  C   UNL A   1      41.213  24.765  27.914  1.00  0.00    -0.014 A 
BRANCH  33  34
ATOM     34  C   UNL A   1      41.757  26.124  28.162  1.00  0.00     0.031 A 
ATOM     35  C   UNL A   1      43.109  26.492  27.619  1.00  0.00     0.074 A 
ATOM     36  C   UNL A   1      41.019  27.045  28.805  1.00  0.00     0.049 A 
ATOM     37  N   UNL A   1      43.736  27.641  27.655  1.00  0.00    -0.248 NA
ATOM     38  C   UNL A   1      43.854  25.421  26.941  1.00  0.00     0.031 C 
ATOM     39  C   UNL A   1      39.684  26.822  29.351  1.00  0.00     0.029 A 
ATOM     40  N   UNL A   1      41.289  28.360  29.094  1.00  0.00    -0.354 N 
ATOM     41  C   UNL A   1      44.945  27.434  27.004  1.00  0.00     0.074 A 
ATOM     42  C   UNL A   1      44.982  26.039  26.619  1.00  0.00     0.031 C 
ATOM     43  C   UNL A   1      39.240  27.968  29.896  1.00  0.00     0.029 A 
ATOM     44  C   UNL A   1      40.270  28.995  29.759  1.00  0.00     0.049 A 
ATOM     45  H   UNL A   1      42.132  28.804  28.847  1.00  0.00     0.167 HD
ATOM     46  C   UNL A   1      45.928  28.328  26.737  1.00  0.00     0.037 A 
ATOM     47  C   UNL A   1      40.182  30.262  30.207  1.00  0.00     0.037 A 
ATOM     48  C   UNL A   1      45.895  29.714  27.124  1.00  0.00     0.049 A 
ATOM     49  C   UNL A   1      41.320  31.216  29.964  1.00  0.00     0.074 A 
ATOM     50  C   UNL A   1      46.829  30.705  26.873  1.00  0.00     0.029 A 
ATOM     51  N   UNL A   1      44.877  30.305  27.858  1.00  0.00    -0.354 N 
ATOM     52  N   UNL A   1      42.440  31.023  29.312  1.00  0.00    -0.248 NA
ATOM     53  C   UNL A   1      41.174  32.570  30.519  1.00  0.00     0.031 C 
ATOM     54  C   UNL A   1      46.402  31.880  27.502  1.00  0.00     0.029 A 
ATOM     55  C   UNL A   1      45.175  31.639  28.099  1.00  0.00     0.049 A 
ATOM     56  H   UNL A   1      44.061  29.846  28.162  1.00  0.00     0.167 HD
ATOM     57  C   UNL A   1      43.122  32.233  29.356  1.00  0.00     0.074 A 
ATOM     58  C   UNL A   1      42.280  33.159  30.087  1.00  0.00     0.031 C 
ATOM     59  C   UNL A   1      44.336  32.548  28.838  1.00  0.00     0.037 A 
BRANCH  46  60
ATOM     60  C   UNL A   1      47.141  27.815  26.015  1.00  0.00     0.064 A 
ATOM     61  C   UNL A   1      47.204  27.769  24.613  1.00  0.00     0.173 A 
ATOM     62  C   UNL A   1      48.258  27.363  26.734  1.00  0.00     0.173 A 
ATOM     63  F   UNL A   1      46.158  28.176  23.877  1.00  0.00    -0.203 F 
ATOM     64  C   UNL A   1      48.321  27.253  23.961  1.00  0.00     0.198 A 
ATOM     65  C   UNL A   1      49.386  26.876  26.078  1.00  0.00     0.198 A 
ATOM     66  F   UNL A   1      48.254  27.388  28.076  1.00  0.00    -0.203 F 
ATOM     67  F   UNL A   1      48.332  27.162  22.624  1.00  0.00    -0.200 F 
ATOM     68  C   UNL A   1      49.412  26.811  24.694  1.00  0.00     0.200 A 
ATOM     69  F   UNL A   1      50.444  26.458  26.787  1.00  0.00    -0.200 F 
ATOM     70  F   UNL A   1      50.485  26.309  24.065  1.00  0.00    -0.200 F 
ENDBRANCH  46  60
BRANCH  47  71
ATOM     71  C   UNL A   1      38.955  30.706  30.915  1.00  0.00     0.064 A 
ATOM     72  C   UNL A   1      37.862  31.221  30.206  1.00  0.00     0.173 A 
ATOM     73  C   UNL A   1      38.847  30.616  32.311  1.00  0.00     0.173 A 
ATOM     74  F   UNL A   1      37.929  31.349  28.873  1.00  0.00    -0.203 F 
ATOM     75  C   UNL A   1      36.708  31.635  30.867  1.00  0.00     0.198 A 
ATOM     76  C   UNL A   1      37.684  31.008  32.968  1.00  0.00     0.198 A 
ATOM     77  F   UNL A   1      39.868  30.134  33.033  1.00  0.00    -0.203 F 
ATOM     78  F   UNL A   1      35.688  32.154  30.169  1.00  0.00    -0.200 F 
ATOM     79  C   UNL A   1      36.616  31.521  32.246  1.00  0.00     0.200 A 
ATOM     80  F   UNL A   1      37.595  30.885  34.299  1.00  0.00    -0.200 F 
ATOM     81  F   UNL A   1      35.501  31.909  32.880  1.00  0.00    -0.200 F 
ENDBRANCH  47  71
BRANCH  59  82
ATOM     82  C   UNL A   1      44.817  33.959  29.027  1.00  0.00     0.064 A 
ATOM     83  C   UNL A   1      45.608  34.327  30.126  1.00  0.00     0.173 A 
ATOM     84  C   UNL A   1      44.495  34.953  28.091  1.00  0.00     0.173 A 
ATOM     85  F   UNL A   1      45.931  33.419  31.058  1.00  0.00    -0.203 F 
ATOM     86  C   UNL A   1      46.031  35.643  30.297  1.00  0.00     0.198 A 
ATOM     87  C   UNL A   1      44.945  36.262  28.248  1.00  0.00     0.198 A 
ATOM     88  F   UNL A   1      43.747  34.656  27.017  1.00  0.00    -0.203 F 
ATOM     89  F   UNL A   1      46.738  35.982  31.383  1.00  0.00    -0.200 F 
ATOM     90  C   UNL A   1      45.704  36.608  29.355  1.00  0.00     0.200 A 
ATOM     91  F   UNL A   1      44.640  37.190  27.330  1.00  0.00    -0.200 F 
ATOM     92  F   UNL A   1      46.113  37.873  29.521  1.00  0.00    -0.200 F 
ENDBRANCH  59  82
ENDBRANCH  33  34
ENDBRANCH  26  28
ENDBRANCH  25  26
ENDBRANCH  24  25
ENDBRANCH  23  24
ENDBRANCH  22  23
ENDBRANCH  21  22
ENDBRANCH   1  21
TORSDOF 19
ENDMDL
