MODEL 1
REMARK VINA RESULT:     -11.8      0.000      0.000
REMARK SMILES CCCCCCNC(=O)Nc1cccc(-c2ccc([C@@H](C)C(=O)OCCOCCOC(=O)c3ccc(-c4c5nc(c(-c6c(F)c(F)c(F)c(F)c6F)c6ccc([nH]6)c(-c6c(F)c(F)c(F)c(F)c6F)c6nc(c(-c7c(F)c(F)c(F)c(F)c7F)c7ccc4[nH]7)C=C6)C=C5)cc3)cc2F)c1
REMARK SMILES IDX 24 1 22 2 23 3 20 4 21 5 19 6 16 7 17 8 97 9 18 10 96 11
REMARK SMILES IDX 98 12 15 13 11 14 12 15 99 16 13 17 14 18 10 19 7 20 8 21
REMARK SMILES IDX 9 23 6 25 5 26 4 27 3 28 2 29 1 30 25 31 26 32 27 33 28 34
REMARK SMILES IDX 29 35 30 36 31 37 32 38 33 39 34 40 95 41 35 42 94 43 36 44
REMARK SMILES IDX 37 45 38 46 88 47 39 48 93 49 87 50 89 51 40 52 92 53 86 54
REMARK SMILES IDX 85 55 41 57 73 58 53 59 72 60 54 61 57 62 71 63 90 64 55 65
REMARK SMILES IDX 56 66 70 68 91 69 58 70 42 71 43 72 51 73 44 74 45 75 49 76
REMARK SMILES IDX 52 77 46 78 47 79 50 80 48 81 74 82 75 83 83 84 76 85 77 86
REMARK SMILES IDX 81 87 84 88 78 89 79 90 82 91 80 92 59 93 60 94 68 95 61 96
REMARK SMILES IDX 62 97 66 98 69 99 63 100 64 101 67 102 65 103
REMARK H PARENT 7 22 10 24 89 56 57 67
REMARK Flexibility Score: inf
ROOT
ATOM      1  O   UNL A   1      42.026  19.387  25.422  1.00  0.00    -0.463 OA
ENDROOT
BRANCH   1   2
ATOM      2  C   UNL A   1      41.616  19.975  26.578  1.00  0.00     0.313 C 
ATOM      3  O   UNL A   1      41.442  19.371  27.633  1.00  0.00    -0.252 OA
BRANCH   2   4
ATOM      4  C   UNL A   1      41.320  21.461  26.461  1.00  0.00     0.126 C 
ATOM      5  C   UNL A   1      42.117  22.195  27.541  1.00  0.00     0.025 C 
BRANCH   4   6
ATOM      6  C   UNL A   1      39.868  21.935  26.410  1.00  0.00    -0.031 A 
ATOM      7  C   UNL A   1      37.216  22.891  25.888  1.00  0.00     0.018 A 
ATOM      8  C   UNL A   1      38.163  23.679  26.569  1.00  0.00     0.012 A 
ATOM      9  C   UNL A   1      37.609  21.592  25.546  1.00  0.00     0.131 A 
ATOM     10  C   UNL A   1      39.466  23.211  26.827  1.00  0.00     0.005 A 
ATOM     11  C   UNL A   1      38.903  21.119  25.798  1.00  0.00     0.044 A 
ATOM     12  F   UNL A   1      36.762  20.779  24.896  1.00  0.00    -0.206 F 
BRANCH   7  13
ATOM     13  C   UNL A   1      35.907  23.441  25.468  1.00  0.00    -0.013 A 
ATOM     14  C   UNL A   1      33.525  23.882  25.853  1.00  0.00     0.043 A 
ATOM     15  C   UNL A   1      33.398  24.379  24.557  1.00  0.00     0.026 A 
ATOM     16  C   UNL A   1      34.764  23.382  26.290  1.00  0.00     0.035 A 
ATOM     17  C   UNL A   1      34.520  24.474  23.738  1.00  0.00     0.003 A 
ATOM     18  C   UNL A   1      35.760  24.017  24.193  1.00  0.00     0.009 A 
BRANCH  14  19
ATOM     19  N   UNL A   1      32.387  23.929  26.678  1.00  0.00    -0.308 N 
ATOM     20  N   UNL A   1      31.151  22.011  26.079  1.00  0.00    -0.338 N 
ATOM     21  C   UNL A   1      31.205  23.264  26.595  1.00  0.00     0.319 C 
ATOM     22  H   UNL A   1      30.252  21.645  25.920  1.00  0.00     0.165 HD
ATOM     23  O   UNL A   1      30.192  23.734  27.113  1.00  0.00    -0.249 OA
ATOM     24  H   UNL A   1      32.460  24.544  27.444  1.00  0.00     0.171 HD
BRANCH  20  25
ATOM     25  C   UNL A   1      32.257  21.153  25.733  1.00  0.00     0.117 C 
BRANCH  25  26
ATOM     26  C   UNL A   1      32.513  21.003  24.241  1.00  0.00     0.021 C 
BRANCH  26  27
ATOM     27  C   UNL A   1      32.780  19.579  23.755  1.00  0.00     0.002 C 
BRANCH  27  28
ATOM     28  C   UNL A   1      32.861  18.503  24.844  1.00  0.00    -0.000 C 
BRANCH  28  29
ATOM     29  C   UNL A   1      33.939  17.435  24.649  1.00  0.00    -0.003 C 
ATOM     30  C   UNL A   1      33.907  16.798  23.280  1.00  0.00     0.004 C 
ENDBRANCH  28  29
ENDBRANCH  27  28
ENDBRANCH  26  27
ENDBRANCH  25  26
ENDBRANCH  20  25
ENDBRANCH  14  19
ENDBRANCH   7  13
ENDBRANCH   4   6
ENDBRANCH   2   4
ENDBRANCH   1   2
BRANCH   1  31
ATOM     31  C   UNL A   1      43.408  18.997  25.411  1.00  0.00     0.261 C 
BRANCH  31  32
ATOM     32  C   UNL A   1      44.288  19.677  24.349  1.00  0.00     0.202 C 
BRANCH  32  33
ATOM     33  O   UNL A   1      45.269  20.625  24.738  1.00  0.00    -0.374 OA
BRANCH  33  34
ATOM     34  C   UNL A   1      44.873  21.912  25.190  1.00  0.00     0.202 C 
BRANCH  34  35
ATOM     35  C   UNL A   1      44.291  22.935  24.207  1.00  0.00     0.261 C 
BRANCH  35  36
ATOM     36  O   UNL A   1      43.386  23.894  24.787  1.00  0.00    -0.460 OA
BRANCH  36  37
ATOM     37  C   UNL A   1      43.964  25.073  25.109  1.00  0.00     0.338 C 
ATOM     38  O   UNL A   1      45.079  25.449  24.747  1.00  0.00    -0.246 OA
BRANCH  37  39
ATOM     39  C   UNL A   1      43.121  25.921  25.984  1.00  0.00     0.060 A 
ATOM     40  C   UNL A   1      43.349  27.301  25.920  1.00  0.00     0.016 A 
ATOM     41  C   UNL A   1      42.262  25.405  26.962  1.00  0.00     0.016 A 
ATOM     42  C   UNL A   1      42.839  28.147  26.898  1.00  0.00     0.010 A 
ATOM     43  C   UNL A   1      41.770  26.255  27.963  1.00  0.00     0.010 A 
ATOM     44  C   UNL A   1      42.109  27.620  27.966  1.00  0.00    -0.014 A 
BRANCH  44  45
ATOM     45  C   UNL A   1      41.718  28.529  29.067  1.00  0.00     0.031 A 
ATOM     46  C   UNL A   1      40.388  29.236  29.062  1.00  0.00     0.074 A 
ATOM     47  C   UNL A   1      42.552  28.662  30.108  1.00  0.00     0.049 A 
ATOM     48  N   UNL A   1      39.828  29.978  29.985  1.00  0.00    -0.248 NA
ATOM     49  C   UNL A   1      39.585  29.112  27.843  1.00  0.00     0.031 C 
ATOM     50  C   UNL A   1      43.858  28.018  30.221  1.00  0.00     0.029 A 
ATOM     51  N   UNL A   1      42.407  29.354  31.278  1.00  0.00    -0.354 N 
ATOM     52  C   UNL A   1      38.624  30.419  29.441  1.00  0.00     0.074 A 
ATOM     53  C   UNL A   1      38.561  29.914  28.089  1.00  0.00     0.031 C 
ATOM     54  C   UNL A   1      44.395  28.335  31.408  1.00  0.00     0.029 A 
ATOM     55  C   UNL A   1      43.459  29.187  32.137  1.00  0.00     0.049 A 
ATOM     56  H   UNL A   1      41.625  29.917  31.482  1.00  0.00     0.167 HD
ATOM     57  C   UNL A   1      37.643  31.143  30.035  1.00  0.00     0.037 A 
ATOM     58  C   UNL A   1      43.628  29.635  33.392  1.00  0.00     0.037 A 
ATOM     59  C   UNL A   1      37.690  31.567  31.412  1.00  0.00     0.049 A 
ATOM     60  C   UNL A   1      42.508  30.380  34.056  1.00  0.00     0.074 A 
ATOM     61  C   UNL A   1      36.717  32.209  32.158  1.00  0.00     0.029 A 
ATOM     62  N   UNL A   1      38.778  31.377  32.253  1.00  0.00    -0.354 N 
ATOM     63  N   UNL A   1      41.340  30.724  33.570  1.00  0.00    -0.248 NA
ATOM     64  C   UNL A   1      42.716  30.758  35.457  1.00  0.00     0.031 C 
ATOM     65  C   UNL A   1      37.232  32.443  33.438  1.00  0.00     0.029 A 
ATOM     66  C   UNL A   1      38.508  31.906  33.505  1.00  0.00     0.049 A 
ATOM     67  H   UNL A   1      39.618  30.933  31.997  1.00  0.00     0.167 HD
ATOM     68  C   UNL A   1      40.658  31.331  34.614  1.00  0.00     0.074 A 
ATOM     69  C   UNL A   1      41.543  31.296  35.763  1.00  0.00     0.031 C 
ATOM     70  C   UNL A   1      39.410  31.864  34.627  1.00  0.00     0.037 A 
BRANCH  57  71
ATOM     71  C   UNL A   1      36.431  31.510  29.218  1.00  0.00     0.064 A 
ATOM     72  C   UNL A   1      36.216  32.814  28.746  1.00  0.00     0.173 A 
ATOM     73  C   UNL A   1      35.495  30.528  28.856  1.00  0.00     0.173 A 
ATOM     74  F   UNL A   1      37.072  33.796  29.063  1.00  0.00    -0.203 F 
ATOM     75  C   UNL A   1      35.098  33.127  27.974  1.00  0.00     0.198 A 
ATOM     76  C   UNL A   1      34.396  30.836  28.056  1.00  0.00     0.198 A 
ATOM     77  F   UNL A   1      35.651  29.260  29.267  1.00  0.00    -0.203 F 
ATOM     78  F   UNL A   1      34.891  34.392  27.580  1.00  0.00    -0.200 F 
ATOM     79  C   UNL A   1      34.194  32.137  27.623  1.00  0.00     0.200 A 
ATOM     80  F   UNL A   1      33.533  29.873  27.704  1.00  0.00    -0.200 F 
ATOM     81  F   UNL A   1      33.125  32.438  26.872  1.00  0.00    -0.200 F 
ENDBRANCH  57  71
BRANCH  58  82
ATOM     82  C   UNL A   1      44.871  29.272  34.113  1.00  0.00     0.064 A 
ATOM     83  C   UNL A   1      45.993  30.109  34.069  1.00  0.00     0.173 A 
ATOM     84  C   UNL A   1      44.926  28.137  34.933  1.00  0.00     0.173 A 
ATOM     85  F   UNL A   1      45.981  31.204  33.296  1.00  0.00    -0.203 F 
ATOM     86  C   UNL A   1      47.130  29.822  34.820  1.00  0.00     0.198 A 
ATOM     87  C   UNL A   1      46.054  27.863  35.701  1.00  0.00     0.198 A 
ATOM     88  F   UNL A   1      43.865  27.320  35.022  1.00  0.00    -0.203 F 
ATOM     89  F   UNL A   1      48.195  30.631  34.753  1.00  0.00    -0.200 F 
ATOM     90  C   UNL A   1      47.156  28.705  35.641  1.00  0.00     0.200 A 
ATOM     91  F   UNL A   1      46.068  26.797  36.512  1.00  0.00    -0.200 F 
ATOM     92  F   UNL A   1      48.241  28.444  36.384  1.00  0.00    -0.200 F 
ENDBRANCH  58  82
BRANCH  70  93
ATOM     93  C   UNL A   1      38.932  32.426  35.933  1.00  0.00     0.064 A 
ATOM     94  C   UNL A   1      39.191  33.754  36.300  1.00  0.00     0.173 A 
ATOM     95  C   UNL A   1      38.212  31.622  36.830  1.00  0.00     0.173 A 
ATOM     96  F   UNL A   1      39.887  34.557  35.481  1.00  0.00    -0.203 F 
ATOM     97  C   UNL A   1      38.786  34.245  37.538  1.00  0.00     0.198 A 
ATOM     98  C   UNL A   1      37.781  32.125  38.054  1.00  0.00     0.198 A 
ATOM     99  F   UNL A   1      37.930  30.347  36.521  1.00  0.00    -0.203 F 
ATOM    100  F   UNL A   1      39.104  35.496  37.896  1.00  0.00    -0.200 F 
ATOM    101  C   UNL A   1      38.081  33.431  38.412  1.00  0.00     0.200 A 
ATOM    102  F   UNL A   1      37.090  31.342  38.893  1.00  0.00    -0.200 F 
ATOM    103  F   UNL A   1      37.700  33.903  39.608  1.00  0.00    -0.200 F 
ENDBRANCH  70  93
ENDBRANCH  44  45
ENDBRANCH  37  39
ENDBRANCH  36  37
ENDBRANCH  35  36
ENDBRANCH  34  35
ENDBRANCH  33  34
ENDBRANCH  32  33
ENDBRANCH  31  32
ENDBRANCH   1  31
TORSDOF 22
ENDMDL
MODEL 2
REMARK VINA RESULT:     -11.4      4.397     10.677
REMARK SMILES CCCCCCNC(=O)Nc1cccc(-c2ccc([C@@H](C)C(=O)OCCOCCOC(=O)c3ccc(-c4c5nc(c(-c6c(F)c(F)c(F)c(F)c6F)c6ccc([nH]6)c(-c6c(F)c(F)c(F)c(F)c6F)c6nc(c(-c7c(F)c(F)c(F)c(F)c7F)c7ccc4[nH]7)C=C6)C=C5)cc3)cc2F)c1
REMARK SMILES IDX 24 1 22 2 23 3 20 4 21 5 19 6 16 7 17 8 97 9 18 10 96 11
REMARK SMILES IDX 98 12 15 13 11 14 12 15 99 16 13 17 14 18 10 19 7 20 8 21
REMARK SMILES IDX 9 23 6 25 5 26 4 27 3 28 2 29 1 30 25 31 26 32 27 33 28 34
REMARK SMILES IDX 29 35 30 36 31 37 32 38 33 39 34 40 95 41 35 42 94 43 36 44
REMARK SMILES IDX 37 45 38 46 88 47 39 48 93 49 87 50 89 51 40 52 92 53 86 54
REMARK SMILES IDX 85 55 41 57 73 58 53 59 72 60 54 61 57 62 71 63 90 64 55 65
REMARK SMILES IDX 56 66 70 68 91 69 58 70 42 71 43 72 51 73 44 74 45 75 49 76
REMARK SMILES IDX 52 77 46 78 47 79 50 80 48 81 74 82 75 83 83 84 76 85 77 86
REMARK SMILES IDX 81 87 84 88 78 89 79 90 82 91 80 92 59 93 60 94 68 95 61 96
REMARK SMILES IDX 62 97 66 98 69 99 63 100 64 101 67 102 65 103
REMARK H PARENT 7 22 10 24 89 56 57 67
REMARK Flexibility Score: inf
ROOT
ATOM      1  O   UNL A   1      33.783  25.803  24.199  1.00  0.00    -0.463 OA
ENDROOT
BRANCH   1   2
ATOM      2  C   UNL A   1      33.117  26.990  24.223  1.00  0.00     0.313 C 
ATOM      3  O   UNL A   1      33.094  27.784  23.286  1.00  0.00    -0.252 OA
BRANCH   2   4
ATOM      4  C   UNL A   1      32.436  27.306  25.544  1.00  0.00     0.126 C 
ATOM      5  C   UNL A   1      30.926  27.369  25.302  1.00  0.00     0.025 C 
BRANCH   4   6
ATOM      6  C   UNL A   1      32.924  28.492  26.375  1.00  0.00    -0.031 A 
ATOM      7  C   UNL A   1      33.929  30.905  27.552  1.00  0.00     0.018 A 
ATOM      8  C   UNL A   1      34.668  29.708  27.581  1.00  0.00     0.012 A 
ATOM      9  C   UNL A   1      32.650  30.841  26.988  1.00  0.00     0.131 A 
ATOM     10  C   UNL A   1      34.176  28.520  27.004  1.00  0.00     0.005 A 
ATOM     11  C   UNL A   1      32.153  29.665  26.411  1.00  0.00     0.044 A 
ATOM     12  F   UNL A   1      31.884  31.941  26.924  1.00  0.00    -0.206 F 
BRANCH   7  13
ATOM     13  C   UNL A   1      34.514  32.188  28.005  1.00  0.00    -0.013 A 
ATOM     14  C   UNL A   1      34.299  34.484  28.840  1.00  0.00     0.043 A 
ATOM     15  C   UNL A   1      35.677  34.666  28.722  1.00  0.00     0.026 A 
ATOM     16  C   UNL A   1      33.720  33.265  28.448  1.00  0.00     0.035 A 
ATOM     17  C   UNL A   1      36.483  33.606  28.314  1.00  0.00     0.003 A 
ATOM     18  C   UNL A   1      35.907  32.381  27.968  1.00  0.00     0.009 A 
BRANCH  14  19
ATOM     19  N   UNL A   1      33.551  35.546  29.378  1.00  0.00    -0.308 N 
ATOM     20  N   UNL A   1      33.220  34.943  31.635  1.00  0.00    -0.338 N 
ATOM     21  C   UNL A   1      32.835  35.631  30.531  1.00  0.00     0.319 C 
ATOM     22  H   UNL A   1      32.586  34.939  32.388  1.00  0.00     0.165 HD
ATOM     23  O   UNL A   1      31.912  36.438  30.630  1.00  0.00    -0.249 OA
ATOM     24  H   UNL A   1      33.544  36.363  28.830  1.00  0.00     0.171 HD
BRANCH  20  25
ATOM     25  C   UNL A   1      34.450  34.217  31.836  1.00  0.00     0.117 C 
BRANCH  25  26
ATOM     26  C   UNL A   1      35.549  34.995  32.543  1.00  0.00     0.021 C 
BRANCH  26  27
ATOM     27  C   UNL A   1      36.979  34.628  32.149  1.00  0.00     0.002 C 
BRANCH  27  28
ATOM     28  C   UNL A   1      37.954  34.394  33.308  1.00  0.00    -0.000 C 
BRANCH  28  29
ATOM     29  C   UNL A   1      39.436  34.593  32.985  1.00  0.00    -0.003 C 
ATOM     30  C   UNL A   1      40.338  34.404  34.181  1.00  0.00     0.004 C 
ENDBRANCH  28  29
ENDBRANCH  27  28
ENDBRANCH  26  27
ENDBRANCH  25  26
ENDBRANCH  20  25
ENDBRANCH  14  19
ENDBRANCH   7  13
ENDBRANCH   4   6
ENDBRANCH   2   4
ENDBRANCH   1   2
BRANCH   1  31
ATOM     31  C   UNL A   1      32.934  24.648  24.119  1.00  0.00     0.261 C 
BRANCH  31  32
ATOM     32  C   UNL A   1      33.534  23.338  24.655  1.00  0.00     0.202 C 
BRANCH  32  33
ATOM     33  O   UNL A   1      34.841  22.943  24.272  1.00  0.00    -0.374 OA
BRANCH  33  34
ATOM     34  C   UNL A   1      35.308  21.636  24.580  1.00  0.00     0.202 C 
BRANCH  34  35
ATOM     35  C   UNL A   1      36.506  21.441  25.516  1.00  0.00     0.261 C 
BRANCH  35  36
ATOM     36  O   UNL A   1      37.795  21.659  24.913  1.00  0.00    -0.460 OA
BRANCH  36  37
ATOM     37  C   UNL A   1      38.838  21.279  25.684  1.00  0.00     0.338 C 
ATOM     38  O   UNL A   1      39.330  20.150  25.721  1.00  0.00    -0.246 OA
BRANCH  37  39
ATOM     39  C   UNL A   1      39.366  22.368  26.538  1.00  0.00     0.060 A 
ATOM     40  C   UNL A   1      38.815  23.640  26.337  1.00  0.00     0.016 A 
ATOM     41  C   UNL A   1      40.473  22.218  27.381  1.00  0.00     0.016 A 
ATOM     42  C   UNL A   1      39.437  24.769  26.857  1.00  0.00     0.010 A 
ATOM     43  C   UNL A   1      41.114  23.360  27.884  1.00  0.00     0.010 A 
ATOM     44  C   UNL A   1      40.631  24.642  27.571  1.00  0.00    -0.014 A 
BRANCH  44  45
ATOM     45  C   UNL A   1      41.344  25.875  27.973  1.00  0.00     0.031 A 
ATOM     46  C   UNL A   1      42.704  26.209  27.419  1.00  0.00     0.074 A 
ATOM     47  C   UNL A   1      40.722  26.728  28.801  1.00  0.00     0.049 A 
ATOM     48  N   UNL A   1      43.430  27.289  27.568  1.00  0.00    -0.248 NA
ATOM     49  C   UNL A   1      43.349  25.178  26.603  1.00  0.00     0.031 C 
ATOM     50  C   UNL A   1      39.403  26.509  29.390  1.00  0.00     0.029 A 
ATOM     51  N   UNL A   1      41.105  27.957  29.259  1.00  0.00    -0.354 N 
ATOM     52  C   UNL A   1      44.618  27.049  26.881  1.00  0.00     0.074 A 
ATOM     53  C   UNL A   1      44.542  25.701  26.367  1.00  0.00     0.031 C 
ATOM     54  C   UNL A   1      39.075  27.581  30.126  1.00  0.00     0.029 A 
ATOM     55  C   UNL A   1      40.156  28.561  30.040  1.00  0.00     0.049 A 
ATOM     56  H   UNL A   1      41.974  28.368  29.049  1.00  0.00     0.167 HD
ATOM     57  C   UNL A   1      45.655  27.895  26.664  1.00  0.00     0.037 A 
ATOM     58  C   UNL A   1      40.141  29.787  30.587  1.00  0.00     0.037 A 
ATOM     59  C   UNL A   1      45.673  29.263  27.117  1.00  0.00     0.049 A 
ATOM     60  C   UNL A   1      41.266  30.733  30.286  1.00  0.00     0.074 A 
ATOM     61  C   UNL A   1      46.613  30.248  26.870  1.00  0.00     0.029 A 
ATOM     62  N   UNL A   1      44.689  29.839  27.909  1.00  0.00    -0.354 N 
ATOM     63  N   UNL A   1      42.347  30.532  29.571  1.00  0.00    -0.248 NA
ATOM     64  C   UNL A   1      41.146  32.087  30.834  1.00  0.00     0.031 C 
ATOM     65  C   UNL A   1      46.217  31.409  27.546  1.00  0.00     0.029 A 
ATOM     66  C   UNL A   1      45.007  31.161  28.174  1.00  0.00     0.049 A 
ATOM     67  H   UNL A   1      43.883  29.376  28.233  1.00  0.00     0.167 HD
ATOM     68  C   UNL A   1      43.021  31.744  29.552  1.00  0.00     0.074 A 
ATOM     69  C   UNL A   1      42.218  32.676  30.322  1.00  0.00     0.031 C 
ATOM     70  C   UNL A   1      44.195  32.063  28.950  1.00  0.00     0.037 A 
BRANCH  57  71
ATOM     71  C   UNL A   1      46.845  27.384  25.896  1.00  0.00     0.064 A 
ATOM     72  C   UNL A   1      47.013  27.635  24.525  1.00  0.00     0.173 A 
ATOM     73  C   UNL A   1      47.864  26.675  26.553  1.00  0.00     0.173 A 
ATOM     74  F   UNL A   1      46.072  28.302  23.841  1.00  0.00    -0.203 F 
ATOM     75  C   UNL A   1      48.134  27.169  23.837  1.00  0.00     0.198 A 
ATOM     76  C   UNL A   1      48.998  26.239  25.871  1.00  0.00     0.198 A 
ATOM     77  F   UNL A   1      47.767  26.413  27.866  1.00  0.00    -0.203 F 
ATOM     78  F   UNL A   1      48.243  27.379  22.518  1.00  0.00    -0.200 F 
ATOM     79  C   UNL A   1      49.128  26.479  24.512  1.00  0.00     0.200 A 
ATOM     80  F   UNL A   1      49.967  25.588  26.530  1.00  0.00    -0.200 F 
ATOM     81  F   UNL A   1      50.210  26.042  23.852  1.00  0.00    -0.200 F 
ENDBRANCH  57  71
BRANCH  58  82
ATOM     82  C   UNL A   1      38.954  30.199  31.372  1.00  0.00     0.064 A 
ATOM     83  C   UNL A   1      39.025  30.319  32.766  1.00  0.00     0.173 A 
ATOM     84  C   UNL A   1      37.761  30.573  30.738  1.00  0.00     0.173 A 
ATOM     85  F   UNL A   1      40.147  29.971  33.411  1.00  0.00    -0.203 F 
ATOM     86  C   UNL A   1      37.942  30.796  33.499  1.00  0.00     0.198 A 
ATOM     87  C   UNL A   1      36.687  31.071  31.469  1.00  0.00     0.198 A 
ATOM     88  F   UNL A   1      37.658  30.495  29.402  1.00  0.00    -0.203 F 
ATOM     89  F   UNL A   1      38.029  30.891  34.832  1.00  0.00    -0.200 F 
ATOM     90  C   UNL A   1      36.778  31.180  32.850  1.00  0.00     0.200 A 
ATOM     91  F   UNL A   1      35.573  31.464  30.837  1.00  0.00    -0.200 F 
ATOM     92  F   UNL A   1      35.745  31.664  33.553  1.00  0.00    -0.200 F 
ENDBRANCH  58  82
BRANCH  70  93
ATOM     93  C   UNL A   1      44.656  33.484  29.085  1.00  0.00     0.064 A 
ATOM     94  C   UNL A   1      45.449  33.899  30.164  1.00  0.00     0.173 A 
ATOM     95  C   UNL A   1      44.293  34.442  28.126  1.00  0.00     0.173 A 
ATOM     96  F   UNL A   1      45.810  33.022  31.113  1.00  0.00    -0.203 F 
ATOM     97  C   UNL A   1      45.825  35.232  30.303  1.00  0.00     0.198 A 
ATOM     98  C   UNL A   1      44.697  35.768  28.251  1.00  0.00     0.198 A 
ATOM     99  F   UNL A   1      43.543  34.093  27.070  1.00  0.00    -0.203 F 
ATOM    100  F   UNL A   1      46.526  35.619  31.378  1.00  0.00    -0.200 F 
ATOM    101  C   UNL A   1      45.450  36.164  29.347  1.00  0.00     0.200 A 
ATOM    102  F   UNL A   1      44.344  36.665  27.321  1.00  0.00    -0.200 F 
ATOM    103  F   UNL A   1      45.805  37.449  29.487  1.00  0.00    -0.200 F 
ENDBRANCH  70  93
ENDBRANCH  44  45
ENDBRANCH  37  39
ENDBRANCH  36  37
ENDBRANCH  35  36
ENDBRANCH  34  35
ENDBRANCH  33  34
ENDBRANCH  32  33
ENDBRANCH  31  32
ENDBRANCH   1  31
TORSDOF 22
ENDMDL
MODEL 3
REMARK VINA RESULT:     -11.1      3.525      9.354
REMARK SMILES CCCCCCNC(=O)Nc1cccc(-c2ccc([C@@H](C)C(=O)OCCOCCOC(=O)c3ccc(-c4c5nc(c(-c6c(F)c(F)c(F)c(F)c6F)c6ccc([nH]6)c(-c6c(F)c(F)c(F)c(F)c6F)c6nc(c(-c7c(F)c(F)c(F)c(F)c7F)c7ccc4[nH]7)C=C6)C=C5)cc3)cc2F)c1
REMARK SMILES IDX 24 1 22 2 23 3 20 4 21 5 19 6 16 7 17 8 97 9 18 10 96 11
REMARK SMILES IDX 98 12 15 13 11 14 12 15 99 16 13 17 14 18 10 19 7 20 8 21
REMARK SMILES IDX 9 23 6 25 5 26 4 27 3 28 2 29 1 30 25 31 26 32 27 33 28 34
REMARK SMILES IDX 29 35 30 36 31 37 32 38 33 39 34 40 95 41 35 42 94 43 36 44
REMARK SMILES IDX 37 45 38 46 88 47 39 48 93 49 87 50 89 51 40 52 92 53 86 54
REMARK SMILES IDX 85 55 41 57 73 58 53 59 72 60 54 61 57 62 71 63 90 64 55 65
REMARK SMILES IDX 56 66 70 68 91 69 58 70 42 71 43 72 51 73 44 74 45 75 49 76
REMARK SMILES IDX 52 77 46 78 47 79 50 80 48 81 74 82 75 83 83 84 76 85 77 86
REMARK SMILES IDX 81 87 84 88 78 89 79 90 82 91 80 92 59 93 60 94 68 95 61 96
REMARK SMILES IDX 62 97 66 98 69 99 63 100 64 101 67 102 65 103
REMARK H PARENT 7 22 10 24 89 56 57 67
REMARK Flexibility Score: inf
ROOT
ATOM      1  O   UNL A   1      28.246  30.591  23.508  1.00  0.00    -0.463 OA
ENDROOT
BRANCH   1   2
ATOM      2  C   UNL A   1      28.502  29.766  22.456  1.00  0.00     0.313 C 
ATOM      3  O   UNL A   1      28.809  30.159  21.334  1.00  0.00    -0.252 OA
BRANCH   2   4
ATOM      4  C   UNL A   1      28.316  28.288  22.753  1.00  0.00     0.126 C 
ATOM      5  C   UNL A   1      27.191  28.143  23.780  1.00  0.00     0.025 C 
BRANCH   4   6
ATOM      6  C   UNL A   1      29.530  27.437  23.121  1.00  0.00    -0.031 A 
ATOM      7  C   UNL A   1      31.695  25.590  23.475  1.00  0.00     0.018 A 
ATOM      8  C   UNL A   1      30.588  25.603  24.343  1.00  0.00     0.012 A 
ATOM      9  C   UNL A   1      31.722  26.572  22.477  1.00  0.00     0.131 A 
ATOM     10  C   UNL A   1      29.523  26.510  24.172  1.00  0.00     0.005 A 
ATOM     11  C   UNL A   1      30.668  27.477  22.299  1.00  0.00     0.044 A 
ATOM     12  F   UNL A   1      32.746  26.626  21.610  1.00  0.00    -0.206 F 
BRANCH   7  13
ATOM     13  C   UNL A   1      32.728  24.532  23.550  1.00  0.00    -0.013 A 
ATOM     14  C   UNL A   1      35.008  23.770  24.032  1.00  0.00     0.043 A 
ATOM     15  C   UNL A   1      34.700  22.504  23.536  1.00  0.00     0.026 A 
ATOM     16  C   UNL A   1      34.038  24.786  24.003  1.00  0.00     0.035 A 
ATOM     17  C   UNL A   1      33.405  22.223  23.111  1.00  0.00     0.003 A 
ATOM     18  C   UNL A   1      32.430  23.224  23.126  1.00  0.00     0.009 A 
BRANCH  14  19
ATOM     19  N   UNL A   1      36.295  23.960  24.567  1.00  0.00    -0.308 N 
ATOM     20  N   UNL A   1      36.295  22.690  26.555  1.00  0.00    -0.338 N 
ATOM     21  C   UNL A   1      36.782  23.715  25.812  1.00  0.00     0.319 C 
ATOM     22  H   UNL A   1      36.591  22.654  27.493  1.00  0.00     0.165 HD
ATOM     23  O   UNL A   1      37.764  24.330  26.226  1.00  0.00    -0.249 OA
ATOM     24  H   UNL A   1      36.952  24.331  23.934  1.00  0.00     0.171 HD
BRANCH  20  25
ATOM     25  C   UNL A   1      35.393  21.647  26.133  1.00  0.00     0.117 C 
BRANCH  25  26
ATOM     26  C   UNL A   1      34.090  21.568  26.914  1.00  0.00     0.021 C 
BRANCH  26  27
ATOM     27  C   UNL A   1      33.333  22.886  27.075  1.00  0.00     0.002 C 
BRANCH  27  28
ATOM     28  C   UNL A   1      31.893  22.773  27.587  1.00  0.00    -0.000 C 
BRANCH  28  29
ATOM     29  C   UNL A   1      30.800  22.797  26.517  1.00  0.00    -0.003 C 
ATOM     30  C   UNL A   1      29.471  23.293  27.033  1.00  0.00     0.004 C 
ENDBRANCH  28  29
ENDBRANCH  27  28
ENDBRANCH  26  27
ENDBRANCH  25  26
ENDBRANCH  20  25
ENDBRANCH  14  19
ENDBRANCH   7  13
ENDBRANCH   4   6
ENDBRANCH   2   4
ENDBRANCH   1   2
BRANCH   1  31
ATOM     31  C   UNL A   1      29.220  31.628  23.700  1.00  0.00     0.261 C 
BRANCH  31  32
ATOM     32  C   UNL A   1      30.281  31.361  24.781  1.00  0.00     0.202 C 
BRANCH  32  33
ATOM     33  O   UNL A   1      30.747  30.041  25.010  1.00  0.00    -0.374 OA
BRANCH  33  34
ATOM     34  C   UNL A   1      32.109  29.716  24.762  1.00  0.00     0.202 C 
BRANCH  34  35
ATOM     35  C   UNL A   1      33.131  29.734  25.905  1.00  0.00     0.261 C 
BRANCH  35  36
ATOM     36  O   UNL A   1      32.682  30.373  27.115  1.00  0.00    -0.460 OA
BRANCH  36  37
ATOM     37  C   UNL A   1      33.393  31.471  27.457  1.00  0.00     0.338 C 
ATOM     38  O   UNL A   1      32.957  32.621  27.511  1.00  0.00    -0.246 OA
BRANCH  37  39
ATOM     39  C   UNL A   1      34.813  31.179  27.765  1.00  0.00     0.060 A 
ATOM     40  C   UNL A   1      35.114  29.859  28.123  1.00  0.00     0.016 A 
ATOM     41  C   UNL A   1      35.795  32.170  27.879  1.00  0.00     0.016 A 
ATOM     42  C   UNL A   1      36.332  29.549  28.716  1.00  0.00     0.010 A 
ATOM     43  C   UNL A   1      37.014  31.861  28.501  1.00  0.00     0.010 A 
ATOM     44  C   UNL A   1      37.260  30.561  28.976  1.00  0.00    -0.014 A 
BRANCH  44  45
ATOM     45  C   UNL A   1      38.476  30.218  29.747  1.00  0.00     0.031 A 
ATOM     46  C   UNL A   1      38.639  30.648  31.182  1.00  0.00     0.074 A 
ATOM     47  C   UNL A   1      39.410  29.458  29.158  1.00  0.00     0.049 A 
ATOM     48  N   UNL A   1      39.578  30.350  32.046  1.00  0.00    -0.248 NA
ATOM     49  C   UNL A   1      37.620  31.557  31.713  1.00  0.00     0.031 C 
ATOM     50  C   UNL A   1      39.350  28.980  27.778  1.00  0.00     0.029 A 
ATOM     51  N   UNL A   1      40.569  28.931  29.655  1.00  0.00    -0.354 N 
ATOM     52  C   UNL A   1      39.265  31.053  33.207  1.00  0.00     0.074 A 
ATOM     53  C   UNL A   1      38.087  31.839  32.919  1.00  0.00     0.031 C 
ATOM     54  C   UNL A   1      40.424  28.213  27.540  1.00  0.00     0.029 A 
ATOM     55  C   UNL A   1      41.229  28.138  28.757  1.00  0.00     0.049 A 
ATOM     56  H   UNL A   1      40.896  29.104  30.568  1.00  0.00     0.167 HD
ATOM     57  C   UNL A   1      39.881  31.010  34.414  1.00  0.00     0.037 A 
ATOM     58  C   UNL A   1      42.338  27.394  28.913  1.00  0.00     0.037 A 
ATOM     59  C   UNL A   1      41.006  30.156  34.702  1.00  0.00     0.049 A 
ATOM     60  C   UNL A   1      42.971  27.308  30.270  1.00  0.00     0.074 A 
ATOM     61  C   UNL A   1      41.648  29.942  35.909  1.00  0.00     0.029 A 
ATOM     62  N   UNL A   1      41.649  29.364  33.761  1.00  0.00    -0.354 N 
ATOM     63  N   UNL A   1      42.627  27.908  31.384  1.00  0.00    -0.248 NA
ATOM     64  C   UNL A   1      44.120  26.407  30.398  1.00  0.00     0.031 C 
ATOM     65  C   UNL A   1      42.705  29.051  35.689  1.00  0.00     0.029 A 
ATOM     66  C   UNL A   1      42.692  28.673  34.356  1.00  0.00     0.049 A 
ATOM     67  H   UNL A   1      41.400  29.302  32.811  1.00  0.00     0.167 HD
ATOM     68  C   UNL A   1      43.495  27.433  32.356  1.00  0.00     0.074 A 
ATOM     69  C   UNL A   1      44.374  26.486  31.697  1.00  0.00     0.031 C 
ATOM     70  C   UNL A   1      43.557  27.744  33.675  1.00  0.00     0.037 A 
BRANCH  57  71
ATOM     71  C   UNL A   1      39.353  31.889  35.518  1.00  0.00     0.064 A 
ATOM     72  C   UNL A   1      38.479  31.405  36.504  1.00  0.00     0.173 A 
ATOM     73  C   UNL A   1      39.771  33.225  35.622  1.00  0.00     0.173 A 
ATOM     74  F   UNL A   1      38.041  30.139  36.455  1.00  0.00    -0.203 F 
ATOM     75  C   UNL A   1      38.019  32.232  37.529  1.00  0.00     0.198 A 
ATOM     76  C   UNL A   1      39.336  34.040  36.666  1.00  0.00     0.198 A 
ATOM     77  F   UNL A   1      40.615  33.743  34.717  1.00  0.00    -0.203 F 
ATOM     78  F   UNL A   1      37.144  31.757  38.428  1.00  0.00    -0.200 F 
ATOM     79  C   UNL A   1      38.454  33.545  37.614  1.00  0.00     0.200 A 
ATOM     80  F   UNL A   1      39.772  35.304  36.756  1.00  0.00    -0.200 F 
ATOM     81  F   UNL A   1      38.019  34.334  38.606  1.00  0.00    -0.200 F 
ENDBRANCH  57  71
BRANCH  58  82
ATOM     82  C   UNL A   1      42.823  26.595  27.763  1.00  0.00     0.064 A 
ATOM     83  C   UNL A   1      43.687  27.158  26.816  1.00  0.00     0.173 A 
ATOM     84  C   UNL A   1      42.511  25.234  27.646  1.00  0.00     0.173 A 
ATOM     85  F   UNL A   1      44.010  28.457  26.891  1.00  0.00    -0.203 F 
ATOM     86  C   UNL A   1      44.222  26.386  25.787  1.00  0.00     0.198 A 
ATOM     87  C   UNL A   1      43.064  24.458  26.631  1.00  0.00     0.198 A 
ATOM     88  F   UNL A   1      41.705  24.650  28.546  1.00  0.00    -0.203 F 
ATOM     89  F   UNL A   1      45.037  26.949  24.886  1.00  0.00    -0.200 F 
ATOM     90  C   UNL A   1      43.917  25.036  25.701  1.00  0.00     0.200 A 
ATOM     91  F   UNL A   1      42.787  23.149  26.564  1.00  0.00    -0.200 F 
ATOM     92  F   UNL A   1      44.452  24.288  24.727  1.00  0.00    -0.200 F 
ENDBRANCH  58  82
BRANCH  70  93
ATOM     93  C   UNL A   1      44.598  27.030  34.486  1.00  0.00     0.064 A 
ATOM     94  C   UNL A   1      45.884  27.561  34.662  1.00  0.00     0.173 A 
ATOM     95  C   UNL A   1      44.305  25.797  35.088  1.00  0.00     0.173 A 
ATOM     96  F   UNL A   1      46.214  28.731  34.094  1.00  0.00    -0.203 F 
ATOM     97  C   UNL A   1      46.855  26.862  35.373  1.00  0.00     0.198 A 
ATOM     98  C   UNL A   1      45.269  25.115  35.825  1.00  0.00     0.198 A 
ATOM     99  F   UNL A   1      43.087  25.251  34.958  1.00  0.00    -0.203 F 
ATOM    100  F   UNL A   1      48.096  27.356  35.471  1.00  0.00    -0.200 F 
ATOM    101  C   UNL A   1      46.546  25.641  35.955  1.00  0.00     0.200 A 
ATOM    102  F   UNL A   1      44.967  23.941  36.396  1.00  0.00    -0.200 F 
ATOM    103  F   UNL A   1      47.485  24.964  36.632  1.00  0.00    -0.200 F 
ENDBRANCH  70  93
ENDBRANCH  44  45
ENDBRANCH  37  39
ENDBRANCH  36  37
ENDBRANCH  35  36
ENDBRANCH  34  35
ENDBRANCH  33  34
ENDBRANCH  32  33
ENDBRANCH  31  32
ENDBRANCH   1  31
TORSDOF 22
ENDMDL
