MODEL 1
REMARK VINA RESULT:     -11.3      0.000      0.000
REMARK SMILES C[C@@H](C(=O)NCc1ccco1)[N@H+]1CCCC[C@@H]1C(=O)OCCOCCOC(=O)c1ccc(-c2c3nc(c(-c4c(F)c(F)c(F)c(F)c4F)c4ccc([nH]4)c(-c4c(F)c(F)c(F)c(F)c4F)c4nc(c(-c5c(F)c(F)c(F)c(F)c5F)c5ccc2[nH]5)C=C4)C=C3)cc1
REMARK SMILES IDX 22 1 21 2 20 3 18 4 19 5 17 6 12 7 13 8 14 10 16 11 15 12
REMARK SMILES IDX 2 13 1 14 3 15 4 16 5 17 6 19 7 20 8 21 11 22 9 23 10 24
REMARK SMILES IDX 23 25 24 26 25 27 26 28 27 29 28 30 29 31 30 32 91 33 31 34
REMARK SMILES IDX 90 35 32 36 33 37 34 38 84 39 35 40 89 41 83 42 85 43 36 44
REMARK SMILES IDX 88 45 82 46 81 47 37 49 69 50 49 51 68 52 50 53 53 54 67 55
REMARK SMILES IDX 86 56 51 57 52 58 66 60 87 61 54 62 38 63 39 64 47 65 40 66
REMARK SMILES IDX 41 67 45 68 48 69 42 70 43 71 46 72 44 73 70 74 71 75 79 76
REMARK SMILES IDX 72 77 73 78 77 79 80 80 74 81 75 82 78 83 76 84 55 85 56 86
REMARK SMILES IDX 64 87 57 88 58 89 62 90 65 91 59 92 60 93 63 94 61 95
REMARK H PARENT 12 9 5 18 85 48 53 59
REMARK Flexibility Score: inf
ROOT
ATOM      1  C   UNL A   1      32.910  30.113  27.234  1.00  0.00     0.202 C 
ENDROOT
BRANCH   1   2
ATOM      2  C   UNL A   1      33.180  28.613  27.047  1.00  0.00     0.261 C 
BRANCH   2   3
ATOM      3  O   UNL A   1      32.111  27.743  27.442  1.00  0.00    -0.459 OA
BRANCH   3   4
ATOM      4  C   UNL A   1      31.751  26.862  26.467  1.00  0.00     0.365 C 
ATOM      5  O   UNL A   1      30.584  26.669  26.140  1.00  0.00    -0.245 OA
BRANCH   4   6
ATOM      6  C   UNL A   1      32.939  26.178  25.770  1.00  0.00     0.295 C 
ATOM      7  N   UNL A   1      32.872  26.181  24.276  1.00  0.00    -0.313 N 
ATOM      8  C   UNL A   1      34.141  25.664  23.726  1.00  0.00     0.263 C 
ATOM      9  H   UNL A   1      32.084  25.569  24.065  1.00  0.00     0.349 HD
ATOM     10  C   UNL A   1      34.408  24.229  24.186  1.00  0.00     0.062 C 
ATOM     11  C   UNL A   1      33.130  24.731  26.271  1.00  0.00     0.078 C 
ATOM     12  C   UNL A   1      34.403  24.117  25.702  1.00  0.00     0.013 C 
BRANCH   7  13
ATOM     13  C   UNL A   1      32.494  27.464  23.597  1.00  0.00     0.271 C 
ATOM     14  C   UNL A   1      33.800  28.222  23.352  1.00  0.00     0.086 C 
BRANCH  13  15
ATOM     15  C   UNL A   1      31.562  27.287  22.372  1.00  0.00     0.278 C 
ATOM     16  O   UNL A   1      31.559  26.267  21.681  1.00  0.00    -0.268 OA
ATOM     17  N   UNL A   1      30.766  28.348  22.026  1.00  0.00    -0.344 N 
ATOM     18  H   UNL A   1      31.040  28.924  21.276  1.00  0.00     0.164 HD
BRANCH  17  19
ATOM     19  C   UNL A   1      29.540  28.648  22.723  1.00  0.00     0.191 C 
BRANCH  19  20
ATOM     20  C   UNL A   1      29.026  29.991  22.359  1.00  0.00     0.122 A 
ATOM     21  C   UNL A   1      28.896  31.163  23.078  1.00  0.00     0.047 A 
ATOM     22  O   UNL A   1      28.531  30.168  21.097  1.00  0.00    -0.467 OA
ATOM     23  C   UNL A   1      28.302  32.108  22.208  1.00  0.00     0.042 A 
ATOM     24  C   UNL A   1      28.105  31.456  21.015  1.00  0.00     0.195 A 
ENDBRANCH  19  20
ENDBRANCH  17  19
ENDBRANCH  13  15
ENDBRANCH   7  13
ENDBRANCH   4   6
ENDBRANCH   3   4
ENDBRANCH   2   3
ENDBRANCH   1   2
BRANCH   1  25
ATOM     25  O   UNL A   1      31.980  30.773  26.386  1.00  0.00    -0.374 OA
BRANCH  25  26
ATOM     26  C   UNL A   1      31.369  31.981  26.837  1.00  0.00     0.202 C 
BRANCH  26  27
ATOM     27  C   UNL A   1      32.228  33.250  26.879  1.00  0.00     0.261 C 
BRANCH  27  28
ATOM     28  O   UNL A   1      32.532  33.649  28.229  1.00  0.00    -0.460 OA
BRANCH  28  29
ATOM     29  C   UNL A   1      33.675  34.360  28.359  1.00  0.00     0.338 C 
ATOM     30  O   UNL A   1      33.793  35.578  28.430  1.00  0.00    -0.246 OA
BRANCH  29  31
ATOM     31  C   UNL A   1      34.808  33.457  28.609  1.00  0.00     0.060 A 
ATOM     32  C   UNL A   1      34.546  32.274  29.315  1.00  0.00     0.016 A 
ATOM     33  C   UNL A   1      36.113  33.805  28.260  1.00  0.00     0.016 A 
ATOM     34  C   UNL A   1      35.596  31.462  29.728  1.00  0.00     0.010 A 
ATOM     35  C   UNL A   1      37.169  32.996  28.689  1.00  0.00     0.010 A 
ATOM     36  C   UNL A   1      36.916  31.847  29.462  1.00  0.00    -0.014 A 
BRANCH  36  37
ATOM     37  C   UNL A   1      38.021  31.149  30.159  1.00  0.00     0.031 A 
ATOM     38  C   UNL A   1      38.287  31.482  31.600  1.00  0.00     0.074 A 
ATOM     39  C   UNL A   1      38.741  30.202  29.534  1.00  0.00     0.049 A 
ATOM     40  N   UNL A   1      39.205  31.017  32.407  1.00  0.00    -0.248 NA
ATOM     41  C   UNL A   1      37.392  32.476  32.218  1.00  0.00     0.031 C 
ATOM     42  C   UNL A   1      38.542  29.763  28.156  1.00  0.00     0.029 A 
ATOM     43  N   UNL A   1      39.791  29.444  29.985  1.00  0.00    -0.354 N 
ATOM     44  C   UNL A   1      39.004  31.663  33.620  1.00  0.00     0.074 A 
ATOM     45  C   UNL A   1      37.894  32.573  33.439  1.00  0.00     0.031 C 
ATOM     46  C   UNL A   1      39.453  28.818  27.865  1.00  0.00     0.029 A 
ATOM     47  C   UNL A   1      40.313  28.609  29.028  1.00  0.00     0.049 A 
ATOM     48  H   UNL A   1      40.137  29.493  30.905  1.00  0.00     0.167 HD
ATOM     49  C   UNL A   1      39.681  31.505  34.781  1.00  0.00     0.037 A 
ATOM     50  C   UNL A   1      41.381  27.789  29.085  1.00  0.00     0.037 A 
ATOM     51  C   UNL A   1      40.782  30.595  34.957  1.00  0.00     0.049 A 
ATOM     52  C   UNL A   1      42.160  27.681  30.370  1.00  0.00     0.074 A 
ATOM     53  C   UNL A   1      41.523  30.346  36.099  1.00  0.00     0.029 A 
ATOM     54  N   UNL A   1      41.305  29.790  33.956  1.00  0.00    -0.354 N 
ATOM     55  N   UNL A   1      41.950  28.276  31.519  1.00  0.00    -0.248 NA
ATOM     56  C   UNL A   1      43.322  26.781  30.366  1.00  0.00     0.031 C 
ATOM     57  C   UNL A   1      42.526  29.426  35.776  1.00  0.00     0.029 A 
ATOM     58  C   UNL A   1      42.376  29.062  34.446  1.00  0.00     0.049 A 
ATOM     59  H   UNL A   1      40.964  29.743  33.034  1.00  0.00     0.167 HD
ATOM     60  C   UNL A   1      42.934  27.807  32.379  1.00  0.00     0.074 A 
ATOM     61  C   UNL A   1      43.734  26.865  31.624  1.00  0.00     0.031 C 
ATOM     62  C   UNL A   1      43.155  28.125  33.679  1.00  0.00     0.037 A 
BRANCH  49  63
ATOM     63  C   UNL A   1      39.267  32.355  35.946  1.00  0.00     0.064 A 
ATOM     64  C   UNL A   1      38.361  31.894  36.912  1.00  0.00     0.173 A 
ATOM     65  C   UNL A   1      39.809  33.638  36.113  1.00  0.00     0.173 A 
ATOM     66  F   UNL A   1      37.803  30.680  36.790  1.00  0.00    -0.203 F 
ATOM     67  C   UNL A   1      37.996  32.696  37.991  1.00  0.00     0.198 A 
ATOM     68  C   UNL A   1      39.464  34.426  37.207  1.00  0.00     0.198 A 
ATOM     69  F   UNL A   1      40.682  34.125  35.218  1.00  0.00    -0.203 F 
ATOM     70  F   UNL A   1      37.096  32.251  38.879  1.00  0.00    -0.200 F 
ATOM     71  C   UNL A   1      38.553  33.957  38.141  1.00  0.00     0.200 A 
ATOM     72  F   UNL A   1      40.010  35.640  37.356  1.00  0.00    -0.200 F 
ATOM     73  F   UNL A   1      38.206  34.724  39.184  1.00  0.00    -0.200 F 
ENDBRANCH  49  63
BRANCH  50  74
ATOM     74  C   UNL A   1      41.786  27.017  27.882  1.00  0.00     0.064 A 
ATOM     75  C   UNL A   1      42.675  27.553  26.940  1.00  0.00     0.173 A 
ATOM     76  C   UNL A   1      41.280  25.730  27.644  1.00  0.00     0.173 A 
ATOM     77  F   UNL A   1      43.165  28.790  27.111  1.00  0.00    -0.203 F 
ATOM     78  C   UNL A   1      43.028  26.839  25.797  1.00  0.00     0.198 A 
ATOM     79  C   UNL A   1      41.655  25.007  26.514  1.00  0.00     0.198 A 
ATOM     80  F   UNL A   1      40.424  25.173  28.513  1.00  0.00    -0.203 F 
ATOM     81  F   UNL A   1      43.843  27.392  24.889  1.00  0.00    -0.200 F 
ATOM     82  C   UNL A   1      42.523  25.564  25.587  1.00  0.00     0.200 A 
ATOM     83  F   UNL A   1      41.174  23.771  26.322  1.00  0.00    -0.200 F 
ATOM     84  F   UNL A   1      42.866  24.877  24.490  1.00  0.00    -0.200 F 
ENDBRANCH  50  74
BRANCH  62  85
ATOM     85  C   UNL A   1      44.286  27.425  34.377  1.00  0.00     0.064 A 
ATOM     86  C   UNL A   1      45.566  27.992  34.454  1.00  0.00     0.173 A 
ATOM     87  C   UNL A   1      44.072  26.194  35.014  1.00  0.00     0.173 A 
ATOM     88  F   UNL A   1      45.825  29.161  33.849  1.00  0.00    -0.203 F 
ATOM     89  C   UNL A   1      46.598  27.339  35.125  1.00  0.00     0.198 A 
ATOM     90  C   UNL A   1      45.097  25.559  35.709  1.00  0.00     0.198 A 
ATOM     91  F   UNL A   1      42.863  25.614  34.976  1.00  0.00    -0.203 F 
ATOM     92  F   UNL A   1      47.825  27.877  35.148  1.00  0.00    -0.200 F 
ATOM     93  C   UNL A   1      46.361  26.128  35.758  1.00  0.00     0.200 A 
ATOM     94  F   UNL A   1      44.863  24.395  36.331  1.00  0.00    -0.200 F 
ATOM     95  F   UNL A   1      47.352  25.505  36.409  1.00  0.00    -0.200 F 
ENDBRANCH  62  85
ENDBRANCH  36  37
ENDBRANCH  29  31
ENDBRANCH  28  29
ENDBRANCH  27  28
ENDBRANCH  26  27
ENDBRANCH  25  26
ENDBRANCH   1  25
TORSDOF 18
ENDMDL
MODEL 2
REMARK VINA RESULT:     -11.2      5.029     10.738
REMARK SMILES C[C@@H](C(=O)NCc1ccco1)[N@H+]1CCCC[C@@H]1C(=O)OCCOCCOC(=O)c1ccc(-c2c3nc(c(-c4c(F)c(F)c(F)c(F)c4F)c4ccc([nH]4)c(-c4c(F)c(F)c(F)c(F)c4F)c4nc(c(-c5c(F)c(F)c(F)c(F)c5F)c5ccc2[nH]5)C=C4)C=C3)cc1
REMARK SMILES IDX 22 1 21 2 20 3 18 4 19 5 17 6 12 7 13 8 14 10 16 11 15 12
REMARK SMILES IDX 2 13 1 14 3 15 4 16 5 17 6 19 7 20 8 21 11 22 9 23 10 24
REMARK SMILES IDX 23 25 24 26 25 27 26 28 27 29 28 30 29 31 30 32 91 33 31 34
REMARK SMILES IDX 90 35 32 36 33 37 34 38 84 39 35 40 89 41 83 42 85 43 36 44
REMARK SMILES IDX 88 45 82 46 81 47 37 49 69 50 49 51 68 52 50 53 53 54 67 55
REMARK SMILES IDX 86 56 51 57 52 58 66 60 87 61 54 62 38 63 39 64 47 65 40 66
REMARK SMILES IDX 41 67 45 68 48 69 42 70 43 71 46 72 44 73 70 74 71 75 79 76
REMARK SMILES IDX 72 77 73 78 77 79 80 80 74 81 75 82 78 83 76 84 55 85 56 86
REMARK SMILES IDX 64 87 57 88 58 89 62 90 65 91 59 92 60 93 63 94 61 95
REMARK H PARENT 12 9 5 18 85 48 53 59
REMARK Flexibility Score: inf
ROOT
ATOM      1  C   UNL A   1      37.403  22.368  24.252  1.00  0.00     0.202 C 
ENDROOT
BRANCH   1   2
ATOM      2  C   UNL A   1      36.219  23.304  23.970  1.00  0.00     0.261 C 
BRANCH   2   3
ATOM      3  O   UNL A   1      35.421  22.958  22.830  1.00  0.00    -0.459 OA
BRANCH   3   4
ATOM      4  C   UNL A   1      34.135  23.396  22.926  1.00  0.00     0.365 C 
ATOM      5  O   UNL A   1      33.217  22.921  22.262  1.00  0.00    -0.245 OA
BRANCH   4   6
ATOM      6  C   UNL A   1      33.921  24.492  23.983  1.00  0.00     0.295 C 
ATOM      7  N   UNL A   1      33.007  24.110  25.104  1.00  0.00    -0.313 N 
ATOM      8  C   UNL A   1      33.025  25.165  26.135  1.00  0.00     0.263 C 
ATOM      9  H   UNL A   1      32.094  24.025  24.656  1.00  0.00     0.349 HD
ATOM     10  C   UNL A   1      32.552  26.508  25.573  1.00  0.00     0.062 C 
ATOM     11  C   UNL A   1      33.425  25.805  23.342  1.00  0.00     0.078 C 
ATOM     12  C   UNL A   1      33.376  26.931  24.367  1.00  0.00     0.013 C 
BRANCH   7  13
ATOM     13  C   UNL A   1      33.199  22.762  25.733  1.00  0.00     0.271 C 
ATOM     14  C   UNL A   1      33.766  23.017  27.130  1.00  0.00     0.086 C 
BRANCH  13  15
ATOM     15  C   UNL A   1      31.959  21.837  25.653  1.00  0.00     0.278 C 
ATOM     16  O   UNL A   1      30.810  22.252  25.806  1.00  0.00    -0.268 OA
ATOM     17  N   UNL A   1      32.182  20.497  25.467  1.00  0.00    -0.344 N 
ATOM     18  H   UNL A   1      32.129  19.894  26.243  1.00  0.00     0.164 HD
BRANCH  17  19
ATOM     19  C   UNL A   1      32.489  19.942  24.172  1.00  0.00     0.191 C 
BRANCH  19  20
ATOM     20  C   UNL A   1      33.150  18.619  24.295  1.00  0.00     0.122 A 
ATOM     21  C   UNL A   1      34.478  18.246  24.357  1.00  0.00     0.047 A 
ATOM     22  O   UNL A   1      32.358  17.506  24.316  1.00  0.00    -0.467 OA
ATOM     23  C   UNL A   1      34.499  16.833  24.432  1.00  0.00     0.042 A 
ATOM     24  C   UNL A   1      33.185  16.431  24.409  1.00  0.00     0.195 A 
ENDBRANCH  19  20
ENDBRANCH  17  19
ENDBRANCH  13  15
ENDBRANCH   7  13
ENDBRANCH   4   6
ENDBRANCH   3   4
ENDBRANCH   2   3
ENDBRANCH   1   2
BRANCH   1  25
ATOM     25  O   UNL A   1      37.273  21.341  25.226  1.00  0.00    -0.374 OA
BRANCH  25  26
ATOM     26  C   UNL A   1      37.663  20.011  24.887  1.00  0.00     0.202 C 
BRANCH  26  27
ATOM     27  C   UNL A   1      39.027  19.515  25.377  1.00  0.00     0.261 C 
BRANCH  27  28
ATOM     28  O   UNL A   1      39.436  20.172  26.590  1.00  0.00    -0.460 OA
BRANCH  28  29
ATOM     29  C   UNL A   1      40.744  20.512  26.630  1.00  0.00     0.338 C 
ATOM     30  O   UNL A   1      41.690  19.899  26.149  1.00  0.00    -0.246 OA
BRANCH  29  31
ATOM     31  C   UNL A   1      40.899  21.868  27.180  1.00  0.00     0.060 A 
ATOM     32  C   UNL A   1      40.216  22.908  26.533  1.00  0.00     0.016 A 
ATOM     33  C   UNL A   1      41.774  22.135  28.233  1.00  0.00     0.016 A 
ATOM     34  C   UNL A   1      40.451  24.229  26.897  1.00  0.00     0.010 A 
ATOM     35  C   UNL A   1      42.021  23.465  28.588  1.00  0.00     0.010 A 
ATOM     36  C   UNL A   1      41.394  24.515  27.891  1.00  0.00    -0.014 A 
BRANCH  36  37
ATOM     37  C   UNL A   1      41.858  25.912  28.059  1.00  0.00     0.031 A 
ATOM     38  C   UNL A   1      43.199  26.297  27.502  1.00  0.00     0.074 A 
ATOM     39  C   UNL A   1      41.077  26.831  28.652  1.00  0.00     0.049 A 
ATOM     40  N   UNL A   1      43.819  27.448  27.543  1.00  0.00    -0.248 NA
ATOM     41  C   UNL A   1      43.945  25.238  26.801  1.00  0.00     0.031 C 
ATOM     42  C   UNL A   1      39.740  26.584  29.186  1.00  0.00     0.029 A 
ATOM     43  N   UNL A   1      41.305  28.159  28.907  1.00  0.00    -0.354 N 
ATOM     44  C   UNL A   1      45.024  27.251  26.882  1.00  0.00     0.074 A 
ATOM     45  C   UNL A   1      45.064  25.864  26.472  1.00  0.00     0.031 C 
ATOM     46  C   UNL A   1      39.269  27.724  29.720  1.00  0.00     0.029 A 
ATOM     47  C   UNL A   1      40.283  28.769  29.589  1.00  0.00     0.049 A 
ATOM     48  H   UNL A   1      42.124  28.630  28.627  1.00  0.00     0.167 HD
ATOM     49  C   UNL A   1      46.006  28.149  26.634  1.00  0.00     0.037 A 
ATOM     50  C   UNL A   1      40.192  30.024  30.072  1.00  0.00     0.037 A 
ATOM     51  C   UNL A   1      45.961  29.528  27.040  1.00  0.00     0.049 A 
ATOM     52  C   UNL A   1      41.328  30.986  29.841  1.00  0.00     0.074 A 
ATOM     53  C   UNL A   1      46.895  30.525  26.821  1.00  0.00     0.029 A 
ATOM     54  N   UNL A   1      44.923  30.103  27.759  1.00  0.00    -0.354 N 
ATOM     55  N   UNL A   1      42.453  30.801  29.196  1.00  0.00    -0.248 NA
ATOM     56  C   UNL A   1      41.177  32.337  30.403  1.00  0.00     0.031 C 
ATOM     57  C   UNL A   1      46.445  31.691  27.451  1.00  0.00     0.029 A 
ATOM     58  C   UNL A   1      45.206  31.434  28.016  1.00  0.00     0.049 A 
ATOM     59  H   UNL A   1      44.106  29.633  28.045  1.00  0.00     0.167 HD
ATOM     60  C   UNL A   1      43.131  32.011  29.250  1.00  0.00     0.074 A 
ATOM     61  C   UNL A   1      42.285  32.930  29.982  1.00  0.00     0.031 C 
ATOM     62  C   UNL A   1      44.346  32.334  28.740  1.00  0.00     0.037 A 
BRANCH  49  63
ATOM     63  C   UNL A   1      47.227  27.660  25.911  1.00  0.00     0.064 A 
ATOM     64  C   UNL A   1      48.335  27.143  26.600  1.00  0.00     0.173 A 
ATOM     65  C   UNL A   1      47.275  27.680  24.510  1.00  0.00     0.173 A 
ATOM     66  F   UNL A   1      48.344  27.115  27.941  1.00  0.00    -0.203 F 
ATOM     67  C   UNL A   1      49.455  26.686  25.910  1.00  0.00     0.198 A 
ATOM     68  C   UNL A   1      48.385  27.197  23.823  1.00  0.00     0.198 A 
ATOM     69  F   UNL A   1      46.241  28.162  23.805  1.00  0.00    -0.203 F 
ATOM     70  F   UNL A   1      50.519  26.236  26.589  1.00  0.00    -0.200 F 
ATOM     71  C   UNL A   1      49.476  26.707  24.524  1.00  0.00     0.200 A 
ATOM     72  F   UNL A   1      48.400  27.208  22.483  1.00  0.00    -0.200 F 
ATOM     73  F   UNL A   1      50.553  26.259  23.862  1.00  0.00    -0.200 F 
ENDBRANCH  49  63
BRANCH  50  74
ATOM     74  C   UNL A   1      38.987  30.438  30.836  1.00  0.00     0.064 A 
ATOM     75  C   UNL A   1      37.858  30.956  30.187  1.00  0.00     0.173 A 
ATOM     76  C   UNL A   1      38.946  30.336  32.235  1.00  0.00     0.173 A 
ATOM     77  F   UNL A   1      37.859  31.097  28.853  1.00  0.00    -0.203 F 
ATOM     78  C   UNL A   1      36.742  31.374  30.909  1.00  0.00     0.198 A 
ATOM     79  C   UNL A   1      37.819  30.728  32.953  1.00  0.00     0.198 A 
ATOM     80  F   UNL A   1      40.001  29.849  32.905  1.00  0.00    -0.203 F 
ATOM     81  F   UNL A   1      35.694  31.909  30.268  1.00  0.00    -0.200 F 
ATOM     82  C   UNL A   1      36.720  31.254  32.291  1.00  0.00     0.200 A 
ATOM     83  F   UNL A   1      37.798  30.599  34.287  1.00  0.00    -0.200 F 
ATOM     84  F   UNL A   1      35.645  31.652  32.984  1.00  0.00    -0.200 F 
ENDBRANCH  50  74
BRANCH  62  85
ATOM     85  C   UNL A   1      44.818  33.748  28.926  1.00  0.00     0.064 A 
ATOM     86  C   UNL A   1      45.610  34.121  30.020  1.00  0.00     0.173 A 
ATOM     87  C   UNL A   1      44.509  34.728  27.971  1.00  0.00     0.173 A 
ATOM     88  F   UNL A   1      45.920  33.223  30.968  1.00  0.00    -0.203 F 
ATOM     89  C   UNL A   1      46.057  35.433  30.164  1.00  0.00     0.198 A 
ATOM     90  C   UNL A   1      44.983  36.030  28.102  1.00  0.00     0.198 A 
ATOM     91  F   UNL A   1      43.761  34.419  26.901  1.00  0.00    -0.203 F 
ATOM     92  F   UNL A   1      46.776  35.779  31.242  1.00  0.00    -0.200 F 
ATOM     93  C   UNL A   1      45.750  36.383  29.203  1.00  0.00     0.200 A 
ATOM     94  F   UNL A   1      44.696  36.945  27.165  1.00  0.00    -0.200 F 
ATOM     95  F   UNL A   1      46.187  37.643  29.339  1.00  0.00    -0.200 F 
ENDBRANCH  62  85
ENDBRANCH  36  37
ENDBRANCH  29  31
ENDBRANCH  28  29
ENDBRANCH  27  28
ENDBRANCH  26  27
ENDBRANCH  25  26
ENDBRANCH   1  25
TORSDOF 18
ENDMDL
MODEL 3
REMARK VINA RESULT:     -11.1      1.279      2.288
REMARK SMILES C[C@@H](C(=O)NCc1ccco1)[N@H+]1CCCC[C@@H]1C(=O)OCCOCCOC(=O)c1ccc(-c2c3nc(c(-c4c(F)c(F)c(F)c(F)c4F)c4ccc([nH]4)c(-c4c(F)c(F)c(F)c(F)c4F)c4nc(c(-c5c(F)c(F)c(F)c(F)c5F)c5ccc2[nH]5)C=C4)C=C3)cc1
REMARK SMILES IDX 22 1 21 2 20 3 18 4 19 5 17 6 12 7 13 8 14 10 16 11 15 12
REMARK SMILES IDX 2 13 1 14 3 15 4 16 5 17 6 19 7 20 8 21 11 22 9 23 10 24
REMARK SMILES IDX 23 25 24 26 25 27 26 28 27 29 28 30 29 31 30 32 91 33 31 34
REMARK SMILES IDX 90 35 32 36 33 37 34 38 84 39 35 40 89 41 83 42 85 43 36 44
REMARK SMILES IDX 88 45 82 46 81 47 37 49 69 50 49 51 68 52 50 53 53 54 67 55
REMARK SMILES IDX 86 56 51 57 52 58 66 60 87 61 54 62 38 63 39 64 47 65 40 66
REMARK SMILES IDX 41 67 45 68 48 69 42 70 43 71 46 72 44 73 70 74 71 75 79 76
REMARK SMILES IDX 72 77 73 78 77 79 80 80 74 81 75 82 78 83 76 84 55 85 56 86
REMARK SMILES IDX 64 87 57 88 58 89 62 90 65 91 59 92 60 93 63 94 61 95
REMARK H PARENT 12 9 5 18 85 48 53 59
REMARK Flexibility Score: inf
ROOT
ATOM      1  C   UNL A   1      31.868  29.462  27.003  1.00  0.00     0.202 C 
ENDROOT
BRANCH   1   2
ATOM      2  C   UNL A   1      32.170  27.985  27.299  1.00  0.00     0.261 C 
BRANCH   2   3
ATOM      3  O   UNL A   1      31.034  27.112  27.285  1.00  0.00    -0.459 OA
BRANCH   3   4
ATOM      4  C   UNL A   1      31.031  26.257  26.224  1.00  0.00     0.365 C 
ATOM      5  O   UNL A   1      30.012  25.968  25.603  1.00  0.00    -0.245 OA
BRANCH   4   6
ATOM      6  C   UNL A   1      32.424  25.736  25.833  1.00  0.00     0.295 C 
ATOM      7  N   UNL A   1      32.761  25.882  24.383  1.00  0.00    -0.313 N 
ATOM      8  C   UNL A   1      34.175  25.518  24.167  1.00  0.00     0.263 C 
ATOM      9  H   UNL A   1      32.123  25.237  23.917  1.00  0.00     0.349 HD
ATOM     10  C   UNL A   1      34.451  24.069  24.575  1.00  0.00     0.062 C 
ATOM     11  C   UNL A   1      32.616  24.265  26.257  1.00  0.00     0.078 C 
ATOM     12  C   UNL A   1      34.050  23.808  26.018  1.00  0.00     0.013 C 
BRANCH   7  13
ATOM     13  C   UNL A   1      32.453  27.194  23.723  1.00  0.00     0.271 C 
ATOM     14  C   UNL A   1      33.788  27.928  23.584  1.00  0.00     0.086 C 
BRANCH  13  15
ATOM     15  C   UNL A   1      31.596  27.077  22.437  1.00  0.00     0.278 C 
ATOM     16  O   UNL A   1      31.666  26.109  21.679  1.00  0.00    -0.268 OA
ATOM     17  N   UNL A   1      30.785  28.135  22.121  1.00  0.00    -0.344 N 
ATOM     18  H   UNL A   1      31.080  28.770  21.430  1.00  0.00     0.164 HD
BRANCH  17  19
ATOM     19  C   UNL A   1      29.513  28.347  22.766  1.00  0.00     0.191 C 
BRANCH  19  20
ATOM     20  C   UNL A   1      28.988  29.708  22.493  1.00  0.00     0.122 A 
ATOM     21  C   UNL A   1      28.693  30.774  23.320  1.00  0.00     0.047 A 
ATOM     22  O   UNL A   1      28.676  30.027  21.201  1.00  0.00    -0.467 OA
ATOM     23  C   UNL A   1      28.186  31.801  22.490  1.00  0.00     0.042 A 
ATOM     24  C   UNL A   1      28.200  31.300  21.210  1.00  0.00     0.195 A 
ENDBRANCH  19  20
ENDBRANCH  17  19
ENDBRANCH  13  15
ENDBRANCH   7  13
ENDBRANCH   4   6
ENDBRANCH   3   4
ENDBRANCH   2   3
ENDBRANCH   1   2
BRANCH   1  25
ATOM     25  O   UNL A   1      32.779  30.466  27.428  1.00  0.00    -0.374 OA
BRANCH  25  26
ATOM     26  C   UNL A   1      32.637  31.791  26.916  1.00  0.00     0.202 C 
BRANCH  26  27
ATOM     27  C   UNL A   1      33.357  32.927  27.650  1.00  0.00     0.261 C 
BRANCH  27  28
ATOM     28  O   UNL A   1      32.433  33.884  28.201  1.00  0.00    -0.460 OA
BRANCH  28  29
ATOM     29  C   UNL A   1      33.015  34.983  28.733  1.00  0.00     0.338 C 
ATOM     30  O   UNL A   1      32.593  36.134  28.713  1.00  0.00    -0.246 OA
BRANCH  29  31
ATOM     31  C   UNL A   1      34.177  34.598  29.547  1.00  0.00     0.060 A 
ATOM     32  C   UNL A   1      35.432  34.602  28.922  1.00  0.00     0.016 A 
ATOM     33  C   UNL A   1      34.034  34.139  30.856  1.00  0.00     0.016 A 
ATOM     34  C   UNL A   1      36.543  34.091  29.584  1.00  0.00     0.010 A 
ATOM     35  C   UNL A   1      35.149  33.610  31.515  1.00  0.00     0.010 A 
ATOM     36  C   UNL A   1      36.395  33.545  30.864  1.00  0.00    -0.014 A 
BRANCH  36  37
ATOM     37  C   UNL A   1      37.499  32.737  31.432  1.00  0.00     0.031 A 
ATOM     38  C   UNL A   1      38.001  33.071  32.808  1.00  0.00     0.074 A 
ATOM     39  C   UNL A   1      38.011  31.696  30.754  1.00  0.00     0.049 A 
ATOM     40  N   UNL A   1      38.964  32.519  33.501  1.00  0.00    -0.248 NA
ATOM     41  C   UNL A   1      37.323  34.180  33.501  1.00  0.00     0.031 C 
ATOM     42  C   UNL A   1      37.571  31.250  29.435  1.00  0.00     0.029 A 
ATOM     43  N   UNL A   1      39.019  30.828  31.088  1.00  0.00    -0.354 N 
ATOM     44  C   UNL A   1      39.010  33.214  34.702  1.00  0.00     0.074 A 
ATOM     45  C   UNL A   1      37.999  34.246  34.637  1.00  0.00     0.031 C 
ATOM     46  C   UNL A   1      38.317  30.196  29.062  1.00  0.00     0.029 A 
ATOM     47  C   UNL A   1      39.302  29.913  30.104  1.00  0.00     0.049 A 
ATOM     48  H   UNL A   1      39.494  30.858  31.950  1.00  0.00     0.167 HD
ATOM     49  C   UNL A   1      39.821  33.005  35.766  1.00  0.00     0.037 A 
ATOM     50  C   UNL A   1      40.266  28.973  30.048  1.00  0.00     0.037 A 
ATOM     51  C   UNL A   1      40.823  31.975  35.827  1.00  0.00     0.049 A 
ATOM     52  C   UNL A   1      41.199  28.804  31.219  1.00  0.00     0.074 A 
ATOM     53  C   UNL A   1      41.683  31.666  36.867  1.00  0.00     0.029 A 
ATOM     54  N   UNL A   1      41.104  31.088  34.798  1.00  0.00    -0.354 N 
ATOM     55  N   UNL A   1      41.223  29.448  32.360  1.00  0.00    -0.248 NA
ATOM     56  C   UNL A   1      42.238  27.771  31.094  1.00  0.00     0.031 C 
ATOM     57  C   UNL A   1      42.518  30.625  36.448  1.00  0.00     0.029 A 
ATOM     58  C   UNL A   1      42.142  30.250  35.168  1.00  0.00     0.049 A 
ATOM     59  H   UNL A   1      40.634  31.059  33.933  1.00  0.00     0.167 HD
ATOM     60  C   UNL A   1      42.256  28.886  33.097  1.00  0.00     0.074 A 
ATOM     61  C   UNL A   1      42.829  27.837  32.279  1.00  0.00     0.031 C 
ATOM     62  C   UNL A   1      42.693  29.207  34.340  1.00  0.00     0.037 A 
BRANCH  49  63
ATOM     63  C   UNL A   1      39.675  33.927  36.941  1.00  0.00     0.064 A 
ATOM     64  C   UNL A   1      40.304  35.181  36.977  1.00  0.00     0.173 A 
ATOM     65  C   UNL A   1      38.871  33.563  38.030  1.00  0.00     0.173 A 
ATOM     66  F   UNL A   1      41.095  35.570  35.967  1.00  0.00    -0.203 F 
ATOM     67  C   UNL A   1      40.149  36.026  38.073  1.00  0.00     0.198 A 
ATOM     68  C   UNL A   1      38.696  34.421  39.112  1.00  0.00     0.198 A 
ATOM     69  F   UNL A   1      38.247  32.375  38.043  1.00  0.00    -0.203 F 
ATOM     70  F   UNL A   1      40.792  37.201  38.106  1.00  0.00    -0.200 F 
ATOM     71  C   UNL A   1      39.340  35.649  39.135  1.00  0.00     0.200 A 
ATOM     72  F   UNL A   1      37.907  34.060  40.132  1.00  0.00    -0.200 F 
ATOM     73  F   UNL A   1      39.187  36.467  40.186  1.00  0.00    -0.200 F 
ENDBRANCH  49  63
BRANCH  50  74
ATOM     74  C   UNL A   1      40.406  28.129  28.834  1.00  0.00     0.064 A 
ATOM     75  C   UNL A   1      41.182  28.547  27.744  1.00  0.00     0.173 A 
ATOM     76  C   UNL A   1      39.755  26.890  28.735  1.00  0.00     0.173 A 
ATOM     77  F   UNL A   1      41.803  29.735  27.782  1.00  0.00    -0.203 F 
ATOM     78  C   UNL A   1      41.286  27.767  26.594  1.00  0.00     0.198 A 
ATOM     79  C   UNL A   1      39.882  26.099  27.595  1.00  0.00     0.198 A 
ATOM     80  F   UNL A   1      38.998  26.445  29.748  1.00  0.00    -0.203 F 
ATOM     81  F   UNL A   1      41.997  28.211  25.549  1.00  0.00    -0.200 F 
ATOM     82  C   UNL A   1      40.641  26.541  26.523  1.00  0.00     0.200 A 
ATOM     83  F   UNL A   1      39.267  24.910  27.535  1.00  0.00    -0.200 F 
ATOM     84  F   UNL A   1      40.746  25.790  25.418  1.00  0.00    -0.200 F 
ENDBRANCH  50  74
BRANCH  62  85
ATOM     85  C   UNL A   1      43.823  28.394  34.905  1.00  0.00     0.064 A 
ATOM     86  C   UNL A   1      43.593  27.204  35.608  1.00  0.00     0.173 A 
ATOM     87  C   UNL A   1      45.153  28.791  34.700  1.00  0.00     0.173 A 
ATOM     88  F   UNL A   1      42.338  26.789  35.843  1.00  0.00    -0.203 F 
ATOM     89  C   UNL A   1      44.654  26.451  36.106  1.00  0.00     0.198 A 
ATOM     90  C   UNL A   1      46.211  28.021  35.172  1.00  0.00     0.198 A 
ATOM     91  F   UNL A   1      45.426  29.919  34.026  1.00  0.00    -0.203 F 
ATOM     92  F   UNL A   1      44.410  25.339  36.814  1.00  0.00    -0.200 F 
ATOM     93  C   UNL A   1      45.961  26.856  35.881  1.00  0.00     0.200 A 
ATOM     94  F   UNL A   1      47.474  28.407  34.943  1.00  0.00    -0.200 F 
ATOM     95  F   UNL A   1      46.981  26.126  36.354  1.00  0.00    -0.200 F 
ENDBRANCH  62  85
ENDBRANCH  36  37
ENDBRANCH  29  31
ENDBRANCH  28  29
ENDBRANCH  27  28
ENDBRANCH  26  27
ENDBRANCH  25  26
ENDBRANCH   1  25
TORSDOF 18
ENDMDL
