MODEL 1
REMARK VINA RESULT:     -12.0      0.000      0.000
REMARK SMILES CS(=O)(=O)CC[C@H](NC(=O)Cc1ccn[nH]1)C(=O)OCCOCCOC(=O)c1ccc(-c2c3nc(c(-c4c(F)c(F)c(F)c(F)c4F)c4ccc([nH]4)c(-c4c(F)c(F)c(F)c(F)c4F)c4nc(c(-c5c(F)c(F)c(F)c(F)c5F)c5ccc2[nH]5)C=C4)C=C3)cc1
REMARK SMILES IDX 21 1 20 2 19 3 17 4 18 5 7 6 6 7 5 8 2 9 1 10 3 11 4 12 8 13
REMARK SMILES IDX 9 14 10 16 11 17 12 18 13 19 16 20 14 21 15 22 22 24 23 25
REMARK SMILES IDX 24 26 25 27 26 28 27 29 28 30 29 31 90 32 30 33 89 34 31 35
REMARK SMILES IDX 32 36 33 37 83 38 34 39 88 40 82 41 84 42 35 43 87 44 81 45
REMARK SMILES IDX 80 46 36 48 68 49 48 50 67 51 49 52 52 53 66 54 85 55 50 56
REMARK SMILES IDX 51 57 65 59 86 60 53 61 37 62 38 63 46 64 39 65 40 66 44 67
REMARK SMILES IDX 47 68 41 69 42 70 45 71 43 72 69 73 70 74 78 75 71 76 72 77
REMARK SMILES IDX 76 78 79 79 73 80 74 81 77 82 75 83 54 84 55 85 63 86 56 87
REMARK SMILES IDX 57 88 61 89 64 90 58 91 59 92 62 93 60 94
REMARK H PARENT 8 15 16 23 84 47 52 58
REMARK Flexibility Score: inf
ROOT
ATOM      1  C   UNL A   1      32.849  22.315  23.522  1.00  0.00     0.202 C 
ENDROOT
BRANCH   1   2
ATOM      2  C   UNL A   1      33.203  23.701  22.506  1.00  0.00     0.261 C 
BRANCH   2   3
ATOM      3  O   UNL A   1      34.026  24.767  23.043  1.00  0.00    -0.462 OA
BRANCH   3   4
ATOM      4  C   UNL A   1      33.666  26.034  22.738  1.00  0.00     0.328 C 
ATOM      5  O   UNL A   1      33.751  26.506  21.608  1.00  0.00    -0.250 OA
BRANCH   4   6
ATOM      6  C   UNL A   1      32.872  26.758  23.876  1.00  0.00     0.193 C 
BRANCH   6   7
ATOM      7  C   UNL A   1      33.857  27.713  24.586  1.00  0.00     0.053 C 
BRANCH   7   8
ATOM      8  C   UNL A   1      33.232  29.055  24.972  1.00  0.00     0.139 C 
BRANCH   8   9
ATOM      9  S   UNL A   1      33.245  29.417  26.726  1.00  0.00     0.147 S 
ATOM     10  C   UNL A   1      34.937  29.234  27.235  1.00  0.00     0.158 C 
ATOM     11  O   UNL A   1      32.494  28.363  27.381  1.00  0.00    -0.229 OA
ATOM     12  O   UNL A   1      32.886  30.810  26.908  1.00  0.00    -0.229 OA
ENDBRANCH   8   9
ENDBRANCH   7   8
ENDBRANCH   6   7
BRANCH   6  13
ATOM     13  N   UNL A   1      32.052  26.103  24.910  1.00  0.00    -0.342 N 
ATOM     14  C   UNL A   1      30.705  26.190  25.108  1.00  0.00     0.226 C 
ATOM     15  H   UNL A   1      32.540  25.526  25.541  1.00  0.00     0.164 HD
ATOM     16  O   UNL A   1      30.291  26.345  26.259  1.00  0.00    -0.275 OA
BRANCH  14  17
ATOM     17  C   UNL A   1      29.764  25.946  23.961  1.00  0.00     0.155 C 
BRANCH  17  18
ATOM     18  C   UNL A   1      29.298  27.194  23.270  1.00  0.00     0.044 A 
ATOM     19  C   UNL A   1      27.809  28.240  23.368  1.00  0.00     0.045 A 
ATOM     20  N   UNL A   1      30.447  28.085  22.074  1.00  0.00    -0.282 N 
ATOM     21  C   UNL A   1      28.158  29.812  22.307  1.00  0.00     0.135 A 
ATOM     22  N   UNL A   1      29.708  29.724  21.604  1.00  0.00    -0.184 NA
ATOM     23  H   UNL A   1      31.308  27.737  21.747  1.00  0.00     0.190 HD
ENDBRANCH  17  18
ENDBRANCH  14  17
ENDBRANCH   6  13
ENDBRANCH   4   6
ENDBRANCH   3   4
ENDBRANCH   2   3
ENDBRANCH   1   2
BRANCH   1  24
ATOM     24  O   UNL A   1      34.134  20.916  24.449  1.00  0.00    -0.374 OA
BRANCH  24  25
ATOM     25  C   UNL A   1      35.311  20.775  25.448  1.00  0.00     0.202 C 
BRANCH  25  26
ATOM     26  C   UNL A   1      36.791  20.644  24.934  1.00  0.00     0.261 C 
BRANCH  26  27
ATOM     27  O   UNL A   1      37.728  21.641  25.430  1.00  0.00    -0.460 OA
BRANCH  27  28
ATOM     28  C   UNL A   1      38.890  21.243  26.014  1.00  0.00     0.338 C 
ATOM     29  O   UNL A   1      39.455  20.181  25.831  1.00  0.00    -0.246 OA
BRANCH  28  30
ATOM     30  C   UNL A   1      39.587  22.442  26.571  1.00  0.00     0.060 A 
ATOM     31  C   UNL A   1      39.168  23.714  26.141  1.00  0.00     0.016 A 
ATOM     32  C   UNL A   1      40.607  22.343  27.517  1.00  0.00     0.016 A 
ATOM     33  C   UNL A   1      39.729  24.881  26.676  1.00  0.00     0.010 A 
ATOM     34  C   UNL A   1      41.216  23.515  28.003  1.00  0.00     0.010 A 
ATOM     35  C   UNL A   1      40.789  24.791  27.582  1.00  0.00    -0.014 A 
BRANCH  35  36
ATOM     36  C   UNL A   1      41.595  25.999  27.915  1.00  0.00     0.031 A 
ATOM     37  C   UNL A   1      40.928  27.102  28.694  1.00  0.00     0.074 A 
ATOM     38  C   UNL A   1      42.880  26.144  27.544  1.00  0.00     0.049 A 
ATOM     39  N   UNL A   1      41.339  28.320  28.939  1.00  0.00    -0.248 NA
ATOM     40  C   UNL A   1      39.615  26.779  29.275  1.00  0.00     0.031 C 
ATOM     41  C   UNL A   1      43.695  25.128  26.885  1.00  0.00     0.029 A 
ATOM     42  N   UNL A   1      43.722  27.230  27.654  1.00  0.00    -0.354 N 
ATOM     43  C   UNL A   1      40.325  28.917  29.677  1.00  0.00     0.074 A 
ATOM     44  C   UNL A   1      39.281  27.928  29.842  1.00  0.00     0.031 C 
ATOM     45  C   UNL A   1      44.905  25.651  26.610  1.00  0.00     0.029 A 
ATOM     46  C   UNL A   1      44.931  27.055  27.026  1.00  0.00     0.049 A 
ATOM     47  H   UNL A   1      43.479  28.052  28.138  1.00  0.00     0.167 HD
ATOM     48  C   UNL A   1      40.261  30.179  30.163  1.00  0.00     0.037 A 
ATOM     49  C   UNL A   1      45.919  27.939  26.765  1.00  0.00     0.037 A 
ATOM     50  C   UNL A   1      41.294  31.167  30.001  1.00  0.00     0.049 A 
ATOM     51  C   UNL A   1      45.775  29.378  27.207  1.00  0.00     0.074 A 
ATOM     52  C   UNL A   1      41.323  32.469  30.470  1.00  0.00     0.029 A 
ATOM     53  N   UNL A   1      42.477  30.966  29.308  1.00  0.00    -0.354 N 
ATOM     54  N   UNL A   1      44.810  29.944  27.891  1.00  0.00    -0.248 NA
ATOM     55  C   UNL A   1      46.851  30.305  26.823  1.00  0.00     0.031 C 
ATOM     56  C   UNL A   1      42.493  33.076  30.004  1.00  0.00     0.029 A 
ATOM     57  C   UNL A   1      43.224  32.133  29.300  1.00  0.00     0.049 A 
ATOM     58  H   UNL A   1      42.749  30.119  28.885  1.00  0.00     0.167 HD
ATOM     59  C   UNL A   1      45.174  31.279  28.037  1.00  0.00     0.074 A 
ATOM     60  C   UNL A   1      46.455  31.438  27.386  1.00  0.00     0.031 C 
ATOM     61  C   UNL A   1      44.503  32.284  28.653  1.00  0.00     0.037 A 
BRANCH  48  62
ATOM     62  C   UNL A   1      39.003  30.587  30.870  1.00  0.00     0.064 A 
ATOM     63  C   UNL A   1      38.871  30.500  32.264  1.00  0.00     0.173 A 
ATOM     64  C   UNL A   1      37.923  31.106  30.139  1.00  0.00     0.173 A 
ATOM     65  F   UNL A   1      39.868  29.996  33.006  1.00  0.00    -0.203 F 
ATOM     66  C   UNL A   1      37.694  30.896  32.896  1.00  0.00     0.198 A 
ATOM     67  C   UNL A   1      36.761  31.530  30.777  1.00  0.00     0.198 A 
ATOM     68  F   UNL A   1      37.998  31.213  28.804  1.00  0.00    -0.203 F 
ATOM     69  F   UNL A   1      37.573  30.761  34.224  1.00  0.00    -0.200 F 
ATOM     70  C   UNL A   1      36.645  31.418  32.154  1.00  0.00     0.200 A 
ATOM     71  F   UNL A   1      35.754  32.047  30.059  1.00  0.00    -0.200 F 
ATOM     72  F   UNL A   1      35.518  31.807  32.766  1.00  0.00    -0.200 F 
ENDBRANCH  48  62
BRANCH  49  73
ATOM     73  C   UNL A   1      47.116  27.519  25.984  1.00  0.00     0.064 A 
ATOM     74  C   UNL A   1      48.273  27.049  26.621  1.00  0.00     0.173 A 
ATOM     75  C   UNL A   1      47.147  27.630  24.585  1.00  0.00     0.173 A 
ATOM     76  F   UNL A   1      48.312  26.961  27.958  1.00  0.00    -0.203 F 
ATOM     77  C   UNL A   1      49.418  26.723  25.892  1.00  0.00     0.198 A 
ATOM     78  C   UNL A   1      48.279  27.273  23.855  1.00  0.00     0.198 A 
ATOM     79  F   UNL A   1      46.074  28.089  23.923  1.00  0.00    -0.203 F 
ATOM     80  F   UNL A   1      50.528  26.330  26.532  1.00  0.00    -0.200 F 
ATOM     81  C   UNL A   1      49.417  26.828  24.510  1.00  0.00     0.200 A 
ATOM     82  F   UNL A   1      48.270  27.367  22.519  1.00  0.00    -0.200 F 
ATOM     83  F   UNL A   1      50.515  26.512  23.811  1.00  0.00    -0.200 F 
ENDBRANCH  49  73
BRANCH  61  84
ATOM     84  C   UNL A   1      45.141  33.644  28.681  1.00  0.00     0.064 A 
ATOM     85  C   UNL A   1      46.074  33.999  29.667  1.00  0.00     0.173 A 
ATOM     86  C   UNL A   1      44.868  34.581  27.672  1.00  0.00     0.173 A 
ATOM     87  F   UNL A   1      46.362  33.147  30.662  1.00  0.00    -0.203 F 
ATOM     88  C   UNL A   1      46.698  35.245  29.648  1.00  0.00     0.198 A 
ATOM     89  C   UNL A   1      45.516  35.814  27.639  1.00  0.00     0.198 A 
ATOM     90  F   UNL A   1      43.990  34.291  26.701  1.00  0.00    -0.203 F 
ATOM     91  F   UNL A   1      47.559  35.576  30.622  1.00  0.00    -0.200 F 
ATOM     92  C   UNL A   1      46.426  36.146  28.630  1.00  0.00     0.200 A 
ATOM     93  F   UNL A   1      45.264  36.676  26.645  1.00  0.00    -0.200 F 
ATOM     94  F   UNL A   1      47.039  37.338  28.606  1.00  0.00    -0.200 F 
ENDBRANCH  61  84
ENDBRANCH  35  36
ENDBRANCH  28  30
ENDBRANCH  27  28
ENDBRANCH  26  27
ENDBRANCH  25  26
ENDBRANCH  24  25
ENDBRANCH   1  24
TORSDOF 20
ENDMDL
MODEL 2
REMARK VINA RESULT:     -12.0      4.417     10.014
REMARK SMILES CS(=O)(=O)CC[C@H](NC(=O)Cc1ccn[nH]1)C(=O)OCCOCCOC(=O)c1ccc(-c2c3nc(c(-c4c(F)c(F)c(F)c(F)c4F)c4ccc([nH]4)c(-c4c(F)c(F)c(F)c(F)c4F)c4nc(c(-c5c(F)c(F)c(F)c(F)c5F)c5ccc2[nH]5)C=C4)C=C3)cc1
REMARK SMILES IDX 21 1 20 2 19 3 17 4 18 5 7 6 6 7 5 8 2 9 1 10 3 11 4 12 8 13
REMARK SMILES IDX 9 14 10 16 11 17 12 18 13 19 16 20 14 21 15 22 22 24 23 25
REMARK SMILES IDX 24 26 25 27 26 28 27 29 28 30 29 31 90 32 30 33 89 34 31 35
REMARK SMILES IDX 32 36 33 37 83 38 34 39 88 40 82 41 84 42 35 43 87 44 81 45
REMARK SMILES IDX 80 46 36 48 68 49 48 50 67 51 49 52 52 53 66 54 85 55 50 56
REMARK SMILES IDX 51 57 65 59 86 60 53 61 37 62 38 63 46 64 39 65 40 66 44 67
REMARK SMILES IDX 47 68 41 69 42 70 45 71 43 72 69 73 70 74 78 75 71 76 72 77
REMARK SMILES IDX 76 78 79 79 73 80 74 81 77 82 75 83 54 84 55 85 63 86 56 87
REMARK SMILES IDX 57 88 61 89 64 90 58 91 59 92 62 93 60 94
REMARK H PARENT 8 15 16 23 84 47 52 58
REMARK Flexibility Score: inf
ROOT
ATOM      1  C   UNL A   1      32.005  27.003  22.415  1.00  0.00     0.202 C 
ENDROOT
BRANCH   1   2
ATOM      2  C   UNL A   1      32.828  25.735  21.525  1.00  0.00     0.261 C 
BRANCH   2   3
ATOM      3  O   UNL A   1      32.517  24.353  21.832  1.00  0.00    -0.462 OA
BRANCH   3   4
ATOM      4  C   UNL A   1      33.457  23.646  22.500  1.00  0.00     0.328 C 
ATOM      5  O   UNL A   1      34.654  23.916  22.465  1.00  0.00    -0.250 OA
BRANCH   4   6
ATOM      6  C   UNL A   1      32.869  22.634  23.538  1.00  0.00     0.193 C 
BRANCH   6   7
ATOM      7  C   UNL A   1      31.707  23.345  24.266  1.00  0.00     0.053 C 
BRANCH   7   8
ATOM      8  C   UNL A   1      32.173  24.377  25.293  1.00  0.00     0.139 C 
BRANCH   8   9
ATOM      9  S   UNL A   1      30.857  25.196  26.192  1.00  0.00     0.147 S 
ATOM     10  C   UNL A   1      29.770  25.852  24.949  1.00  0.00     0.158 C 
ATOM     11  O   UNL A   1      31.451  26.332  26.870  1.00  0.00    -0.229 OA
ATOM     12  O   UNL A   1      30.115  24.193  26.930  1.00  0.00    -0.229 OA
ENDBRANCH   8   9
ENDBRANCH   7   8
ENDBRANCH   6   7
BRANCH   6  13
ATOM     13  N   UNL A   1      33.639  21.881  24.543  1.00  0.00    -0.342 N 
ATOM     14  C   UNL A   1      33.174  21.115  25.572  1.00  0.00     0.226 C 
ATOM     15  H   UNL A   1      34.619  21.937  24.461  1.00  0.00     0.164 HD
ATOM     16  O   UNL A   1      33.703  21.237  26.679  1.00  0.00    -0.275 OA
BRANCH  14  17
ATOM     17  C   UNL A   1      32.149  20.047  25.304  1.00  0.00     0.155 C 
BRANCH  17  18
ATOM     18  C   UNL A   1      32.724  18.755  24.805  1.00  0.00     0.044 A 
ATOM     19  C   UNL A   1      33.170  18.092  23.167  1.00  0.00     0.045 A 
ATOM     20  N   UNL A   1      33.280  17.441  26.034  1.00  0.00    -0.282 N 
ATOM     21  C   UNL A   1      34.101  16.430  23.469  1.00  0.00     0.135 A 
ATOM     22  N   UNL A   1      34.195  16.095  25.137  1.00  0.00    -0.184 NA
ATOM     23  H   UNL A   1      33.112  17.463  27.004  1.00  0.00     0.190 HD
ENDBRANCH  17  18
ENDBRANCH  14  17
ENDBRANCH   6  13
ENDBRANCH   4   6
ENDBRANCH   3   4
ENDBRANCH   2   3
ENDBRANCH   1   2
BRANCH   1  24
ATOM     24  O   UNL A   1      32.757  28.725  23.383  1.00  0.00    -0.374 OA
BRANCH  24  25
ATOM     25  C   UNL A   1      33.132  29.314  24.768  1.00  0.00     0.202 C 
BRANCH  25  26
ATOM     26  C   UNL A   1      32.054  30.041  25.652  1.00  0.00     0.261 C 
BRANCH  26  27
ATOM     27  O   UNL A   1      32.478  30.413  26.993  1.00  0.00    -0.460 OA
BRANCH  27  28
ATOM     28  C   UNL A   1      33.100  31.604  27.198  1.00  0.00     0.338 C 
ATOM     29  O   UNL A   1      32.563  32.697  27.224  1.00  0.00    -0.246 OA
BRANCH  28  30
ATOM     30  C   UNL A   1      34.443  31.352  27.803  1.00  0.00     0.060 A 
ATOM     31  C   UNL A   1      34.756  30.040  28.202  1.00  0.00     0.016 A 
ATOM     32  C   UNL A   1      35.397  32.357  27.956  1.00  0.00     0.016 A 
ATOM     33  C   UNL A   1      36.021  29.719  28.709  1.00  0.00     0.010 A 
ATOM     34  C   UNL A   1      36.644  32.047  28.529  1.00  0.00     0.010 A 
ATOM     35  C   UNL A   1      36.964  30.729  28.917  1.00  0.00    -0.014 A 
BRANCH  35  36
ATOM     36  C   UNL A   1      38.180  30.463  29.737  1.00  0.00     0.031 A 
ATOM     37  C   UNL A   1      39.217  29.526  29.180  1.00  0.00     0.074 A 
ATOM     38  C   UNL A   1      38.380  31.018  30.947  1.00  0.00     0.049 A 
ATOM     39  N   UNL A   1      40.255  28.983  29.764  1.00  0.00    -0.248 NA
ATOM     40  C   UNL A   1      39.057  29.153  27.765  1.00  0.00     0.031 C 
ATOM     41  C   UNL A   1      37.528  32.024  31.573  1.00  0.00     0.029 A 
ATOM     42  N   UNL A   1      39.368  30.787  31.879  1.00  0.00    -0.354 N 
ATOM     43  C   UNL A   1      40.854  28.183  28.798  1.00  0.00     0.074 A 
ATOM     44  C   UNL A   1      40.067  28.313  27.591  1.00  0.00     0.031 C 
ATOM     45  C   UNL A   1      38.003  32.292  32.804  1.00  0.00     0.029 A 
ATOM     46  C   UNL A   1      39.163  31.438  33.071  1.00  0.00     0.049 A 
ATOM     47  H   UNL A   1      40.147  30.209  31.707  1.00  0.00     0.167 HD
ATOM     48  C   UNL A   1      41.953  27.400  28.909  1.00  0.00     0.037 A 
ATOM     49  C   UNL A   1      39.799  31.317  34.257  1.00  0.00     0.037 A 
ATOM     50  C   UNL A   1      42.738  27.265  30.107  1.00  0.00     0.049 A 
ATOM     51  C   UNL A   1      40.948  30.342  34.397  1.00  0.00     0.074 A 
ATOM     52  C   UNL A   1      43.876  26.503  30.310  1.00  0.00     0.029 A 
ATOM     53  N   UNL A   1      42.462  27.898  31.308  1.00  0.00    -0.354 N 
ATOM     54  N   UNL A   1      41.503  29.578  33.488  1.00  0.00    -0.248 NA
ATOM     55  C   UNL A   1      41.545  30.203  35.735  1.00  0.00     0.031 C 
ATOM     56  C   UNL A   1      44.250  26.624  31.652  1.00  0.00     0.029 A 
ATOM     57  C   UNL A   1      43.382  27.510  32.269  1.00  0.00     0.049 A 
ATOM     58  H   UNL A   1      41.721  28.530  31.458  1.00  0.00     0.167 HD
ATOM     59  C   UNL A   1      42.523  28.889  34.137  1.00  0.00     0.074 A 
ATOM     60  C   UNL A   1      42.523  29.336  35.512  1.00  0.00     0.031 C 
ATOM     61  C   UNL A   1      43.380  27.963  33.637  1.00  0.00     0.037 A 
BRANCH  48  62
ATOM     62  C   UNL A   1      42.342  26.577  27.717  1.00  0.00     0.064 A 
ATOM     63  C   UNL A   1      43.309  27.009  26.799  1.00  0.00     0.173 A 
ATOM     64  C   UNL A   1      41.756  25.319  27.511  1.00  0.00     0.173 A 
ATOM     65  F   UNL A   1      43.886  28.212  26.942  1.00  0.00    -0.203 F 
ATOM     66  C   UNL A   1      43.659  26.221  25.705  1.00  0.00     0.198 A 
ATOM     67  C   UNL A   1      42.131  24.519  26.436  1.00  0.00     0.198 A 
ATOM     68  F   UNL A   1      40.827  24.857  28.362  1.00  0.00    -0.203 F 
ATOM     69  F   UNL A   1      44.552  26.673  24.815  1.00  0.00    -0.200 F 
ATOM     70  C   UNL A   1      43.077  24.974  25.530  1.00  0.00     0.200 A 
ATOM     71  F   UNL A   1      41.577  23.309  26.275  1.00  0.00    -0.200 F 
ATOM     72  F   UNL A   1      43.422  24.213  24.481  1.00  0.00    -0.200 F 
ENDBRANCH  48  62
BRANCH  49  73
ATOM     73  C   UNL A   1      39.330  32.086  35.444  1.00  0.00     0.064 A 
ATOM     74  C   UNL A   1      39.766  33.398  35.681  1.00  0.00     0.173 A 
ATOM     75  C   UNL A   1      38.477  31.505  36.396  1.00  0.00     0.173 A 
ATOM     76  F   UNL A   1      40.613  33.986  34.824  1.00  0.00    -0.203 F 
ATOM     77  C   UNL A   1      39.381  34.091  36.829  1.00  0.00     0.198 A 
ATOM     78  C   UNL A   1      38.067  32.210  37.525  1.00  0.00     0.198 A 
ATOM     79  F   UNL A   1      38.041  30.247  36.229  1.00  0.00    -0.203 F 
ATOM     80  F   UNL A   1      39.858  35.322  37.057  1.00  0.00    -0.200 F 
ATOM     81  C   UNL A   1      38.526  33.499  37.746  1.00  0.00     0.200 A 
ATOM     82  F   UNL A   1      37.233  31.638  38.405  1.00  0.00    -0.200 F 
ATOM     83  F   UNL A   1      38.155  34.166  38.847  1.00  0.00    -0.200 F 
ENDBRANCH  49  73
BRANCH  61  84
ATOM     84  C   UNL A   1      44.411  27.384  34.564  1.00  0.00     0.064 A 
ATOM     85  C   UNL A   1      45.641  28.021  34.789  1.00  0.00     0.173 A 
ATOM     86  C   UNL A   1      44.139  26.213  35.290  1.00  0.00     0.173 A 
ATOM     87  F   UNL A   1      45.956  29.136  34.112  1.00  0.00    -0.203 F 
ATOM     88  C   UNL A   1      46.564  27.500  35.692  1.00  0.00     0.198 A 
ATOM     89  C   UNL A   1      45.052  25.711  36.214  1.00  0.00     0.198 A 
ATOM     90  F   UNL A   1      42.977  25.567  35.119  1.00  0.00    -0.203 F 
ATOM     91  F   UNL A   1      47.748  28.106  35.863  1.00  0.00    -0.200 F 
ATOM     92  C   UNL A   1      46.265  26.352  36.411  1.00  0.00     0.200 A 
ATOM     93  F   UNL A   1      44.754  24.612  36.920  1.00  0.00    -0.200 F 
ATOM     94  F   UNL A   1      47.149  25.861  37.292  1.00  0.00    -0.200 F 
ENDBRANCH  61  84
ENDBRANCH  35  36
ENDBRANCH  28  30
ENDBRANCH  27  28
ENDBRANCH  26  27
ENDBRANCH  25  26
ENDBRANCH  24  25
ENDBRANCH   1  24
TORSDOF 20
ENDMDL
MODEL 3
REMARK VINA RESULT:     -11.9      4.770      8.965
REMARK SMILES CS(=O)(=O)CC[C@H](NC(=O)Cc1ccn[nH]1)C(=O)OCCOCCOC(=O)c1ccc(-c2c3nc(c(-c4c(F)c(F)c(F)c(F)c4F)c4ccc([nH]4)c(-c4c(F)c(F)c(F)c(F)c4F)c4nc(c(-c5c(F)c(F)c(F)c(F)c5F)c5ccc2[nH]5)C=C4)C=C3)cc1
REMARK SMILES IDX 21 1 20 2 19 3 17 4 18 5 7 6 6 7 5 8 2 9 1 10 3 11 4 12 8 13
REMARK SMILES IDX 9 14 10 16 11 17 12 18 13 19 16 20 14 21 15 22 22 24 23 25
REMARK SMILES IDX 24 26 25 27 26 28 27 29 28 30 29 31 90 32 30 33 89 34 31 35
REMARK SMILES IDX 32 36 33 37 83 38 34 39 88 40 82 41 84 42 35 43 87 44 81 45
REMARK SMILES IDX 80 46 36 48 68 49 48 50 67 51 49 52 52 53 66 54 85 55 50 56
REMARK SMILES IDX 51 57 65 59 86 60 53 61 37 62 38 63 46 64 39 65 40 66 44 67
REMARK SMILES IDX 47 68 41 69 42 70 45 71 43 72 69 73 70 74 78 75 71 76 72 77
REMARK SMILES IDX 76 78 79 79 73 80 74 81 77 82 75 83 54 84 55 85 63 86 56 87
REMARK SMILES IDX 57 88 61 89 64 90 58 91 59 92 62 93 60 94
REMARK H PARENT 8 15 16 23 84 47 52 58
REMARK Flexibility Score: inf
ROOT
ATOM      1  C   UNL A   1      38.692  19.813  25.366  1.00  0.00     0.202 C 
ENDROOT
BRANCH   1   2
ATOM      2  C   UNL A   1      37.885  21.346  25.085  1.00  0.00     0.261 C 
BRANCH   2   3
ATOM      3  O   UNL A   1      36.636  21.352  24.351  1.00  0.00    -0.462 OA
BRANCH   3   4
ATOM      4  C   UNL A   1      36.285  22.508  23.744  1.00  0.00     0.328 C 
ATOM      5  O   UNL A   1      36.875  22.964  22.768  1.00  0.00    -0.250 OA
BRANCH   4   6
ATOM      6  C   UNL A   1      34.902  23.074  24.209  1.00  0.00     0.193 C 
BRANCH   6   7
ATOM      7  C   UNL A   1      34.539  24.237  23.259  1.00  0.00     0.053 C 
BRANCH   7   8
ATOM      8  C   UNL A   1      33.251  24.962  23.650  1.00  0.00     0.139 C 
BRANCH   8   9
ATOM      9  S   UNL A   1      32.685  26.186  22.470  1.00  0.00     0.147 S 
ATOM     10  C   UNL A   1      32.911  27.756  23.271  1.00  0.00     0.158 C 
ATOM     11  O   UNL A   1      31.255  25.996  22.317  1.00  0.00    -0.229 OA
ATOM     12  O   UNL A   1      33.568  26.156  21.321  1.00  0.00    -0.229 OA
ENDBRANCH   8   9
ENDBRANCH   7   8
ENDBRANCH   6   7
BRANCH   6  13
ATOM     13  N   UNL A   1      34.552  23.483  25.581  1.00  0.00    -0.342 N 
ATOM     14  C   UNL A   1      33.779  22.826  26.493  1.00  0.00     0.226 C 
ATOM     15  H   UNL A   1      34.925  24.344  25.878  1.00  0.00     0.164 HD
ATOM     16  O   UNL A   1      32.944  23.473  27.128  1.00  0.00    -0.275 OA
BRANCH  14  17
ATOM     17  C   UNL A   1      34.062  21.383  26.810  1.00  0.00     0.155 C 
BRANCH  17  18
ATOM     18  C   UNL A   1      33.375  20.407  25.902  1.00  0.00     0.044 A 
ATOM     19  C   UNL A   1      32.996  20.353  24.121  1.00  0.00     0.045 A 
ATOM     20  N   UNL A   1      32.810  18.741  26.575  1.00  0.00    -0.282 N 
ATOM     21  C   UNL A   1      32.315  18.587  23.746  1.00  0.00     0.135 A 
ATOM     22  N   UNL A   1      32.260  17.655  25.172  1.00  0.00    -0.184 NA
ATOM     23  H   UNL A   1      32.807  18.484  27.526  1.00  0.00     0.190 HD
ENDBRANCH  17  18
ENDBRANCH  14  17
ENDBRANCH   6  13
ENDBRANCH   4   6
ENDBRANCH   3   4
ENDBRANCH   2   3
ENDBRANCH   1   2
BRANCH   1  24
ATOM     24  O   UNL A   1      40.699  19.378  25.864  1.00  0.00    -0.374 OA
BRANCH  24  25
ATOM     25  C   UNL A   1      42.142  19.944  25.835  1.00  0.00     0.202 C 
BRANCH  25  26
ATOM     26  C   UNL A   1      42.569  21.109  26.802  1.00  0.00     0.261 C 
BRANCH  26  27
ATOM     27  O   UNL A   1      43.599  22.006  26.300  1.00  0.00    -0.460 OA
BRANCH  27  28
ATOM     28  C   UNL A   1      43.251  23.058  25.513  1.00  0.00     0.338 C 
ATOM     29  O   UNL A   1      43.034  23.015  24.315  1.00  0.00    -0.246 OA
BRANCH  28  30
ATOM     30  C   UNL A   1      42.761  24.172  26.380  1.00  0.00     0.060 A 
ATOM     31  C   UNL A   1      43.453  25.396  26.345  1.00  0.00     0.016 A 
ATOM     32  C   UNL A   1      41.633  24.049  27.191  1.00  0.00     0.016 A 
ATOM     33  C   UNL A   1      43.006  26.503  27.077  1.00  0.00     0.010 A 
ATOM     34  C   UNL A   1      41.225  25.141  27.979  1.00  0.00     0.010 A 
ATOM     35  C   UNL A   1      41.911  26.373  27.935  1.00  0.00    -0.014 A 
BRANCH  35  36
ATOM     36  C   UNL A   1      41.618  27.430  28.944  1.00  0.00     0.031 A 
ATOM     37  C   UNL A   1      42.456  27.465  30.194  1.00  0.00     0.074 A 
ATOM     38  C   UNL A   1      40.640  28.341  28.785  1.00  0.00     0.049 A 
ATOM     39  N   UNL A   1      42.285  28.148  31.297  1.00  0.00    -0.248 NA
ATOM     40  C   UNL A   1      43.654  26.610  30.193  1.00  0.00     0.031 C 
ATOM     41  C   UNL A   1      39.818  28.506  27.590  1.00  0.00     0.029 A 
ATOM     42  N   UNL A   1      40.158  29.290  29.658  1.00  0.00    -0.354 N 
ATOM     43  C   UNL A   1      43.334  27.784  32.132  1.00  0.00     0.074 A 
ATOM     44  C   UNL A   1      44.138  26.823  31.408  1.00  0.00     0.031 C 
ATOM     45  C   UNL A   1      38.905  29.468  27.819  1.00  0.00     0.029 A 
ATOM     46  C   UNL A   1      39.043  29.948  29.196  1.00  0.00     0.049 A 
ATOM     47  H   UNL A   1      40.573  29.480  30.531  1.00  0.00     0.167 HD
ATOM     48  C   UNL A   1      43.598  28.200  33.393  1.00  0.00     0.037 A 
ATOM     49  C   UNL A   1      38.200  30.794  29.827  1.00  0.00     0.037 A 
ATOM     50  C   UNL A   1      42.802  29.153  34.119  1.00  0.00     0.049 A 
ATOM     51  C   UNL A   1      38.441  31.151  31.277  1.00  0.00     0.074 A 
ATOM     52  C   UNL A   1      42.999  29.645  35.397  1.00  0.00     0.029 A 
ATOM     53  N   UNL A   1      41.649  29.751  33.634  1.00  0.00    -0.354 N 
ATOM     54  N   UNL A   1      39.424  30.796  32.068  1.00  0.00    -0.248 NA
ATOM     55  C   UNL A   1      37.442  32.016  31.926  1.00  0.00     0.031 C 
ATOM     56  C   UNL A   1      41.930  30.490  35.711  1.00  0.00     0.029 A 
ATOM     57  C   UNL A   1      41.101  30.575  34.604  1.00  0.00     0.049 A 
ATOM     58  H   UNL A   1      41.275  29.613  32.733  1.00  0.00     0.167 HD
ATOM     59  C   UNL A   1      39.174  31.407  33.292  1.00  0.00     0.074 A 
ATOM     60  C   UNL A   1      37.956  32.171  33.138  1.00  0.00     0.031 C 
ATOM     61  C   UNL A   1      39.889  31.338  34.443  1.00  0.00     0.037 A 
BRANCH  48  62
ATOM     62  C   UNL A   1      44.770  27.582  34.096  1.00  0.00     0.064 A 
ATOM     63  C   UNL A   1      46.044  28.167  34.072  1.00  0.00     0.173 A 
ATOM     64  C   UNL A   1      44.602  26.401  34.835  1.00  0.00     0.173 A 
ATOM     65  F   UNL A   1      46.260  29.287  33.367  1.00  0.00    -0.203 F 
ATOM     66  C   UNL A   1      47.114  27.578  34.743  1.00  0.00     0.198 A 
ATOM     67  C   UNL A   1      45.665  25.832  35.530  1.00  0.00     0.198 A 
ATOM     68  F   UNL A   1      43.403  25.803  34.893  1.00  0.00    -0.203 F 
ATOM     69  F   UNL A   1      48.333  28.128  34.668  1.00  0.00    -0.200 F 
ATOM     70  C   UNL A   1      46.921  26.417  35.477  1.00  0.00     0.200 A 
ATOM     71  F   UNL A   1      45.474  24.718  36.250  1.00  0.00    -0.200 F 
ATOM     72  F   UNL A   1      47.950  25.857  36.130  1.00  0.00    -0.200 F 
ENDBRANCH  48  62
BRANCH  49  73
ATOM     73  C   UNL A   1      36.997  31.320  29.123  1.00  0.00     0.064 A 
ATOM     74  C   UNL A   1      36.899  32.670  28.757  1.00  0.00     0.173 A 
ATOM     75  C   UNL A   1      35.895  30.494  28.850  1.00  0.00     0.173 A 
ATOM     76  F   UNL A   1      37.906  33.512  29.031  1.00  0.00    -0.203 F 
ATOM     77  C   UNL A   1      35.743  33.176  28.162  1.00  0.00     0.198 A 
ATOM     78  C   UNL A   1      34.755  30.993  28.225  1.00  0.00     0.198 A 
ATOM     79  F   UNL A   1      35.926  29.197  29.192  1.00  0.00    -0.203 F 
ATOM     80  F   UNL A   1      35.657  34.482  27.875  1.00  0.00    -0.200 F 
ATOM     81  C   UNL A   1      34.675  32.335  27.889  1.00  0.00     0.200 A 
ATOM     82  F   UNL A   1      33.728  30.174  27.955  1.00  0.00    -0.200 F 
ATOM     83  F   UNL A   1      33.567  32.821  27.315  1.00  0.00    -0.200 F 
ENDBRANCH  49  73
BRANCH  61  84
ATOM     84  C   UNL A   1      39.398  32.123  35.626  1.00  0.00     0.064 A 
ATOM     85  C   UNL A   1      39.770  33.460  35.828  1.00  0.00     0.173 A 
ATOM     86  C   UNL A   1      38.490  31.552  36.534  1.00  0.00     0.173 A 
ATOM     87  F   UNL A   1      40.644  34.050  34.999  1.00  0.00    -0.203 F 
ATOM     88  C   UNL A   1      39.263  34.192  36.900  1.00  0.00     0.198 A 
ATOM     89  C   UNL A   1      37.962  32.295  37.587  1.00  0.00     0.198 A 
ATOM     90  F   UNL A   1      38.095  30.280  36.384  1.00  0.00    -0.203 F 
ATOM     91  F   UNL A   1      39.662  35.457  37.094  1.00  0.00    -0.200 F 
ATOM     92  C   UNL A   1      38.353  33.612  37.772  1.00  0.00     0.200 A 
ATOM     93  F   UNL A   1      37.071  31.739  38.417  1.00  0.00    -0.200 F 
ATOM     94  F   UNL A   1      37.855  34.323  38.794  1.00  0.00    -0.200 F 
ENDBRANCH  61  84
ENDBRANCH  35  36
ENDBRANCH  28  30
ENDBRANCH  27  28
ENDBRANCH  26  27
ENDBRANCH  25  26
ENDBRANCH  24  25
ENDBRANCH   1  24
TORSDOF 20
ENDMDL
