MODEL 1
REMARK VINA RESULT:     -12.5      0.000      0.000
REMARK SMILES O=C(OCCOCCOC(=O)[C@@H]1CN(C(=O)C[NH+]2CCOCC2)C[C@H]1c1ccc2c(c1)OCO2)c1ccc(-c2c3nc(c(-c4c(F)c(F)c(F)c(F)c4F)c4ccc([nH]4)c(-c4c(F)c(F)c(F)c(F)c4F)c4nc(c(-c5c(F)c(F)c(F)c(F)c5F)c5ccc2[nH]5)C=C4)C=C3)cc1
REMARK SMILES IDX 7 1 6 2 5 3 4 4 3 5 2 6 1 7 35 8 36 9 97 10 37 11 96 12
REMARK SMILES IDX 38 13 39 14 40 15 90 16 41 17 95 18 89 19 91 20 42 21 94 22
REMARK SMILES IDX 88 23 87 24 43 26 75 27 55 28 74 29 56 30 59 31 73 32 92 33
REMARK SMILES IDX 57 34 58 35 72 37 93 38 60 39 44 40 45 41 53 42 46 43 47 44
REMARK SMILES IDX 51 45 54 46 48 47 49 48 52 49 50 50 76 51 77 52 85 53 78 54
REMARK SMILES IDX 79 55 83 56 86 57 80 58 81 59 84 60 82 61 61 62 62 63 70 64
REMARK SMILES IDX 63 65 64 66 68 67 71 68 65 69 66 70 69 71 67 72 8 73 9 74
REMARK SMILES IDX 10 75 11 76 12 77 13 78 25 79 14 80 24 81 26 82 27 83 31 84
REMARK SMILES IDX 28 85 30 86 29 87 32 88 34 89 33 90 15 91 16 92 17 93 18 94
REMARK SMILES IDX 19 95 23 96 20 98 22 99 21 100
REMARK H PARENT 91 25 59 36 18 97
REMARK Flexibility Score: inf
ROOT
ATOM      1  C   UNL A   1      32.560  28.207  27.050  1.00  0.00     0.202 C 
ENDROOT
BRANCH   1   2
ATOM      2  O   UNL A   1      31.522  28.876  26.319  1.00  0.00    -0.374 OA
BRANCH   2   3
ATOM      3  C   UNL A   1      31.877  30.088  25.656  1.00  0.00     0.202 C 
BRANCH   3   4
ATOM      4  C   UNL A   1      31.631  31.394  26.428  1.00  0.00     0.261 C 
BRANCH   4   5
ATOM      5  O   UNL A   1      32.543  31.557  27.548  1.00  0.00    -0.460 OA
BRANCH   5   6
ATOM      6  C   UNL A   1      33.489  32.534  27.694  1.00  0.00     0.338 C 
ATOM      7  O   UNL A   1      33.204  33.718  27.659  1.00  0.00    -0.246 OA
BRANCH   6   8
ATOM      8  C   UNL A   1      34.883  32.106  27.933  1.00  0.00     0.060 A 
ATOM      9  C   UNL A   1      35.149  30.758  28.045  1.00  0.00     0.016 A 
ATOM     10  C   UNL A   1      35.910  33.020  28.151  1.00  0.00     0.016 A 
ATOM     11  C   UNL A   1      36.235  30.335  28.761  1.00  0.00     0.010 A 
ATOM     12  C   UNL A   1      37.142  32.554  28.632  1.00  0.00     0.010 A 
ATOM     13  C   UNL A   1      37.280  31.212  29.026  1.00  0.00    -0.014 A 
BRANCH  13  14
ATOM     14  C   UNL A   1      38.425  30.668  29.796  1.00  0.00     0.031 A 
ATOM     15  C   UNL A   1      38.520  30.947  31.266  1.00  0.00     0.074 A 
ATOM     16  C   UNL A   1      39.246  29.769  29.210  1.00  0.00     0.049 A 
ATOM     17  N   UNL A   1      39.490  30.666  32.093  1.00  0.00    -0.248 NA
ATOM     18  C   UNL A   1      37.384  31.642  31.896  1.00  0.00     0.031 C 
ATOM     19  C   UNL A   1      39.164  29.335  27.808  1.00  0.00     0.029 A 
ATOM     20  N   UNL A   1      40.242  28.982  29.725  1.00  0.00    -0.354 N 
ATOM     21  C   UNL A   1      39.125  31.229  33.308  1.00  0.00     0.074 A 
ATOM     22  C   UNL A   1      37.831  31.844  33.126  1.00  0.00     0.031 C 
ATOM     23  C   UNL A   1      39.949  28.268  27.623  1.00  0.00     0.029 A 
ATOM     24  C   UNL A   1      40.739  28.067  28.826  1.00  0.00     0.049 A 
ATOM     25  H   UNL A   1      40.570  29.065  30.650  1.00  0.00     0.167 HD
ATOM     26  C   UNL A   1      39.835  31.240  34.458  1.00  0.00     0.037 A 
ATOM     27  C   UNL A   1      41.768  27.209  28.937  1.00  0.00     0.037 A 
ATOM     28  C   UNL A   1      41.096  30.563  34.604  1.00  0.00     0.049 A 
ATOM     29  C   UNL A   1      42.550  27.252  30.217  1.00  0.00     0.074 A 
ATOM     30  C   UNL A   1      41.984  30.584  35.661  1.00  0.00     0.029 A 
ATOM     31  N   UNL A   1      41.626  29.703  33.648  1.00  0.00    -0.354 N 
ATOM     32  N   UNL A   1      42.310  27.949  31.303  1.00  0.00    -0.248 NA
ATOM     33  C   UNL A   1      43.772  26.445  30.271  1.00  0.00     0.031 C 
ATOM     34  C   UNL A   1      43.062  29.749  35.336  1.00  0.00     0.029 A 
ATOM     35  C   UNL A   1      42.825  29.178  34.094  1.00  0.00     0.049 A 
ATOM     36  H   UNL A   1      41.208  29.497  32.780  1.00  0.00     0.167 HD
ATOM     37  C   UNL A   1      43.364  27.690  32.161  1.00  0.00     0.074 A 
ATOM     38  C   UNL A   1      44.215  26.724  31.489  1.00  0.00     0.031 C 
ATOM     39  C   UNL A   1      43.632  28.222  33.379  1.00  0.00     0.037 A 
BRANCH  26  40
ATOM     40  C   UNL A   1      39.302  32.071  35.587  1.00  0.00     0.064 A 
ATOM     41  C   UNL A   1      39.661  33.414  35.767  1.00  0.00     0.173 A 
ATOM     42  C   UNL A   1      38.442  31.492  36.535  1.00  0.00     0.173 A 
ATOM     43  F   UNL A   1      40.509  34.005  34.911  1.00  0.00    -0.203 F 
ATOM     44  C   UNL A   1      39.202  34.139  36.865  1.00  0.00     0.198 A 
ATOM     45  C   UNL A   1      37.965  32.226  37.619  1.00  0.00     0.198 A 
ATOM     46  F   UNL A   1      38.076  30.207  36.420  1.00  0.00    -0.203 F 
ATOM     47  F   UNL A   1      39.606  35.404  37.047  1.00  0.00    -0.200 F 
ATOM     48  C   UNL A   1      38.351  33.547  37.787  1.00  0.00     0.200 A 
ATOM     49  F   UNL A   1      37.145  31.650  38.509  1.00  0.00    -0.200 F 
ATOM     50  F   UNL A   1      37.919  34.242  38.848  1.00  0.00    -0.200 F 
ENDBRANCH  26  40
BRANCH  27  51
ATOM     51  C   UNL A   1      42.174  26.355  27.784  1.00  0.00     0.064 A 
ATOM     52  C   UNL A   1      41.610  25.090  27.573  1.00  0.00     0.173 A 
ATOM     53  C   UNL A   1      43.139  26.791  26.857  1.00  0.00     0.173 A 
ATOM     54  F   UNL A   1      40.706  24.606  28.438  1.00  0.00    -0.203 F 
ATOM     55  C   UNL A   1      41.994  24.298  26.489  1.00  0.00     0.198 A 
ATOM     56  C   UNL A   1      43.487  26.021  25.751  1.00  0.00     0.198 A 
ATOM     57  F   UNL A   1      43.725  27.989  27.009  1.00  0.00    -0.203 F 
ATOM     58  F   UNL A   1      41.472  23.074  26.338  1.00  0.00    -0.200 F 
ATOM     59  C   UNL A   1      42.921  24.770  25.572  1.00  0.00     0.200 A 
ATOM     60  F   UNL A   1      44.366  26.495  24.858  1.00  0.00    -0.200 F 
ATOM     61  F   UNL A   1      43.277  24.016  24.522  1.00  0.00    -0.200 F 
ENDBRANCH  27  51
BRANCH  39  62
ATOM     62  C   UNL A   1      44.890  27.754  34.036  1.00  0.00     0.064 A 
ATOM     63  C   UNL A   1      46.104  28.427  33.843  1.00  0.00     0.173 A 
ATOM     64  C   UNL A   1      44.876  26.628  34.870  1.00  0.00     0.173 A 
ATOM     65  F   UNL A   1      46.162  29.497  33.035  1.00  0.00    -0.203 F 
ATOM     66  C   UNL A   1      47.271  27.969  34.441  1.00  0.00     0.198 A 
ATOM     67  C   UNL A   1      46.040  26.189  35.487  1.00  0.00     0.198 A 
ATOM     68  F   UNL A   1      43.733  25.957  35.082  1.00  0.00    -0.203 F 
ATOM     69  F   UNL A   1      48.434  28.593  34.203  1.00  0.00    -0.200 F 
ATOM     70  C   UNL A   1      47.238  26.854  35.266  1.00  0.00     0.200 A 
ATOM     71  F   UNL A   1      46.007  25.116  36.290  1.00  0.00    -0.200 F 
ATOM     72  F   UNL A   1      48.365  26.412  35.840  1.00  0.00    -0.200 F 
ENDBRANCH  39  62
ENDBRANCH  13  14
ENDBRANCH   6   8
ENDBRANCH   5   6
ENDBRANCH   4   5
ENDBRANCH   3   4
ENDBRANCH   2   3
ENDBRANCH   1   2
BRANCH   1  73
ATOM     73  C   UNL A   1      32.502  26.703  26.818  1.00  0.00     0.261 C 
BRANCH  73  74
ATOM     74  O   UNL A   1      31.122  26.334  26.709  1.00  0.00    -0.463 OA
BRANCH  74  75
ATOM     75  C   UNL A   1      30.910  25.055  26.325  1.00  0.00     0.311 C 
ATOM     76  O   UNL A   1      31.025  24.070  27.049  1.00  0.00    -0.252 OA
BRANCH  75  77
ATOM     77  C   UNL A   1      30.530  24.932  24.872  1.00  0.00     0.128 C 
ATOM     78  C   UNL A   1      31.032  23.550  24.496  1.00  0.00     0.135 C 
ATOM     79  C   UNL A   1      31.164  25.934  23.870  1.00  0.00     0.055 C 
ATOM     80  N   UNL A   1      31.958  23.746  23.411  1.00  0.00    -0.336 N 
ATOM     81  C   UNL A   1      31.759  25.033  22.775  1.00  0.00     0.129 C 
BRANCH  79  82
ATOM     82  C   UNL A   1      30.193  27.025  23.423  1.00  0.00    -0.038 A 
ATOM     83  C   UNL A   1      28.842  26.961  23.854  1.00  0.00     0.008 A 
ATOM     84  C   UNL A   1      30.561  28.081  22.574  1.00  0.00     0.054 A 
ATOM     85  C   UNL A   1      27.874  27.874  23.411  1.00  0.00     0.051 A 
ATOM     86  C   UNL A   1      29.595  28.994  22.185  1.00  0.00     0.166 A 
ATOM     87  C   UNL A   1      28.285  28.884  22.575  1.00  0.00     0.165 A 
ATOM     88  O   UNL A   1      29.805  30.077  21.387  1.00  0.00    -0.454 OA
ATOM     89  O   UNL A   1      27.499  29.862  22.055  1.00  0.00    -0.454 OA
ATOM     90  C   UNL A   1      28.485  30.662  21.370  1.00  0.00     0.468 C 
ENDBRANCH  79  82
BRANCH  80  91
ATOM     91  C   UNL A   1      32.773  22.775  22.866  1.00  0.00     0.277 C 
ATOM     92  O   UNL A   1      32.929  22.685  21.648  1.00  0.00    -0.268 OA
BRANCH  91  93
ATOM     93  C   UNL A   1      33.508  21.844  23.842  1.00  0.00     0.363 C 
BRANCH  93  94
ATOM     94  N   UNL A   1      34.542  22.492  24.668  1.00  0.00    -0.323 N 
ATOM     95  C   UNL A   1      35.546  23.310  23.972  1.00  0.00     0.291 C 
ATOM     96  C   UNL A   1      35.194  21.593  25.635  1.00  0.00     0.291 C 
ATOM     97  H   UNL A   1      33.968  23.162  25.181  1.00  0.00     0.348 HD
ATOM     98  C   UNL A   1      36.798  22.549  23.499  1.00  0.00     0.221 C 
ATOM     99  C   UNL A   1      36.464  20.890  25.130  1.00  0.00     0.221 C 
ATOM    100  O   UNL A   1      37.398  21.825  24.578  1.00  0.00    -0.370 OA
ENDBRANCH  93  94
ENDBRANCH  91  93
ENDBRANCH  80  91
ENDBRANCH  75  77
ENDBRANCH  74  75
ENDBRANCH  73  74
ENDBRANCH   1  73
TORSDOF 18
ENDMDL
MODEL 2
REMARK VINA RESULT:     -12.5      0.940      7.210
REMARK SMILES O=C(OCCOCCOC(=O)[C@@H]1CN(C(=O)C[NH+]2CCOCC2)C[C@H]1c1ccc2c(c1)OCO2)c1ccc(-c2c3nc(c(-c4c(F)c(F)c(F)c(F)c4F)c4ccc([nH]4)c(-c4c(F)c(F)c(F)c(F)c4F)c4nc(c(-c5c(F)c(F)c(F)c(F)c5F)c5ccc2[nH]5)C=C4)C=C3)cc1
REMARK SMILES IDX 7 1 6 2 5 3 4 4 3 5 2 6 1 7 35 8 36 9 97 10 37 11 96 12
REMARK SMILES IDX 38 13 39 14 40 15 90 16 41 17 95 18 89 19 91 20 42 21 94 22
REMARK SMILES IDX 88 23 87 24 43 26 75 27 55 28 74 29 56 30 59 31 73 32 92 33
REMARK SMILES IDX 57 34 58 35 72 37 93 38 60 39 44 40 45 41 53 42 46 43 47 44
REMARK SMILES IDX 51 45 54 46 48 47 49 48 52 49 50 50 76 51 77 52 85 53 78 54
REMARK SMILES IDX 79 55 83 56 86 57 80 58 81 59 84 60 82 61 61 62 62 63 70 64
REMARK SMILES IDX 63 65 64 66 68 67 71 68 65 69 66 70 69 71 67 72 8 73 9 74
REMARK SMILES IDX 10 75 11 76 12 77 13 78 25 79 14 80 24 81 26 82 27 83 31 84
REMARK SMILES IDX 28 85 30 86 29 87 32 88 34 89 33 90 15 91 16 92 17 93 18 94
REMARK SMILES IDX 19 95 23 96 20 98 22 99 21 100
REMARK H PARENT 91 25 59 36 18 97
REMARK Flexibility Score: inf
ROOT
ATOM      1  C   UNL A   1      33.330  27.358  26.444  1.00  0.00     0.202 C 
ENDROOT
BRANCH   1   2
ATOM      2  O   UNL A   1      32.988  28.528  25.689  1.00  0.00    -0.374 OA
BRANCH   2   3
ATOM      3  C   UNL A   1      31.739  29.150  25.992  1.00  0.00     0.202 C 
BRANCH   3   4
ATOM      4  C   UNL A   1      31.791  30.408  26.873  1.00  0.00     0.261 C 
BRANCH   4   5
ATOM      5  O   UNL A   1      32.934  31.253  26.568  1.00  0.00    -0.460 OA
BRANCH   5   6
ATOM      6  C   UNL A   1      33.651  32.006  27.456  1.00  0.00     0.338 C 
ATOM      7  O   UNL A   1      33.182  32.997  27.986  1.00  0.00    -0.246 OA
BRANCH   6   8
ATOM      8  C   UNL A   1      35.019  31.557  27.785  1.00  0.00     0.060 A 
ATOM      9  C   UNL A   1      35.239  30.212  27.996  1.00  0.00     0.016 A 
ATOM     10  C   UNL A   1      36.063  32.455  27.991  1.00  0.00     0.016 A 
ATOM     11  C   UNL A   1      36.280  29.807  28.787  1.00  0.00     0.010 A 
ATOM     12  C   UNL A   1      37.259  31.987  28.557  1.00  0.00     0.010 A 
ATOM     13  C   UNL A   1      37.338  30.671  29.042  1.00  0.00    -0.014 A 
BRANCH  13  14
ATOM     14  C   UNL A   1      38.431  30.148  29.897  1.00  0.00     0.031 A 
ATOM     15  C   UNL A   1      39.532  29.344  29.271  1.00  0.00     0.074 A 
ATOM     16  C   UNL A   1      38.528  30.572  31.176  1.00  0.00     0.049 A 
ATOM     17  N   UNL A   1      40.511  28.703  29.851  1.00  0.00    -0.248 NA
ATOM     18  C   UNL A   1      39.534  29.232  27.802  1.00  0.00     0.031 C 
ATOM     19  C   UNL A   1      37.568  31.458  31.849  1.00  0.00     0.029 A 
ATOM     20  N   UNL A   1      39.515  30.407  32.112  1.00  0.00    -0.354 N 
ATOM     21  C   UNL A   1      41.182  28.042  28.833  1.00  0.00     0.074 A 
ATOM     22  C   UNL A   1      40.524  28.377  27.592  1.00  0.00     0.031 C 
ATOM     23  C   UNL A   1      38.085  31.878  33.010  1.00  0.00     0.029 A 
ATOM     24  C   UNL A   1      39.311  31.139  33.259  1.00  0.00     0.049 A 
ATOM     25  H   UNL A   1      40.294  29.820  31.977  1.00  0.00     0.167 HD
ATOM     26  C   UNL A   1      42.242  27.210  28.949  1.00  0.00     0.037 A 
ATOM     27  C   UNL A   1      40.001  31.158  34.413  1.00  0.00     0.037 A 
ATOM     28  C   UNL A   1      42.898  26.952  30.203  1.00  0.00     0.049 A 
ATOM     29  C   UNL A   1      41.163  30.215  34.523  1.00  0.00     0.074 A 
ATOM     30  C   UNL A   1      43.900  26.048  30.498  1.00  0.00     0.029 A 
ATOM     31  N   UNL A   1      42.623  27.647  31.376  1.00  0.00    -0.354 N 
ATOM     32  N   UNL A   1      41.674  29.431  33.603  1.00  0.00    -0.248 NA
ATOM     33  C   UNL A   1      41.805  30.110  35.835  1.00  0.00     0.031 C 
ATOM     34  C   UNL A   1      44.218  26.184  31.856  1.00  0.00     0.029 A 
ATOM     35  C   UNL A   1      43.442  27.199  32.396  1.00  0.00     0.049 A 
ATOM     36  H   UNL A   1      41.944  28.354  31.467  1.00  0.00     0.167 HD
ATOM     37  C   UNL A   1      42.679  28.716  34.230  1.00  0.00     0.074 A 
ATOM     38  C   UNL A   1      42.743  29.204  35.595  1.00  0.00     0.031 C 
ATOM     39  C   UNL A   1      43.459  27.720  33.740  1.00  0.00     0.037 A 
BRANCH  26  40
ATOM     40  C   UNL A   1      42.678  26.475  27.716  1.00  0.00     0.064 A 
ATOM     41  C   UNL A   1      42.164  25.217  27.371  1.00  0.00     0.173 A 
ATOM     42  C   UNL A   1      43.665  27.028  26.885  1.00  0.00     0.173 A 
ATOM     43  F   UNL A   1      41.245  24.627  28.151  1.00  0.00    -0.203 F 
ATOM     44  C   UNL A   1      42.639  24.530  26.255  1.00  0.00     0.198 A 
ATOM     45  C   UNL A   1      44.121  26.350  25.757  1.00  0.00     0.198 A 
ATOM     46  F   UNL A   1      44.202  28.223  27.175  1.00  0.00    -0.203 F 
ATOM     47  F   UNL A   1      42.174  23.303  25.978  1.00  0.00    -0.200 F 
ATOM     48  C   UNL A   1      43.614  25.098  25.447  1.00  0.00     0.200 A 
ATOM     49  F   UNL A   1      45.064  26.901  24.980  1.00  0.00    -0.200 F 
ATOM     50  F   UNL A   1      44.077  24.431  24.381  1.00  0.00    -0.200 F 
ENDBRANCH  26  40
BRANCH  27  51
ATOM     51  C   UNL A   1      39.539  31.991  35.561  1.00  0.00     0.064 A 
ATOM     52  C   UNL A   1      40.023  33.290  35.767  1.00  0.00     0.173 A 
ATOM     53  C   UNL A   1      38.593  31.504  36.481  1.00  0.00     0.173 A 
ATOM     54  F   UNL A   1      40.948  33.800  34.940  1.00  0.00    -0.203 F 
ATOM     55  C   UNL A   1      39.583  34.063  36.843  1.00  0.00     0.198 A 
ATOM     56  C   UNL A   1      38.121  32.292  37.527  1.00  0.00     0.198 A 
ATOM     57  F   UNL A   1      38.100  30.263  36.347  1.00  0.00    -0.203 F 
ATOM     58  F   UNL A   1      40.097  35.284  37.042  1.00  0.00    -0.200 F 
ATOM     59  C   UNL A   1      38.623  33.569  37.713  1.00  0.00     0.200 A 
ATOM     60  F   UNL A   1      37.176  31.815  38.349  1.00  0.00    -0.200 F 
ATOM     61  F   UNL A   1      38.189  34.319  38.736  1.00  0.00    -0.200 F 
ENDBRANCH  27  51
BRANCH  39  62
ATOM     62  C   UNL A   1      44.435  27.120  34.699  1.00  0.00     0.064 A 
ATOM     63  C   UNL A   1      45.722  27.652  34.853  1.00  0.00     0.173 A 
ATOM     64  C   UNL A   1      44.073  26.010  35.474  1.00  0.00     0.173 A 
ATOM     65  F   UNL A   1      46.113  28.701  34.113  1.00  0.00    -0.203 F 
ATOM     66  C   UNL A   1      46.629  27.070  35.732  1.00  0.00     0.198 A 
ATOM     67  C   UNL A   1      44.974  25.449  36.371  1.00  0.00     0.198 A 
ATOM     68  F   UNL A   1      42.849  25.474  35.358  1.00  0.00    -0.203 F 
ATOM     69  F   UNL A   1      47.874  27.559  35.827  1.00  0.00    -0.200 F 
ATOM     70  C   UNL A   1      46.253  25.974  36.493  1.00  0.00     0.200 A 
ATOM     71  F   UNL A   1      44.608  24.393  37.112  1.00  0.00    -0.200 F 
ATOM     72  F   UNL A   1      47.128  25.414  37.338  1.00  0.00    -0.200 F 
ENDBRANCH  39  62
ENDBRANCH  13  14
ENDBRANCH   6   8
ENDBRANCH   5   6
ENDBRANCH   4   5
ENDBRANCH   3   4
ENDBRANCH   2   3
ENDBRANCH   1   2
BRANCH   1  73
ATOM     73  C   UNL A   1      32.078  26.625  26.904  1.00  0.00     0.261 C 
BRANCH  73  74
ATOM     74  O   UNL A   1      31.824  25.569  25.969  1.00  0.00    -0.463 OA
BRANCH  74  75
ATOM     75  C   UNL A   1      30.530  25.441  25.601  1.00  0.00     0.311 C 
ATOM     76  O   UNL A   1      29.599  25.195  26.362  1.00  0.00    -0.252 OA
BRANCH  75  77
ATOM     77  C   UNL A   1      30.320  25.609  24.118  1.00  0.00     0.128 C 
ATOM     78  C   UNL A   1      31.000  24.387  23.529  1.00  0.00     0.135 C 
ATOM     79  C   UNL A   1      30.948  26.853  23.434  1.00  0.00     0.055 C 
ATOM     80  N   UNL A   1      32.010  24.888  22.633  1.00  0.00    -0.336 N 
ATOM     81  C   UNL A   1      31.746  26.263  22.259  1.00  0.00     0.129 C 
BRANCH  79  82
ATOM     82  C   UNL A   1      29.922  27.935  23.105  1.00  0.00    -0.038 A 
ATOM     83  C   UNL A   1      28.558  27.709  23.428  1.00  0.00     0.008 A 
ATOM     84  C   UNL A   1      30.253  29.140  22.464  1.00  0.00     0.054 A 
ATOM     85  C   UNL A   1      27.548  28.615  23.075  1.00  0.00     0.051 A 
ATOM     86  C   UNL A   1      29.242  30.037  22.164  1.00  0.00     0.166 A 
ATOM     87  C   UNL A   1      27.925  29.775  22.443  1.00  0.00     0.165 A 
ATOM     88  O   UNL A   1      29.411  31.249  21.567  1.00  0.00    -0.454 OA
ATOM     89  O   UNL A   1      27.095  30.771  22.036  1.00  0.00    -0.454 OA
ATOM     90  C   UNL A   1      28.052  31.739  21.557  1.00  0.00     0.468 C 
ENDBRANCH  79  82
BRANCH  80  91
ATOM     91  C   UNL A   1      32.975  24.127  22.006  1.00  0.00     0.277 C 
ATOM     92  O   UNL A   1      33.157  24.207  20.790  1.00  0.00    -0.268 OA
BRANCH  91  93
ATOM     93  C   UNL A   1      33.837  23.214  22.889  1.00  0.00     0.363 C 
BRANCH  93  94
ATOM     94  N   UNL A   1      33.894  23.590  24.313  1.00  0.00    -0.323 N 
ATOM     95  C   UNL A   1      35.006  24.453  24.739  1.00  0.00     0.291 C 
ATOM     96  C   UNL A   1      33.736  22.460  25.244  1.00  0.00     0.291 C 
ATOM     97  H   UNL A   1      33.065  24.182  24.375  1.00  0.00     0.348 HD
ATOM     98  C   UNL A   1      36.282  23.709  25.173  1.00  0.00     0.221 C 
ATOM     99  C   UNL A   1      35.042  21.778  25.681  1.00  0.00     0.221 C 
ATOM    100  O   UNL A   1      35.992  22.730  26.175  1.00  0.00    -0.370 OA
ENDBRANCH  93  94
ENDBRANCH  91  93
ENDBRANCH  80  91
ENDBRANCH  75  77
ENDBRANCH  74  75
ENDBRANCH  73  74
ENDBRANCH   1  73
TORSDOF 18
ENDMDL
MODEL 3
REMARK VINA RESULT:     -12.2      1.974      8.348
REMARK SMILES O=C(OCCOCCOC(=O)[C@@H]1CN(C(=O)C[NH+]2CCOCC2)C[C@H]1c1ccc2c(c1)OCO2)c1ccc(-c2c3nc(c(-c4c(F)c(F)c(F)c(F)c4F)c4ccc([nH]4)c(-c4c(F)c(F)c(F)c(F)c4F)c4nc(c(-c5c(F)c(F)c(F)c(F)c5F)c5ccc2[nH]5)C=C4)C=C3)cc1
REMARK SMILES IDX 7 1 6 2 5 3 4 4 3 5 2 6 1 7 35 8 36 9 97 10 37 11 96 12
REMARK SMILES IDX 38 13 39 14 40 15 90 16 41 17 95 18 89 19 91 20 42 21 94 22
REMARK SMILES IDX 88 23 87 24 43 26 75 27 55 28 74 29 56 30 59 31 73 32 92 33
REMARK SMILES IDX 57 34 58 35 72 37 93 38 60 39 44 40 45 41 53 42 46 43 47 44
REMARK SMILES IDX 51 45 54 46 48 47 49 48 52 49 50 50 76 51 77 52 85 53 78 54
REMARK SMILES IDX 79 55 83 56 86 57 80 58 81 59 84 60 82 61 61 62 62 63 70 64
REMARK SMILES IDX 63 65 64 66 68 67 71 68 65 69 66 70 69 71 67 72 8 73 9 74
REMARK SMILES IDX 10 75 11 76 12 77 13 78 25 79 14 80 24 81 26 82 27 83 31 84
REMARK SMILES IDX 28 85 30 86 29 87 32 88 34 89 33 90 15 91 16 92 17 93 18 94
REMARK SMILES IDX 19 95 23 96 20 98 22 99 21 100
REMARK H PARENT 91 25 59 36 18 97
REMARK Flexibility Score: inf
ROOT
ATOM      1  C   UNL A   1      33.224  27.095  25.632  1.00  0.00     0.202 C 
ENDROOT
BRANCH   1   2
ATOM      2  O   UNL A   1      31.846  27.495  25.655  1.00  0.00    -0.374 OA
BRANCH   2   3
ATOM      3  C   UNL A   1      31.570  28.871  25.398  1.00  0.00     0.202 C 
BRANCH   3   4
ATOM      4  C   UNL A   1      31.860  29.858  26.540  1.00  0.00     0.261 C 
BRANCH   4   5
ATOM      5  O   UNL A   1      33.176  30.466  26.427  1.00  0.00    -0.460 OA
BRANCH   5   6
ATOM      6  C   UNL A   1      33.747  31.342  27.308  1.00  0.00     0.338 C 
ATOM      7  O   UNL A   1      33.129  32.282  27.775  1.00  0.00    -0.246 OA
BRANCH   6   8
ATOM      8  C   UNL A   1      35.147  31.092  27.711  1.00  0.00     0.060 A 
ATOM      9  C   UNL A   1      35.573  29.787  27.840  1.00  0.00     0.016 A 
ATOM     10  C   UNL A   1      36.011  32.125  28.062  1.00  0.00     0.016 A 
ATOM     11  C   UNL A   1      36.612  29.489  28.678  1.00  0.00     0.010 A 
ATOM     12  C   UNL A   1      37.228  31.810  28.685  1.00  0.00     0.010 A 
ATOM     13  C   UNL A   1      37.493  30.487  29.078  1.00  0.00    -0.014 A 
BRANCH  13  14
ATOM     14  C   UNL A   1      38.599  30.076  29.976  1.00  0.00     0.031 A 
ATOM     15  C   UNL A   1      39.802  29.394  29.394  1.00  0.00     0.074 A 
ATOM     16  C   UNL A   1      38.600  30.500  31.258  1.00  0.00     0.049 A 
ATOM     17  N   UNL A   1      40.818  28.856  30.013  1.00  0.00    -0.248 NA
ATOM     18  C   UNL A   1      39.875  29.291  27.927  1.00  0.00     0.031 C 
ATOM     19  C   UNL A   1      37.527  31.278  31.893  1.00  0.00     0.029 A 
ATOM     20  N   UNL A   1      39.560  30.434  32.233  1.00  0.00    -0.354 N 
ATOM     21  C   UNL A   1      41.595  28.273  29.022  1.00  0.00     0.074 A 
ATOM     22  C   UNL A   1      40.956  28.545  27.756  1.00  0.00     0.031 C 
ATOM     23  C   UNL A   1      37.950  31.743  33.074  1.00  0.00     0.029 A 
ATOM     24  C   UNL A   1      39.235  31.135  33.372  1.00  0.00     0.049 A 
ATOM     25  H   UNL A   1      40.401  29.932  32.129  1.00  0.00     0.167 HD
ATOM     26  C   UNL A   1      42.731  27.555  29.180  1.00  0.00     0.037 A 
ATOM     27  C   UNL A   1      39.872  31.220  34.553  1.00  0.00     0.037 A 
ATOM     28  C   UNL A   1      43.359  27.360  30.459  1.00  0.00     0.049 A 
ATOM     29  C   UNL A   1      41.121  30.402  34.709  1.00  0.00     0.074 A 
ATOM     30  C   UNL A   1      44.437  26.564  30.793  1.00  0.00     0.029 A 
ATOM     31  N   UNL A   1      42.966  28.016  31.621  1.00  0.00    -0.354 N 
ATOM     32  N   UNL A   1      41.748  29.681  33.809  1.00  0.00    -0.248 NA
ATOM     33  C   UNL A   1      41.717  30.357  36.046  1.00  0.00     0.031 C 
ATOM     34  C   UNL A   1      44.684  26.725  32.163  1.00  0.00     0.029 A 
ATOM     35  C   UNL A   1      43.786  27.651  32.673  1.00  0.00     0.049 A 
ATOM     36  H   UNL A   1      42.214  28.648  31.685  1.00  0.00     0.167 HD
ATOM     37  C   UNL A   1      42.795  29.070  34.475  1.00  0.00     0.074 A 
ATOM     38  C   UNL A   1      42.753  29.556  35.843  1.00  0.00     0.031 C 
ATOM     39  C   UNL A   1      43.694  28.164  34.016  1.00  0.00     0.037 A 
BRANCH  26  40
ATOM     40  C   UNL A   1      43.290  26.876  27.965  1.00  0.00     0.064 A 
ATOM     41  C   UNL A   1      43.011  25.537  27.658  1.00  0.00     0.173 A 
ATOM     42  C   UNL A   1      44.159  27.575  27.112  1.00  0.00     0.173 A 
ATOM     43  F   UNL A   1      42.215  24.813  28.460  1.00  0.00    -0.203 F 
ATOM     44  C   UNL A   1      43.600  24.915  26.559  1.00  0.00     0.198 A 
ATOM     45  C   UNL A   1      44.729  26.958  26.000  1.00  0.00     0.198 A 
ATOM     46  F   UNL A   1      44.472  28.854  27.366  1.00  0.00    -0.203 F 
ATOM     47  F   UNL A   1      43.364  23.618  26.318  1.00  0.00    -0.200 F 
ATOM     48  C   UNL A   1      44.455  25.627  25.728  1.00  0.00     0.200 A 
ATOM     49  F   UNL A   1      45.555  27.648  25.201  1.00  0.00    -0.200 F 
ATOM     50  F   UNL A   1      45.029  25.024  24.678  1.00  0.00    -0.200 F 
ENDBRANCH  26  40
BRANCH  27  51
ATOM     51  C   UNL A   1      39.281  31.993  35.682  1.00  0.00     0.064 A 
ATOM     52  C   UNL A   1      38.411  31.397  36.605  1.00  0.00     0.173 A 
ATOM     53  C   UNL A   1      39.580  33.355  35.869  1.00  0.00     0.173 A 
ATOM     54  F   UNL A   1      38.065  30.108  36.464  1.00  0.00    -0.203 F 
ATOM     55  C   UNL A   1      37.864  32.128  37.661  1.00  0.00     0.198 A 
ATOM     56  C   UNL A   1      39.071  34.072  36.949  1.00  0.00     0.198 A 
ATOM     57  F   UNL A   1      40.397  33.988  35.014  1.00  0.00    -0.203 F 
ATOM     58  F   UNL A   1      36.999  31.544  38.501  1.00  0.00    -0.200 F 
ATOM     59  C   UNL A   1      38.206  33.460  37.840  1.00  0.00     0.200 A 
ATOM     60  F   UNL A   1      39.425  35.352  37.127  1.00  0.00    -0.200 F 
ATOM     61  F   UNL A   1      37.693  34.157  38.864  1.00  0.00    -0.200 F 
ENDBRANCH  27  51
BRANCH  39  62
ATOM     62  C   UNL A   1      44.687  27.663  35.014  1.00  0.00     0.064 A 
ATOM     63  C   UNL A   1      45.859  28.380  35.294  1.00  0.00     0.173 A 
ATOM     64  C   UNL A   1      44.459  26.463  35.698  1.00  0.00     0.173 A 
ATOM     65  F   UNL A   1      46.123  29.523  34.643  1.00  0.00    -0.203 F 
ATOM     66  C   UNL A   1      46.787  27.892  36.207  1.00  0.00     0.198 A 
ATOM     67  C   UNL A   1      45.377  25.993  36.630  1.00  0.00     0.198 A 
ATOM     68  F   UNL A   1      43.348  25.748  35.460  1.00  0.00    -0.203 F 
ATOM     69  F   UNL A   1      47.927  28.563  36.423  1.00  0.00    -0.200 F 
ATOM     70  C   UNL A   1      46.543  26.703  36.877  1.00  0.00     0.200 A 
ATOM     71  F   UNL A   1      45.138  24.846  37.283  1.00  0.00    -0.200 F 
ATOM     72  F   UNL A   1      47.439  26.234  37.755  1.00  0.00    -0.200 F 
ENDBRANCH  39  62
ENDBRANCH  13  14
ENDBRANCH   6   8
ENDBRANCH   5   6
ENDBRANCH   4   5
ENDBRANCH   3   4
ENDBRANCH   2   3
ENDBRANCH   1   2
BRANCH   1  73
ATOM     73  C   UNL A   1      33.560  26.386  24.328  1.00  0.00     0.261 C 
BRANCH  73  74
ATOM     74  O   UNL A   1      34.222  25.159  24.658  1.00  0.00    -0.463 OA
BRANCH  74  75
ATOM     75  C   UNL A   1      34.493  24.362  23.600  1.00  0.00     0.311 C 
ATOM     76  O   UNL A   1      34.363  24.682  22.422  1.00  0.00    -0.252 OA
BRANCH  75  77
ATOM     77  C   UNL A   1      34.962  22.988  24.002  1.00  0.00     0.128 C 
ATOM     78  C   UNL A   1      33.798  22.095  23.616  1.00  0.00     0.135 C 
ATOM     79  C   UNL A   1      35.252  22.733  25.506  1.00  0.00     0.055 C 
ATOM     80  N   UNL A   1      33.386  21.434  24.828  1.00  0.00    -0.336 N 
ATOM     81  C   UNL A   1      34.432  21.473  25.831  1.00  0.00     0.129 C 
BRANCH  79  82
ATOM     82  C   UNL A   1      36.745  22.694  25.828  1.00  0.00    -0.038 A 
ATOM     83  C   UNL A   1      37.385  23.884  26.262  1.00  0.00     0.008 A 
ATOM     84  C   UNL A   1      37.533  21.540  25.684  1.00  0.00     0.054 A 
ATOM     85  C   UNL A   1      38.768  23.948  26.487  1.00  0.00     0.051 A 
ATOM     86  C   UNL A   1      38.889  21.619  25.954  1.00  0.00     0.166 A 
ATOM     87  C   UNL A   1      39.494  22.792  26.326  1.00  0.00     0.165 A 
ATOM     88  O   UNL A   1      39.772  20.585  25.881  1.00  0.00    -0.454 OA
ATOM     89  O   UNL A   1      40.833  22.657  26.508  1.00  0.00    -0.454 OA
ATOM     90  C   UNL A   1      40.988  21.236  26.306  1.00  0.00     0.468 C 
ENDBRANCH  79  82
BRANCH  80  91
ATOM     91  C   UNL A   1      32.257  20.653  24.971  1.00  0.00     0.277 C 
ATOM     92  O   UNL A   1      31.218  21.119  25.440  1.00  0.00    -0.268 OA
BRANCH  91  93
ATOM     93  C   UNL A   1      32.339  19.200  24.482  1.00  0.00     0.363 C 
BRANCH  93  94
ATOM     94  N   UNL A   1      33.375  18.377  25.131  1.00  0.00    -0.323 N 
ATOM     95  C   UNL A   1      34.531  17.981  24.312  1.00  0.00     0.291 C 
ATOM     96  C   UNL A   1      32.850  17.217  25.871  1.00  0.00     0.291 C 
ATOM     97  H   UNL A   1      33.746  19.051  25.801  1.00  0.00     0.348 HD
ATOM     98  C   UNL A   1      34.363  16.662  23.537  1.00  0.00     0.221 C 
ATOM     99  C   UNL A   1      32.741  15.913  25.065  1.00  0.00     0.221 C 
ATOM    100  O   UNL A   1      33.976  15.596  24.411  1.00  0.00    -0.370 OA
ENDBRANCH  93  94
ENDBRANCH  91  93
ENDBRANCH  80  91
ENDBRANCH  75  77
ENDBRANCH  74  75
ENDBRANCH  73  74
ENDBRANCH   1  73
TORSDOF 18
ENDMDL
