MODEL 1
REMARK VINA RESULT:     -12.6      0.000      0.000
REMARK SMILES Cc1ccc(S(=O)(=O)Nc2cc(C(=O)OCCOCCOC(=O)c3ccc(-c4c5nc(c(-c6c(F)c(F)c(F)c(F)c6F)c6ccc([nH]6)c(-c6c(F)c(F)c(F)c(F)c6F)c6nc(c(-c7c(F)c(F)c(F)c(F)c7F)c7ccc4[nH]7)C=C6)C=C5)cc3)ccc2C)c(Br)c1
REMARK SMILES IDX 17 1 16 2 15 3 13 4 14 5 12 6 10 7 11 8 89 9 88 10 90 11
REMARK SMILES IDX 87 12 9 13 6 15 7 16 8 17 5 18 1 19 2 20 3 21 93 22 4 23
REMARK SMILES IDX 91 24 92 25 18 26 19 27 20 28 21 29 22 30 23 31 24 32 25 33
REMARK SMILES IDX 86 34 26 35 85 36 27 37 28 38 29 39 79 40 30 41 84 42 78 43
REMARK SMILES IDX 80 44 31 45 83 46 77 47 76 48 32 50 64 51 44 52 63 53 45 54
REMARK SMILES IDX 48 55 62 56 81 57 46 58 47 59 61 61 82 62 49 63 33 64 34 65
REMARK SMILES IDX 42 66 35 67 36 68 40 69 43 70 37 71 38 72 41 73 39 74 65 75
REMARK SMILES IDX 66 76 74 77 67 78 68 79 72 80 75 81 69 82 70 83 73 84 71 85
REMARK SMILES IDX 50 86 51 87 59 88 52 89 53 90 57 91 60 92 54 93 55 94 58 95
REMARK SMILES IDX 56 96
REMARK H PARENT 9 14 80 49 48 60
REMARK Flexibility Score: inf
ROOT
ATOM      1  C   UNL A   1      40.933  20.003  26.032  1.00  0.00     0.202 C 
ENDROOT
BRANCH   1   2
ATOM      2  C   UNL A   1      39.574  19.885  25.405  1.00  0.00     0.261 C 
BRANCH   2   3
ATOM      3  O   UNL A   1      38.663  20.928  25.693  1.00  0.00    -0.460 OA
BRANCH   3   4
ATOM      4  C   UNL A   1      37.410  20.688  25.234  1.00  0.00     0.338 C 
ATOM      5  O   UNL A   1      36.924  19.611  24.986  1.00  0.00    -0.246 OA
BRANCH   4   6
ATOM      6  C   UNL A   1      36.802  22.015  24.964  1.00  0.00     0.062 A 
ATOM      7  C   UNL A   1      34.706  23.114  24.607  1.00  0.00     0.053 A 
ATOM      8  C   UNL A   1      35.569  22.079  24.299  1.00  0.00     0.042 A 
ATOM      9  C   UNL A   1      35.192  24.247  25.287  1.00  0.00    -0.027 A 
ATOM     10  C   UNL A   1      36.533  24.268  25.722  1.00  0.00     0.006 A 
ATOM     11  C   UNL A   1      34.306  25.369  25.751  1.00  0.00     0.046 C 
ATOM     12  C   UNL A   1      37.323  23.128  25.615  1.00  0.00     0.016 A 
BRANCH   7  13
ATOM     13  N   UNL A   1      33.307  22.887  24.506  1.00  0.00    -0.279 N 
ATOM     14  H   UNL A   1      32.815  23.390  23.818  1.00  0.00     0.180 HD
BRANCH  13  15
ATOM     15  S   UNL A   1      32.423  21.819  25.477  1.00  0.00     0.263 S 
ATOM     16  O   UNL A   1      31.025  22.176  25.346  1.00  0.00    -0.201 OA
ATOM     17  O   UNL A   1      33.108  21.908  26.750  1.00  0.00    -0.201 OA
BRANCH  15  18
ATOM     18  C   UNL A   1      32.565  20.127  24.923  1.00  0.00     0.101 A 
ATOM     19  C   UNL A   1      33.879  16.279  23.502  1.00  0.00     0.044 C 
ATOM     20  C   UNL A   1      33.359  17.592  23.983  1.00  0.00    -0.050 A 
ATOM     21  C   UNL A   1      33.359  17.859  25.340  1.00  0.00     0.005 A 
ATOM     22  C   UNL A   1      32.882  18.562  23.096  1.00  0.00     0.020 A 
ATOM     23  C   UNL A   1      32.895  19.088  25.798  1.00  0.00     0.024 A 
ATOM     24  C   UNL A   1      32.521  19.839  23.554  1.00  0.00     0.038 A 
ATOM     25  Br  UNL A   1      32.005  21.076  22.208  1.00  0.00    -0.049 Br
ENDBRANCH  15  18
ENDBRANCH  13  15
ENDBRANCH   7  13
ENDBRANCH   4   6
ENDBRANCH   3   4
ENDBRANCH   2   3
ENDBRANCH   1   2
BRANCH   1  26
ATOM     26  O   UNL A   1      41.797  19.078  25.392  1.00  0.00    -0.374 OA
BRANCH  26  27
ATOM     27  C   UNL A   1      42.847  18.594  26.217  1.00  0.00     0.202 C 
BRANCH  27  28
ATOM     28  C   UNL A   1      44.226  18.633  25.537  1.00  0.00     0.261 C 
BRANCH  28  29
ATOM     29  O   UNL A   1      44.240  19.696  24.560  1.00  0.00    -0.460 OA
BRANCH  29  30
ATOM     30  C   UNL A   1      45.126  20.707  24.783  1.00  0.00     0.338 C 
ATOM     31  O   UNL A   1      46.321  20.565  24.977  1.00  0.00    -0.246 OA
BRANCH  30  32
ATOM     32  C   UNL A   1      44.381  21.975  25.048  1.00  0.00     0.060 A 
ATOM     33  C   UNL A   1      44.561  23.092  24.210  1.00  0.00     0.016 A 
ATOM     34  C   UNL A   1      43.789  22.141  26.293  1.00  0.00     0.016 A 
ATOM     35  C   UNL A   1      44.330  24.391  24.699  1.00  0.00     0.010 A 
ATOM     36  C   UNL A   1      43.675  23.416  26.803  1.00  0.00     0.010 A 
ATOM     37  C   UNL A   1      43.996  24.555  26.037  1.00  0.00    -0.014 A 
BRANCH  37  38
ATOM     38  C   UNL A   1      44.038  25.800  26.830  1.00  0.00     0.031 A 
ATOM     39  C   UNL A   1      42.730  26.440  27.110  1.00  0.00     0.074 A 
ATOM     40  C   UNL A   1      45.132  26.185  27.537  1.00  0.00     0.049 A 
ATOM     41  N   UNL A   1      42.515  27.321  28.015  1.00  0.00    -0.248 NA
ATOM     42  C   UNL A   1      41.516  26.080  26.386  1.00  0.00     0.031 C 
ATOM     43  C   UNL A   1      45.188  27.084  28.694  1.00  0.00     0.029 A 
ATOM     44  N   UNL A   1      46.485  25.872  27.336  1.00  0.00    -0.354 N 
ATOM     45  C   UNL A   1      41.178  27.623  28.041  1.00  0.00     0.074 A 
ATOM     46  C   UNL A   1      40.581  26.720  27.094  1.00  0.00     0.031 C 
ATOM     47  C   UNL A   1      46.445  27.511  28.877  1.00  0.00     0.029 A 
ATOM     48  C   UNL A   1      47.226  26.976  27.791  1.00  0.00     0.049 A 
ATOM     49  H   UNL A   1      46.845  25.040  26.953  1.00  0.00     0.167 HD
ATOM     50  C   UNL A   1      40.779  28.644  28.848  1.00  0.00     0.037 A 
ATOM     51  C   UNL A   1      48.020  27.672  26.945  1.00  0.00     0.037 A 
ATOM     52  C   UNL A   1      41.946  29.499  29.168  1.00  0.00     0.049 A 
ATOM     53  C   UNL A   1      47.432  29.054  26.846  1.00  0.00     0.074 A 
ATOM     54  C   UNL A   1      42.586  29.921  30.316  1.00  0.00     0.029 A 
ATOM     55  N   UNL A   1      42.782  29.910  28.105  1.00  0.00    -0.354 N 
ATOM     56  N   UNL A   1      46.143  29.318  26.936  1.00  0.00    -0.248 NA
ATOM     57  C   UNL A   1      48.271  30.239  26.969  1.00  0.00     0.031 C 
ATOM     58  C   UNL A   1      43.796  30.573  29.938  1.00  0.00     0.029 A 
ATOM     59  C   UNL A   1      43.929  30.525  28.558  1.00  0.00     0.049 A 
ATOM     60  H   UNL A   1      42.570  29.774  27.153  1.00  0.00     0.167 HD
ATOM     61  C   UNL A   1      45.990  30.647  27.257  1.00  0.00     0.074 A 
ATOM     62  C   UNL A   1      47.350  31.173  27.251  1.00  0.00     0.031 C 
ATOM     63  C   UNL A   1      44.833  31.255  27.671  1.00  0.00     0.037 A 
BRANCH  50  64
ATOM     64  C   UNL A   1      39.366  28.838  29.398  1.00  0.00     0.064 A 
ATOM     65  C   UNL A   1      38.341  29.393  28.595  1.00  0.00     0.173 A 
ATOM     66  C   UNL A   1      38.958  28.592  30.727  1.00  0.00     0.173 A 
ATOM     67  F   UNL A   1      38.529  29.657  27.297  1.00  0.00    -0.203 F 
ATOM     68  C   UNL A   1      37.068  29.719  29.089  1.00  0.00     0.198 A 
ATOM     69  C   UNL A   1      37.692  28.925  31.226  1.00  0.00     0.198 A 
ATOM     70  F   UNL A   1      39.740  27.984  31.616  1.00  0.00    -0.203 F 
ATOM     71  F   UNL A   1      36.157  30.263  28.271  1.00  0.00    -0.200 F 
ATOM     72  C   UNL A   1      36.747  29.497  30.410  1.00  0.00     0.200 A 
ATOM     73  F   UNL A   1      37.403  28.680  32.513  1.00  0.00    -0.200 F 
ATOM     74  F   UNL A   1      35.538  29.818  30.888  1.00  0.00    -0.200 F 
ENDBRANCH  50  64
BRANCH  51  75
ATOM     75  C   UNL A   1      48.725  26.724  26.018  1.00  0.00     0.064 A 
ATOM     76  C   UNL A   1      48.279  26.831  24.671  1.00  0.00     0.173 A 
ATOM     77  C   UNL A   1      50.067  26.364  26.201  1.00  0.00     0.173 A 
ATOM     78  F   UNL A   1      46.994  27.132  24.423  1.00  0.00    -0.203 F 
ATOM     79  C   UNL A   1      49.180  26.889  23.606  1.00  0.00     0.198 A 
ATOM     80  C   UNL A   1      50.956  26.349  25.112  1.00  0.00     0.198 A 
ATOM     81  F   UNL A   1      50.565  26.207  27.435  1.00  0.00    -0.203 F 
ATOM     82  F   UNL A   1      48.761  27.269  22.389  1.00  0.00    -0.200 F 
ATOM     83  C   UNL A   1      50.528  26.699  23.838  1.00  0.00     0.200 A 
ATOM     84  F   UNL A   1      52.263  26.122  25.316  1.00  0.00    -0.200 F 
ATOM     85  F   UNL A   1      51.417  26.924  22.858  1.00  0.00    -0.200 F 
ENDBRANCH  51  75
BRANCH  63  86
ATOM     86  C   UNL A   1      44.513  32.724  27.434  1.00  0.00     0.064 A 
ATOM     87  C   UNL A   1      44.833  33.758  28.328  1.00  0.00     0.173 A 
ATOM     88  C   UNL A   1      44.015  33.160  26.175  1.00  0.00     0.173 A 
ATOM     89  F   UNL A   1      45.441  33.524  29.496  1.00  0.00    -0.203 F 
ATOM     90  C   UNL A   1      44.602  35.100  28.024  1.00  0.00     0.198 A 
ATOM     91  C   UNL A   1      43.828  34.502  25.861  1.00  0.00     0.198 A 
ATOM     92  F   UNL A   1      43.751  32.314  25.171  1.00  0.00    -0.203 F 
ATOM     93  F   UNL A   1      44.899  36.038  28.934  1.00  0.00    -0.200 F 
ATOM     94  C   UNL A   1      44.109  35.473  26.791  1.00  0.00     0.200 A 
ATOM     95  F   UNL A   1      43.406  34.840  24.633  1.00  0.00    -0.200 F 
ATOM     96  F   UNL A   1      43.941  36.765  26.488  1.00  0.00    -0.200 F 
ENDBRANCH  63  86
ENDBRANCH  37  38
ENDBRANCH  30  32
ENDBRANCH  29  30
ENDBRANCH  28  29
ENDBRANCH  27  28
ENDBRANCH  26  27
ENDBRANCH   1  26
TORSDOF 17
ENDMDL
MODEL 2
REMARK VINA RESULT:     -12.5      3.457      5.659
REMARK SMILES Cc1ccc(S(=O)(=O)Nc2cc(C(=O)OCCOCCOC(=O)c3ccc(-c4c5nc(c(-c6c(F)c(F)c(F)c(F)c6F)c6ccc([nH]6)c(-c6c(F)c(F)c(F)c(F)c6F)c6nc(c(-c7c(F)c(F)c(F)c(F)c7F)c7ccc4[nH]7)C=C6)C=C5)cc3)ccc2C)c(Br)c1
REMARK SMILES IDX 17 1 16 2 15 3 13 4 14 5 12 6 10 7 11 8 89 9 88 10 90 11
REMARK SMILES IDX 87 12 9 13 6 15 7 16 8 17 5 18 1 19 2 20 3 21 93 22 4 23
REMARK SMILES IDX 91 24 92 25 18 26 19 27 20 28 21 29 22 30 23 31 24 32 25 33
REMARK SMILES IDX 86 34 26 35 85 36 27 37 28 38 29 39 79 40 30 41 84 42 78 43
REMARK SMILES IDX 80 44 31 45 83 46 77 47 76 48 32 50 64 51 44 52 63 53 45 54
REMARK SMILES IDX 48 55 62 56 81 57 46 58 47 59 61 61 82 62 49 63 33 64 34 65
REMARK SMILES IDX 42 66 35 67 36 68 40 69 43 70 37 71 38 72 41 73 39 74 65 75
REMARK SMILES IDX 66 76 74 77 67 78 68 79 72 80 75 81 69 82 70 83 73 84 71 85
REMARK SMILES IDX 50 86 51 87 59 88 52 89 53 90 57 91 60 92 54 93 55 94 58 95
REMARK SMILES IDX 56 96
REMARK H PARENT 9 14 80 49 48 60
REMARK Flexibility Score: inf
ROOT
ATOM      1  C   UNL A   1      36.843  23.581  24.804  1.00  0.00     0.202 C 
ENDROOT
BRANCH   1   2
ATOM      2  C   UNL A   1      36.085  22.704  23.850  1.00  0.00     0.261 C 
BRANCH   2   3
ATOM      3  O   UNL A   1      34.675  22.795  23.907  1.00  0.00    -0.460 OA
BRANCH   3   4
ATOM      4  C   UNL A   1      34.109  21.863  24.714  1.00  0.00     0.338 C 
ATOM      5  O   UNL A   1      34.341  20.679  24.725  1.00  0.00    -0.246 OA
BRANCH   4   6
ATOM      6  C   UNL A   1      33.048  22.562  25.482  1.00  0.00     0.062 A 
ATOM      7  C   UNL A   1      32.399  24.711  26.312  1.00  0.00     0.053 A 
ATOM      8  C   UNL A   1      33.371  23.737  26.178  1.00  0.00     0.042 A 
ATOM      9  C   UNL A   1      31.050  24.386  26.078  1.00  0.00    -0.027 A 
ATOM     10  C   UNL A   1      30.720  23.093  25.622  1.00  0.00     0.006 A 
ATOM     11  C   UNL A   1      29.944  25.404  26.101  1.00  0.00     0.046 C 
ATOM     12  C   UNL A   1      31.723  22.198  25.265  1.00  0.00     0.016 A 
BRANCH   7  13
ATOM     13  N   UNL A   1      32.804  26.071  26.384  1.00  0.00    -0.279 N 
ATOM     14  H   UNL A   1      32.719  26.524  27.254  1.00  0.00     0.180 HD
BRANCH  13  15
ATOM     15  S   UNL A   1      33.423  26.971  25.091  1.00  0.00     0.263 S 
ATOM     16  O   UNL A   1      34.085  26.042  24.198  1.00  0.00    -0.201 OA
ATOM     17  O   UNL A   1      34.155  28.026  25.761  1.00  0.00    -0.201 OA
BRANCH  15  18
ATOM     18  C   UNL A   1      32.133  27.755  24.136  1.00  0.00     0.101 A 
ATOM     19  C   UNL A   1      28.430  29.284  22.556  1.00  0.00     0.044 C 
ATOM     20  C   UNL A   1      29.742  28.769  23.043  1.00  0.00    -0.050 A 
ATOM     21  C   UNL A   1      30.470  29.528  23.941  1.00  0.00     0.005 A 
ATOM     22  C   UNL A   1      30.249  27.537  22.622  1.00  0.00     0.020 A 
ATOM     23  C   UNL A   1      31.687  29.048  24.418  1.00  0.00     0.024 A 
ATOM     24  C   UNL A   1      31.419  27.009  23.191  1.00  0.00     0.038 A 
ATOM     25  Br  UNL A   1      31.909  25.273  22.593  1.00  0.00    -0.049 Br
ENDBRANCH  15  18
ENDBRANCH  13  15
ENDBRANCH   7  13
ENDBRANCH   4   6
ENDBRANCH   3   4
ENDBRANCH   2   3
ENDBRANCH   1   2
BRANCH   1  26
ATOM     26  O   UNL A   1      37.326  22.768  25.862  1.00  0.00    -0.374 OA
BRANCH  26  27
ATOM     27  C   UNL A   1      38.188  21.719  25.444  1.00  0.00     0.202 C 
BRANCH  27  28
ATOM     28  C   UNL A   1      39.488  21.632  26.260  1.00  0.00     0.261 C 
BRANCH  28  29
ATOM     29  O   UNL A   1      39.614  22.820  27.072  1.00  0.00    -0.460 OA
BRANCH  29  30
ATOM     30  C   UNL A   1      40.625  23.671  26.741  1.00  0.00     0.338 C 
ATOM     31  O   UNL A   1      41.779  23.342  26.527  1.00  0.00    -0.246 OA
BRANCH  30  32
ATOM     32  C   UNL A   1      40.186  25.081  26.968  1.00  0.00     0.060 A 
ATOM     33  C   UNL A   1      40.665  26.116  26.141  1.00  0.00     0.016 A 
ATOM     34  C   UNL A   1      39.589  25.396  28.182  1.00  0.00     0.016 A 
ATOM     35  C   UNL A   1      40.721  27.438  26.618  1.00  0.00     0.010 A 
ATOM     36  C   UNL A   1      39.751  26.668  28.685  1.00  0.00     0.010 A 
ATOM     37  C   UNL A   1      40.369  27.691  27.938  1.00  0.00    -0.014 A 
BRANCH  37  38
ATOM     38  C   UNL A   1      40.662  28.900  28.733  1.00  0.00     0.031 A 
ATOM     39  C   UNL A   1      39.527  29.828  28.952  1.00  0.00     0.074 A 
ATOM     40  C   UNL A   1      41.783  29.029  29.489  1.00  0.00     0.049 A 
ATOM     41  N   UNL A   1      39.481  30.744  29.847  1.00  0.00    -0.248 NA
ATOM     42  C   UNL A   1      38.296  29.752  28.172  1.00  0.00     0.031 C 
ATOM     43  C   UNL A   1      41.993  29.902  30.649  1.00  0.00     0.029 A 
ATOM     44  N   UNL A   1      43.034  28.409  29.352  1.00  0.00    -0.354 N 
ATOM     45  C   UNL A   1      38.250  31.348  29.810  1.00  0.00     0.074 A 
ATOM     46  C   UNL A   1      37.504  30.598  28.836  1.00  0.00     0.031 C 
ATOM     47  C   UNL A   1      43.305  30.028  30.890  1.00  0.00     0.029 A 
ATOM     48  C   UNL A   1      43.989  29.316  29.841  1.00  0.00     0.049 A 
ATOM     49  H   UNL A   1      43.208  27.512  28.985  1.00  0.00     0.167 HD
ATOM     50  C   UNL A   1      38.063  32.442  30.599  1.00  0.00     0.037 A 
ATOM     51  C   UNL A   1      44.960  29.801  29.033  1.00  0.00     0.037 A 
ATOM     52  C   UNL A   1      39.380  33.006  30.973  1.00  0.00     0.049 A 
ATOM     53  C   UNL A   1      44.713  31.280  28.908  1.00  0.00     0.074 A 
ATOM     54  C   UNL A   1      40.048  33.281  32.150  1.00  0.00     0.029 A 
ATOM     55  N   UNL A   1      40.336  33.202  29.951  1.00  0.00    -0.354 N 
ATOM     56  N   UNL A   1      43.518  31.837  28.938  1.00  0.00    -0.248 NA
ATOM     57  C   UNL A   1      45.798  32.240  29.071  1.00  0.00     0.031 C 
ATOM     58  C   UNL A   1      41.392  33.631  31.829  1.00  0.00     0.029 A 
ATOM     59  C   UNL A   1      41.573  33.540  30.456  1.00  0.00     0.049 A 
ATOM     60  H   UNL A   1      40.142  33.109  28.990  1.00  0.00     0.167 HD
ATOM     61  C   UNL A   1      43.662  33.168  29.253  1.00  0.00     0.074 A 
ATOM     62  C   UNL A   1      45.106  33.365  29.310  1.00  0.00     0.031 C 
ATOM     63  C   UNL A   1      42.660  34.032  29.613  1.00  0.00     0.037 A 
BRANCH  50  64
ATOM     64  C   UNL A   1      36.709  32.963  31.082  1.00  0.00     0.064 A 
ATOM     65  C   UNL A   1      35.904  33.779  30.253  1.00  0.00     0.173 A 
ATOM     66  C   UNL A   1      36.172  32.786  32.376  1.00  0.00     0.173 A 
ATOM     67  F   UNL A   1      36.230  34.029  28.980  1.00  0.00    -0.203 F 
ATOM     68  C   UNL A   1      34.722  34.395  30.695  1.00  0.00     0.198 A 
ATOM     69  C   UNL A   1      34.999  33.407  32.823  1.00  0.00     0.198 A 
ATOM     70  F   UNL A   1      36.725  31.976  33.276  1.00  0.00    -0.203 F 
ATOM     71  F   UNL A   1      34.025  35.174  29.855  1.00  0.00    -0.200 F 
ATOM     72  C   UNL A   1      34.276  34.220  31.985  1.00  0.00     0.200 A 
ATOM     73  F   UNL A   1      34.580  33.201  34.081  1.00  0.00    -0.200 F 
ATOM     74  F   UNL A   1      33.156  34.816  32.414  1.00  0.00    -0.200 F 
ENDBRANCH  50  64
BRANCH  51  75
ATOM     75  C   UNL A   1      45.467  28.706  28.140  1.00  0.00     0.064 A 
ATOM     76  C   UNL A   1      46.219  27.722  28.840  1.00  0.00     0.173 A 
ATOM     77  C   UNL A   1      44.743  28.257  27.026  1.00  0.00     0.173 A 
ATOM     78  F   UNL A   1      46.970  28.090  29.891  1.00  0.00    -0.203 F 
ATOM     79  C   UNL A   1      46.005  26.358  28.637  1.00  0.00     0.198 A 
ATOM     80  C   UNL A   1      44.594  26.882  26.781  1.00  0.00     0.198 A 
ATOM     81  F   UNL A   1      44.032  29.120  26.288  1.00  0.00    -0.203 F 
ATOM     82  F   UNL A   1      46.514  25.460  29.496  1.00  0.00    -0.200 F 
ATOM     83  C   UNL A   1      45.149  25.940  27.638  1.00  0.00     0.200 A 
ATOM     84  F   UNL A   1      43.798  26.461  25.785  1.00  0.00    -0.200 F 
ATOM     85  F   UNL A   1      44.802  24.646  27.546  1.00  0.00    -0.200 F 
ENDBRANCH  51  75
BRANCH  63  86
ATOM     86  C   UNL A   1      42.700  35.532  29.362  1.00  0.00     0.064 A 
ATOM     87  C   UNL A   1      43.422  36.447  30.146  1.00  0.00     0.173 A 
ATOM     88  C   UNL A   1      42.134  36.081  28.179  1.00  0.00     0.173 A 
ATOM     89  F   UNL A   1      44.132  36.062  31.213  1.00  0.00    -0.203 F 
ATOM     90  C   UNL A   1      43.503  37.801  29.821  1.00  0.00     0.198 A 
ATOM     91  C   UNL A   1      42.254  37.424  27.837  1.00  0.00     0.198 A 
ATOM     92  F   UNL A   1      41.496  35.333  27.269  1.00  0.00    -0.203 F 
ATOM     93  F   UNL A   1      44.180  38.629  30.629  1.00  0.00    -0.200 F 
ATOM     94  C   UNL A   1      42.928  38.288  28.665  1.00  0.00     0.200 A 
ATOM     95  F   UNL A   1      41.739  37.859  26.677  1.00  0.00    -0.200 F 
ATOM     96  F   UNL A   1      43.056  39.578  28.333  1.00  0.00    -0.200 F 
ENDBRANCH  63  86
ENDBRANCH  37  38
ENDBRANCH  30  32
ENDBRANCH  29  30
ENDBRANCH  28  29
ENDBRANCH  27  28
ENDBRANCH  26  27
ENDBRANCH   1  26
TORSDOF 17
ENDMDL
MODEL 3
REMARK VINA RESULT:     -12.5      1.615      3.026
REMARK SMILES Cc1ccc(S(=O)(=O)Nc2cc(C(=O)OCCOCCOC(=O)c3ccc(-c4c5nc(c(-c6c(F)c(F)c(F)c(F)c6F)c6ccc([nH]6)c(-c6c(F)c(F)c(F)c(F)c6F)c6nc(c(-c7c(F)c(F)c(F)c(F)c7F)c7ccc4[nH]7)C=C6)C=C5)cc3)ccc2C)c(Br)c1
REMARK SMILES IDX 17 1 16 2 15 3 13 4 14 5 12 6 10 7 11 8 89 9 88 10 90 11
REMARK SMILES IDX 87 12 9 13 6 15 7 16 8 17 5 18 1 19 2 20 3 21 93 22 4 23
REMARK SMILES IDX 91 24 92 25 18 26 19 27 20 28 21 29 22 30 23 31 24 32 25 33
REMARK SMILES IDX 86 34 26 35 85 36 27 37 28 38 29 39 79 40 30 41 84 42 78 43
REMARK SMILES IDX 80 44 31 45 83 46 77 47 76 48 32 50 64 51 44 52 63 53 45 54
REMARK SMILES IDX 48 55 62 56 81 57 46 58 47 59 61 61 82 62 49 63 33 64 34 65
REMARK SMILES IDX 42 66 35 67 36 68 40 69 43 70 37 71 38 72 41 73 39 74 65 75
REMARK SMILES IDX 66 76 74 77 67 78 68 79 72 80 75 81 69 82 70 83 73 84 71 85
REMARK SMILES IDX 50 86 51 87 59 88 52 89 53 90 57 91 60 92 54 93 55 94 58 95
REMARK SMILES IDX 56 96
REMARK H PARENT 9 14 80 49 48 60
REMARK Flexibility Score: inf
ROOT
ATOM      1  C   UNL A   1      40.341  20.387  26.590  1.00  0.00     0.202 C 
ENDROOT
BRANCH   1   2
ATOM      2  C   UNL A   1      39.683  21.521  25.860  1.00  0.00     0.261 C 
BRANCH   2   3
ATOM      3  O   UNL A   1      38.272  21.577  25.937  1.00  0.00    -0.460 OA
BRANCH   3   4
ATOM      4  C   UNL A   1      37.782  22.841  25.904  1.00  0.00     0.338 C 
ATOM      5  O   UNL A   1      38.372  23.854  26.190  1.00  0.00    -0.246 OA
BRANCH   4   6
ATOM      6  C   UNL A   1      36.337  22.721  25.582  1.00  0.00     0.062 A 
ATOM      7  C   UNL A   1      34.669  23.423  24.016  1.00  0.00     0.053 A 
ATOM      8  C   UNL A   1      35.709  23.750  24.866  1.00  0.00     0.042 A 
ATOM      9  C   UNL A   1      34.036  22.172  24.140  1.00  0.00    -0.027 A 
ATOM     10  C   UNL A   1      34.533  21.236  25.070  1.00  0.00     0.006 A 
ATOM     11  C   UNL A   1      32.969  21.694  23.196  1.00  0.00     0.046 C 
ATOM     12  C   UNL A   1      35.721  21.485  25.749  1.00  0.00     0.016 A 
BRANCH   7  13
ATOM     13  N   UNL A   1      34.462  24.216  22.857  1.00  0.00    -0.279 N 
ATOM     14  H   UNL A   1      35.132  24.154  22.138  1.00  0.00     0.180 HD
BRANCH  13  15
ATOM     15  S   UNL A   1      33.153  25.262  22.615  1.00  0.00     0.263 S 
ATOM     16  O   UNL A   1      31.953  24.450  22.589  1.00  0.00    -0.201 OA
ATOM     17  O   UNL A   1      33.569  26.029  21.459  1.00  0.00    -0.201 OA
BRANCH  15  18
ATOM     18  C   UNL A   1      32.951  26.415  23.964  1.00  0.00     0.101 A 
ATOM     19  C   UNL A   1      31.881  28.473  27.593  1.00  0.00     0.044 C 
ATOM     20  C   UNL A   1      32.277  27.819  26.312  1.00  0.00    -0.050 A 
ATOM     21  C   UNL A   1      33.386  26.993  26.293  1.00  0.00     0.005 A 
ATOM     22  C   UNL A   1      31.550  28.013  25.134  1.00  0.00     0.020 A 
ATOM     23  C   UNL A   1      33.752  26.363  25.107  1.00  0.00     0.024 A 
ATOM     24  C   UNL A   1      31.857  27.288  23.972  1.00  0.00     0.038 A 
ATOM     25  Br  UNL A   1      30.700  27.583  22.494  1.00  0.00    -0.049 Br
ENDBRANCH  15  18
ENDBRANCH  13  15
ENDBRANCH   7  13
ENDBRANCH   4   6
ENDBRANCH   3   4
ENDBRANCH   2   3
ENDBRANCH   1   2
BRANCH   1  26
ATOM     26  O   UNL A   1      41.149  19.676  25.666  1.00  0.00    -0.374 OA
BRANCH  26  27
ATOM     27  C   UNL A   1      42.191  18.919  26.266  1.00  0.00     0.202 C 
BRANCH  27  28
ATOM     28  C   UNL A   1      43.452  18.814  25.393  1.00  0.00     0.261 C 
BRANCH  28  29
ATOM     29  O   UNL A   1      43.571  20.010  24.592  1.00  0.00    -0.460 OA
BRANCH  29  30
ATOM     30  C   UNL A   1      44.472  20.936  25.023  1.00  0.00     0.338 C 
ATOM     31  O   UNL A   1      45.638  20.709  25.296  1.00  0.00    -0.246 OA
BRANCH  30  32
ATOM     32  C   UNL A   1      43.757  22.195  25.392  1.00  0.00     0.060 A 
ATOM     33  C   UNL A   1      43.796  23.312  24.535  1.00  0.00     0.016 A 
ATOM     34  C   UNL A   1      43.352  22.358  26.711  1.00  0.00     0.016 A 
ATOM     35  C   UNL A   1      43.622  24.609  25.051  1.00  0.00     0.010 A 
ATOM     36  C   UNL A   1      43.297  23.633  27.230  1.00  0.00     0.010 A 
ATOM     37  C   UNL A   1      43.486  24.774  26.423  1.00  0.00    -0.014 A 
BRANCH  37  38
ATOM     38  C   UNL A   1      43.627  26.022  27.199  1.00  0.00     0.031 A 
ATOM     39  C   UNL A   1      42.367  26.717  27.553  1.00  0.00     0.074 A 
ATOM     40  C   UNL A   1      44.778  26.368  27.834  1.00  0.00     0.049 A 
ATOM     41  N   UNL A   1      42.243  27.613  28.460  1.00  0.00    -0.248 NA
ATOM     42  C   UNL A   1      41.096  26.402  26.909  1.00  0.00     0.031 C 
ATOM     43  C   UNL A   1      44.941  27.272  28.976  1.00  0.00     0.029 A 
ATOM     44  N   UNL A   1      46.102  25.997  27.554  1.00  0.00    -0.354 N 
ATOM     45  C   UNL A   1      40.924  27.970  28.565  1.00  0.00     0.074 A 
ATOM     46  C   UNL A   1      40.233  27.085  27.666  1.00  0.00     0.031 C 
ATOM     47  C   UNL A   1      46.224  27.648  29.077  1.00  0.00     0.029 A 
ATOM     48  C   UNL A   1      46.914  27.074  27.951  1.00  0.00     0.049 A 
ATOM     49  H   UNL A   1      46.404  25.148  27.158  1.00  0.00     0.167 HD
ATOM     50  C   UNL A   1      40.617  29.013  29.384  1.00  0.00     0.037 A 
ATOM     51  C   UNL A   1      47.681  27.730  27.050  1.00  0.00     0.037 A 
ATOM     52  C   UNL A   1      41.835  29.821  29.624  1.00  0.00     0.049 A 
ATOM     53  C   UNL A   1      47.145  29.134  26.974  1.00  0.00     0.074 A 
ATOM     54  C   UNL A   1      42.561  30.226  30.726  1.00  0.00     0.029 A 
ATOM     55  N   UNL A   1      42.620  30.190  28.508  1.00  0.00    -0.354 N 
ATOM     56  N   UNL A   1      45.875  29.452  27.140  1.00  0.00    -0.248 NA
ATOM     57  C   UNL A   1      48.037  30.285  27.034  1.00  0.00     0.031 C 
ATOM     58  C   UNL A   1      43.771  30.824  30.268  1.00  0.00     0.029 A 
ATOM     59  C   UNL A   1      43.817  30.761  28.882  1.00  0.00     0.049 A 
ATOM     60  H   UNL A   1      42.344  30.055  27.572  1.00  0.00     0.167 HD
ATOM     61  C   UNL A   1      45.796  30.788  27.457  1.00  0.00     0.074 A 
ATOM     62  C   UNL A   1      47.174  31.258  27.361  1.00  0.00     0.031 C 
ATOM     63  C   UNL A   1      44.693  31.446  27.935  1.00  0.00     0.037 A 
BRANCH  50  64
ATOM     64  C   UNL A   1      39.249  29.268  30.018  1.00  0.00     0.064 A 
ATOM     65  C   UNL A   1      38.311  30.129  29.402  1.00  0.00     0.173 A 
ATOM     66  C   UNL A   1      38.818  28.783  31.272  1.00  0.00     0.173 A 
ATOM     67  F   UNL A   1      38.526  30.657  28.192  1.00  0.00    -0.203 F 
ATOM     68  C   UNL A   1      37.100  30.506  30.006  1.00  0.00     0.198 A 
ATOM     69  C   UNL A   1      37.616  29.164  31.881  1.00  0.00     0.198 A 
ATOM     70  F   UNL A   1      39.510  27.884  31.968  1.00  0.00    -0.203 F 
ATOM     71  F   UNL A   1      36.272  31.345  29.368  1.00  0.00    -0.200 F 
ATOM     72  C   UNL A   1      36.758  30.033  31.253  1.00  0.00     0.200 A 
ATOM     73  F   UNL A   1      37.303  28.671  33.089  1.00  0.00    -0.200 F 
ATOM     74  F   UNL A   1      35.610  30.400  31.838  1.00  0.00    -0.200 F 
ENDBRANCH  50  64
BRANCH  51  75
ATOM     75  C   UNL A   1      48.289  26.747  26.092  1.00  0.00     0.064 A 
ATOM     76  C   UNL A   1      47.851  26.936  24.752  1.00  0.00     0.173 A 
ATOM     77  C   UNL A   1      49.591  26.254  26.256  1.00  0.00     0.173 A 
ATOM     78  F   UNL A   1      46.599  27.365  24.521  1.00  0.00    -0.203 F 
ATOM     79  C   UNL A   1      48.749  26.939  23.683  1.00  0.00     0.198 A 
ATOM     80  C   UNL A   1      50.470  26.187  25.161  1.00  0.00     0.198 A 
ATOM     81  F   UNL A   1      50.076  26.015  27.482  1.00  0.00    -0.203 F 
ATOM     82  F   UNL A   1      48.364  27.393  22.480  1.00  0.00    -0.200 F 
ATOM     83  C   UNL A   1      50.073  26.614  23.900  1.00  0.00     0.200 A 
ATOM     84  F   UNL A   1      51.750  25.830  25.350  1.00  0.00    -0.200 F 
ATOM     85  F   UNL A   1      50.976  26.781  22.921  1.00  0.00    -0.200 F 
ENDBRANCH  51  75
BRANCH  63  86
ATOM     86  C   UNL A   1      44.418  32.925  27.703  1.00  0.00     0.064 A 
ATOM     87  C   UNL A   1      44.786  33.947  28.592  1.00  0.00     0.173 A 
ATOM     88  C   UNL A   1      43.918  33.378  26.451  1.00  0.00     0.173 A 
ATOM     89  F   UNL A   1      45.403  33.692  29.752  1.00  0.00    -0.203 F 
ATOM     90  C   UNL A   1      44.595  35.297  28.292  1.00  0.00     0.198 A 
ATOM     91  C   UNL A   1      43.771  34.726  26.140  1.00  0.00     0.198 A 
ATOM     92  F   UNL A   1      43.611  32.543  25.450  1.00  0.00    -0.203 F 
ATOM     93  F   UNL A   1      44.937  36.223  29.199  1.00  0.00    -0.200 F 
ATOM     94  C   UNL A   1      44.097  35.686  27.066  1.00  0.00     0.200 A 
ATOM     95  F   UNL A   1      43.343  35.079  24.919  1.00  0.00    -0.200 F 
ATOM     96  F   UNL A   1      43.968  36.984  26.766  1.00  0.00    -0.200 F 
ENDBRANCH  63  86
ENDBRANCH  37  38
ENDBRANCH  30  32
ENDBRANCH  29  30
ENDBRANCH  28  29
ENDBRANCH  27  28
ENDBRANCH  26  27
ENDBRANCH   1  26
TORSDOF 17
ENDMDL
