MODEL 1
REMARK VINA RESULT:     -11.7      0.000      0.000
REMARK SMILES CC[C@H](C(=O)OCCOCCOC(=O)c1ccc(-c2c3nc(c(-c4c(F)c(F)c(F)c(F)c4F)c4ccc([nH]4)c(-c4c(F)c(F)c(F)c(F)c4F)c4nc(c(-c5c(F)c(F)c(F)c(F)c5F)c5ccc2[nH]5)C=C4)C=C3)cc1)N1C(=O)c2ccc([N+](=O)[O-])cc2C1=O
REMARK SMILES IDX 9 1 8 2 7 3 6 4 4 5 5 6 3 7 2 8 1 9 78 10 79 11 90 12 80 13
REMARK SMILES IDX 81 14 89 15 91 16 82 17 88 18 83 19 84 20 85 21 86 22 87 23
REMARK SMILES IDX 10 24 11 25 12 26 13 27 14 28 15 29 16 30 77 31 17 32 76 33
REMARK SMILES IDX 18 34 19 35 20 36 70 37 21 38 75 39 69 40 71 41 22 42 74 43
REMARK SMILES IDX 68 44 67 45 23 47 55 48 35 49 54 50 36 51 39 52 53 53 72 54
REMARK SMILES IDX 37 55 38 56 52 58 73 59 40 60 24 61 25 62 33 63 26 64 27 65
REMARK SMILES IDX 31 66 34 67 28 68 29 69 32 70 30 71 56 72 57 73 65 74 58 75
REMARK SMILES IDX 59 76 63 77 66 78 60 79 61 80 64 81 62 82 41 83 42 84 50 85
REMARK SMILES IDX 43 86 44 87 48 88 51 89 45 90 46 91 49 92 47 93
REMARK H PARENT 71 46 39 57
REMARK Flexibility Score: inf
ROOT
ATOM      1  O   UNL A   1      37.595  21.589  24.382  1.00  0.00    -0.374 OA
ENDROOT
BRANCH   1   2
ATOM      2  C   UNL A   1      37.068  22.716  25.072  1.00  0.00     0.202 C 
BRANCH   2   3
ATOM      3  C   UNL A   1      35.878  23.435  24.443  1.00  0.00     0.261 C 
BRANCH   3   4
ATOM      4  O   UNL A   1      35.274  22.665  23.398  1.00  0.00    -0.462 OA
BRANCH   4   5
ATOM      5  C   UNL A   1      34.027  23.067  23.035  1.00  0.00     0.329 C 
ATOM      6  O   UNL A   1      33.761  23.670  22.000  1.00  0.00    -0.250 OA
BRANCH   5   7
ATOM      7  C   UNL A   1      32.999  22.845  24.148  1.00  0.00     0.203 C 
BRANCH   7   8
ATOM      8  C   UNL A   1      31.608  23.474  24.031  1.00  0.00     0.034 C 
ATOM      9  C   UNL A   1      30.802  23.482  25.323  1.00  0.00     0.007 C 
ENDBRANCH   7   8
BRANCH   7  10
ATOM     10  N   UNL A   1      32.941  21.387  24.197  1.00  0.00    -0.260 N 
ATOM     11  C   UNL A   1      32.402  20.646  23.180  1.00  0.00     0.262 C 
ATOM     12  C   UNL A   1      33.527  20.600  25.147  1.00  0.00     0.262 C 
ATOM     13  O   UNL A   1      31.763  21.003  22.209  1.00  0.00    -0.269 OA
ATOM     14  C   UNL A   1      32.772  19.269  23.433  1.00  0.00     0.053 A 
ATOM     15  C   UNL A   1      33.389  19.217  24.672  1.00  0.00     0.060 A 
ATOM     16  O   UNL A   1      34.077  20.919  26.179  1.00  0.00    -0.269 OA
ATOM     17  C   UNL A   1      32.604  18.165  22.624  1.00  0.00     0.022 A 
ATOM     18  C   UNL A   1      33.774  18.017  25.231  1.00  0.00     0.100 A 
ATOM     19  C   UNL A   1      33.005  16.938  23.146  1.00  0.00     0.086 A 
ATOM     20  C   UNL A   1      33.545  16.865  24.456  1.00  0.00     0.270 A 
BRANCH  20  21
ATOM     21  N   UNL A   1      33.822  15.544  25.029  1.00  0.00     0.062 N 
ATOM     22  O   UNL A   1      34.998  15.276  25.307  1.00  0.00    -0.258 OA
ATOM     23  O   UNL A   1      32.865  14.771  25.169  1.00  0.00    -0.258 OA
ENDBRANCH  20  21
ENDBRANCH   7  10
ENDBRANCH   5   7
ENDBRANCH   4   5
ENDBRANCH   3   4
ENDBRANCH   2   3
ENDBRANCH   1   2
BRANCH   1  24
ATOM     24  C   UNL A   1      37.514  20.309  25.006  1.00  0.00     0.202 C 
BRANCH  24  25
ATOM     25  C   UNL A   1      38.817  19.675  25.512  1.00  0.00     0.261 C 
BRANCH  25  26
ATOM     26  O   UNL A   1      39.877  20.632  25.692  1.00  0.00    -0.460 OA
BRANCH  26  27
ATOM     27  C   UNL A   1      40.425  20.646  26.933  1.00  0.00     0.338 C 
ATOM     28  O   UNL A   1      40.781  19.685  27.593  1.00  0.00    -0.246 OA
BRANCH  27  29
ATOM     29  C   UNL A   1      40.729  22.032  27.337  1.00  0.00     0.060 A 
ATOM     30  C   UNL A   1      40.116  23.067  26.618  1.00  0.00     0.016 A 
ATOM     31  C   UNL A   1      41.656  22.318  28.339  1.00  0.00     0.016 A 
ATOM     32  C   UNL A   1      40.455  24.393  26.873  1.00  0.00     0.010 A 
ATOM     33  C   UNL A   1      42.003  23.652  28.587  1.00  0.00     0.010 A 
ATOM     34  C   UNL A   1      41.426  24.693  27.837  1.00  0.00    -0.014 A 
BRANCH  34  35
ATOM     35  C   UNL A   1      41.906  26.090  27.988  1.00  0.00     0.031 A 
ATOM     36  C   UNL A   1      43.252  26.476  27.441  1.00  0.00     0.074 A 
ATOM     37  C   UNL A   1      41.133  27.014  28.587  1.00  0.00     0.049 A 
ATOM     38  N   UNL A   1      43.879  27.624  27.508  1.00  0.00    -0.248 NA
ATOM     39  C   UNL A   1      43.992  25.427  26.725  1.00  0.00     0.031 C 
ATOM     40  C   UNL A   1      39.794  26.775  29.118  1.00  0.00     0.029 A 
ATOM     41  N   UNL A   1      41.372  28.339  28.856  1.00  0.00    -0.354 N 
ATOM     42  C   UNL A   1      45.088  27.433  26.851  1.00  0.00     0.074 A 
ATOM     43  C   UNL A   1      45.120  26.052  26.419  1.00  0.00     0.031 C 
ATOM     44  C   UNL A   1      39.330  27.914  29.659  1.00  0.00     0.029 A 
ATOM     45  C   UNL A   1      40.357  28.949  29.551  1.00  0.00     0.049 A 
ATOM     46  H   UNL A   1      42.192  28.807  28.576  1.00  0.00     0.167 HD
ATOM     47  C   UNL A   1      46.076  28.332  26.622  1.00  0.00     0.037 A 
ATOM     48  C   UNL A   1      40.279  30.191  30.067  1.00  0.00     0.037 A 
ATOM     49  C   UNL A   1      46.039  29.706  27.055  1.00  0.00     0.049 A 
ATOM     50  C   UNL A   1      41.430  31.145  29.875  1.00  0.00     0.074 A 
ATOM     51  C   UNL A   1      46.979  30.702  26.847  1.00  0.00     0.029 A 
ATOM     52  N   UNL A   1      45.014  30.276  27.796  1.00  0.00    -0.354 N 
ATOM     53  N   UNL A   1      42.555  30.969  29.225  1.00  0.00    -0.248 NA
ATOM     54  C   UNL A   1      41.297  32.474  30.490  1.00  0.00     0.031 C 
ATOM     55  C   UNL A   1      46.556  31.852  27.520  1.00  0.00     0.029 A 
ATOM     56  C   UNL A   1      45.318  31.598  28.088  1.00  0.00     0.049 A 
ATOM     57  H   UNL A   1      44.191  29.812  28.073  1.00  0.00     0.167 HD
ATOM     58  C   UNL A   1      43.251  32.166  29.332  1.00  0.00     0.074 A 
ATOM     59  C   UNL A   1      42.412  33.070  30.090  1.00  0.00     0.031 C 
ATOM     60  C   UNL A   1      44.476  32.489  28.847  1.00  0.00     0.037 A 
BRANCH  47  61
ATOM     61  C   UNL A   1      47.301  27.854  25.897  1.00  0.00     0.064 A 
ATOM     62  C   UNL A   1      48.437  27.394  26.580  1.00  0.00     0.173 A 
ATOM     63  C   UNL A   1      47.320  27.811  24.493  1.00  0.00     0.173 A 
ATOM     64  F   UNL A   1      48.476  27.421  27.921  1.00  0.00    -0.203 F 
ATOM     65  C   UNL A   1      49.554  26.934  25.886  1.00  0.00     0.198 A 
ATOM     66  C   UNL A   1      48.426  27.320  23.804  1.00  0.00     0.198 A 
ATOM     67  F   UNL A   1      46.260  28.232  23.789  1.00  0.00    -0.203 F 
ATOM     68  F   UNL A   1      50.645  26.545  26.560  1.00  0.00    -0.200 F 
ATOM     69  C   UNL A   1      49.545  26.890  24.500  1.00  0.00     0.200 A 
ATOM     70  F   UNL A   1      48.408  27.263  22.466  1.00  0.00    -0.200 F 
ATOM     71  F   UNL A   1      50.617  26.437  23.835  1.00  0.00    -0.200 F 
ENDBRANCH  47  61
BRANCH  48  72
ATOM     72  C   UNL A   1      39.076  30.599  30.839  1.00  0.00     0.064 A 
ATOM     73  C   UNL A   1      37.991  31.228  30.214  1.00  0.00     0.173 A 
ATOM     74  C   UNL A   1      38.996  30.388  32.225  1.00  0.00     0.173 A 
ATOM     75  F   UNL A   1      38.030  31.476  28.897  1.00  0.00    -0.203 F 
ATOM     76  C   UNL A   1      36.882  31.648  30.946  1.00  0.00     0.198 A 
ATOM     77  C   UNL A   1      37.872  30.778  32.950  1.00  0.00     0.198 A 
ATOM     78  F   UNL A   1      40.008  29.794  32.875  1.00  0.00    -0.203 F 
ATOM     79  F   UNL A   1      35.883  32.295  30.331  1.00  0.00    -0.200 F 
ATOM     80  C   UNL A   1      36.820  31.416  32.311  1.00  0.00     0.200 A 
ATOM     81  F   UNL A   1      37.810  30.537  34.267  1.00  0.00    -0.200 F 
ATOM     82  F   UNL A   1      35.751  31.816  33.014  1.00  0.00    -0.200 F 
ENDBRANCH  48  72
BRANCH  60  83
ATOM     83  C   UNL A   1      44.975  33.885  29.098  1.00  0.00     0.064 A 
ATOM     84  C   UNL A   1      45.794  34.191  30.195  1.00  0.00     0.173 A 
ATOM     85  C   UNL A   1      44.657  34.925  28.210  1.00  0.00     0.173 A 
ATOM     86  F   UNL A   1      46.117  33.238  31.083  1.00  0.00    -0.203 F 
ATOM     87  C   UNL A   1      46.249  35.490  30.410  1.00  0.00     0.198 A 
ATOM     88  C   UNL A   1      45.144  36.214  28.407  1.00  0.00     0.198 A 
ATOM     89  F   UNL A   1      43.884  34.688  27.139  1.00  0.00    -0.203 F 
ATOM     90  F   UNL A   1      46.983  35.769  31.497  1.00  0.00    -0.200 F 
ATOM     91  C   UNL A   1      45.932  36.498  29.512  1.00  0.00     0.200 A 
ATOM     92  F   UNL A   1      44.851  37.183  27.529  1.00  0.00    -0.200 F 
ATOM     93  F   UNL A   1      46.378  37.745  29.717  1.00  0.00    -0.200 F 
ENDBRANCH  60  83
ENDBRANCH  34  35
ENDBRANCH  27  29
ENDBRANCH  26  27
ENDBRANCH  25  26
ENDBRANCH  24  25
ENDBRANCH   1  24
TORSDOF 17
ENDMDL
MODEL 2
REMARK VINA RESULT:     -11.4      5.737     11.207
REMARK SMILES CC[C@H](C(=O)OCCOCCOC(=O)c1ccc(-c2c3nc(c(-c4c(F)c(F)c(F)c(F)c4F)c4ccc([nH]4)c(-c4c(F)c(F)c(F)c(F)c4F)c4nc(c(-c5c(F)c(F)c(F)c(F)c5F)c5ccc2[nH]5)C=C4)C=C3)cc1)N1C(=O)c2ccc([N+](=O)[O-])cc2C1=O
REMARK SMILES IDX 9 1 8 2 7 3 6 4 4 5 5 6 3 7 2 8 1 9 78 10 79 11 90 12 80 13
REMARK SMILES IDX 81 14 89 15 91 16 82 17 88 18 83 19 84 20 85 21 86 22 87 23
REMARK SMILES IDX 10 24 11 25 12 26 13 27 14 28 15 29 16 30 77 31 17 32 76 33
REMARK SMILES IDX 18 34 19 35 20 36 70 37 21 38 75 39 69 40 71 41 22 42 74 43
REMARK SMILES IDX 68 44 67 45 23 47 55 48 35 49 54 50 36 51 39 52 53 53 72 54
REMARK SMILES IDX 37 55 38 56 52 58 73 59 40 60 24 61 25 62 33 63 26 64 27 65
REMARK SMILES IDX 31 66 34 67 28 68 29 69 32 70 30 71 56 72 57 73 65 74 58 75
REMARK SMILES IDX 59 76 63 77 66 78 60 79 61 80 64 81 62 82 41 83 42 84 50 85
REMARK SMILES IDX 43 86 44 87 48 88 51 89 45 90 46 91 49 92 47 93
REMARK H PARENT 71 46 39 57
REMARK Flexibility Score: inf
ROOT
ATOM      1  O   UNL A   1      33.173  30.967  26.675  1.00  0.00    -0.374 OA
ENDROOT
BRANCH   1   2
ATOM      2  C   UNL A   1      33.209  29.666  27.250  1.00  0.00     0.202 C 
BRANCH   2   3
ATOM      3  C   UNL A   1      32.004  28.760  27.021  1.00  0.00     0.261 C 
BRANCH   3   4
ATOM      4  O   UNL A   1      32.367  27.529  26.387  1.00  0.00    -0.462 OA
BRANCH   4   5
ATOM      5  C   UNL A   1      31.325  26.802  25.903  1.00  0.00     0.329 C 
ATOM      6  O   UNL A   1      30.408  26.355  26.586  1.00  0.00    -0.250 OA
BRANCH   5   7
ATOM      7  C   UNL A   1      31.506  26.439  24.427  1.00  0.00     0.203 C 
BRANCH   7   8
ATOM      8  C   UNL A   1      31.154  25.029  23.944  1.00  0.00     0.034 C 
ATOM      9  C   UNL A   1      31.816  24.622  22.634  1.00  0.00     0.007 C 
ENDBRANCH   7   8
BRANCH   7  10
ATOM     10  N   UNL A   1      30.689  27.461  23.779  1.00  0.00    -0.260 N 
ATOM     11  C   UNL A   1      29.340  27.308  23.599  1.00  0.00     0.262 C 
ATOM     12  C   UNL A   1      31.112  28.711  23.424  1.00  0.00     0.262 C 
ATOM     13  O   UNL A   1      28.639  26.326  23.754  1.00  0.00    -0.269 OA
ATOM     14  C   UNL A   1      28.827  28.604  23.205  1.00  0.00     0.053 A 
ATOM     15  C   UNL A   1      29.909  29.447  23.016  1.00  0.00     0.060 A 
ATOM     16  O   UNL A   1      32.230  29.177  23.439  1.00  0.00    -0.269 OA
ATOM     17  C   UNL A   1      27.517  29.007  23.056  1.00  0.00     0.022 A 
ATOM     18  C   UNL A   1      29.741  30.733  22.546  1.00  0.00     0.100 A 
ATOM     19  C   UNL A   1      27.309  30.308  22.607  1.00  0.00     0.086 A 
ATOM     20  C   UNL A   1      28.416  31.145  22.314  1.00  0.00     0.270 A 
BRANCH  20  21
ATOM     21  N   UNL A   1      28.165  32.456  21.706  1.00  0.00     0.062 N 
ATOM     22  O   UNL A   1      28.411  33.460  22.389  1.00  0.00    -0.258 OA
ATOM     23  O   UNL A   1      27.693  32.473  20.562  1.00  0.00    -0.258 OA
ENDBRANCH  20  21
ENDBRANCH   7  10
ENDBRANCH   5   7
ENDBRANCH   4   5
ENDBRANCH   3   4
ENDBRANCH   2   3
ENDBRANCH   1   2
BRANCH   1  24
ATOM     24  C   UNL A   1      31.993  31.751  26.836  1.00  0.00     0.202 C 
BRANCH  24  25
ATOM     25  C   UNL A   1      32.148  33.277  26.890  1.00  0.00     0.261 C 
BRANCH  25  26
ATOM     26  O   UNL A   1      32.423  33.769  28.214  1.00  0.00    -0.460 OA
BRANCH  26  27
ATOM     27  C   UNL A   1      33.554  34.511  28.321  1.00  0.00     0.338 C 
ATOM     28  O   UNL A   1      33.649  35.725  28.264  1.00  0.00    -0.246 OA
BRANCH  27  29
ATOM     29  C   UNL A   1      34.685  33.653  28.723  1.00  0.00     0.060 A 
ATOM     30  C   UNL A   1      34.397  32.510  29.479  1.00  0.00     0.016 A 
ATOM     31  C   UNL A   1      36.007  34.000  28.439  1.00  0.00     0.016 A 
ATOM     32  C   UNL A   1      35.430  31.727  29.988  1.00  0.00     0.010 A 
ATOM     33  C   UNL A   1      37.044  33.218  28.961  1.00  0.00     0.010 A 
ATOM     34  C   UNL A   1      36.763  32.095  29.760  1.00  0.00    -0.014 A 
BRANCH  34  35
ATOM     35  C   UNL A   1      37.856  31.358  30.443  1.00  0.00     0.031 A 
ATOM     36  C   UNL A   1      38.181  31.671  31.877  1.00  0.00     0.074 A 
ATOM     37  C   UNL A   1      38.537  30.398  29.793  1.00  0.00     0.049 A 
ATOM     38  N   UNL A   1      39.124  31.183  32.641  1.00  0.00    -0.248 NA
ATOM     39  C   UNL A   1      37.329  32.672  32.537  1.00  0.00     0.031 C 
ATOM     40  C   UNL A   1      38.289  29.971  28.418  1.00  0.00     0.029 A 
ATOM     41  N   UNL A   1      39.587  29.613  30.206  1.00  0.00    -0.354 N 
ATOM     42  C   UNL A   1      38.984  31.820  33.868  1.00  0.00     0.074 A 
ATOM     43  C   UNL A   1      37.886  32.753  33.736  1.00  0.00     0.031 C 
ATOM     44  C   UNL A   1      39.168  29.008  28.095  1.00  0.00     0.029 A 
ATOM     45  C   UNL A   1      40.067  28.781  29.225  1.00  0.00     0.049 A 
ATOM     46  H   UNL A   1      39.957  29.644  31.117  1.00  0.00     0.167 HD
ATOM     47  C   UNL A   1      39.703  31.636  35.003  1.00  0.00     0.037 A 
ATOM     48  C   UNL A   1      41.130  27.953  29.230  1.00  0.00     0.037 A 
ATOM     49  C   UNL A   1      40.797  30.706  35.129  1.00  0.00     0.049 A 
ATOM     50  C   UNL A   1      41.968  27.832  30.477  1.00  0.00     0.074 A 
ATOM     51  C   UNL A   1      41.568  30.428  36.244  1.00  0.00     0.029 A 
ATOM     52  N   UNL A   1      41.284  29.913  34.100  1.00  0.00    -0.354 N 
ATOM     53  N   UNL A   1      41.811  28.413  31.642  1.00  0.00    -0.248 NA
ATOM     54  C   UNL A   1      43.133  26.938  30.407  1.00  0.00     0.031 C 
ATOM     55  C   UNL A   1      42.565  29.520  35.873  1.00  0.00     0.029 A 
ATOM     56  C   UNL A   1      42.372  29.176  34.545  1.00  0.00     0.049 A 
ATOM     57  H   UNL A   1      40.913  29.877  33.189  1.00  0.00     0.167 HD
ATOM     58  C   UNL A   1      42.838  27.938  32.448  1.00  0.00     0.074 A 
ATOM     59  C   UNL A   1      43.599  27.004  31.647  1.00  0.00     0.031 C 
ATOM     60  C   UNL A   1      43.126  28.249  33.737  1.00  0.00     0.037 A 
BRANCH  47  61
ATOM     61  C   UNL A   1      39.354  32.480  36.195  1.00  0.00     0.064 A 
ATOM     62  C   UNL A   1      38.431  32.053  37.162  1.00  0.00     0.173 A 
ATOM     63  C   UNL A   1      39.989  33.716  36.397  1.00  0.00     0.173 A 
ATOM     64  F   UNL A   1      37.788  30.885  37.014  1.00  0.00    -0.203 F 
ATOM     65  C   UNL A   1      38.138  32.844  38.271  1.00  0.00     0.198 A 
ATOM     66  C   UNL A   1      39.718  34.487  37.524  1.00  0.00     0.198 A 
ATOM     67  F   UNL A   1      40.884  34.170  35.508  1.00  0.00    -0.203 F 
ATOM     68  F   UNL A   1      37.217  32.438  39.157  1.00  0.00    -0.200 F 
ATOM     69  C   UNL A   1      38.787  34.056  38.456  1.00  0.00     0.200 A 
ATOM     70  F   UNL A   1      40.360  35.649  37.708  1.00  0.00    -0.200 F 
ATOM     71  F   UNL A   1      38.512  34.809  39.529  1.00  0.00    -0.200 F 
ENDBRANCH  47  61
BRANCH  48  72
ATOM     72  C   UNL A   1      41.481  27.189  28.003  1.00  0.00     0.064 A 
ATOM     73  C   UNL A   1      41.022  25.880  27.808  1.00  0.00     0.173 A 
ATOM     74  C   UNL A   1      42.302  27.747  27.010  1.00  0.00     0.173 A 
ATOM     75  F   UNL A   1      40.257  25.293  28.740  1.00  0.00    -0.203 F 
ATOM     76  C   UNL A   1      41.386  25.150  26.678  1.00  0.00     0.198 A 
ATOM     77  C   UNL A   1      42.637  27.028  25.865  1.00  0.00     0.198 A 
ATOM     78  F   UNL A   1      42.772  28.995  27.149  1.00  0.00    -0.203 F 
ATOM     79  F   UNL A   1      40.977  23.881  26.543  1.00  0.00    -0.200 F 
ATOM     80  C   UNL A   1      42.186  25.727  25.704  1.00  0.00     0.200 A 
ATOM     81  F   UNL A   1      43.398  27.596  24.919  1.00  0.00    -0.200 F 
ATOM     82  F   UNL A   1      42.532  25.026  24.615  1.00  0.00    -0.200 F 
ENDBRANCH  48  72
BRANCH  60  83
ATOM     83  C   UNL A   1      44.299  27.554  34.372  1.00  0.00     0.064 A 
ATOM     84  C   UNL A   1      45.578  28.132  34.390  1.00  0.00     0.173 A 
ATOM     85  C   UNL A   1      44.134  26.310  35.000  1.00  0.00     0.173 A 
ATOM     86  F   UNL A   1      45.794  29.313  33.792  1.00  0.00    -0.203 F 
ATOM     87  C   UNL A   1      46.652  27.475  34.985  1.00  0.00     0.198 A 
ATOM     88  C   UNL A   1      45.203  25.673  35.627  1.00  0.00     0.198 A 
ATOM     89  F   UNL A   1      42.932  25.715  35.020  1.00  0.00    -0.203 F 
ATOM     90  F   UNL A   1      47.876  28.020  34.941  1.00  0.00    -0.200 F 
ATOM     91  C   UNL A   1      46.462  26.251  35.610  1.00  0.00     0.200 A 
ATOM     92  F   UNL A   1      45.013  24.499  36.245  1.00  0.00    -0.200 F 
ATOM     93  F   UNL A   1      47.496  25.625  36.190  1.00  0.00    -0.200 F 
ENDBRANCH  60  83
ENDBRANCH  34  35
ENDBRANCH  27  29
ENDBRANCH  26  27
ENDBRANCH  25  26
ENDBRANCH  24  25
ENDBRANCH   1  24
TORSDOF 17
ENDMDL
MODEL 3
REMARK VINA RESULT:     -11.4      1.189      2.096
REMARK SMILES CC[C@H](C(=O)OCCOCCOC(=O)c1ccc(-c2c3nc(c(-c4c(F)c(F)c(F)c(F)c4F)c4ccc([nH]4)c(-c4c(F)c(F)c(F)c(F)c4F)c4nc(c(-c5c(F)c(F)c(F)c(F)c5F)c5ccc2[nH]5)C=C4)C=C3)cc1)N1C(=O)c2ccc([N+](=O)[O-])cc2C1=O
REMARK SMILES IDX 9 1 8 2 7 3 6 4 4 5 5 6 3 7 2 8 1 9 78 10 79 11 90 12 80 13
REMARK SMILES IDX 81 14 89 15 91 16 82 17 88 18 83 19 84 20 85 21 86 22 87 23
REMARK SMILES IDX 10 24 11 25 12 26 13 27 14 28 15 29 16 30 77 31 17 32 76 33
REMARK SMILES IDX 18 34 19 35 20 36 70 37 21 38 75 39 69 40 71 41 22 42 74 43
REMARK SMILES IDX 68 44 67 45 23 47 55 48 35 49 54 50 36 51 39 52 53 53 72 54
REMARK SMILES IDX 37 55 38 56 52 58 73 59 40 60 24 61 25 62 33 63 26 64 27 65
REMARK SMILES IDX 31 66 34 67 28 68 29 69 32 70 30 71 56 72 57 73 65 74 58 75
REMARK SMILES IDX 59 76 63 77 66 78 60 79 61 80 64 81 62 82 41 83 42 84 50 85
REMARK SMILES IDX 43 86 44 87 48 88 51 89 45 90 46 91 49 92 47 93
REMARK H PARENT 71 46 39 57
REMARK Flexibility Score: inf
ROOT
ATOM      1  O   UNL A   1      38.075  21.318  25.182  1.00  0.00    -0.374 OA
ENDROOT
BRANCH   1   2
ATOM      2  C   UNL A   1      36.680  21.585  25.266  1.00  0.00     0.202 C 
BRANCH   2   3
ATOM      3  C   UNL A   1      36.013  22.241  24.062  1.00  0.00     0.261 C 
BRANCH   3   4
ATOM      4  O   UNL A   1      34.887  23.042  24.438  1.00  0.00    -0.462 OA
BRANCH   4   5
ATOM      5  C   UNL A   1      33.882  23.087  23.523  1.00  0.00     0.329 C 
ATOM      6  O   UNL A   1      34.021  23.419  22.349  1.00  0.00    -0.250 OA
BRANCH   5   7
ATOM      7  C   UNL A   1      32.509  22.850  24.157  1.00  0.00     0.203 C 
BRANCH   7   8
ATOM      8  C   UNL A   1      31.256  23.423  23.488  1.00  0.00     0.034 C 
ATOM      9  C   UNL A   1      31.203  24.944  23.434  1.00  0.00     0.007 C 
ENDBRANCH   7   8
BRANCH   7  10
ATOM     10  N   UNL A   1      32.476  21.392  24.229  1.00  0.00    -0.260 N 
ATOM     11  C   UNL A   1      32.218  20.615  23.132  1.00  0.00     0.262 C 
ATOM     12  C   UNL A   1      32.832  20.641  25.313  1.00  0.00     0.262 C 
ATOM     13  O   UNL A   1      31.826  20.933  22.025  1.00  0.00    -0.269 OA
ATOM     14  C   UNL A   1      32.549  19.255  23.503  1.00  0.00     0.053 A 
ATOM     15  C   UNL A   1      32.847  19.246  24.855  1.00  0.00     0.060 A 
ATOM     16  O   UNL A   1      33.107  20.997  26.438  1.00  0.00    -0.269 OA
ATOM     17  C   UNL A   1      32.609  18.131  22.706  1.00  0.00     0.022 A 
ATOM     18  C   UNL A   1      33.113  18.069  25.522  1.00  0.00     0.100 A 
ATOM     19  C   UNL A   1      32.901  16.927  23.342  1.00  0.00     0.086 A 
ATOM     20  C   UNL A   1      33.107  16.895  24.745  1.00  0.00     0.270 A 
BRANCH  20  21
ATOM     21  N   UNL A   1      33.268  15.595  25.403  1.00  0.00     0.062 N 
ATOM     22  O   UNL A   1      32.278  15.114  25.971  1.00  0.00    -0.258 OA
ATOM     23  O   UNL A   1      34.392  15.076  25.375  1.00  0.00    -0.258 OA
ENDBRANCH  20  21
ENDBRANCH   7  10
ENDBRANCH   5   7
ENDBRANCH   4   5
ENDBRANCH   3   4
ENDBRANCH   2   3
ENDBRANCH   1   2
BRANCH   1  24
ATOM     24  C   UNL A   1      38.502  19.965  25.040  1.00  0.00     0.202 C 
BRANCH  24  25
ATOM     25  C   UNL A   1      39.507  19.419  26.063  1.00  0.00     0.261 C 
BRANCH  25  26
ATOM     26  O   UNL A   1      40.814  19.192  25.505  1.00  0.00    -0.460 OA
BRANCH  26  27
ATOM     27  C   UNL A   1      41.842  19.400  26.364  1.00  0.00     0.338 C 
ATOM     28  O   UNL A   1      42.686  18.593  26.716  1.00  0.00    -0.246 OA
BRANCH  27  29
ATOM     29  C   UNL A   1      41.942  20.834  26.697  1.00  0.00     0.060 A 
ATOM     30  C   UNL A   1      41.898  21.751  25.638  1.00  0.00     0.016 A 
ATOM     31  C   UNL A   1      42.155  21.272  28.005  1.00  0.00     0.016 A 
ATOM     32  C   UNL A   1      42.107  23.107  25.876  1.00  0.00     0.010 A 
ATOM     33  C   UNL A   1      42.375  22.635  28.240  1.00  0.00     0.010 A 
ATOM     34  C   UNL A   1      42.380  23.555  27.176  1.00  0.00    -0.014 A 
BRANCH  34  35
ATOM     35  C   UNL A   1      42.766  24.970  27.400  1.00  0.00     0.031 A 
ATOM     36  C   UNL A   1      44.150  25.430  27.029  1.00  0.00     0.074 A 
ATOM     37  C   UNL A   1      41.880  25.845  27.908  1.00  0.00     0.049 A 
ATOM     38  N   UNL A   1      44.705  26.604  27.186  1.00  0.00    -0.248 NA
ATOM     39  C   UNL A   1      45.024  24.429  26.399  1.00  0.00     0.031 C 
ATOM     40  C   UNL A   1      40.499  25.534  28.265  1.00  0.00     0.029 A 
ATOM     41  N   UNL A   1      42.018  27.176  28.219  1.00  0.00    -0.354 N 
ATOM     42  C   UNL A   1      45.994  26.484  26.683  1.00  0.00     0.074 A 
ATOM     43  C   UNL A   1      46.148  25.113  26.244  1.00  0.00     0.031 C 
ATOM     44  C   UNL A   1      39.916  26.640  28.757  1.00  0.00     0.029 A 
ATOM     45  C   UNL A   1      40.896  27.724  28.788  1.00  0.00     0.049 A 
ATOM     46  H   UNL A   1      42.842  27.687  28.048  1.00  0.00     0.167 HD
ATOM     47  C   UNL A   1      46.957  27.433  26.588  1.00  0.00     0.037 A 
ATOM     48  C   UNL A   1      40.693  28.952  29.304  1.00  0.00     0.037 A 
ATOM     49  C   UNL A   1      46.799  28.796  27.027  1.00  0.00     0.049 A 
ATOM     50  C   UNL A   1      41.809  29.964  29.267  1.00  0.00     0.074 A 
ATOM     51  C   UNL A   1      47.706  29.839  26.949  1.00  0.00     0.029 A 
ATOM     52  N   UNL A   1      45.662  29.303  27.641  1.00  0.00    -0.354 N 
ATOM     53  N   UNL A   1      43.014  29.853  28.761  1.00  0.00    -0.248 NA
ATOM     54  C   UNL A   1      41.535  31.274  29.875  1.00  0.00     0.031 C 
ATOM     55  C   UNL A   1      47.146  30.956  27.577  1.00  0.00     0.029 A 
ATOM     56  C   UNL A   1      45.861  30.633  27.983  1.00  0.00     0.049 A 
ATOM     57  H   UNL A   1      44.836  28.796  27.809  1.00  0.00     0.167 HD
ATOM     58  C   UNL A   1      43.630  31.081  28.966  1.00  0.00     0.074 A 
ATOM     59  C   UNL A   1      42.660  31.930  29.623  1.00  0.00     0.031 C 
ATOM     60  C   UNL A   1      44.889  31.470  28.641  1.00  0.00     0.037 A 
BRANCH  47  61
ATOM     61  C   UNL A   1      48.284  27.026  26.016  1.00  0.00     0.064 A 
ATOM     62  C   UNL A   1      48.578  27.163  24.650  1.00  0.00     0.173 A 
ATOM     63  C   UNL A   1      49.297  26.536  26.856  1.00  0.00     0.173 A 
ATOM     64  F   UNL A   1      47.645  27.618  23.801  1.00  0.00    -0.203 F 
ATOM     65  C   UNL A   1      49.824  26.798  24.144  1.00  0.00     0.198 A 
ATOM     66  C   UNL A   1      50.552  26.204  26.352  1.00  0.00     0.198 A 
ATOM     67  F   UNL A   1      49.074  26.391  28.170  1.00  0.00    -0.203 F 
ATOM     68  F   UNL A   1      50.065  26.892  22.829  1.00  0.00    -0.200 F 
ATOM     69  C   UNL A   1      50.812  26.328  24.997  1.00  0.00     0.200 A 
ATOM     70  F   UNL A   1      51.510  25.766  27.181  1.00  0.00    -0.200 F 
ATOM     71  F   UNL A   1      52.014  25.989  24.510  1.00  0.00    -0.200 F 
ENDBRANCH  47  61
BRANCH  48  72
ATOM     72  C   UNL A   1      39.384  29.289  29.925  1.00  0.00     0.064 A 
ATOM     73  C   UNL A   1      39.142  29.049  31.283  1.00  0.00     0.173 A 
ATOM     74  C   UNL A   1      38.340  29.840  29.164  1.00  0.00     0.173 A 
ATOM     75  F   UNL A   1      40.098  28.500  32.046  1.00  0.00    -0.203 F 
ATOM     76  C   UNL A   1      37.902  29.327  31.854  1.00  0.00     0.198 A 
ATOM     77  C   UNL A   1      37.111  30.149  29.744  1.00  0.00     0.198 A 
ATOM     78  F   UNL A   1      38.516  30.086  27.858  1.00  0.00    -0.203 F 
ATOM     79  F   UNL A   1      37.680  29.036  33.144  1.00  0.00    -0.200 F 
ATOM     80  C   UNL A   1      36.890  29.883  31.087  1.00  0.00     0.200 A 
ATOM     81  F   UNL A   1      36.142  30.701  29.001  1.00  0.00    -0.200 F 
ATOM     82  F   UNL A   1      35.699  30.154  31.637  1.00  0.00    -0.200 F 
ENDBRANCH  48  72
BRANCH  60  83
ATOM     83  C   UNL A   1      45.282  32.884  28.967  1.00  0.00     0.064 A 
ATOM     84  C   UNL A   1      45.961  33.208  30.152  1.00  0.00     0.173 A 
ATOM     85  C   UNL A   1      45.008  33.925  28.066  1.00  0.00     0.173 A 
ATOM     86  F   UNL A   1      46.235  32.254  31.054  1.00  0.00    -0.203 F 
ATOM     87  C   UNL A   1      46.320  34.523  30.436  1.00  0.00     0.198 A 
ATOM     88  C   UNL A   1      45.401  35.233  28.336  1.00  0.00     0.198 A 
ATOM     89  F   UNL A   1      44.369  33.672  26.913  1.00  0.00    -0.203 F 
ATOM     90  F   UNL A   1      46.916  34.816  31.600  1.00  0.00    -0.200 F 
ATOM     91  C   UNL A   1      46.048  35.532  29.525  1.00  0.00     0.200 A 
ATOM     92  F   UNL A   1      45.153  36.204  27.446  1.00  0.00    -0.200 F 
ATOM     93  F   UNL A   1      46.403  36.797  29.796  1.00  0.00    -0.200 F 
ENDBRANCH  60  83
ENDBRANCH  34  35
ENDBRANCH  27  29
ENDBRANCH  26  27
ENDBRANCH  25  26
ENDBRANCH  24  25
ENDBRANCH   1  24
TORSDOF 17
ENDMDL
