MODEL 1
REMARK VINA RESULT:     -10.8      0.000      0.000
REMARK SMILES CCCO[C@@H]1CCC[C@]([NH3+])(C(=O)OCCOCCOC(=O)c2ccc(-c3c4nc(c(-c5c(F)c(F)c(F)c(F)c5F)c5ccc([nH]5)c(-c5c(F)c(F)c(F)c(F)c5F)c5nc(c(-c6c(F)c(F)c(F)c(F)c6F)c6ccc3[nH]6)C=C5)C=C4)cc2)C1
REMARK SMILES IDX 15 1 14 2 13 3 11 4 12 5 9 6 5 7 6 8 85 9 7 10 8 11 4 12
REMARK SMILES IDX 3 13 2 14 1 15 10 16 16 20 17 21 18 22 19 23 20 24 21 25
REMARK SMILES IDX 22 26 23 27 84 28 24 29 83 30 25 31 26 32 27 33 77 34 28 35
REMARK SMILES IDX 82 36 76 37 78 38 29 39 81 40 75 41 74 42 30 44 62 45 42 46
REMARK SMILES IDX 61 47 43 48 46 49 60 50 79 51 44 52 45 53 59 55 80 56 47 57
REMARK SMILES IDX 31 58 32 59 40 60 33 61 34 62 38 63 41 64 35 65 36 66 39 67
REMARK SMILES IDX 37 68 63 69 64 70 72 71 65 72 66 73 70 74 73 75 67 76 68 77
REMARK SMILES IDX 71 78 69 79 48 80 49 81 57 82 50 83 51 84 55 85 58 86 52 87
REMARK SMILES IDX 53 88 56 89 54 90
REMARK H PARENT 10 17 10 18 10 19 78 43 46 54
REMARK Flexibility Score: inf
ROOT
ATOM      1  C   UNL A   1      45.721  19.874  24.335  1.00  0.00     0.202 C 
ENDROOT
BRANCH   1   2
ATOM      2  C   UNL A   1      44.616  18.850  24.612  1.00  0.00     0.261 C 
BRANCH   2   3
ATOM      3  O   UNL A   1      43.395  19.501  25.003  1.00  0.00    -0.459 OA
BRANCH   3   4
ATOM      4  C   UNL A   1      42.604  18.847  25.907  1.00  0.00     0.368 C 
ATOM      5  O   UNL A   1      42.633  17.638  26.100  1.00  0.00    -0.245 OA
BRANCH   4   6
ATOM      6  C   UNL A   1      41.654  19.841  26.655  1.00  0.00     0.195 C 
ATOM      7  C   UNL A   1      39.472  21.239  26.340  1.00  0.00     0.125 C 
ATOM      8  C   UNL A   1      40.270  22.512  26.643  1.00  0.00     0.032 C 
ATOM      9  C   UNL A   1      40.370  20.103  25.856  1.00  0.00     0.113 C 
ATOM     10  C   UNL A   1      41.539  22.270  27.450  1.00  0.00     0.010 C 
ATOM     11  C   UNL A   1      42.404  21.177  26.826  1.00  0.00     0.081 C 
BRANCH   7  12
ATOM     12  O   UNL A   1      38.549  21.590  25.293  1.00  0.00    -0.378 OA
BRANCH  12  13
ATOM     13  C   UNL A   1      37.264  22.040  25.716  1.00  0.00     0.160 C 
BRANCH  13  14
ATOM     14  C   UNL A   1      36.757  23.158  24.799  1.00  0.00     0.025 C 
ATOM     15  C   UNL A   1      35.828  24.155  25.478  1.00  0.00     0.006 C 
ENDBRANCH  13  14
ENDBRANCH  12  13
ENDBRANCH   7  12
BRANCH   6  16
ATOM     16  N   UNL A   1      41.338  19.267  27.983  1.00  0.00    -0.343 N 
ATOM     17  H   UNL A   1      41.798  18.361  28.079  1.00  0.00     0.345 HD
ATOM     18  H   UNL A   1      40.329  19.145  28.069  1.00  0.00     0.345 HD
ATOM     19  H   UNL A   1      41.669  19.896  28.713  1.00  0.00     0.345 HD
ENDBRANCH   6  16
ENDBRANCH   4   6
ENDBRANCH   3   4
ENDBRANCH   2   3
ENDBRANCH   1   2
BRANCH   1  20
ATOM     20  O   UNL A   1      45.268  21.210  24.112  1.00  0.00    -0.374 OA
BRANCH  20  21
ATOM     21  C   UNL A   1      46.082  22.248  24.655  1.00  0.00     0.202 C 
BRANCH  21  22
ATOM     22  C   UNL A   1      45.396  23.160  25.675  1.00  0.00     0.261 C 
BRANCH  22  23
ATOM     23  O   UNL A   1      44.487  24.070  25.032  1.00  0.00    -0.460 OA
BRANCH  23  24
ATOM     24  C   UNL A   1      44.824  25.373  25.176  1.00  0.00     0.338 C 
ATOM     25  O   UNL A   1      45.740  25.964  24.632  1.00  0.00    -0.246 OA
BRANCH  24  26
ATOM     26  C   UNL A   1      43.827  26.074  26.006  1.00  0.00     0.060 A 
ATOM     27  C   UNL A   1      44.109  27.404  26.336  1.00  0.00     0.016 A 
ATOM     28  C   UNL A   1      42.703  25.434  26.534  1.00  0.00     0.016 A 
ATOM     29  C   UNL A   1      43.327  28.066  27.276  1.00  0.00     0.010 A 
ATOM     30  C   UNL A   1      41.907  26.108  27.469  1.00  0.00     0.010 A 
ATOM     31  C   UNL A   1      42.258  27.402  27.892  1.00  0.00    -0.014 A 
BRANCH  31  32
ATOM     32  C   UNL A   1      41.662  28.005  29.109  1.00  0.00     0.031 A 
ATOM     33  C   UNL A   1      42.349  27.807  30.433  1.00  0.00     0.074 A 
ATOM     34  C   UNL A   1      40.577  28.795  29.027  1.00  0.00     0.049 A 
ATOM     35  N   UNL A   1      42.058  28.306  31.608  1.00  0.00    -0.248 NA
ATOM     36  C   UNL A   1      43.523  26.921  30.432  1.00  0.00     0.031 C 
ATOM     37  C   UNL A   1      39.833  29.080  27.803  1.00  0.00     0.029 A 
ATOM     38  N   UNL A   1      39.920  29.508  29.999  1.00  0.00    -0.354 N 
ATOM     39  C   UNL A   1      43.009  27.795  32.482  1.00  0.00     0.074 A 
ATOM     40  C   UNL A   1      43.852  26.904  31.714  1.00  0.00     0.031 C 
ATOM     41  C   UNL A   1      38.819  29.911  28.095  1.00  0.00     0.029 A 
ATOM     42  C   UNL A   1      38.833  30.199  29.529  1.00  0.00     0.049 A 
ATOM     43  H   UNL A   1      40.203  29.522  30.942  1.00  0.00     0.167 HD
ATOM     44  C   UNL A   1      43.181  28.058  33.800  1.00  0.00     0.037 A 
ATOM     45  C   UNL A   1      37.945  30.971  30.184  1.00  0.00     0.037 A 
ATOM     46  C   UNL A   1      42.339  28.941  34.564  1.00  0.00     0.049 A 
ATOM     47  C   UNL A   1      38.131  31.227  31.656  1.00  0.00     0.074 A 
ATOM     48  C   UNL A   1      42.437  29.291  35.899  1.00  0.00     0.029 A 
ATOM     49  N   UNL A   1      41.234  29.611  34.057  1.00  0.00    -0.354 N 
ATOM     50  N   UNL A   1      39.055  30.772  32.467  1.00  0.00    -0.248 NA
ATOM     51  C   UNL A   1      37.160  32.123  32.299  1.00  0.00     0.031 C 
ATOM     52  C   UNL A   1      41.356  30.123  36.215  1.00  0.00     0.029 A 
ATOM     53  C   UNL A   1      40.625  30.351  35.059  1.00  0.00     0.049 A 
ATOM     54  H   UNL A   1      40.927  29.566  33.122  1.00  0.00     0.167 HD
ATOM     55  C   UNL A   1      38.797  31.345  33.706  1.00  0.00     0.074 A 
ATOM     56  C   UNL A   1      37.635  32.194  33.534  1.00  0.00     0.031 C 
ATOM     57  C   UNL A   1      39.464  31.187  34.878  1.00  0.00     0.037 A 
BRANCH  44  58
ATOM     58  C   UNL A   1      44.306  27.346  34.499  1.00  0.00     0.064 A 
ATOM     59  C   UNL A   1      45.595  27.898  34.585  1.00  0.00     0.173 A 
ATOM     60  C   UNL A   1      44.098  26.083  35.074  1.00  0.00     0.173 A 
ATOM     61  F   UNL A   1      45.855  29.095  34.040  1.00  0.00    -0.203 F 
ATOM     62  C   UNL A   1      46.641  27.191  35.175  1.00  0.00     0.198 A 
ATOM     63  C   UNL A   1      45.138  25.396  35.696  1.00  0.00     0.198 A 
ATOM     64  F   UNL A   1      42.887  25.509  35.026  1.00  0.00    -0.203 F 
ATOM     65  F   UNL A   1      47.878  27.708  35.178  1.00  0.00    -0.200 F 
ATOM     66  C   UNL A   1      46.411  25.944  35.734  1.00  0.00     0.200 A 
ATOM     67  F   UNL A   1      44.909  24.196  36.248  1.00  0.00    -0.200 F 
ATOM     68  F   UNL A   1      47.418  25.263  36.296  1.00  0.00    -0.200 F 
ENDBRANCH  44  58
BRANCH  45  69
ATOM     69  C   UNL A   1      36.807  31.564  29.436  1.00  0.00     0.064 A 
ATOM     70  C   UNL A   1      35.726  30.781  29.009  1.00  0.00     0.173 A 
ATOM     71  C   UNL A   1      36.769  32.939  29.157  1.00  0.00     0.173 A 
ATOM     72  F   UNL A   1      35.727  29.459  29.234  1.00  0.00    -0.203 F 
ATOM     73  C   UNL A   1      34.655  31.350  28.323  1.00  0.00     0.198 A 
ATOM     74  C   UNL A   1      35.684  33.510  28.496  1.00  0.00     0.198 A 
ATOM     75  F   UNL A   1      37.778  33.731  29.548  1.00  0.00    -0.203 F 
ATOM     76  F   UNL A   1      33.649  30.575  27.896  1.00  0.00    -0.200 F 
ATOM     77  C   UNL A   1      34.630  32.714  28.076  1.00  0.00     0.200 A 
ATOM     78  F   UNL A   1      35.658  34.831  28.276  1.00  0.00    -0.200 F 
ATOM     79  F   UNL A   1      33.591  33.262  27.430  1.00  0.00    -0.200 F 
ENDBRANCH  45  69
BRANCH  57  80
ATOM     80  C   UNL A   1      38.976  31.979  36.060  1.00  0.00     0.064 A 
ATOM     81  C   UNL A   1      39.345  33.317  36.261  1.00  0.00     0.173 A 
ATOM     82  C   UNL A   1      38.111  31.392  36.997  1.00  0.00     0.173 A 
ATOM     83  F   UNL A   1      40.179  33.926  35.403  1.00  0.00    -0.203 F 
ATOM     84  C   UNL A   1      38.900  34.024  37.377  1.00  0.00     0.198 A 
ATOM     85  C   UNL A   1      37.640  32.111  38.091  1.00  0.00     0.198 A 
ATOM     86  F   UNL A   1      37.716  30.118  36.849  1.00  0.00    -0.203 F 
ATOM     87  F   UNL A   1      39.318  35.281  37.582  1.00  0.00    -0.200 F 
ATOM     88  C   UNL A   1      38.045  33.422  38.287  1.00  0.00     0.200 A 
ATOM     89  F   UNL A   1      36.798  31.534  38.960  1.00  0.00    -0.200 F 
ATOM     90  F   UNL A   1      37.618  34.104  39.360  1.00  0.00    -0.200 F 
ENDBRANCH  57  80
ENDBRANCH  31  32
ENDBRANCH  24  26
ENDBRANCH  23  24
ENDBRANCH  22  23
ENDBRANCH  21  22
ENDBRANCH  20  21
ENDBRANCH   1  20
TORSDOF 18
ENDMDL
MODEL 2
REMARK VINA RESULT:     -10.3      6.298     12.648
REMARK SMILES CCCO[C@@H]1CCC[C@]([NH3+])(C(=O)OCCOCCOC(=O)c2ccc(-c3c4nc(c(-c5c(F)c(F)c(F)c(F)c5F)c5ccc([nH]5)c(-c5c(F)c(F)c(F)c(F)c5F)c5nc(c(-c6c(F)c(F)c(F)c(F)c6F)c6ccc3[nH]6)C=C5)C=C4)cc2)C1
REMARK SMILES IDX 15 1 14 2 13 3 11 4 12 5 9 6 5 7 6 8 85 9 7 10 8 11 4 12
REMARK SMILES IDX 3 13 2 14 1 15 10 16 16 20 17 21 18 22 19 23 20 24 21 25
REMARK SMILES IDX 22 26 23 27 84 28 24 29 83 30 25 31 26 32 27 33 77 34 28 35
REMARK SMILES IDX 82 36 76 37 78 38 29 39 81 40 75 41 74 42 30 44 62 45 42 46
REMARK SMILES IDX 61 47 43 48 46 49 60 50 79 51 44 52 45 53 59 55 80 56 47 57
REMARK SMILES IDX 31 58 32 59 40 60 33 61 34 62 38 63 41 64 35 65 36 66 39 67
REMARK SMILES IDX 37 68 63 69 64 70 72 71 65 72 66 73 70 74 73 75 67 76 68 77
REMARK SMILES IDX 71 78 69 79 48 80 49 81 57 82 50 83 51 84 55 85 58 86 52 87
REMARK SMILES IDX 53 88 56 89 54 90
REMARK H PARENT 10 17 10 18 10 19 78 43 46 54
REMARK Flexibility Score: inf
ROOT
ATOM      1  C   UNL A   1      34.114  35.548  33.038  1.00  0.00     0.202 C 
ENDROOT
BRANCH   1   2
ATOM      2  C   UNL A   1      33.218  35.810  31.823  1.00  0.00     0.261 C 
BRANCH   2   3
ATOM      3  O   UNL A   1      33.408  34.802  30.814  1.00  0.00    -0.459 OA
BRANCH   3   4
ATOM      4  C   UNL A   1      33.273  35.194  29.511  1.00  0.00     0.368 C 
ATOM      5  O   UNL A   1      32.516  36.078  29.132  1.00  0.00    -0.245 OA
BRANCH   4   6
ATOM      6  C   UNL A   1      34.206  34.362  28.568  1.00  0.00     0.195 C 
ATOM      7  C   UNL A   1      34.520  31.971  27.566  1.00  0.00     0.125 C 
ATOM      8  C   UNL A   1      35.906  31.905  28.217  1.00  0.00     0.032 C 
ATOM      9  C   UNL A   1      33.609  32.981  28.262  1.00  0.00     0.113 C 
ATOM     10  C   UNL A   1      36.518  33.269  28.512  1.00  0.00     0.010 C 
ATOM     11  C   UNL A   1      35.554  34.163  29.288  1.00  0.00     0.081 C 
BRANCH   7  12
ATOM     12  O   UNL A   1      33.956  30.655  27.701  1.00  0.00    -0.378 OA
BRANCH  12  13
ATOM     13  C   UNL A   1      33.427  30.075  26.511  1.00  0.00     0.160 C 
BRANCH  13  14
ATOM     14  C   UNL A   1      32.874  28.674  26.794  1.00  0.00     0.025 C 
ATOM     15  C   UNL A   1      31.602  28.659  27.631  1.00  0.00     0.006 C 
ENDBRANCH  13  14
ENDBRANCH  12  13
ENDBRANCH   7  12
BRANCH   6  16
ATOM     16  N   UNL A   1      34.409  35.134  27.321  1.00  0.00    -0.343 N 
ATOM     17  H   UNL A   1      33.942  34.658  26.548  1.00  0.00     0.345 HD
ATOM     18  H   UNL A   1      35.407  35.204  27.123  1.00  0.00     0.345 HD
ATOM     19  H   UNL A   1      34.016  36.068  27.432  1.00  0.00     0.345 HD
ENDBRANCH   6  16
ENDBRANCH   4   6
ENDBRANCH   3   4
ENDBRANCH   2   3
ENDBRANCH   1   2
BRANCH   1  20
ATOM     20  O   UNL A   1      35.518  35.615  32.782  1.00  0.00    -0.374 OA
BRANCH  20  21
ATOM     21  C   UNL A   1      36.268  34.442  33.091  1.00  0.00     0.202 C 
BRANCH  21  22
ATOM     22  C   UNL A   1      35.441  33.190  33.393  1.00  0.00     0.261 C 
BRANCH  22  23
ATOM     23  O   UNL A   1      35.995  32.030  32.748  1.00  0.00    -0.460 OA
BRANCH  23  24
ATOM     24  C   UNL A   1      37.106  31.548  33.350  1.00  0.00     0.338 C 
ATOM     25  O   UNL A   1      37.368  31.564  34.540  1.00  0.00    -0.246 OA
BRANCH  24  26
ATOM     26  C   UNL A   1      37.954  30.838  32.374  1.00  0.00     0.060 A 
ATOM     27  C   UNL A   1      38.862  29.908  32.891  1.00  0.00     0.016 A 
ATOM     28  C   UNL A   1      37.943  31.138  31.009  1.00  0.00     0.016 A 
ATOM     29  C   UNL A   1      39.831  29.351  32.064  1.00  0.00     0.010 A 
ATOM     30  C   UNL A   1      38.910  30.564  30.175  1.00  0.00     0.010 A 
ATOM     31  C   UNL A   1      39.898  29.722  30.714  1.00  0.00    -0.014 A 
BRANCH  31  32
ATOM     32  C   UNL A   1      41.123  29.380  29.950  1.00  0.00     0.031 A 
ATOM     33  C   UNL A   1      41.218  28.030  29.290  1.00  0.00     0.074 A 
ATOM     34  C   UNL A   1      42.096  30.288  29.765  1.00  0.00     0.049 A 
ATOM     35  N   UNL A   1      42.151  27.547  28.509  1.00  0.00    -0.248 NA
ATOM     36  C   UNL A   1      40.112  27.096  29.552  1.00  0.00     0.031 C 
ATOM     37  C   UNL A   1      42.113  31.633  30.334  1.00  0.00     0.029 A 
ATOM     38  N   UNL A   1      43.258  30.211  29.038  1.00  0.00    -0.354 N 
ATOM     39  C   UNL A   1      41.745  26.258  28.189  1.00  0.00     0.074 A 
ATOM     40  C   UNL A   1      40.511  26.014  28.904  1.00  0.00     0.031 C 
ATOM     41  C   UNL A   1      43.231  32.260  29.933  1.00  0.00     0.029 A 
ATOM     42  C   UNL A   1      44.016  31.353  29.097  1.00  0.00     0.049 A 
ATOM     43  H   UNL A   1      43.520  29.415  28.522  1.00  0.00     0.167 HD
ATOM     44  C   UNL A   1      42.333  25.363  27.358  1.00  0.00     0.037 A 
ATOM     45  C   UNL A   1      45.211  31.631  28.542  1.00  0.00     0.037 A 
ATOM     46  C   UNL A   1      43.562  25.606  26.649  1.00  0.00     0.049 A 
ATOM     47  C   UNL A   1      45.867  30.613  27.648  1.00  0.00     0.074 A 
ATOM     48  C   UNL A   1      44.233  24.775  25.770  1.00  0.00     0.029 A 
ATOM     49  N   UNL A   1      44.312  26.769  26.748  1.00  0.00    -0.354 N 
ATOM     50  N   UNL A   1      45.458  29.412  27.318  1.00  0.00    -0.248 NA
ATOM     51  C   UNL A   1      47.143  31.001  27.031  1.00  0.00     0.031 C 
ATOM     52  C   UNL A   1      45.419  25.410  25.383  1.00  0.00     0.029 A 
ATOM     53  C   UNL A   1      45.454  26.668  25.966  1.00  0.00     0.049 A 
ATOM     54  H   UNL A   1      44.071  27.552  27.294  1.00  0.00     0.167 HD
ATOM     55  C   UNL A   1      46.407  28.910  26.436  1.00  0.00     0.074 A 
ATOM     56  C   UNL A   1      47.407  29.947  26.272  1.00  0.00     0.031 C 
ATOM     57  C   UNL A   1      46.445  27.704  25.815  1.00  0.00     0.037 A 
BRANCH  44  58
ATOM     58  C   UNL A   1      41.661  24.026  27.206  1.00  0.00     0.064 A 
ATOM     59  C   UNL A   1      42.207  22.854  27.753  1.00  0.00     0.173 A 
ATOM     60  C   UNL A   1      40.462  23.913  26.485  1.00  0.00     0.173 A 
ATOM     61  F   UNL A   1      43.359  22.901  28.439  1.00  0.00    -0.203 F 
ATOM     62  C   UNL A   1      41.605  21.614  27.541  1.00  0.00     0.198 A 
ATOM     63  C   UNL A   1      39.844  22.678  26.307  1.00  0.00     0.198 A 
ATOM     64  F   UNL A   1      39.892  25.000  25.944  1.00  0.00    -0.203 F 
ATOM     65  F   UNL A   1      42.186  20.501  28.010  1.00  0.00    -0.200 F 
ATOM     66  C   UNL A   1      40.423  21.528  26.823  1.00  0.00     0.200 A 
ATOM     67  F   UNL A   1      38.693  22.599  25.624  1.00  0.00    -0.200 F 
ATOM     68  F   UNL A   1      39.848  20.336  26.615  1.00  0.00    -0.200 F 
ENDBRANCH  44  58
BRANCH  45  69
ATOM     69  C   UNL A   1      45.852  32.943  28.817  1.00  0.00     0.064 A 
ATOM     70  C   UNL A   1      46.840  33.082  29.801  1.00  0.00     0.173 A 
ATOM     71  C   UNL A   1      45.500  34.082  28.078  1.00  0.00     0.173 A 
ATOM     72  F   UNL A   1      47.195  32.026  30.548  1.00  0.00    -0.203 F 
ATOM     73  C   UNL A   1      47.447  34.313  30.039  1.00  0.00     0.198 A 
ATOM     74  C   UNL A   1      46.128  35.306  28.298  1.00  0.00     0.198 A 
ATOM     75  F   UNL A   1      44.562  34.000  27.123  1.00  0.00    -0.203 F 
ATOM     76  F   UNL A   1      48.366  34.428  31.007  1.00  0.00    -0.200 F 
ATOM     77  C   UNL A   1      47.098  35.421  29.282  1.00  0.00     0.200 A 
ATOM     78  F   UNL A   1      45.799  36.369  27.552  1.00  0.00    -0.200 F 
ATOM     79  F   UNL A   1      47.694  36.602  29.502  1.00  0.00    -0.200 F 
ENDBRANCH  45  69
BRANCH  57  80
ATOM     80  C   UNL A   1      47.587  27.453  24.868  1.00  0.00     0.064 A 
ATOM     81  C   UNL A   1      47.519  27.805  23.513  1.00  0.00     0.173 A 
ATOM     82  C   UNL A   1      48.774  26.864  25.331  1.00  0.00     0.173 A 
ATOM     83  F   UNL A   1      46.404  28.361  23.013  1.00  0.00    -0.203 F 
ATOM     84  C   UNL A   1      48.580  27.540  22.648  1.00  0.00     0.198 A 
ATOM     85  C   UNL A   1      49.846  26.633  24.473  1.00  0.00     0.198 A 
ATOM     86  F   UNL A   1      48.899  26.516  26.621  1.00  0.00    -0.203 F 
ATOM     87  F   UNL A   1      48.466  27.828  21.344  1.00  0.00    -0.200 F 
ATOM     88  C   UNL A   1      49.743  26.960  23.130  1.00  0.00     0.200 A 
ATOM     89  F   UNL A   1      50.976  26.089  24.945  1.00  0.00    -0.200 F 
ATOM     90  F   UNL A   1      50.762  26.705  22.297  1.00  0.00    -0.200 F 
ENDBRANCH  57  80
ENDBRANCH  31  32
ENDBRANCH  24  26
ENDBRANCH  23  24
ENDBRANCH  22  23
ENDBRANCH  21  22
ENDBRANCH  20  21
ENDBRANCH   1  20
TORSDOF 18
ENDMDL
MODEL 3
REMARK VINA RESULT:     -10.2      4.161      9.666
REMARK SMILES CCCO[C@@H]1CCC[C@]([NH3+])(C(=O)OCCOCCOC(=O)c2ccc(-c3c4nc(c(-c5c(F)c(F)c(F)c(F)c5F)c5ccc([nH]5)c(-c5c(F)c(F)c(F)c(F)c5F)c5nc(c(-c6c(F)c(F)c(F)c(F)c6F)c6ccc3[nH]6)C=C5)C=C4)cc2)C1
REMARK SMILES IDX 15 1 14 2 13 3 11 4 12 5 9 6 5 7 6 8 85 9 7 10 8 11 4 12
REMARK SMILES IDX 3 13 2 14 1 15 10 16 16 20 17 21 18 22 19 23 20 24 21 25
REMARK SMILES IDX 22 26 23 27 84 28 24 29 83 30 25 31 26 32 27 33 77 34 28 35
REMARK SMILES IDX 82 36 76 37 78 38 29 39 81 40 75 41 74 42 30 44 62 45 42 46
REMARK SMILES IDX 61 47 43 48 46 49 60 50 79 51 44 52 45 53 59 55 80 56 47 57
REMARK SMILES IDX 31 58 32 59 40 60 33 61 34 62 38 63 41 64 35 65 36 66 39 67
REMARK SMILES IDX 37 68 63 69 64 70 72 71 65 72 66 73 70 74 73 75 67 76 68 77
REMARK SMILES IDX 71 78 69 79 48 80 49 81 57 82 50 83 51 84 55 85 58 86 52 87
REMARK SMILES IDX 53 88 56 89 54 90
REMARK H PARENT 10 17 10 18 10 19 78 43 46 54
REMARK Flexibility Score: inf
ROOT
ATOM      1  C   UNL A   1      33.344  29.497  26.307  1.00  0.00     0.202 C 
ENDROOT
BRANCH   1   2
ATOM      2  C   UNL A   1      33.509  28.003  26.604  1.00  0.00     0.261 C 
BRANCH   2   3
ATOM      3  O   UNL A   1      32.578  27.218  25.839  1.00  0.00    -0.459 OA
BRANCH   3   4
ATOM      4  C   UNL A   1      31.484  26.733  26.500  1.00  0.00     0.368 C 
ATOM      5  O   UNL A   1      30.971  27.273  27.472  1.00  0.00    -0.245 OA
BRANCH   4   6
ATOM      6  C   UNL A   1      30.979  25.396  25.860  1.00  0.00     0.195 C 
ATOM      7  C   UNL A   1      31.660  22.904  25.485  1.00  0.00     0.125 C 
ATOM      8  C   UNL A   1      31.544  23.123  23.972  1.00  0.00     0.032 C 
ATOM      9  C   UNL A   1      31.882  24.214  26.237  1.00  0.00     0.113 C 
ATOM     10  C   UNL A   1      30.637  24.284  23.583  1.00  0.00     0.010 C 
ATOM     11  C   UNL A   1      31.006  25.563  24.328  1.00  0.00     0.081 C 
BRANCH   7  12
ATOM     12  O   UNL A   1      32.802  22.050  25.674  1.00  0.00    -0.378 OA
BRANCH  12  13
ATOM     13  C   UNL A   1      33.891  22.254  24.777  1.00  0.00     0.160 C 
BRANCH  13  14
ATOM     14  C   UNL A   1      35.164  22.620  25.549  1.00  0.00     0.025 C 
ATOM     15  C   UNL A   1      35.612  24.064  25.371  1.00  0.00     0.006 C 
ENDBRANCH  13  14
ENDBRANCH  12  13
ENDBRANCH   7  12
BRANCH   6  16
ATOM     16  N   UNL A   1      29.590  25.161  26.317  1.00  0.00    -0.343 N 
ATOM     17  H   UNL A   1      28.974  25.087  25.507  1.00  0.00     0.345 HD
ATOM     18  H   UNL A   1      29.289  25.940  26.902  1.00  0.00     0.345 HD
ATOM     19  H   UNL A   1      29.551  24.296  26.854  1.00  0.00     0.345 HD
ENDBRANCH   6  16
ENDBRANCH   4   6
ENDBRANCH   3   4
ENDBRANCH   2   3
ENDBRANCH   1   2
BRANCH   1  20
ATOM     20  O   UNL A   1      32.344  30.162  27.082  1.00  0.00    -0.374 OA
BRANCH  20  21
ATOM     21  C   UNL A   1      31.716  31.284  26.464  1.00  0.00     0.202 C 
BRANCH  21  22
ATOM     22  C   UNL A   1      31.788  32.596  27.251  1.00  0.00     0.261 C 
BRANCH  22  23
ATOM     23  O   UNL A   1      33.087  33.202  27.137  1.00  0.00    -0.460 OA
BRANCH  23  24
ATOM     24  C   UNL A   1      33.644  33.530  28.325  1.00  0.00     0.338 C 
ATOM     25  O   UNL A   1      33.153  34.208  29.211  1.00  0.00    -0.246 OA
BRANCH  24  26
ATOM     26  C   UNL A   1      34.928  32.827  28.503  1.00  0.00     0.060 A 
ATOM     27  C   UNL A   1      34.862  31.491  28.913  1.00  0.00     0.016 A 
ATOM     28  C   UNL A   1      36.162  33.471  28.377  1.00  0.00     0.016 A 
ATOM     29  C   UNL A   1      36.020  30.825  29.297  1.00  0.00     0.010 A 
ATOM     30  C   UNL A   1      37.329  32.793  28.750  1.00  0.00     0.010 A 
ATOM     31  C   UNL A   1      37.253  31.491  29.275  1.00  0.00    -0.014 A 
BRANCH  31  32
ATOM     32  C   UNL A   1      38.397  30.879  29.994  1.00  0.00     0.031 A 
ATOM     33  C   UNL A   1      38.606  31.209  31.447  1.00  0.00     0.074 A 
ATOM     34  C   UNL A   1      39.184  29.972  29.391  1.00  0.00     0.049 A 
ATOM     35  N   UNL A   1      39.484  30.733  32.294  1.00  0.00    -0.248 NA
ATOM     36  C   UNL A   1      37.704  32.219  32.023  1.00  0.00     0.031 C 
ATOM     37  C   UNL A   1      39.072  29.553  27.997  1.00  0.00     0.029 A 
ATOM     38  N   UNL A   1      40.230  29.234  29.886  1.00  0.00    -0.354 N 
ATOM     39  C   UNL A   1      39.240  31.383  33.497  1.00  0.00     0.074 A 
ATOM     40  C   UNL A   1      38.170  32.328  33.257  1.00  0.00     0.031 C 
ATOM     41  C   UNL A   1      40.014  28.629  27.745  1.00  0.00     0.029 A 
ATOM     42  C   UNL A   1      40.805  28.407  28.955  1.00  0.00     0.049 A 
ATOM     43  H   UNL A   1      40.538  29.291  30.820  1.00  0.00     0.167 HD
ATOM     44  C   UNL A   1      39.837  31.198  34.699  1.00  0.00     0.037 A 
ATOM     45  C   UNL A   1      41.854  27.570  29.066  1.00  0.00     0.037 A 
ATOM     46  C   UNL A   1      40.903  30.261  34.936  1.00  0.00     0.049 A 
ATOM     47  C   UNL A   1      42.528  27.401  30.401  1.00  0.00     0.074 A 
ATOM     48  C   UNL A   1      41.565  29.983  36.119  1.00  0.00     0.029 A 
ATOM     49  N   UNL A   1      41.472  29.452  33.962  1.00  0.00    -0.354 N 
ATOM     50  N   UNL A   1      42.266  27.990  31.543  1.00  0.00    -0.248 NA
ATOM     51  C   UNL A   1      43.630  26.432  30.467  1.00  0.00     0.031 C 
ATOM     52  C   UNL A   1      42.573  29.050  35.849  1.00  0.00     0.029 A 
ATOM     53  C   UNL A   1      42.495  28.693  34.512  1.00  0.00     0.049 A 
ATOM     54  H   UNL A   1      41.191  29.422  33.019  1.00  0.00     0.167 HD
ATOM     55  C   UNL A   1      43.149  27.446  32.468  1.00  0.00     0.074 A 
ATOM     56  C   UNL A   1      43.944  26.467  31.754  1.00  0.00     0.031 C 
ATOM     57  C   UNL A   1      43.285  27.727  33.789  1.00  0.00     0.037 A 
BRANCH  44  58
ATOM     58  C   UNL A   1      39.363  32.060  35.838  1.00  0.00     0.064 A 
ATOM     59  C   UNL A   1      39.911  33.329  36.087  1.00  0.00     0.173 A 
ATOM     60  C   UNL A   1      38.360  31.600  36.705  1.00  0.00     0.173 A 
ATOM     61  F   UNL A   1      40.883  33.812  35.299  1.00  0.00    -0.203 F 
ATOM     62  C   UNL A   1      39.508  34.082  37.188  1.00  0.00     0.198 A 
ATOM     63  C   UNL A   1      37.933  32.372  37.783  1.00  0.00     0.198 A 
ATOM     64  F   UNL A   1      37.798  30.398  36.513  1.00  0.00    -0.203 F 
ATOM     65  F   UNL A   1      40.099  35.257  37.447  1.00  0.00    -0.200 F 
ATOM     66  C   UNL A   1      38.517  33.606  38.032  1.00  0.00     0.200 A 
ATOM     67  F   UNL A   1      36.965  31.915  38.590  1.00  0.00    -0.200 F 
ATOM     68  F   UNL A   1      38.134  34.327  39.094  1.00  0.00    -0.200 F 
ENDBRANCH  44  58
BRANCH  45  69
ATOM     69  C   UNL A   1      42.318  26.824  27.868  1.00  0.00     0.064 A 
ATOM     70  C   UNL A   1      43.279  27.358  27.000  1.00  0.00     0.173 A 
ATOM     71  C   UNL A   1      41.821  25.542  27.584  1.00  0.00     0.173 A 
ATOM     72  F   UNL A   1      43.768  28.587  27.217  1.00  0.00    -0.203 F 
ATOM     73  C   UNL A   1      43.719  26.642  25.889  1.00  0.00     0.198 A 
ATOM     74  C   UNL A   1      42.283  24.817  26.489  1.00  0.00     0.198 A 
ATOM     75  F   UNL A   1      40.902  24.986  28.387  1.00  0.00    -0.203 F 
ATOM     76  F   UNL A   1      44.615  27.189  25.055  1.00  0.00    -0.200 F 
ATOM     77  C   UNL A   1      43.229  25.369  25.639  1.00  0.00     0.200 A 
ATOM     78  F   UNL A   1      41.818  23.581  26.263  1.00  0.00    -0.200 F 
ATOM     79  F   UNL A   1      43.666  24.676  24.579  1.00  0.00    -0.200 F 
ENDBRANCH  45  69
BRANCH  57  80
ATOM     80  C   UNL A   1      44.308  26.938  34.559  1.00  0.00     0.064 A 
ATOM     81  C   UNL A   1      45.621  27.397  34.736  1.00  0.00     0.173 A 
ATOM     82  C   UNL A   1      43.962  25.709  35.143  1.00  0.00     0.173 A 
ATOM     83  F   UNL A   1      46.011  28.560  34.190  1.00  0.00    -0.203 F 
ATOM     84  C   UNL A   1      46.560  26.638  35.432  1.00  0.00     0.198 A 
ATOM     85  C   UNL A   1      44.892  24.969  35.868  1.00  0.00     0.198 A 
ATOM     86  F   UNL A   1      42.717  25.225  35.015  1.00  0.00    -0.203 F 
ATOM     87  F   UNL A   1      47.826  27.068  35.532  1.00  0.00    -0.200 F 
ATOM     88  C   UNL A   1      46.193  25.428  36.001  1.00  0.00     0.200 A 
ATOM     89  F   UNL A   1      44.531  23.809  36.433  1.00  0.00    -0.200 F 
ATOM     90  F   UNL A   1      47.098  24.699  36.670  1.00  0.00    -0.200 F 
ENDBRANCH  57  80
ENDBRANCH  31  32
ENDBRANCH  24  26
ENDBRANCH  23  24
ENDBRANCH  22  23
ENDBRANCH  21  22
ENDBRANCH  20  21
ENDBRANCH   1  20
TORSDOF 18
ENDMDL
