MODEL 1
REMARK VINA RESULT:     -10.6      0.000      0.000
REMARK SMILES C[C@@H](CC(=O)OCCOCCOC(=O)c1ccc(-c2c3nc(c(-c4c(F)c(F)c(F)c(F)c4F)c4ccc([nH]4)c(-c4c(F)c(F)c(F)c(F)c4F)c4nc(c(-c5c(F)c(F)c(F)c(F)c5F)c5ccc2[nH]5)C=C4)C=C3)cc1)NC(=O)/C=C/c1cccnc1
REMARK SMILES IDX 8 1 7 2 6 3 4 4 5 5 3 6 2 7 1 8 78 9 79 10 80 12 81 13 82 14
REMARK SMILES IDX 83 15 84 16 88 17 85 18 87 19 86 20 9 21 10 22 11 23 12 24
REMARK SMILES IDX 13 25 14 26 15 27 16 28 77 29 17 30 76 31 18 32 19 33 20 34
REMARK SMILES IDX 70 35 21 36 75 37 69 38 71 39 22 40 74 41 68 42 67 43 23 45
REMARK SMILES IDX 55 46 35 47 54 48 36 49 39 50 53 51 72 52 37 53 38 54 52 56
REMARK SMILES IDX 73 57 40 58 24 59 25 60 33 61 26 62 27 63 31 64 34 65 28 66
REMARK SMILES IDX 29 67 32 68 30 69 56 70 57 71 65 72 58 73 59 74 63 75 66 76
REMARK SMILES IDX 60 77 61 78 64 79 62 80 41 81 42 82 50 83 43 84 44 85 48 86
REMARK SMILES IDX 51 87 45 88 46 89 49 90 47 91
REMARK H PARENT 78 11 71 44 39 55
REMARK Flexibility Score: inf
ROOT
ATOM      1  C   UNL A   1      34.553  22.685  26.868  1.00  0.00     0.202 C 
ENDROOT
BRANCH   1   2
ATOM      2  C   UNL A   1      33.035  22.613  27.036  1.00  0.00     0.261 C 
BRANCH   2   3
ATOM      3  O   UNL A   1      32.452  23.931  27.071  1.00  0.00    -0.463 OA
BRANCH   3   4
ATOM      4  C   UNL A   1      31.134  24.002  26.779  1.00  0.00     0.307 C 
ATOM      5  O   UNL A   1      30.278  23.254  27.243  1.00  0.00    -0.252 OA
BRANCH   4   6
ATOM      6  C   UNL A   1      30.761  25.094  25.802  1.00  0.00     0.147 C 
BRANCH   6   7
ATOM      7  C   UNL A   1      31.133  25.020  24.314  1.00  0.00     0.090 C 
ATOM      8  C   UNL A   1      30.278  24.081  23.469  1.00  0.00     0.031 C 
BRANCH   7   9
ATOM      9  N   UNL A   1      32.554  24.741  24.122  1.00  0.00    -0.350 N 
ATOM     10  C   UNL A   1      33.675  25.449  24.424  1.00  0.00     0.244 C 
ATOM     11  H   UNL A   1      32.735  23.875  23.691  1.00  0.00     0.164 HD
ATOM     12  O   UNL A   1      34.772  24.961  24.154  1.00  0.00    -0.270 OA
BRANCH  10  13
ATOM     13  C   UNL A   1      33.623  26.837  24.950  1.00  0.00     0.072 C 
ATOM     14  C   UNL A   1      34.053  27.270  26.146  1.00  0.00     0.015 C 
BRANCH  14  15
ATOM     15  C   UNL A   1      33.935  28.647  26.659  1.00  0.00    -0.007 A 
ATOM     16  C   UNL A   1      34.962  29.335  27.312  1.00  0.00     0.011 A 
ATOM     17  C   UNL A   1      32.759  29.366  26.431  1.00  0.00     0.119 A 
ATOM     18  C   UNL A   1      34.783  30.665  27.697  1.00  0.00     0.021 A 
ATOM     19  N   UNL A   1      32.556  30.658  26.788  1.00  0.00    -0.264 NA
ATOM     20  C   UNL A   1      33.576  31.278  27.414  1.00  0.00     0.111 A 
ENDBRANCH  14  15
ENDBRANCH  10  13
ENDBRANCH   7   9
ENDBRANCH   6   7
ENDBRANCH   4   6
ENDBRANCH   3   4
ENDBRANCH   2   3
ENDBRANCH   1   2
BRANCH   1  21
ATOM     21  O   UNL A   1      35.173  21.463  26.472  1.00  0.00    -0.374 OA
BRANCH  21  22
ATOM     22  C   UNL A   1      35.678  21.382  25.136  1.00  0.00     0.202 C 
BRANCH  22  23
ATOM     23  C   UNL A   1      37.021  20.655  25.000  1.00  0.00     0.261 C 
BRANCH  23  24
ATOM     24  O   UNL A   1      38.125  21.587  25.015  1.00  0.00    -0.460 OA
BRANCH  24  25
ATOM     25  C   UNL A   1      39.071  21.306  25.943  1.00  0.00     0.338 C 
ATOM     26  O   UNL A   1      39.644  20.238  26.120  1.00  0.00    -0.246 OA
BRANCH  25  27
ATOM     27  C   UNL A   1      39.490  22.526  26.654  1.00  0.00     0.060 A 
ATOM     28  C   UNL A   1      38.861  23.726  26.303  1.00  0.00     0.016 A 
ATOM     29  C   UNL A   1      40.579  22.526  27.528  1.00  0.00     0.016 A 
ATOM     30  C   UNL A   1      39.353  24.940  26.782  1.00  0.00     0.010 A 
ATOM     31  C   UNL A   1      41.074  23.749  28.006  1.00  0.00     0.010 A 
ATOM     32  C   UNL A   1      40.489  24.964  27.604  1.00  0.00    -0.014 A 
BRANCH  32  33
ATOM     33  C   UNL A   1      41.138  26.268  27.905  1.00  0.00     0.031 A 
ATOM     34  C   UNL A   1      42.548  26.516  27.441  1.00  0.00     0.074 A 
ATOM     35  C   UNL A   1      40.464  27.246  28.535  1.00  0.00     0.049 A 
ATOM     36  N   UNL A   1      43.293  27.585  27.579  1.00  0.00    -0.248 NA
ATOM     37  C   UNL A   1      43.205  25.416  26.718  1.00  0.00     0.031 C 
ATOM     38  C   UNL A   1      39.083  27.155  29.002  1.00  0.00     0.029 A 
ATOM     39  N   UNL A   1      40.856  28.516  28.887  1.00  0.00    -0.354 N 
ATOM     40  C   UNL A   1      44.502  27.286  26.963  1.00  0.00     0.074 A 
ATOM     41  C   UNL A   1      44.403  25.927  26.475  1.00  0.00     0.031 C 
ATOM     42  C   UNL A   1      38.742  28.317  29.585  1.00  0.00     0.029 A 
ATOM     43  C   UNL A   1      39.888  29.226  29.554  1.00  0.00     0.049 A 
ATOM     44  H   UNL A   1      41.746  28.881  28.681  1.00  0.00     0.167 HD
ATOM     45  C   UNL A   1      45.591  28.075  26.806  1.00  0.00     0.037 A 
ATOM     46  C   UNL A   1      39.927  30.461  30.090  1.00  0.00     0.037 A 
ATOM     47  C   UNL A   1      45.697  29.430  27.279  1.00  0.00     0.049 A 
ATOM     48  C   UNL A   1      41.176  31.294  29.961  1.00  0.00     0.074 A 
ATOM     49  C   UNL A   1      46.755  30.313  27.142  1.00  0.00     0.029 A 
ATOM     50  N   UNL A   1      44.710  30.097  27.988  1.00  0.00    -0.354 N 
ATOM     51  N   UNL A   1      42.301  31.012  29.353  1.00  0.00    -0.248 NA
ATOM     52  C   UNL A   1      41.157  32.622  30.596  1.00  0.00     0.031 C 
ATOM     53  C   UNL A   1      46.427  31.499  27.807  1.00  0.00     0.029 A 
ATOM     54  C   UNL A   1      45.146  31.371  28.319  1.00  0.00     0.049 A 
ATOM     55  H   UNL A   1      43.831  29.722  28.222  1.00  0.00     0.167 HD
ATOM     56  C   UNL A   1      43.110  32.131  29.506  1.00  0.00     0.074 A 
ATOM     57  C   UNL A   1      42.344  33.102  30.257  1.00  0.00     0.031 C 
ATOM     58  C   UNL A   1      44.375  32.334  29.063  1.00  0.00     0.037 A 
BRANCH  45  59
ATOM     59  C   UNL A   1      46.777  27.486  26.102  1.00  0.00     0.064 A 
ATOM     60  C   UNL A   1      46.956  27.631  24.718  1.00  0.00     0.173 A 
ATOM     61  C   UNL A   1      47.770  26.811  26.827  1.00  0.00     0.173 A 
ATOM     62  F   UNL A   1      46.029  28.258  23.979  1.00  0.00    -0.203 F 
ATOM     63  C   UNL A   1      48.079  27.102  24.083  1.00  0.00     0.198 A 
ATOM     64  C   UNL A   1      48.901  26.305  26.193  1.00  0.00     0.198 A 
ATOM     65  F   UNL A   1      47.647  26.653  28.153  1.00  0.00    -0.203 F 
ATOM     66  F   UNL A   1      48.213  27.221  22.755  1.00  0.00    -0.200 F 
ATOM     67  C   UNL A   1      49.053  26.447  24.823  1.00  0.00     0.200 A 
ATOM     68  F   UNL A   1      49.847  25.683  26.911  1.00  0.00    -0.200 F 
ATOM     69  F   UNL A   1      50.136  25.946  24.211  1.00  0.00    -0.200 F 
ENDBRANCH  45  59
BRANCH  46  70
ATOM     70  C   UNL A   1      38.743  30.989  30.815  1.00  0.00     0.064 A 
ATOM     71  C   UNL A   1      38.631  30.870  32.207  1.00  0.00     0.173 A 
ATOM     72  C   UNL A   1      37.687  31.603  30.125  1.00  0.00     0.173 A 
ATOM     73  F   UNL A   1      39.601  30.265  32.907  1.00  0.00    -0.203 F 
ATOM     74  C   UNL A   1      37.501  31.330  32.879  1.00  0.00     0.198 A 
ATOM     75  C   UNL A   1      36.569  32.085  30.801  1.00  0.00     0.198 A 
ATOM     76  F   UNL A   1      37.745  31.736  28.791  1.00  0.00    -0.203 F 
ATOM     77  F   UNL A   1      37.398  31.163  34.205  1.00  0.00    -0.200 F 
ATOM     78  C   UNL A   1      36.473  31.942  32.177  1.00  0.00     0.200 A 
ATOM     79  F   UNL A   1      35.583  32.684  30.119  1.00  0.00    -0.200 F 
ATOM     80  F   UNL A   1      35.387  32.386  32.823  1.00  0.00    -0.200 F 
ENDBRANCH  46  70
BRANCH  58  81
ATOM     81  C   UNL A   1      45.006  33.666  29.350  1.00  0.00     0.064 A 
ATOM     82  C   UNL A   1      45.774  33.881  30.504  1.00  0.00     0.173 A 
ATOM     83  C   UNL A   1      44.876  34.725  28.440  1.00  0.00     0.173 A 
ATOM     84  F   UNL A   1      45.915  32.903  31.412  1.00  0.00    -0.203 F 
ATOM     85  C   UNL A   1      46.371  35.115  30.745  1.00  0.00     0.198 A 
ATOM     86  C   UNL A   1      45.496  35.950  28.672  1.00  0.00     0.198 A 
ATOM     87  F   UNL A   1      44.157  34.569  27.318  1.00  0.00    -0.203 F 
ATOM     88  F   UNL A   1      47.066  35.311  31.874  1.00  0.00    -0.200 F 
ATOM     89  C   UNL A   1      46.237  36.146  29.827  1.00  0.00     0.200 A 
ATOM     90  F   UNL A   1      45.376  36.941  27.778  1.00  0.00    -0.200 F 
ATOM     91  F   UNL A   1      46.819  37.331  30.058  1.00  0.00    -0.200 F 
ENDBRANCH  58  81
ENDBRANCH  32  33
ENDBRANCH  25  27
ENDBRANCH  24  25
ENDBRANCH  23  24
ENDBRANCH  22  23
ENDBRANCH  21  22
ENDBRANCH   1  21
TORSDOF 18
ENDMDL
MODEL 2
REMARK VINA RESULT:     -10.5      4.250      9.728
REMARK SMILES C[C@@H](CC(=O)OCCOCCOC(=O)c1ccc(-c2c3nc(c(-c4c(F)c(F)c(F)c(F)c4F)c4ccc([nH]4)c(-c4c(F)c(F)c(F)c(F)c4F)c4nc(c(-c5c(F)c(F)c(F)c(F)c5F)c5ccc2[nH]5)C=C4)C=C3)cc1)NC(=O)/C=C/c1cccnc1
REMARK SMILES IDX 8 1 7 2 6 3 4 4 5 5 3 6 2 7 1 8 78 9 79 10 80 12 81 13 82 14
REMARK SMILES IDX 83 15 84 16 88 17 85 18 87 19 86 20 9 21 10 22 11 23 12 24
REMARK SMILES IDX 13 25 14 26 15 27 16 28 77 29 17 30 76 31 18 32 19 33 20 34
REMARK SMILES IDX 70 35 21 36 75 37 69 38 71 39 22 40 74 41 68 42 67 43 23 45
REMARK SMILES IDX 55 46 35 47 54 48 36 49 39 50 53 51 72 52 37 53 38 54 52 56
REMARK SMILES IDX 73 57 40 58 24 59 25 60 33 61 26 62 27 63 31 64 34 65 28 66
REMARK SMILES IDX 29 67 32 68 30 69 56 70 57 71 65 72 58 73 59 74 63 75 66 76
REMARK SMILES IDX 60 77 61 78 64 79 62 80 41 81 42 82 50 83 43 84 44 85 48 86
REMARK SMILES IDX 51 87 45 88 46 89 49 90 47 91
REMARK H PARENT 78 11 71 44 39 55
REMARK Flexibility Score: inf
ROOT
ATOM      1  C   UNL A   1      33.404  29.558  25.175  1.00  0.00     0.202 C 
ENDROOT
BRANCH   1   2
ATOM      2  C   UNL A   1      33.541  28.308  24.306  1.00  0.00     0.261 C 
BRANCH   2   3
ATOM      3  O   UNL A   1      32.585  28.318  23.226  1.00  0.00    -0.463 OA
BRANCH   3   4
ATOM      4  C   UNL A   1      31.772  27.240  23.147  1.00  0.00     0.307 C 
ATOM      5  O   UNL A   1      31.825  26.394  22.259  1.00  0.00    -0.252 OA
BRANCH   4   6
ATOM      6  C   UNL A   1      30.749  27.137  24.255  1.00  0.00     0.147 C 
BRANCH   6   7
ATOM      7  C   UNL A   1      29.681  26.035  24.280  1.00  0.00     0.090 C 
ATOM      8  C   UNL A   1      28.266  26.483  23.923  1.00  0.00     0.031 C 
BRANCH   7   9
ATOM      9  N   UNL A   1      29.688  25.299  25.543  1.00  0.00    -0.350 N 
ATOM     10  C   UNL A   1      30.610  24.485  26.122  1.00  0.00     0.244 C 
ATOM     11  H   UNL A   1      28.869  25.414  26.075  1.00  0.00     0.164 HD
ATOM     12  O   UNL A   1      30.355  23.993  27.220  1.00  0.00    -0.270 OA
BRANCH  10  13
ATOM     13  C   UNL A   1      31.854  24.069  25.426  1.00  0.00     0.072 C 
ATOM     14  C   UNL A   1      33.105  24.484  25.679  1.00  0.00     0.015 C 
BRANCH  14  15
ATOM     15  C   UNL A   1      34.314  24.092  24.930  1.00  0.00    -0.007 A 
ATOM     16  C   UNL A   1      35.551  23.816  25.520  1.00  0.00     0.011 A 
ATOM     17  C   UNL A   1      34.234  23.903  23.548  1.00  0.00     0.119 A 
ATOM     18  C   UNL A   1      36.621  23.378  24.738  1.00  0.00     0.021 A 
ATOM     19  N   UNL A   1      35.251  23.475  22.762  1.00  0.00    -0.264 NA
ATOM     20  C   UNL A   1      36.424  23.222  23.378  1.00  0.00     0.111 A 
ENDBRANCH  14  15
ENDBRANCH  10  13
ENDBRANCH   7   9
ENDBRANCH   6   7
ENDBRANCH   4   6
ENDBRANCH   3   4
ENDBRANCH   2   3
ENDBRANCH   1   2
BRANCH   1  21
ATOM     21  O   UNL A   1      32.194  29.639  25.926  1.00  0.00    -0.374 OA
BRANCH  21  22
ATOM     22  C   UNL A   1      31.321  30.738  25.654  1.00  0.00     0.202 C 
BRANCH  22  23
ATOM     23  C   UNL A   1      31.579  31.989  26.502  1.00  0.00     0.261 C 
BRANCH  23  24
ATOM     24  O   UNL A   1      32.571  31.736  27.522  1.00  0.00    -0.460 OA
BRANCH  24  25
ATOM     25  C   UNL A   1      33.479  32.730  27.667  1.00  0.00     0.338 C 
ATOM     26  O   UNL A   1      33.264  33.934  27.697  1.00  0.00    -0.246 OA
BRANCH  25  27
ATOM     27  C   UNL A   1      34.814  32.184  27.968  1.00  0.00     0.060 A 
ATOM     28  C   UNL A   1      34.909  30.807  28.207  1.00  0.00     0.016 A 
ATOM     29  C   UNL A   1      35.917  33.015  28.168  1.00  0.00     0.016 A 
ATOM     30  C   UNL A   1      36.095  30.263  28.700  1.00  0.00     0.010 A 
ATOM     31  C   UNL A   1      37.108  32.466  28.667  1.00  0.00     0.010 A 
ATOM     32  C   UNL A   1      37.190  31.095  28.974  1.00  0.00    -0.014 A 
BRANCH  32  33
ATOM     33  C   UNL A   1      38.352  30.541  29.720  1.00  0.00     0.031 A 
ATOM     34  C   UNL A   1      38.565  30.939  31.156  1.00  0.00     0.074 A 
ATOM     35  C   UNL A   1      39.178  29.648  29.148  1.00  0.00     0.049 A 
ATOM     36  N   UNL A   1      39.499  30.561  31.994  1.00  0.00    -0.248 NA
ATOM     37  C   UNL A   1      37.593  31.885  31.727  1.00  0.00     0.031 C 
ATOM     38  C   UNL A   1      39.063  29.146  27.781  1.00  0.00     0.029 A 
ATOM     39  N   UNL A   1      40.281  29.002  29.654  1.00  0.00    -0.354 N 
ATOM     40  C   UNL A   1      39.227  31.220  33.186  1.00  0.00     0.074 A 
ATOM     41  C   UNL A   1      38.060  32.045  32.957  1.00  0.00     0.031 C 
ATOM     42  C   UNL A   1      40.059  28.272  27.553  1.00  0.00     0.029 A 
ATOM     43  C   UNL A   1      40.895  28.171  28.749  1.00  0.00     0.049 A 
ATOM     44  H   UNL A   1      40.600  29.123  30.577  1.00  0.00     0.167 HD
ATOM     45  C   UNL A   1      39.883  31.138  34.369  1.00  0.00     0.037 A 
ATOM     46  C   UNL A   1      42.012  27.428  28.867  1.00  0.00     0.037 A 
ATOM     47  C   UNL A   1      41.039  30.315  34.609  1.00  0.00     0.049 A 
ATOM     48  C   UNL A   1      42.763  27.406  30.174  1.00  0.00     0.074 A 
ATOM     49  C   UNL A   1      41.752  30.151  35.785  1.00  0.00     0.029 A 
ATOM     50  N   UNL A   1      41.656  29.523  33.654  1.00  0.00    -0.354 N 
ATOM     51  N   UNL A   1      42.481  28.010  31.301  1.00  0.00    -0.248 NA
ATOM     52  C   UNL A   1      43.989  26.595  30.221  1.00  0.00     0.031 C 
ATOM     53  C   UNL A   1      42.828  29.294  35.530  1.00  0.00     0.029 A 
ATOM     54  C   UNL A   1      42.758  28.889  34.207  1.00  0.00     0.049 A 
ATOM     55  H   UNL A   1      41.357  29.425  32.722  1.00  0.00     0.167 HD
ATOM     56  C   UNL A   1      43.474  27.633  32.197  1.00  0.00     0.074 A 
ATOM     57  C   UNL A   1      44.362  26.739  31.485  1.00  0.00     0.031 C 
ATOM     58  C   UNL A   1      43.634  27.996  33.493  1.00  0.00     0.037 A 
BRANCH  45  59
ATOM     59  C   UNL A   1      39.374  31.978  35.502  1.00  0.00     0.064 A 
ATOM     60  C   UNL A   1      38.479  31.464  36.453  1.00  0.00     0.173 A 
ATOM     61  C   UNL A   1      39.824  33.296  35.666  1.00  0.00     0.173 A 
ATOM     62  F   UNL A   1      38.011  30.213  36.333  1.00  0.00    -0.203 F 
ATOM     63  C   UNL A   1      38.039  32.249  37.517  1.00  0.00     0.198 A 
ATOM     64  C   UNL A   1      39.401  34.069  36.743  1.00  0.00     0.198 A 
ATOM     65  F   UNL A   1      40.685  33.830  34.787  1.00  0.00    -0.203 F 
ATOM     66  F   UNL A   1      37.157  31.751  38.394  1.00  0.00    -0.200 F 
ATOM     67  C   UNL A   1      38.506  33.547  37.664  1.00  0.00     0.200 A 
ATOM     68  F   UNL A   1      39.861  35.319  36.891  1.00  0.00    -0.200 F 
ATOM     69  F   UNL A   1      38.087  34.298  38.693  1.00  0.00    -0.200 F 
ENDBRANCH  45  59
BRANCH  46  70
ATOM     70  C   UNL A   1      42.504  26.643  27.705  1.00  0.00     0.064 A 
ATOM     71  C   UNL A   1      42.046  25.340  27.464  1.00  0.00     0.173 A 
ATOM     72  C   UNL A   1      43.462  27.172  26.828  1.00  0.00     0.173 A 
ATOM     73  F   UNL A   1      41.152  24.780  28.291  1.00  0.00    -0.203 F 
ATOM     74  C   UNL A   1      42.540  24.592  26.397  1.00  0.00     0.198 A 
ATOM     75  C   UNL A   1      43.935  26.433  25.748  1.00  0.00     0.198 A 
ATOM     76  F   UNL A   1      43.935  28.413  27.021  1.00  0.00    -0.203 F 
ATOM     77  F   UNL A   1      42.119  23.333  26.214  1.00  0.00    -0.200 F 
ATOM     78  C   UNL A   1      43.480  25.140  25.537  1.00  0.00     0.200 A 
ATOM     79  F   UNL A   1      44.837  26.970  24.914  1.00  0.00    -0.200 F 
ATOM     80  F   UNL A   1      43.953  24.421  24.511  1.00  0.00    -0.200 F 
ENDBRANCH  46  70
BRANCH  58  81
ATOM     81  C   UNL A   1      44.795  27.406  34.240  1.00  0.00     0.064 A 
ATOM     82  C   UNL A   1      44.692  26.174  34.901  1.00  0.00     0.173 A 
ATOM     83  C   UNL A   1      46.036  28.061  34.258  1.00  0.00     0.173 A 
ATOM     84  F   UNL A   1      43.523  25.516  34.925  1.00  0.00    -0.203 F 
ATOM     85  C   UNL A   1      45.784  25.629  35.571  1.00  0.00     0.198 A 
ATOM     86  C   UNL A   1      47.132  27.500  34.907  1.00  0.00     0.198 A 
ATOM     87  F   UNL A   1      46.188  29.239  33.635  1.00  0.00    -0.203 F 
ATOM     88  F   UNL A   1      45.652  24.470  36.232  1.00  0.00    -0.200 F 
ATOM     89  C   UNL A   1      47.004  26.289  35.568  1.00  0.00     0.200 A 
ATOM     90  F   UNL A   1      48.314  28.133  34.894  1.00  0.00    -0.200 F 
ATOM     91  F   UNL A   1      48.056  25.758  36.208  1.00  0.00    -0.200 F 
ENDBRANCH  58  81
ENDBRANCH  32  33
ENDBRANCH  25  27
ENDBRANCH  24  25
ENDBRANCH  23  24
ENDBRANCH  22  23
ENDBRANCH  21  22
ENDBRANCH   1  21
TORSDOF 18
ENDMDL
MODEL 3
REMARK VINA RESULT:     -10.5      4.578     10.369
REMARK SMILES C[C@@H](CC(=O)OCCOCCOC(=O)c1ccc(-c2c3nc(c(-c4c(F)c(F)c(F)c(F)c4F)c4ccc([nH]4)c(-c4c(F)c(F)c(F)c(F)c4F)c4nc(c(-c5c(F)c(F)c(F)c(F)c5F)c5ccc2[nH]5)C=C4)C=C3)cc1)NC(=O)/C=C/c1cccnc1
REMARK SMILES IDX 8 1 7 2 6 3 4 4 5 5 3 6 2 7 1 8 78 9 79 10 80 12 81 13 82 14
REMARK SMILES IDX 83 15 84 16 88 17 85 18 87 19 86 20 9 21 10 22 11 23 12 24
REMARK SMILES IDX 13 25 14 26 15 27 16 28 77 29 17 30 76 31 18 32 19 33 20 34
REMARK SMILES IDX 70 35 21 36 75 37 69 38 71 39 22 40 74 41 68 42 67 43 23 45
REMARK SMILES IDX 55 46 35 47 54 48 36 49 39 50 53 51 72 52 37 53 38 54 52 56
REMARK SMILES IDX 73 57 40 58 24 59 25 60 33 61 26 62 27 63 31 64 34 65 28 66
REMARK SMILES IDX 29 67 32 68 30 69 56 70 57 71 65 72 58 73 59 74 63 75 66 76
REMARK SMILES IDX 60 77 61 78 64 79 62 80 41 81 42 82 50 83 43 84 44 85 48 86
REMARK SMILES IDX 51 87 45 88 46 89 49 90 47 91
REMARK H PARENT 78 11 71 44 39 55
REMARK Flexibility Score: inf
ROOT
ATOM      1  C   UNL A   1      32.910  29.408  26.202  1.00  0.00     0.202 C 
ENDROOT
BRANCH   1   2
ATOM      2  C   UNL A   1      32.936  27.946  26.649  1.00  0.00     0.261 C 
BRANCH   2   3
ATOM      3  O   UNL A   1      32.871  27.055  25.518  1.00  0.00    -0.463 OA
BRANCH   3   4
ATOM      4  C   UNL A   1      32.761  25.739  25.808  1.00  0.00     0.307 C 
ATOM      5  O   UNL A   1      31.706  25.176  26.088  1.00  0.00    -0.252 OA
BRANCH   4   6
ATOM      6  C   UNL A   1      34.063  24.973  25.775  1.00  0.00     0.147 C 
BRANCH   6   7
ATOM      7  C   UNL A   1      34.203  23.631  25.042  1.00  0.00     0.090 C 
ATOM      8  C   UNL A   1      35.563  23.370  24.402  1.00  0.00     0.031 C 
BRANCH   7   9
ATOM      9  N   UNL A   1      33.127  23.425  24.074  1.00  0.00    -0.350 N 
ATOM     10  C   UNL A   1      32.449  22.314  23.683  1.00  0.00     0.244 C 
ATOM     11  H   UNL A   1      32.838  24.248  23.618  1.00  0.00     0.164 HD
ATOM     12  O   UNL A   1      31.564  22.430  22.836  1.00  0.00    -0.270 OA
BRANCH  10  13
ATOM     13  C   UNL A   1      32.820  20.951  24.142  1.00  0.00     0.072 C 
ATOM     14  C   UNL A   1      32.534  19.785  23.542  1.00  0.00     0.015 C 
BRANCH  14  15
ATOM     15  C   UNL A   1      32.869  18.444  24.056  1.00  0.00    -0.007 A 
ATOM     16  C   UNL A   1      32.634  18.022  25.368  1.00  0.00     0.011 A 
ATOM     17  C   UNL A   1      33.388  17.484  23.183  1.00  0.00     0.119 A 
ATOM     18  C   UNL A   1      32.916  16.708  25.745  1.00  0.00     0.021 A 
ATOM     19  N   UNL A   1      33.667  16.200  23.516  1.00  0.00    -0.264 NA
ATOM     20  C   UNL A   1      33.423  15.842  24.793  1.00  0.00     0.111 A 
ENDBRANCH  14  15
ENDBRANCH  10  13
ENDBRANCH   7   9
ENDBRANCH   6   7
ENDBRANCH   4   6
ENDBRANCH   3   4
ENDBRANCH   2   3
ENDBRANCH   1   2
BRANCH   1  21
ATOM     21  O   UNL A   1      32.110  30.270  27.010  1.00  0.00    -0.374 OA
BRANCH  21  22
ATOM     22  C   UNL A   1      31.388  31.312  26.348  1.00  0.00     0.202 C 
BRANCH  22  23
ATOM     23  C   UNL A   1      31.936  32.725  26.585  1.00  0.00     0.261 C 
BRANCH  23  24
ATOM     24  O   UNL A   1      32.472  32.861  27.920  1.00  0.00    -0.460 OA
BRANCH  24  25
ATOM     25  C   UNL A   1      33.531  33.701  28.007  1.00  0.00     0.338 C 
ATOM     26  O   UNL A   1      33.511  34.925  28.009  1.00  0.00    -0.246 OA
BRANCH  25  27
ATOM     27  C   UNL A   1      34.773  32.956  28.279  1.00  0.00     0.060 A 
ATOM     28  C   UNL A   1      34.648  31.632  28.717  1.00  0.00     0.016 A 
ATOM     29  C   UNL A   1      36.021  33.580  28.259  1.00  0.00     0.016 A 
ATOM     30  C   UNL A   1      35.765  30.944  29.190  1.00  0.00     0.010 A 
ATOM     31  C   UNL A   1      37.142  32.887  28.739  1.00  0.00     0.010 A 
ATOM     32  C   UNL A   1      37.013  31.580  29.245  1.00  0.00    -0.014 A 
BRANCH  32  33
ATOM     33  C   UNL A   1      38.132  30.921  29.970  1.00  0.00     0.031 A 
ATOM     34  C   UNL A   1      38.374  31.257  31.417  1.00  0.00     0.074 A 
ATOM     35  C   UNL A   1      38.892  29.989  29.369  1.00  0.00     0.049 A 
ATOM     36  N   UNL A   1      39.278  30.787  32.240  1.00  0.00    -0.248 NA
ATOM     37  C   UNL A   1      37.473  32.253  32.020  1.00  0.00     0.031 C 
ATOM     38  C   UNL A   1      38.740  29.539  27.987  1.00  0.00     0.029 A 
ATOM     39  N   UNL A   1      39.945  29.249  29.851  1.00  0.00    -0.354 N 
ATOM     40  C   UNL A   1      39.055  31.426  33.453  1.00  0.00     0.074 A 
ATOM     41  C   UNL A   1      37.950  32.340  33.253  1.00  0.00     0.031 C 
ATOM     42  C   UNL A   1      39.670  28.603  27.729  1.00  0.00     0.029 A 
ATOM     43  C   UNL A   1      40.497  28.405  28.919  1.00  0.00     0.049 A 
ATOM     44  H   UNL A   1      40.272  29.318  30.777  1.00  0.00     0.167 HD
ATOM     45  C   UNL A   1      39.704  31.260  34.631  1.00  0.00     0.037 A 
ATOM     46  C   UNL A   1      41.557  27.579  29.011  1.00  0.00     0.037 A 
ATOM     47  C   UNL A   1      40.797  30.349  34.843  1.00  0.00     0.049 A 
ATOM     48  C   UNL A   1      42.305  27.463  30.315  1.00  0.00     0.074 A 
ATOM     49  C   UNL A   1      41.497  30.098  36.011  1.00  0.00     0.029 A 
ATOM     50  N   UNL A   1      41.355  29.545  33.862  1.00  0.00    -0.354 N 
ATOM     51  N   UNL A   1      42.068  28.050  31.461  1.00  0.00    -0.248 NA
ATOM     52  C   UNL A   1      43.470  26.564  30.334  1.00  0.00     0.031 C 
ATOM     53  C   UNL A   1      42.508  29.173  35.727  1.00  0.00     0.029 A 
ATOM     54  C   UNL A   1      42.409  28.816  34.392  1.00  0.00     0.049 A 
ATOM     55  H   UNL A   1      41.049  29.498  32.928  1.00  0.00     0.167 HD
ATOM     56  C   UNL A   1      43.031  27.574  32.342  1.00  0.00     0.074 A 
ATOM     57  C   UNL A   1      43.852  26.641  31.601  1.00  0.00     0.031 C 
ATOM     58  C   UNL A   1      43.218  27.884  33.648  1.00  0.00     0.037 A 
BRANCH  45  59
ATOM     59  C   UNL A   1      39.257  32.099  35.791  1.00  0.00     0.064 A 
ATOM     60  C   UNL A   1      38.331  31.621  36.730  1.00  0.00     0.173 A 
ATOM     61  C   UNL A   1      39.798  33.378  35.992  1.00  0.00     0.173 A 
ATOM     62  F   UNL A   1      37.777  30.409  36.575  1.00  0.00    -0.203 F 
ATOM     63  C   UNL A   1      37.949  32.402  37.819  1.00  0.00     0.198 A 
ATOM     64  C   UNL A   1      39.432  34.145  37.094  1.00  0.00     0.198 A 
ATOM     65  F   UNL A   1      40.692  33.877  35.125  1.00  0.00    -0.203 F 
ATOM     66  F   UNL A   1      37.037  31.940  38.685  1.00  0.00    -0.200 F 
ATOM     67  C   UNL A   1      38.505  33.660  38.003  1.00  0.00     0.200 A 
ATOM     68  F   UNL A   1      39.979  35.356  37.277  1.00  0.00    -0.200 F 
ATOM     69  F   UNL A   1      38.142  34.406  39.056  1.00  0.00    -0.200 F 
ENDBRANCH  45  59
BRANCH  46  70
ATOM     70  C   UNL A   1      41.991  26.797  27.825  1.00  0.00     0.064 A 
ATOM     71  C   UNL A   1      41.453  25.532  27.554  1.00  0.00     0.173 A 
ATOM     72  C   UNL A   1      42.971  27.291  26.952  1.00  0.00     0.173 A 
ATOM     73  F   UNL A   1      40.534  25.005  28.375  1.00  0.00    -0.203 F 
ATOM     74  C   UNL A   1      41.891  24.784  26.463  1.00  0.00     0.198 A 
ATOM     75  C   UNL A   1      43.390  26.554  25.848  1.00  0.00     0.198 A 
ATOM     76  F   UNL A   1      43.520  28.496  27.172  1.00  0.00    -0.203 F 
ATOM     77  F   UNL A   1      41.394  23.558  26.251  1.00  0.00    -0.200 F 
ATOM     78  C   UNL A   1      42.855  25.297  25.608  1.00  0.00     0.200 A 
ATOM     79  F   UNL A   1      44.315  27.058  25.020  1.00  0.00    -0.200 F 
ATOM     80  F   UNL A   1      43.275  24.579  24.559  1.00  0.00    -0.200 F 
ENDBRANCH  46  70
BRANCH  58  81
ATOM     81  C   UNL A   1      44.333  27.189  34.374  1.00  0.00     0.064 A 
ATOM     82  C   UNL A   1      45.604  27.769  34.494  1.00  0.00     0.173 A 
ATOM     83  C   UNL A   1      44.115  25.949  34.993  1.00  0.00     0.173 A 
ATOM     84  F   UNL A   1      45.867  28.947  33.907  1.00  0.00    -0.203 F 
ATOM     85  C   UNL A   1      46.622  27.122  35.189  1.00  0.00     0.198 A 
ATOM     86  C   UNL A   1      45.127  25.317  35.710  1.00  0.00     0.198 A 
ATOM     87  F   UNL A   1      42.914  25.356  34.913  1.00  0.00    -0.203 F 
ATOM     88  F   UNL A   1      47.841  27.675  35.257  1.00  0.00    -0.200 F 
ATOM     89  C   UNL A   1      46.381  25.901  35.802  1.00  0.00     0.200 A 
ATOM     90  F   UNL A   1      44.890  24.144  36.310  1.00  0.00    -0.200 F 
ATOM     91  F   UNL A   1      47.361  25.283  36.477  1.00  0.00    -0.200 F 
ENDBRANCH  58  81
ENDBRANCH  32  33
ENDBRANCH  25  27
ENDBRANCH  24  25
ENDBRANCH  23  24
ENDBRANCH  22  23
ENDBRANCH  21  22
ENDBRANCH   1  21
TORSDOF 18
ENDMDL
