MODEL 1
REMARK VINA RESULT:     -11.3      0.000      0.000
REMARK SMILES CC[NH2+][C@@]1(C(=O)OCCOCCOC(=O)c2ccc(-c3c4nc(c(-c5c(F)c(F)c(F)c(F)c5F)c5ccc([nH]5)c(-c5c(F)c(F)c(F)c(F)c5F)c5nc(c(-c6c(F)c(F)c(F)c(F)c6F)c6ccc3[nH]6)C=C5)C=C4)cc2)CC[C@H]([NH+]2CCC(C(C)(C)C)CC2)C1
REMARK SMILES IDX 10 1 9 2 8 3 7 4 5 5 6 6 4 7 79 8 92 9 80 10 81 11 3 12 2 15
REMARK SMILES IDX 1 16 82 17 83 18 91 19 84 21 90 22 85 23 86 24 87 25 88 26
REMARK SMILES IDX 89 27 11 28 12 29 13 30 14 31 15 32 16 33 17 34 78 35 18 36
REMARK SMILES IDX 77 37 19 38 20 39 21 40 71 41 22 42 76 43 70 44 72 45 23 46
REMARK SMILES IDX 75 47 69 48 68 49 24 51 56 52 36 53 55 54 37 55 40 56 54 57
REMARK SMILES IDX 73 58 38 59 39 60 53 62 74 63 41 64 25 65 26 66 34 67 27 68
REMARK SMILES IDX 28 69 32 70 35 71 29 72 30 73 33 74 31 75 57 76 58 77 66 78
REMARK SMILES IDX 59 79 60 80 64 81 67 82 61 83 62 84 65 85 63 86 42 87 43 88
REMARK SMILES IDX 51 89 44 90 45 91 49 92 52 93 46 94 47 95 50 96 48 97
REMARK H PARENT 3 13 3 14 82 20 72 50 40 61
REMARK Flexibility Score: inf
ROOT
ATOM      1  O   UNL A   1      32.157  30.631  25.746  1.00  0.00    -0.374 OA
ENDROOT
BRANCH   1   2
ATOM      2  C   UNL A   1      32.726  29.491  26.392  1.00  0.00     0.202 C 
BRANCH   2   3
ATOM      3  C   UNL A   1      31.705  28.484  26.925  1.00  0.00     0.261 C 
BRANCH   3   4
ATOM      4  O   UNL A   1      31.061  27.861  25.797  1.00  0.00    -0.459 OA
BRANCH   4   5
ATOM      5  C   UNL A   1      31.090  26.513  25.728  1.00  0.00     0.368 C 
ATOM      6  O   UNL A   1      30.587  25.784  26.580  1.00  0.00    -0.245 OA
BRANCH   5   7
ATOM      7  C   UNL A   1      31.689  25.973  24.375  1.00  0.00     0.200 C 
ATOM      8  C   UNL A   1      30.609  25.173  23.634  1.00  0.00     0.087 C 
ATOM      9  C   UNL A   1      32.853  24.954  24.495  1.00  0.00     0.146 C 
ATOM     10  C   UNL A   1      30.810  23.711  24.010  1.00  0.00     0.072 C 
ATOM     11  C   UNL A   1      32.261  23.524  24.446  1.00  0.00     0.191 C 
BRANCH   7  12
ATOM     12  N   UNL A   1      31.930  27.200  23.570  1.00  0.00    -0.332 N 
ATOM     13  H   UNL A   1      31.810  27.997  24.197  1.00  0.00     0.347 HD
ATOM     14  H   UNL A   1      32.863  27.056  23.183  1.00  0.00     0.347 HD
BRANCH  12  15
ATOM     15  C   UNL A   1      31.113  27.456  22.403  1.00  0.00     0.257 C 
ATOM     16  C   UNL A   1      30.722  28.927  22.377  1.00  0.00     0.071 C 
ENDBRANCH  12  15
ENDBRANCH   7  12
BRANCH  11  17
ATOM     17  N   UNL A   1      32.568  22.616  25.568  1.00  0.00    -0.332 N 
ATOM     18  C   UNL A   1      33.365  23.174  26.665  1.00  0.00     0.262 C 
ATOM     19  C   UNL A   1      33.063  21.283  25.274  1.00  0.00     0.262 C 
ATOM     20  H   UNL A   1      31.601  22.506  25.874  1.00  0.00     0.348 HD
ATOM     21  C   UNL A   1      34.889  23.194  26.442  1.00  0.00     0.066 C 
ATOM     22  C   UNL A   1      34.497  21.270  24.779  1.00  0.00     0.066 C 
ATOM     23  C   UNL A   1      35.491  21.952  25.727  1.00  0.00     0.005 C 
BRANCH  23  24
ATOM     24  C   UNL A   1      36.884  22.217  25.014  1.00  0.00    -0.035 C 
ATOM     25  C   UNL A   1      36.638  22.756  23.595  1.00  0.00     0.011 C 
ATOM     26  C   UNL A   1      37.710  23.268  25.794  1.00  0.00     0.011 C 
ATOM     27  C   UNL A   1      37.784  20.966  24.892  1.00  0.00     0.011 C 
ENDBRANCH  23  24
ENDBRANCH  11  17
ENDBRANCH   5   7
ENDBRANCH   4   5
ENDBRANCH   3   4
ENDBRANCH   2   3
ENDBRANCH   1   2
BRANCH   1  28
ATOM     28  C   UNL A   1      31.362  31.506  26.543  1.00  0.00     0.202 C 
BRANCH  28  29
ATOM     29  C   UNL A   1      31.958  32.893  26.820  1.00  0.00     0.261 C 
BRANCH  29  30
ATOM     30  O   UNL A   1      32.706  32.965  28.048  1.00  0.00    -0.460 OA
BRANCH  30  31
ATOM     31  C   UNL A   1      33.798  33.761  28.003  1.00  0.00     0.338 C 
ATOM     32  O   UNL A   1      33.821  34.975  27.839  1.00  0.00    -0.246 OA
BRANCH  31  33
ATOM     33  C   UNL A   1      35.018  32.995  28.325  1.00  0.00     0.060 A 
ATOM     34  C   UNL A   1      34.863  31.652  28.691  1.00  0.00     0.016 A 
ATOM     35  C   UNL A   1      36.280  33.591  28.360  1.00  0.00     0.016 A 
ATOM     36  C   UNL A   1      35.956  30.919  29.153  1.00  0.00     0.010 A 
ATOM     37  C   UNL A   1      37.379  32.850  28.814  1.00  0.00     0.010 A 
ATOM     38  C   UNL A   1      37.217  31.523  29.257  1.00  0.00    -0.014 A 
BRANCH  38  39
ATOM     39  C   UNL A   1      38.313  30.819  29.977  1.00  0.00     0.031 A 
ATOM     40  C   UNL A   1      38.560  31.138  31.429  1.00  0.00     0.074 A 
ATOM     41  C   UNL A   1      39.053  29.873  29.370  1.00  0.00     0.049 A 
ATOM     42  N   UNL A   1      39.467  30.661  32.247  1.00  0.00    -0.248 NA
ATOM     43  C   UNL A   1      37.666  32.133  32.043  1.00  0.00     0.031 C 
ATOM     44  C   UNL A   1      38.898  29.439  27.984  1.00  0.00     0.029 A 
ATOM     45  N   UNL A   1      40.089  29.106  29.850  1.00  0.00    -0.354 N 
ATOM     46  C   UNL A   1      39.259  31.304  33.461  1.00  0.00     0.074 A 
ATOM     47  C   UNL A   1      38.167  32.233  33.265  1.00  0.00     0.031 C 
ATOM     48  C   UNL A   1      39.809  28.485  27.723  1.00  0.00     0.029 A 
ATOM     49  C   UNL A   1      40.633  28.265  28.911  1.00  0.00     0.049 A 
ATOM     50  H   UNL A   1      40.411  29.157  30.779  1.00  0.00     0.167 HD
ATOM     51  C   UNL A   1      39.907  31.129  34.637  1.00  0.00     0.037 A 
ATOM     52  C   UNL A   1      41.688  27.429  28.995  1.00  0.00     0.037 A 
ATOM     53  C   UNL A   1      40.986  30.198  34.842  1.00  0.00     0.049 A 
ATOM     54  C   UNL A   1      42.438  27.300  30.298  1.00  0.00     0.074 A 
ATOM     55  C   UNL A   1      41.684  29.929  36.007  1.00  0.00     0.029 A 
ATOM     56  N   UNL A   1      41.530  29.388  33.857  1.00  0.00    -0.354 N 
ATOM     57  N   UNL A   1      42.213  27.888  31.448  1.00  0.00    -0.248 NA
ATOM     58  C   UNL A   1      43.590  26.385  30.314  1.00  0.00     0.031 C 
ATOM     59  C   UNL A   1      42.692  29.006  35.713  1.00  0.00     0.029 A 
ATOM     60  C   UNL A   1      42.577  28.645  34.380  1.00  0.00     0.049 A 
ATOM     61  H   UNL A   1      41.219  29.348  32.924  1.00  0.00     0.167 HD
ATOM     62  C   UNL A   1      43.168  27.391  32.328  1.00  0.00     0.074 A 
ATOM     63  C   UNL A   1      43.967  26.443  31.583  1.00  0.00     0.031 C 
ATOM     64  C   UNL A   1      43.363  27.694  33.635  1.00  0.00     0.037 A 
BRANCH  51  65
ATOM     65  C   UNL A   1      39.485  31.984  35.799  1.00  0.00     0.064 A 
ATOM     66  C   UNL A   1      40.058  33.241  36.042  1.00  0.00     0.173 A 
ATOM     67  C   UNL A   1      38.460  31.554  36.657  1.00  0.00     0.173 A 
ATOM     68  F   UNL A   1      41.049  33.694  35.259  1.00  0.00    -0.203 F 
ATOM     69  C   UNL A   1      39.642  34.023  37.117  1.00  0.00     0.198 A 
ATOM     70  C   UNL A   1      38.023  32.353  37.710  1.00  0.00     0.198 A 
ATOM     71  F   UNL A   1      37.871  30.363  36.466  1.00  0.00    -0.203 F 
ATOM     72  F   UNL A   1      40.239  35.198  37.360  1.00  0.00    -0.200 F 
ATOM     73  C   UNL A   1      38.620  33.582  37.944  1.00  0.00     0.200 A 
ATOM     74  F   UNL A   1      37.023  31.933  38.497  1.00  0.00    -0.200 F 
ATOM     75  F   UNL A   1      38.213  34.341  38.971  1.00  0.00    -0.200 F 
ENDBRANCH  51  65
BRANCH  52  76
ATOM     76  C   UNL A   1      42.114  26.648  27.802  1.00  0.00     0.064 A 
ATOM     77  C   UNL A   1      41.565  25.389  27.523  1.00  0.00     0.173 A 
ATOM     78  C   UNL A   1      43.103  27.133  26.933  1.00  0.00     0.173 A 
ATOM     79  F   UNL A   1      40.635  24.867  28.338  1.00  0.00    -0.203 F 
ATOM     80  C   UNL A   1      42.004  24.636  26.436  1.00  0.00     0.198 A 
ATOM     81  C   UNL A   1      43.518  26.393  25.828  1.00  0.00     0.198 A 
ATOM     82  F   UNL A   1      43.665  28.331  27.156  1.00  0.00    -0.203 F 
ATOM     83  F   UNL A   1      41.502  23.411  26.226  1.00  0.00    -0.200 F 
ATOM     84  C   UNL A   1      42.976  25.141  25.586  1.00  0.00     0.200 A 
ATOM     85  F   UNL A   1      44.448  26.893  25.002  1.00  0.00    -0.200 F 
ATOM     86  F   UNL A   1      43.397  24.417  24.540  1.00  0.00    -0.200 F 
ENDBRANCH  52  76
BRANCH  64  87
ATOM     87  C   UNL A   1      44.456  26.962  34.366  1.00  0.00     0.064 A 
ATOM     88  C   UNL A   1      45.750  27.490  34.488  1.00  0.00     0.173 A 
ATOM     89  C   UNL A   1      44.190  25.735  34.992  1.00  0.00     0.173 A 
ATOM     90  F   UNL A   1      46.062  28.655  33.899  1.00  0.00    -0.203 F 
ATOM     91  C   UNL A   1      46.743  26.804  35.183  1.00  0.00     0.198 A 
ATOM     92  C   UNL A   1      45.175  25.067  35.717  1.00  0.00     0.198 A 
ATOM     93  F   UNL A   1      42.968  25.187  34.917  1.00  0.00    -0.203 F 
ATOM     94  F   UNL A   1      47.985  27.303  35.241  1.00  0.00    -0.200 F 
ATOM     95  C   UNL A   1      46.453  25.597  35.803  1.00  0.00     0.200 A 
ATOM     96  F   UNL A   1      44.887  23.911  36.331  1.00  0.00    -0.200 F 
ATOM     97  F   UNL A   1      47.408  24.943  36.480  1.00  0.00    -0.200 F 
ENDBRANCH  64  87
ENDBRANCH  38  39
ENDBRANCH  31  33
ENDBRANCH  30  31
ENDBRANCH  29  30
ENDBRANCH  28  29
ENDBRANCH   1  28
TORSDOF 18
ENDMDL
MODEL 2
REMARK VINA RESULT:     -11.3      4.439     10.163
REMARK SMILES CC[NH2+][C@@]1(C(=O)OCCOCCOC(=O)c2ccc(-c3c4nc(c(-c5c(F)c(F)c(F)c(F)c5F)c5ccc([nH]5)c(-c5c(F)c(F)c(F)c(F)c5F)c5nc(c(-c6c(F)c(F)c(F)c(F)c6F)c6ccc3[nH]6)C=C5)C=C4)cc2)CC[C@H]([NH+]2CCC(C(C)(C)C)CC2)C1
REMARK SMILES IDX 10 1 9 2 8 3 7 4 5 5 6 6 4 7 79 8 92 9 80 10 81 11 3 12 2 15
REMARK SMILES IDX 1 16 82 17 83 18 91 19 84 21 90 22 85 23 86 24 87 25 88 26
REMARK SMILES IDX 89 27 11 28 12 29 13 30 14 31 15 32 16 33 17 34 78 35 18 36
REMARK SMILES IDX 77 37 19 38 20 39 21 40 71 41 22 42 76 43 70 44 72 45 23 46
REMARK SMILES IDX 75 47 69 48 68 49 24 51 56 52 36 53 55 54 37 55 40 56 54 57
REMARK SMILES IDX 73 58 38 59 39 60 53 62 74 63 41 64 25 65 26 66 34 67 27 68
REMARK SMILES IDX 28 69 32 70 35 71 29 72 30 73 33 74 31 75 57 76 58 77 66 78
REMARK SMILES IDX 59 79 60 80 64 81 67 82 61 83 62 84 65 85 63 86 42 87 43 88
REMARK SMILES IDX 51 89 44 90 45 91 49 92 52 93 46 94 47 95 50 96 48 97
REMARK H PARENT 3 13 3 14 82 20 72 50 40 61
REMARK Flexibility Score: inf
ROOT
ATOM      1  O   UNL A   1      36.926  21.454  25.750  1.00  0.00    -0.374 OA
ENDROOT
BRANCH   1   2
ATOM      2  C   UNL A   1      36.694  22.714  25.117  1.00  0.00     0.202 C 
BRANCH   2   3
ATOM      3  C   UNL A   1      35.868  23.700  25.944  1.00  0.00     0.261 C 
BRANCH   3   4
ATOM      4  O   UNL A   1      34.725  24.095  25.159  1.00  0.00    -0.459 OA
BRANCH   4   5
ATOM      5  C   UNL A   1      33.540  23.518  25.450  1.00  0.00     0.368 C 
ATOM      6  O   UNL A   1      33.060  23.496  26.581  1.00  0.00    -0.245 OA
BRANCH   5   7
ATOM      7  C   UNL A   1      32.763  23.018  24.173  1.00  0.00     0.200 C 
ATOM      8  C   UNL A   1      33.091  23.943  22.994  1.00  0.00     0.087 C 
ATOM      9  C   UNL A   1      31.213  23.080  24.241  1.00  0.00     0.146 C 
ATOM     10  C   UNL A   1      31.989  24.993  22.938  1.00  0.00     0.072 C 
ATOM     11  C   UNL A   1      30.748  24.420  23.620  1.00  0.00     0.191 C 
BRANCH   7  12
ATOM     12  N   UNL A   1      33.385  21.703  23.862  1.00  0.00    -0.332 N 
ATOM     13  H   UNL A   1      33.685  21.738  22.888  1.00  0.00     0.347 HD
ATOM     14  H   UNL A   1      34.118  21.610  24.566  1.00  0.00     0.347 HD
BRANCH  12  15
ATOM     15  C   UNL A   1      32.605  20.493  24.020  1.00  0.00     0.257 C 
ATOM     16  C   UNL A   1      32.896  19.884  25.385  1.00  0.00     0.071 C 
ENDBRANCH  12  15
ENDBRANCH   7  12
BRANCH  11  17
ATOM     17  N   UNL A   1      29.905  25.304  24.448  1.00  0.00    -0.332 N 
ATOM     18  C   UNL A   1      29.522  26.589  23.856  1.00  0.00     0.262 C 
ATOM     19  C   UNL A   1      30.278  25.530  25.834  1.00  0.00     0.262 C 
ATOM     20  H   UNL A   1      29.096  24.683  24.463  1.00  0.00     0.348 HD
ATOM     21  C   UNL A   1      30.569  27.713  23.963  1.00  0.00     0.066 C 
ATOM     22  C   UNL A   1      31.493  26.425  25.990  1.00  0.00     0.066 C 
ATOM     23  C   UNL A   1      31.357  27.789  25.301  1.00  0.00     0.005 C 
BRANCH  23  24
ATOM     24  C   UNL A   1      32.757  28.528  25.196  1.00  0.00    -0.035 C 
ATOM     25  C   UNL A   1      32.684  29.869  25.946  1.00  0.00     0.011 C 
ATOM     26  C   UNL A   1      33.879  27.677  25.837  1.00  0.00     0.011 C 
ATOM     27  C   UNL A   1      33.214  28.824  23.749  1.00  0.00     0.011 C 
ENDBRANCH  23  24
ENDBRANCH  11  17
ENDBRANCH   5   7
ENDBRANCH   4   5
ENDBRANCH   3   4
ENDBRANCH   2   3
ENDBRANCH   1   2
BRANCH   1  28
ATOM     28  C   UNL A   1      37.478  20.411  24.948  1.00  0.00     0.202 C 
BRANCH  28  29
ATOM     29  C   UNL A   1      38.737  19.731  25.501  1.00  0.00     0.261 C 
BRANCH  29  30
ATOM     30  O   UNL A   1      39.851  20.628  25.668  1.00  0.00    -0.460 OA
BRANCH  30  31
ATOM     31  C   UNL A   1      40.422  20.604  26.894  1.00  0.00     0.338 C 
ATOM     32  O   UNL A   1      40.814  19.618  27.506  1.00  0.00    -0.246 OA
BRANCH  31  33
ATOM     33  C   UNL A   1      40.659  21.974  27.388  1.00  0.00     0.060 A 
ATOM     34  C   UNL A   1      39.948  23.016  26.779  1.00  0.00     0.016 A 
ATOM     35  C   UNL A   1      41.620  22.255  28.362  1.00  0.00     0.016 A 
ATOM     36  C   UNL A   1      40.239  24.343  27.095  1.00  0.00     0.010 A 
ATOM     37  C   UNL A   1      41.903  23.589  28.685  1.00  0.00     0.010 A 
ATOM     38  C   UNL A   1      41.247  24.643  28.021  1.00  0.00    -0.014 A 
BRANCH  38  39
ATOM     39  C   UNL A   1      41.718  26.047  28.166  1.00  0.00     0.031 A 
ATOM     40  C   UNL A   1      43.062  26.432  27.601  1.00  0.00     0.074 A 
ATOM     41  C   UNL A   1      40.950  26.986  28.749  1.00  0.00     0.049 A 
ATOM     42  N   UNL A   1      43.678  27.589  27.626  1.00  0.00    -0.248 NA
ATOM     43  C   UNL A   1      43.815  25.368  26.918  1.00  0.00     0.031 C 
ATOM     44  C   UNL A   1      39.618  26.762  29.305  1.00  0.00     0.029 A 
ATOM     45  N   UNL A   1      41.188  28.322  28.970  1.00  0.00    -0.354 N 
ATOM     46  C   UNL A   1      44.890  27.387  26.975  1.00  0.00     0.074 A 
ATOM     47  C   UNL A   1      44.940  25.991  26.601  1.00  0.00     0.031 C 
ATOM     48  C   UNL A   1      39.156  27.920  29.807  1.00  0.00     0.029 A 
ATOM     49  C   UNL A   1      40.172  28.959  29.640  1.00  0.00     0.049 A 
ATOM     50  H   UNL A   1      42.010  28.779  28.678  1.00  0.00     0.167 HD
ATOM     51  C   UNL A   1      45.866  28.285  26.701  1.00  0.00     0.037 A 
ATOM     52  C   UNL A   1      40.081  30.229  30.084  1.00  0.00     0.037 A 
ATOM     53  C   UNL A   1      45.817  29.678  27.060  1.00  0.00     0.049 A 
ATOM     54  C   UNL A   1      41.212  31.194  29.826  1.00  0.00     0.074 A 
ATOM     55  C   UNL A   1      46.746  30.670  26.798  1.00  0.00     0.029 A 
ATOM     56  N   UNL A   1      44.785  30.277  27.767  1.00  0.00    -0.354 N 
ATOM     57  N   UNL A   1      42.337  31.002  29.182  1.00  0.00    -0.248 NA
ATOM     58  C   UNL A   1      41.056  32.558  30.356  1.00  0.00     0.031 C 
ATOM     59  C   UNL A   1      46.309  31.853  27.401  1.00  0.00     0.029 A 
ATOM     60  C   UNL A   1      45.072  31.617  27.979  1.00  0.00     0.049 A 
ATOM     61  H   UNL A   1      43.970  29.818  28.074  1.00  0.00     0.167 HD
ATOM     62  C   UNL A   1      43.004  32.222  29.199  1.00  0.00     0.074 A 
ATOM     63  C   UNL A   1      42.151  33.153  29.906  1.00  0.00     0.031 C 
ATOM     64  C   UNL A   1      44.214  32.541  28.676  1.00  0.00     0.037 A 
BRANCH  51  65
ATOM     65  C   UNL A   1      47.094  27.783  25.995  1.00  0.00     0.064 A 
ATOM     66  C   UNL A   1      48.209  27.300  26.697  1.00  0.00     0.173 A 
ATOM     67  C   UNL A   1      47.137  27.747  24.592  1.00  0.00     0.173 A 
ATOM     68  F   UNL A   1      48.223  27.322  28.038  1.00  0.00    -0.203 F 
ATOM     69  C   UNL A   1      49.331  26.827  26.022  1.00  0.00     0.198 A 
ATOM     70  C   UNL A   1      48.248  27.242  23.921  1.00  0.00     0.198 A 
ATOM     71  F   UNL A   1      46.096  28.190  23.870  1.00  0.00    -0.203 F 
ATOM     72  F   UNL A   1      50.404  26.418  26.713  1.00  0.00    -0.200 F 
ATOM     73  C   UNL A   1      49.346  26.791  24.635  1.00  0.00     0.200 A 
ATOM     74  F   UNL A   1      48.253  27.191  22.581  1.00  0.00    -0.200 F 
ATOM     75  F   UNL A   1      50.423  26.324  23.988  1.00  0.00    -0.200 F 
ENDBRANCH  51  65
BRANCH  52  76
ATOM     76  C   UNL A   1      38.875  30.668  30.837  1.00  0.00     0.064 A 
ATOM     77  C   UNL A   1      37.765  31.214  30.177  1.00  0.00     0.173 A 
ATOM     78  C   UNL A   1      38.821  30.581  32.236  1.00  0.00     0.173 A 
ATOM     79  F   UNL A   1      37.777  31.345  28.842  1.00  0.00    -0.203 F 
ATOM     80  C   UNL A   1      36.658  31.675  30.888  1.00  0.00     0.198 A 
ATOM     81  C   UNL A   1      37.701  31.012  32.944  1.00  0.00     0.198 A 
ATOM     82  F   UNL A   1      39.858  30.071  32.918  1.00  0.00    -0.203 F 
ATOM     83  F   UNL A   1      35.635  32.244  30.235  1.00  0.00    -0.200 F 
ATOM     84  C   UNL A   1      36.624  31.568  32.270  1.00  0.00     0.200 A 
ATOM     85  F   UNL A   1      37.668  30.893  34.278  1.00  0.00    -0.200 F 
ATOM     86  F   UNL A   1      35.560  32.010  32.953  1.00  0.00    -0.200 F 
ENDBRANCH  52  76
BRANCH  64  87
ATOM     87  C   UNL A   1      44.676  33.968  28.803  1.00  0.00     0.064 A 
ATOM     88  C   UNL A   1      45.504  34.388  29.854  1.00  0.00     0.173 A 
ATOM     89  C   UNL A   1      44.320  34.917  27.832  1.00  0.00     0.173 A 
ATOM     90  F   UNL A   1      45.865  33.526  30.816  1.00  0.00    -0.203 F 
ATOM     91  C   UNL A   1      45.934  35.710  29.944  1.00  0.00     0.198 A 
ATOM     92  C   UNL A   1      44.780  36.230  27.905  1.00  0.00     0.198 A 
ATOM     93  F   UNL A   1      43.537  34.568  26.799  1.00  0.00    -0.203 F 
ATOM     94  F   UNL A   1      46.682  36.100  30.985  1.00  0.00    -0.200 F 
ATOM     95  C   UNL A   1      45.579  36.627  28.966  1.00  0.00     0.200 A 
ATOM     96  F   UNL A   1      44.450  37.108  26.949  1.00  0.00    -0.200 F 
ATOM     97  F   UNL A   1      46.001  37.897  29.049  1.00  0.00    -0.200 F 
ENDBRANCH  64  87
ENDBRANCH  38  39
ENDBRANCH  31  33
ENDBRANCH  30  31
ENDBRANCH  29  30
ENDBRANCH  28  29
ENDBRANCH   1  28
TORSDOF 18
ENDMDL
MODEL 3
REMARK VINA RESULT:     -11.2      4.323     10.220
REMARK SMILES CC[NH2+][C@@]1(C(=O)OCCOCCOC(=O)c2ccc(-c3c4nc(c(-c5c(F)c(F)c(F)c(F)c5F)c5ccc([nH]5)c(-c5c(F)c(F)c(F)c(F)c5F)c5nc(c(-c6c(F)c(F)c(F)c(F)c6F)c6ccc3[nH]6)C=C5)C=C4)cc2)CC[C@H]([NH+]2CCC(C(C)(C)C)CC2)C1
REMARK SMILES IDX 10 1 9 2 8 3 7 4 5 5 6 6 4 7 79 8 92 9 80 10 81 11 3 12 2 15
REMARK SMILES IDX 1 16 82 17 83 18 91 19 84 21 90 22 85 23 86 24 87 25 88 26
REMARK SMILES IDX 89 27 11 28 12 29 13 30 14 31 15 32 16 33 17 34 78 35 18 36
REMARK SMILES IDX 77 37 19 38 20 39 21 40 71 41 22 42 76 43 70 44 72 45 23 46
REMARK SMILES IDX 75 47 69 48 68 49 24 51 56 52 36 53 55 54 37 55 40 56 54 57
REMARK SMILES IDX 73 58 38 59 39 60 53 62 74 63 41 64 25 65 26 66 34 67 27 68
REMARK SMILES IDX 28 69 32 70 35 71 29 72 30 73 33 74 31 75 57 76 58 77 66 78
REMARK SMILES IDX 59 79 60 80 64 81 67 82 61 83 62 84 65 85 63 86 42 87 43 88
REMARK SMILES IDX 51 89 44 90 45 91 49 92 52 93 46 94 47 95 50 96 48 97
REMARK H PARENT 3 13 3 14 82 20 72 50 40 61
REMARK Flexibility Score: inf
ROOT
ATOM      1  O   UNL A   1      35.703  21.140  25.569  1.00  0.00    -0.374 OA
ENDROOT
BRANCH   1   2
ATOM      2  C   UNL A   1      34.466  21.583  25.005  1.00  0.00     0.202 C 
BRANCH   2   3
ATOM      3  C   UNL A   1      34.545  22.921  24.268  1.00  0.00     0.261 C 
BRANCH   3   4
ATOM      4  O   UNL A   1      33.277  23.589  24.417  1.00  0.00    -0.459 OA
BRANCH   4   5
ATOM      5  C   UNL A   1      33.090  24.332  25.529  1.00  0.00     0.368 C 
ATOM      6  O   UNL A   1      34.014  24.777  26.205  1.00  0.00    -0.245 OA
BRANCH   5   7
ATOM      7  C   UNL A   1      31.580  24.703  25.782  1.00  0.00     0.200 C 
ATOM      8  C   UNL A   1      30.753  24.303  24.553  1.00  0.00     0.087 C 
ATOM      9  C   UNL A   1      31.258  26.213  25.938  1.00  0.00     0.146 C 
ATOM     10  C   UNL A   1      30.644  25.541  23.674  1.00  0.00     0.072 C 
ATOM     11  C   UNL A   1      30.843  26.772  24.555  1.00  0.00     0.191 C 
BRANCH   7  12
ATOM     12  N   UNL A   1      31.163  23.794  26.884  1.00  0.00    -0.332 N 
ATOM     13  H   UNL A   1      32.016  23.440  27.317  1.00  0.00     0.347 HD
ATOM     14  H   UNL A   1      30.561  24.379  27.464  1.00  0.00     0.347 HD
BRANCH  12  15
ATOM     15  C   UNL A   1      30.335  22.646  26.582  1.00  0.00     0.257 C 
ATOM     16  C   UNL A   1      29.097  22.674  27.468  1.00  0.00     0.071 C 
ENDBRANCH  12  15
ENDBRANCH   7  12
BRANCH  11  17
ATOM     17  N   UNL A   1      31.597  27.926  24.028  1.00  0.00    -0.332 N 
ATOM     18  C   UNL A   1      31.435  29.197  24.740  1.00  0.00     0.262 C 
ATOM     19  C   UNL A   1      31.560  28.193  22.600  1.00  0.00     0.262 C 
ATOM     20  H   UNL A   1      32.520  27.541  24.227  1.00  0.00     0.348 HD
ATOM     21  C   UNL A   1      30.185  30.017  24.370  1.00  0.00     0.066 C 
ATOM     22  C   UNL A   1      30.233  28.754  22.128  1.00  0.00     0.066 C 
ATOM     23  C   UNL A   1      29.795  30.026  22.865  1.00  0.00     0.005 C 
BRANCH  23  24
ATOM     24  C   UNL A   1      28.270  30.364  22.585  1.00  0.00    -0.035 C 
ATOM     25  C   UNL A   1      27.410  29.122  22.873  1.00  0.00     0.011 C 
ATOM     26  C   UNL A   1      27.783  31.511  23.502  1.00  0.00     0.011 C 
ATOM     27  C   UNL A   1      27.974  30.815  21.136  1.00  0.00     0.011 C 
ENDBRANCH  23  24
ENDBRANCH  11  17
ENDBRANCH   5   7
ENDBRANCH   4   5
ENDBRANCH   3   4
ENDBRANCH   2   3
ENDBRANCH   1   2
BRANCH   1  28
ATOM     28  C   UNL A   1      36.324  20.003  24.972  1.00  0.00     0.202 C 
BRANCH  28  29
ATOM     29  C   UNL A   1      37.858  19.981  25.001  1.00  0.00     0.261 C 
BRANCH  29  30
ATOM     30  O   UNL A   1      38.444  21.209  25.469  1.00  0.00    -0.460 OA
BRANCH  30  31
ATOM     31  C   UNL A   1      39.544  21.057  26.240  1.00  0.00     0.338 C 
ATOM     32  O   UNL A   1      40.244  20.056  26.339  1.00  0.00    -0.246 OA
BRANCH  31  33
ATOM     33  C   UNL A   1      39.915  22.332  26.883  1.00  0.00     0.060 A 
ATOM     34  C   UNL A   1      39.245  23.488  26.464  1.00  0.00     0.016 A 
ATOM     35  C   UNL A   1      40.956  22.421  27.810  1.00  0.00     0.016 A 
ATOM     36  C   UNL A   1      39.653  24.741  26.921  1.00  0.00     0.010 A 
ATOM     37  C   UNL A   1      41.357  23.680  28.276  1.00  0.00     0.010 A 
ATOM     38  C   UNL A   1      40.739  24.852  27.800  1.00  0.00    -0.014 A 
BRANCH  38  39
ATOM     39  C   UNL A   1      41.322  26.192  28.084  1.00  0.00     0.031 A 
ATOM     40  C   UNL A   1      42.714  26.504  27.600  1.00  0.00     0.074 A 
ATOM     41  C   UNL A   1      40.613  27.141  28.723  1.00  0.00     0.049 A 
ATOM     42  N   UNL A   1      43.425  27.595  27.748  1.00  0.00    -0.248 NA
ATOM     43  C   UNL A   1      43.401  25.440  26.851  1.00  0.00     0.031 C 
ATOM     44  C   UNL A   1      39.245  26.989  29.212  1.00  0.00     0.029 A 
ATOM     45  N   UNL A   1      40.954  28.428  29.069  1.00  0.00    -0.354 N 
ATOM     46  C   UNL A   1      44.641  27.344  27.122  1.00  0.00     0.074 A 
ATOM     47  C   UNL A   1      44.587  25.986  26.627  1.00  0.00     0.031 C 
ATOM     48  C   UNL A   1      38.863  28.136  29.800  1.00  0.00     0.029 A 
ATOM     49  C   UNL A   1      39.970  29.092  29.759  1.00  0.00     0.049 A 
ATOM     50  H   UNL A   1      41.823  28.833  28.845  1.00  0.00     0.167 HD
ATOM     51  C   UNL A   1      45.701  28.172  26.961  1.00  0.00     0.037 A 
ATOM     52  C   UNL A   1      39.969  30.322  30.311  1.00  0.00     0.037 A 
ATOM     53  C   UNL A   1      45.755  29.528  27.440  1.00  0.00     0.049 A 
ATOM     54  C   UNL A   1      41.188  31.203  30.177  1.00  0.00     0.074 A 
ATOM     55  C   UNL A   1      46.775  30.453  27.297  1.00  0.00     0.029 A 
ATOM     56  N   UNL A   1      44.750  30.153  28.163  1.00  0.00    -0.354 N 
ATOM     57  N   UNL A   1      42.317  30.968  29.555  1.00  0.00    -0.248 NA
ATOM     58  C   UNL A   1      41.127  32.524  30.820  1.00  0.00     0.031 C 
ATOM     59  C   UNL A   1      46.416  31.614  27.988  1.00  0.00     0.029 A 
ATOM     60  C   UNL A   1      45.142  31.440  28.502  1.00  0.00     0.049 A 
ATOM     61  H   UNL A   1      43.887  29.743  28.401  1.00  0.00     0.167 HD
ATOM     62  C   UNL A   1      43.084  32.118  29.703  1.00  0.00     0.074 A 
ATOM     63  C   UNL A   1      42.286  33.056  30.461  1.00  0.00     0.031 C 
ATOM     64  C   UNL A   1      44.337  32.373  29.249  1.00  0.00     0.037 A 
BRANCH  51  65
ATOM     65  C   UNL A   1      46.909  27.626  26.253  1.00  0.00     0.064 A 
ATOM     66  C   UNL A   1      47.942  26.975  26.944  1.00  0.00     0.173 A 
ATOM     67  C   UNL A   1      47.013  27.720  24.856  1.00  0.00     0.173 A 
ATOM     68  F   UNL A   1      47.897  26.867  28.281  1.00  0.00    -0.203 F 
ATOM     69  C   UNL A   1      49.046  26.464  26.267  1.00  0.00     0.198 A 
ATOM     70  C   UNL A   1      48.102  27.179  24.179  1.00  0.00     0.198 A 
ATOM     71  F   UNL A   1      46.050  28.326  24.144  1.00  0.00    -0.203 F 
ATOM     72  F   UNL A   1      50.045  25.891  26.952  1.00  0.00    -0.200 F 
ATOM     73  C   UNL A   1      49.121  26.559  24.885  1.00  0.00     0.200 A 
ATOM     74  F   UNL A   1      48.164  27.256  22.842  1.00  0.00    -0.200 F 
ATOM     75  F   UNL A   1      50.180  26.057  24.234  1.00  0.00    -0.200 F 
ENDBRANCH  51  65
BRANCH  52  76
ATOM     76  C   UNL A   1      38.775  30.800  31.060  1.00  0.00     0.064 A 
ATOM     77  C   UNL A   1      37.707  31.426  30.401  1.00  0.00     0.173 A 
ATOM     78  C   UNL A   1      38.693  30.669  32.454  1.00  0.00     0.173 A 
ATOM     79  F   UNL A   1      37.749  31.601  29.072  1.00  0.00    -0.203 F 
ATOM     80  C   UNL A   1      36.615  31.922  31.111  1.00  0.00     0.198 A 
ATOM     81  C   UNL A   1      37.585  31.136  33.159  1.00  0.00     0.198 A 
ATOM     82  F   UNL A   1      39.689  30.082  33.134  1.00  0.00    -0.203 F 
ATOM     83  F   UNL A   1      35.634  32.566  30.462  1.00  0.00    -0.200 F 
ATOM     84  C   UNL A   1      36.551  31.771  32.488  1.00  0.00     0.200 A 
ATOM     85  F   UNL A   1      37.524  30.975  34.488  1.00  0.00    -0.200 F 
ATOM     86  F   UNL A   1      35.501  32.247  33.169  1.00  0.00    -0.200 F 
ENDBRANCH  52  76
BRANCH  64  87
ATOM     87  C   UNL A   1      44.913  33.737  29.518  1.00  0.00     0.064 A 
ATOM     88  C   UNL A   1      45.707  33.999  30.644  1.00  0.00     0.173 A 
ATOM     89  C   UNL A   1      44.704  34.786  28.608  1.00  0.00     0.173 A 
ATOM     90  F   UNL A   1      45.929  33.036  31.552  1.00  0.00    -0.203 F 
ATOM     91  C   UNL A   1      46.244  35.265  30.865  1.00  0.00     0.198 A 
ATOM     92  C   UNL A   1      45.271  36.041  28.813  1.00  0.00     0.198 A 
ATOM     93  F   UNL A   1      43.961  34.590  27.508  1.00  0.00    -0.203 F 
ATOM     94  F   UNL A   1      46.955  35.504  31.975  1.00  0.00    -0.200 F 
ATOM     95  C   UNL A   1      46.033  36.282  29.946  1.00  0.00     0.200 A 
ATOM     96  F   UNL A   1      45.082  37.016  27.914  1.00  0.00    -0.200 F 
ATOM     97  F   UNL A   1      46.559  37.497  30.156  1.00  0.00    -0.200 F 
ENDBRANCH  64  87
ENDBRANCH  38  39
ENDBRANCH  31  33
ENDBRANCH  30  31
ENDBRANCH  29  30
ENDBRANCH  28  29
ENDBRANCH   1  28
TORSDOF 18
ENDMDL
