MODEL 1
REMARK VINA RESULT:     -11.9      0.000      0.000
REMARK SMILES Cc1ccc(-c2ncccc2C(=O)OCCOCCOC(=O)c2ccc(-c3c4nc(c(-c5c(F)c(F)c(F)c(F)c5F)c5ccc([nH]5)c(-c5c(F)c(F)c(F)c(F)c5F)c5nc(c(-c6c(F)c(F)c(F)c(F)c6F)c6ccc3[nH]6)C=C5)C=C4)cc2)c(C)c1
REMARK SMILES IDX 18 1 17 2 16 3 15 4 14 5 12 6 13 7 11 8 6 9 7 10 8 11 10 12
REMARK SMILES IDX 9 13 5 14 1 15 2 16 3 17 88 18 4 19 86 20 87 21 19 22 20 23
REMARK SMILES IDX 21 24 22 25 23 26 24 27 85 28 25 29 84 30 26 31 27 32 28 33
REMARK SMILES IDX 78 34 29 35 83 36 77 37 79 38 30 39 82 40 76 41 75 42 31 44
REMARK SMILES IDX 63 45 43 46 62 47 44 48 47 49 61 50 80 51 45 52 46 53 60 55
REMARK SMILES IDX 81 56 48 57 32 58 33 59 41 60 34 61 35 62 39 63 42 64 36 65
REMARK SMILES IDX 37 66 40 67 38 68 64 69 65 70 73 71 66 72 67 73 71 74 74 75
REMARK SMILES IDX 68 76 69 77 72 78 70 79 49 80 50 81 58 82 51 83 52 84 56 85
REMARK SMILES IDX 59 86 53 87 54 88 57 89 55 90
REMARK H PARENT 79 43 47 54
REMARK Flexibility Score: inf
ROOT
ATOM      1  C   UNL A   1      31.740  30.272  25.734  1.00  0.00     0.202 C 
ENDROOT
BRANCH   1   2
ATOM      2  O   UNL A   1      32.898  29.852  25.018  1.00  0.00    -0.374 OA
BRANCH   2   3
ATOM      3  C   UNL A   1      33.664  28.783  25.583  1.00  0.00     0.202 C 
BRANCH   3   4
ATOM      4  C   UNL A   1      32.995  27.992  26.709  1.00  0.00     0.261 C 
BRANCH   4   5
ATOM      5  O   UNL A   1      32.868  26.608  26.321  1.00  0.00    -0.460 OA
BRANCH   5   6
ATOM      6  C   UNL A   1      31.601  26.128  26.282  1.00  0.00     0.340 C 
ATOM      7  O   UNL A   1      30.657  26.508  26.956  1.00  0.00    -0.246 OA
BRANCH   6   8
ATOM      8  C   UNL A   1      31.525  25.075  25.254  1.00  0.00     0.086 A 
ATOM      9  C   UNL A   1      30.969  25.317  23.991  1.00  0.00     0.085 A 
ATOM     10  N   UNL A   1      30.867  24.336  23.052  1.00  0.00    -0.255 NA
ATOM     11  C   UNL A   1      31.308  23.102  23.380  1.00  0.00     0.112 A 
ATOM     12  C   UNL A   1      32.007  23.795  25.549  1.00  0.00     0.019 A 
ATOM     13  C   UNL A   1      31.892  22.788  24.596  1.00  0.00     0.021 A 
BRANCH   9  14
ATOM     14  C   UNL A   1      30.559  26.651  23.522  1.00  0.00     0.004 A 
ATOM     15  C   UNL A   1      29.007  30.292  21.764  1.00  0.00     0.044 C 
ATOM     16  C   UNL A   1      29.545  29.054  22.415  1.00  0.00    -0.051 A 
ATOM     17  C   UNL A   1      28.733  28.253  23.216  1.00  0.00     0.004 A 
ATOM     18  C   UNL A   1      30.891  28.701  22.254  1.00  0.00     0.007 A 
ATOM     19  C   UNL A   1      29.239  27.075  23.769  1.00  0.00     0.011 A 
ATOM     20  C   UNL A   1      31.410  27.513  22.803  1.00  0.00    -0.041 A 
ATOM     21  C   UNL A   1      32.879  27.239  22.622  1.00  0.00     0.045 C 
ENDBRANCH   9  14
ENDBRANCH   6   8
ENDBRANCH   5   6
ENDBRANCH   4   5
ENDBRANCH   3   4
ENDBRANCH   2   3
ENDBRANCH   1   2
BRANCH   1  22
ATOM     22  C   UNL A   1      31.839  31.590  26.515  1.00  0.00     0.261 C 
BRANCH  22  23
ATOM     23  O   UNL A   1      32.729  31.520  27.633  1.00  0.00    -0.460 OA
BRANCH  23  24
ATOM     24  C   UNL A   1      33.566  32.582  27.709  1.00  0.00     0.338 C 
ATOM     25  O   UNL A   1      33.273  33.766  27.702  1.00  0.00    -0.246 OA
BRANCH  24  26
ATOM     26  C   UNL A   1      34.941  32.114  27.950  1.00  0.00     0.060 A 
ATOM     27  C   UNL A   1      35.140  30.730  28.009  1.00  0.00     0.016 A 
ATOM     28  C   UNL A   1      35.992  33.001  28.196  1.00  0.00     0.016 A 
ATOM     29  C   UNL A   1      36.374  30.226  28.398  1.00  0.00     0.010 A 
ATOM     30  C   UNL A   1      37.233  32.493  28.589  1.00  0.00     0.010 A 
ATOM     31  C   UNL A   1      37.408  31.106  28.744  1.00  0.00    -0.014 A 
BRANCH  31  32
ATOM     32  C   UNL A   1      38.579  30.562  29.471  1.00  0.00     0.031 A 
ATOM     33  C   UNL A   1      38.776  30.963  30.909  1.00  0.00     0.074 A 
ATOM     34  C   UNL A   1      39.386  29.655  28.896  1.00  0.00     0.049 A 
ATOM     35  N   UNL A   1      39.675  30.559  31.769  1.00  0.00    -0.248 NA
ATOM     36  C   UNL A   1      37.825  31.946  31.452  1.00  0.00     0.031 C 
ATOM     37  C   UNL A   1      39.263  29.163  27.525  1.00  0.00     0.029 A 
ATOM     38  N   UNL A   1      40.461  28.972  29.406  1.00  0.00    -0.354 N 
ATOM     39  C   UNL A   1      39.389  31.228  32.953  1.00  0.00     0.074 A 
ATOM     40  C   UNL A   1      38.267  32.100  32.691  1.00  0.00     0.031 C 
ATOM     41  C   UNL A   1      40.223  28.247  27.304  1.00  0.00     0.029 A 
ATOM     42  C   UNL A   1      41.034  28.103  28.511  1.00  0.00     0.049 A 
ATOM     43  H   UNL A   1      40.789  29.094  30.326  1.00  0.00     0.167 HD
ATOM     44  C   UNL A   1      39.991  31.105  34.159  1.00  0.00     0.037 A 
ATOM     45  C   UNL A   1      42.096  27.289  28.658  1.00  0.00     0.037 A 
ATOM     46  C   UNL A   1      41.111  30.240  34.418  1.00  0.00     0.049 A 
ATOM     47  C   UNL A   1      42.796  27.231  29.993  1.00  0.00     0.074 A 
ATOM     48  C   UNL A   1      41.808  30.055  35.598  1.00  0.00     0.029 A 
ATOM     49  N   UNL A   1      41.696  29.411  33.472  1.00  0.00    -0.354 N 
ATOM     50  N   UNL A   1      42.506  27.852  31.111  1.00  0.00    -0.248 NA
ATOM     51  C   UNL A   1      43.967  26.349  30.085  1.00  0.00     0.031 C 
ATOM     52  C   UNL A   1      42.841  29.143  35.357  1.00  0.00     0.029 A 
ATOM     53  C   UNL A   1      42.756  28.723  34.039  1.00  0.00     0.049 A 
ATOM     54  H   UNL A   1      41.401  29.324  32.536  1.00  0.00     0.167 HD
ATOM     55  C   UNL A   1      43.437  27.411  32.045  1.00  0.00     0.074 A 
ATOM     56  C   UNL A   1      44.286  26.455  31.367  1.00  0.00     0.031 C 
ATOM     57  C   UNL A   1      43.580  27.766  33.346  1.00  0.00     0.037 A 
BRANCH  44  58
ATOM     58  C   UNL A   1      39.455  31.937  35.287  1.00  0.00     0.064 A 
ATOM     59  C   UNL A   1      38.575  31.399  36.240  1.00  0.00     0.173 A 
ATOM     60  C   UNL A   1      39.843  33.276  35.434  1.00  0.00     0.173 A 
ATOM     61  F   UNL A   1      38.159  30.128  36.133  1.00  0.00    -0.203 F 
ATOM     62  C   UNL A   1      38.088  32.178  37.286  1.00  0.00     0.198 A 
ATOM     63  C   UNL A   1      39.375  34.045  36.498  1.00  0.00     0.198 A 
ATOM     64  F   UNL A   1      40.680  33.839  34.551  1.00  0.00    -0.203 F 
ATOM     65  F   UNL A   1      37.215  31.656  38.159  1.00  0.00    -0.200 F 
ATOM     66  C   UNL A   1      38.494  33.497  37.419  1.00  0.00     0.200 A 
ATOM     67  F   UNL A   1      39.775  35.317  36.630  1.00  0.00    -0.200 F 
ATOM     68  F   UNL A   1      38.031  34.243  38.430  1.00  0.00    -0.200 F 
ENDBRANCH  44  58
BRANCH  45  69
ATOM     69  C   UNL A   1      42.567  26.453  27.522  1.00  0.00     0.064 A 
ATOM     70  C   UNL A   1      42.060  25.162  27.312  1.00  0.00     0.173 A 
ATOM     71  C   UNL A   1      43.572  26.907  26.656  1.00  0.00     0.173 A 
ATOM     72  F   UNL A   1      41.115  24.673  28.128  1.00  0.00    -0.203 F 
ATOM     73  C   UNL A   1      42.562  24.348  26.298  1.00  0.00     0.198 A 
ATOM     74  C   UNL A   1      44.052  26.103  25.624  1.00  0.00     0.198 A 
ATOM     75  F   UNL A   1      44.093  28.133  26.814  1.00  0.00    -0.203 F 
ATOM     76  F   UNL A   1      42.103  23.097  26.158  1.00  0.00    -0.200 F 
ATOM     77  C   UNL A   1      43.555  24.819  25.454  1.00  0.00     0.200 A 
ATOM     78  F   UNL A   1      45.004  26.567  24.804  1.00  0.00    -0.200 F 
ATOM     79  F   UNL A   1      44.044  24.033  24.485  1.00  0.00    -0.200 F 
ENDBRANCH  45  69
BRANCH  57  80
ATOM     80  C   UNL A   1      44.670  27.087  34.124  1.00  0.00     0.064 A 
ATOM     81  C   UNL A   1      44.453  25.869  34.784  1.00  0.00     0.173 A 
ATOM     82  C   UNL A   1      45.951  27.654  34.195  1.00  0.00     0.173 A 
ATOM     83  F   UNL A   1      43.241  25.293  34.758  1.00  0.00    -0.203 F 
ATOM     84  C   UNL A   1      45.468  25.263  35.518  1.00  0.00     0.198 A 
ATOM     85  C   UNL A   1      46.973  27.028  34.902  1.00  0.00     0.198 A 
ATOM     86  F   UNL A   1      46.213  28.813  33.573  1.00  0.00    -0.203 F 
ATOM     87  F   UNL A   1      45.221  24.130  36.190  1.00  0.00    -0.200 F 
ATOM     88  C   UNL A   1      46.728  25.839  35.572  1.00  0.00     0.200 A 
ATOM     89  F   UNL A   1      48.194  27.580  34.941  1.00  0.00    -0.200 F 
ATOM     90  F   UNL A   1      47.705  25.254  36.279  1.00  0.00    -0.200 F 
ENDBRANCH  57  80
ENDBRANCH  31  32
ENDBRANCH  24  26
ENDBRANCH  23  24
ENDBRANCH  22  23
ENDBRANCH   1  22
TORSDOF 15
ENDMDL
MODEL 2
REMARK VINA RESULT:     -11.9      0.541      1.700
REMARK SMILES Cc1ccc(-c2ncccc2C(=O)OCCOCCOC(=O)c2ccc(-c3c4nc(c(-c5c(F)c(F)c(F)c(F)c5F)c5ccc([nH]5)c(-c5c(F)c(F)c(F)c(F)c5F)c5nc(c(-c6c(F)c(F)c(F)c(F)c6F)c6ccc3[nH]6)C=C5)C=C4)cc2)c(C)c1
REMARK SMILES IDX 18 1 17 2 16 3 15 4 14 5 12 6 13 7 11 8 6 9 7 10 8 11 10 12
REMARK SMILES IDX 9 13 5 14 1 15 2 16 3 17 88 18 4 19 86 20 87 21 19 22 20 23
REMARK SMILES IDX 21 24 22 25 23 26 24 27 85 28 25 29 84 30 26 31 27 32 28 33
REMARK SMILES IDX 78 34 29 35 83 36 77 37 79 38 30 39 82 40 76 41 75 42 31 44
REMARK SMILES IDX 63 45 43 46 62 47 44 48 47 49 61 50 80 51 45 52 46 53 60 55
REMARK SMILES IDX 81 56 48 57 32 58 33 59 41 60 34 61 35 62 39 63 42 64 36 65
REMARK SMILES IDX 37 66 40 67 38 68 64 69 65 70 73 71 66 72 67 73 71 74 74 75
REMARK SMILES IDX 68 76 69 77 72 78 70 79 49 80 50 81 58 82 51 83 52 84 56 85
REMARK SMILES IDX 59 86 53 87 54 88 57 89 55 90
REMARK H PARENT 79 43 47 54
REMARK Flexibility Score: inf
ROOT
ATOM      1  C   UNL A   1      31.753  30.084  25.708  1.00  0.00     0.202 C 
ENDROOT
BRANCH   1   2
ATOM      2  O   UNL A   1      32.936  29.626  25.060  1.00  0.00    -0.374 OA
BRANCH   2   3
ATOM      3  C   UNL A   1      33.660  28.567  25.694  1.00  0.00     0.202 C 
BRANCH   3   4
ATOM      4  C   UNL A   1      32.823  27.523  26.437  1.00  0.00     0.261 C 
BRANCH   4   5
ATOM      5  O   UNL A   1      33.308  26.201  26.126  1.00  0.00    -0.460 OA
BRANCH   5   6
ATOM      6  C   UNL A   1      32.363  25.230  26.076  1.00  0.00     0.340 C 
ATOM      7  O   UNL A   1      31.459  25.051  26.876  1.00  0.00    -0.246 OA
BRANCH   6   8
ATOM      8  C   UNL A   1      32.576  24.424  24.860  1.00  0.00     0.086 A 
ATOM      9  C   UNL A   1      31.976  24.759  23.640  1.00  0.00     0.085 A 
ATOM     10  N   UNL A   1      32.144  23.996  22.525  1.00  0.00    -0.255 NA
ATOM     11  C   UNL A   1      32.904  22.883  22.631  1.00  0.00     0.112 A 
ATOM     12  C   UNL A   1      33.388  23.287  24.928  1.00  0.00     0.019 A 
ATOM     13  C   UNL A   1      33.551  22.498  23.794  1.00  0.00     0.021 A 
BRANCH   9  14
ATOM     14  C   UNL A   1      31.219  26.002  23.416  1.00  0.00     0.004 A 
ATOM     15  C   UNL A   1      28.673  29.348  22.377  1.00  0.00     0.044 C 
ATOM     16  C   UNL A   1      29.556  28.206  22.781  1.00  0.00    -0.051 A 
ATOM     17  C   UNL A   1      29.054  27.141  23.528  1.00  0.00     0.004 A 
ATOM     18  C   UNL A   1      30.914  28.210  22.441  1.00  0.00     0.007 A 
ATOM     19  C   UNL A   1      29.880  26.061  23.849  1.00  0.00     0.011 A 
ATOM     20  C   UNL A   1      31.754  27.125  22.755  1.00  0.00    -0.041 A 
ATOM     21  C   UNL A   1      33.211  27.237  22.396  1.00  0.00     0.045 C 
ENDBRANCH   9  14
ENDBRANCH   6   8
ENDBRANCH   5   6
ENDBRANCH   4   5
ENDBRANCH   3   4
ENDBRANCH   2   3
ENDBRANCH   1   2
BRANCH   1  22
ATOM     22  C   UNL A   1      31.850  31.395  26.501  1.00  0.00     0.261 C 
BRANCH  22  23
ATOM     23  O   UNL A   1      32.732  31.311  27.624  1.00  0.00    -0.460 OA
BRANCH  23  24
ATOM     24  C   UNL A   1      33.572  32.370  27.716  1.00  0.00     0.338 C 
ATOM     25  O   UNL A   1      33.283  33.555  27.713  1.00  0.00    -0.246 OA
BRANCH  24  26
ATOM     26  C   UNL A   1      34.942  31.896  27.970  1.00  0.00     0.060 A 
ATOM     27  C   UNL A   1      35.123  30.514  28.099  1.00  0.00     0.016 A 
ATOM     28  C   UNL A   1      36.007  32.779  28.161  1.00  0.00     0.016 A 
ATOM     29  C   UNL A   1      36.354  30.014  28.504  1.00  0.00     0.010 A 
ATOM     30  C   UNL A   1      37.245  32.276  28.570  1.00  0.00     0.010 A 
ATOM     31  C   UNL A   1      37.403  30.896  28.795  1.00  0.00    -0.014 A 
BRANCH  31  32
ATOM     32  C   UNL A   1      38.572  30.374  29.540  1.00  0.00     0.031 A 
ATOM     33  C   UNL A   1      38.757  30.804  30.971  1.00  0.00     0.074 A 
ATOM     34  C   UNL A   1      39.389  29.461  28.988  1.00  0.00     0.049 A 
ATOM     35  N   UNL A   1      39.654  30.423  31.845  1.00  0.00    -0.248 NA
ATOM     36  C   UNL A   1      37.797  31.792  31.489  1.00  0.00     0.031 C 
ATOM     37  C   UNL A   1      39.277  28.942  27.626  1.00  0.00     0.029 A 
ATOM     38  N   UNL A   1      40.465  28.795  29.518  1.00  0.00    -0.354 N 
ATOM     39  C   UNL A   1      39.356  31.113  33.014  1.00  0.00     0.074 A 
ATOM     40  C   UNL A   1      38.230  31.972  32.727  1.00  0.00     0.031 C 
ATOM     41  C   UNL A   1      40.244  28.028  27.430  1.00  0.00     0.029 A 
ATOM     42  C   UNL A   1      41.049  27.913  28.644  1.00  0.00     0.049 A 
ATOM     43  H   UNL A   1      40.786  28.937  30.438  1.00  0.00     0.167 HD
ATOM     44  C   UNL A   1      39.951  31.018  34.226  1.00  0.00     0.037 A 
ATOM     45  C   UNL A   1      42.114  27.108  28.814  1.00  0.00     0.037 A 
ATOM     46  C   UNL A   1      41.074  30.165  34.508  1.00  0.00     0.049 A 
ATOM     47  C   UNL A   1      42.807  27.081  30.154  1.00  0.00     0.074 A 
ATOM     48  C   UNL A   1      41.765  30.008  35.697  1.00  0.00     0.029 A 
ATOM     49  N   UNL A   1      41.671  29.321  33.583  1.00  0.00    -0.354 N 
ATOM     50  N   UNL A   1      42.506  27.722  31.258  1.00  0.00    -0.248 NA
ATOM     51  C   UNL A   1      43.983  26.208  30.270  1.00  0.00     0.031 C 
ATOM     52  C   UNL A   1      42.805  29.097  35.479  1.00  0.00     0.029 A 
ATOM     53  C   UNL A   1      42.731  28.651  34.169  1.00  0.00     0.049 A 
ATOM     54  H   UNL A   1      41.382  29.214  32.647  1.00  0.00     0.167 HD
ATOM     55  C   UNL A   1      43.433  27.305  32.206  1.00  0.00     0.074 A 
ATOM     56  C   UNL A   1      44.292  26.342  31.552  1.00  0.00     0.031 C 
ATOM     57  C   UNL A   1      43.566  27.687  33.501  1.00  0.00     0.037 A 
BRANCH  44  58
ATOM     58  C   UNL A   1      39.402  31.868  35.333  1.00  0.00     0.064 A 
ATOM     59  C   UNL A   1      38.503  31.348  36.280  1.00  0.00     0.173 A 
ATOM     60  C   UNL A   1      39.796  33.206  35.469  1.00  0.00     0.173 A 
ATOM     61  F   UNL A   1      38.081  30.078  36.182  1.00  0.00    -0.203 F 
ATOM     62  C   UNL A   1      38.005  32.144  37.307  1.00  0.00     0.198 A 
ATOM     63  C   UNL A   1      39.316  33.992  36.515  1.00  0.00     0.198 A 
ATOM     64  F   UNL A   1      40.651  33.752  34.592  1.00  0.00    -0.203 F 
ATOM     65  F   UNL A   1      37.115  31.639  38.173  1.00  0.00    -0.200 F 
ATOM     66  C   UNL A   1      38.417  33.462  37.429  1.00  0.00     0.200 A 
ATOM     67  F   UNL A   1      39.722  35.263  36.636  1.00  0.00    -0.200 F 
ATOM     68  F   UNL A   1      37.943  34.225  38.423  1.00  0.00    -0.200 F 
ENDBRANCH  44  58
BRANCH  45  69
ATOM     69  C   UNL A   1      42.598  26.253  27.698  1.00  0.00     0.064 A 
ATOM     70  C   UNL A   1      43.594  26.703  26.818  1.00  0.00     0.173 A 
ATOM     71  C   UNL A   1      42.038  24.990  27.456  1.00  0.00     0.173 A 
ATOM     72  F   UNL A   1      44.143  27.914  26.992  1.00  0.00    -0.203 F 
ATOM     73  C   UNL A   1      43.987  25.937  25.723  1.00  0.00     0.198 A 
ATOM     74  C   UNL A   1      42.454  24.212  26.377  1.00  0.00     0.198 A 
ATOM     75  F   UNL A   1      41.082  24.513  28.265  1.00  0.00    -0.203 F 
ATOM     76  F   UNL A   1      44.896  26.418  24.863  1.00  0.00    -0.200 F 
ATOM     77  C   UNL A   1      43.419  24.691  25.504  1.00  0.00     0.200 A 
ATOM     78  F   UNL A   1      41.910  23.004  26.178  1.00  0.00    -0.200 F 
ATOM     79  F   UNL A   1      43.791  23.958  24.446  1.00  0.00    -0.200 F 
ENDBRANCH  45  69
BRANCH  57  80
ATOM     80  C   UNL A   1      44.655  27.029  34.299  1.00  0.00     0.064 A 
ATOM     81  C   UNL A   1      45.938  27.587  34.391  1.00  0.00     0.173 A 
ATOM     82  C   UNL A   1      44.404  25.836  34.994  1.00  0.00     0.173 A 
ATOM     83  F   UNL A   1      46.231  28.720  33.734  1.00  0.00    -0.203 F 
ATOM     84  C   UNL A   1      46.941  26.954  35.118  1.00  0.00     0.198 A 
ATOM     85  C   UNL A   1      45.401  25.224  35.746  1.00  0.00     0.198 A 
ATOM     86  F   UNL A   1      43.190  25.267  34.946  1.00  0.00    -0.203 F 
ATOM     87  F   UNL A   1      48.177  27.473  35.143  1.00  0.00    -0.200 F 
ATOM     88  C   UNL A   1      46.672  25.777  35.799  1.00  0.00     0.200 A 
ATOM     89  F   UNL A   1      45.134  24.093  36.416  1.00  0.00    -0.200 F 
ATOM     90  F   UNL A   1      47.640  25.168  36.499  1.00  0.00    -0.200 F 
ENDBRANCH  57  80
ENDBRANCH  31  32
ENDBRANCH  24  26
ENDBRANCH  23  24
ENDBRANCH  22  23
ENDBRANCH   1  22
TORSDOF 15
ENDMDL
MODEL 3
REMARK VINA RESULT:     -11.7      1.231      1.771
REMARK SMILES Cc1ccc(-c2ncccc2C(=O)OCCOCCOC(=O)c2ccc(-c3c4nc(c(-c5c(F)c(F)c(F)c(F)c5F)c5ccc([nH]5)c(-c5c(F)c(F)c(F)c(F)c5F)c5nc(c(-c6c(F)c(F)c(F)c(F)c6F)c6ccc3[nH]6)C=C5)C=C4)cc2)c(C)c1
REMARK SMILES IDX 18 1 17 2 16 3 15 4 14 5 12 6 13 7 11 8 6 9 7 10 8 11 10 12
REMARK SMILES IDX 9 13 5 14 1 15 2 16 3 17 88 18 4 19 86 20 87 21 19 22 20 23
REMARK SMILES IDX 21 24 22 25 23 26 24 27 85 28 25 29 84 30 26 31 27 32 28 33
REMARK SMILES IDX 78 34 29 35 83 36 77 37 79 38 30 39 82 40 76 41 75 42 31 44
REMARK SMILES IDX 63 45 43 46 62 47 44 48 47 49 61 50 80 51 45 52 46 53 60 55
REMARK SMILES IDX 81 56 48 57 32 58 33 59 41 60 34 61 35 62 39 63 42 64 36 65
REMARK SMILES IDX 37 66 40 67 38 68 64 69 65 70 73 71 66 72 67 73 71 74 74 75
REMARK SMILES IDX 68 76 69 77 72 78 70 79 49 80 50 81 58 82 51 83 52 84 56 85
REMARK SMILES IDX 59 86 53 87 54 88 57 89 55 90
REMARK H PARENT 79 43 47 54
REMARK Flexibility Score: inf
ROOT
ATOM      1  C   UNL A   1      31.413  32.125  26.833  1.00  0.00     0.202 C 
ENDROOT
BRANCH   1   2
ATOM      2  O   UNL A   1      31.757  30.896  26.199  1.00  0.00    -0.374 OA
BRANCH   2   3
ATOM      3  C   UNL A   1      32.918  30.214  26.682  1.00  0.00     0.202 C 
BRANCH   3   4
ATOM      4  C   UNL A   1      32.683  28.844  27.323  1.00  0.00     0.261 C 
BRANCH   4   5
ATOM      5  O   UNL A   1      33.260  27.815  26.494  1.00  0.00    -0.460 OA
BRANCH   5   6
ATOM      6  C   UNL A   1      32.490  26.714  26.312  1.00  0.00     0.340 C 
ATOM      7  O   UNL A   1      31.531  26.376  26.986  1.00  0.00    -0.246 OA
BRANCH   6   8
ATOM      8  C   UNL A   1      32.979  25.985  25.128  1.00  0.00     0.086 A 
ATOM      9  C   UNL A   1      32.364  26.117  23.876  1.00  0.00     0.085 A 
ATOM     10  N   UNL A   1      32.793  25.418  22.789  1.00  0.00    -0.255 NA
ATOM     11  C   UNL A   1      33.832  24.570  22.955  1.00  0.00     0.112 A 
ATOM     12  C   UNL A   1      34.077  25.127  25.258  1.00  0.00     0.019 A 
ATOM     13  C   UNL A   1      34.508  24.402  24.152  1.00  0.00     0.021 A 
BRANCH   9  14
ATOM     14  C   UNL A   1      31.296  27.089  23.590  1.00  0.00     0.004 A 
ATOM     15  C   UNL A   1      28.023  29.609  22.290  1.00  0.00     0.044 C 
ATOM     16  C   UNL A   1      29.145  28.747  22.785  1.00  0.00    -0.051 A 
ATOM     17  C   UNL A   1      28.894  27.493  23.339  1.00  0.00     0.004 A 
ATOM     18  C   UNL A   1      30.466  29.208  22.729  1.00  0.00     0.007 A 
ATOM     19  C   UNL A   1      29.957  26.682  23.745  1.00  0.00     0.011 A 
ATOM     20  C   UNL A   1      31.545  28.398  23.131  1.00  0.00    -0.041 A 
ATOM     21  C   UNL A   1      32.926  28.993  23.083  1.00  0.00     0.045 C 
ENDBRANCH   9  14
ENDBRANCH   6   8
ENDBRANCH   5   6
ENDBRANCH   4   5
ENDBRANCH   3   4
ENDBRANCH   2   3
ENDBRANCH   1   2
BRANCH   1  22
ATOM     22  C   UNL A   1      32.564  33.074  27.194  1.00  0.00     0.261 C 
BRANCH  22  23
ATOM     23  O   UNL A   1      32.345  33.790  28.413  1.00  0.00    -0.460 OA
BRANCH  23  24
ATOM     24  C   UNL A   1      33.413  34.533  28.789  1.00  0.00     0.338 C 
ATOM     25  O   UNL A   1      33.431  35.715  29.091  1.00  0.00    -0.246 OA
BRANCH  24  26
ATOM     26  C   UNL A   1      34.595  33.668  28.929  1.00  0.00     0.060 A 
ATOM     27  C   UNL A   1      34.430  32.477  29.645  1.00  0.00     0.016 A 
ATOM     28  C   UNL A   1      35.851  34.047  28.447  1.00  0.00     0.016 A 
ATOM     29  C   UNL A   1      35.538  31.700  29.956  1.00  0.00     0.010 A 
ATOM     30  C   UNL A   1      36.965  33.265  28.762  1.00  0.00     0.010 A 
ATOM     31  C   UNL A   1      36.816  32.120  29.565  1.00  0.00    -0.014 A 
BRANCH  31  32
ATOM     32  C   UNL A   1      37.991  31.469  30.191  1.00  0.00     0.031 A 
ATOM     33  C   UNL A   1      38.300  31.787  31.630  1.00  0.00     0.074 A 
ATOM     34  C   UNL A   1      38.700  30.542  29.527  1.00  0.00     0.049 A 
ATOM     35  N   UNL A   1      39.222  31.288  32.413  1.00  0.00    -0.248 NA
ATOM     36  C   UNL A   1      37.450  32.802  32.275  1.00  0.00     0.031 C 
ATOM     37  C   UNL A   1      38.462  30.124  28.147  1.00  0.00     0.029 A 
ATOM     38  N   UNL A   1      39.757  29.770  29.937  1.00  0.00    -0.354 N 
ATOM     39  C   UNL A   1      39.052  31.916  33.641  1.00  0.00     0.074 A 
ATOM     40  C   UNL A   1      37.976  32.868  33.489  1.00  0.00     0.031 C 
ATOM     41  C   UNL A   1      39.345  29.162  27.826  1.00  0.00     0.029 A 
ATOM     42  C   UNL A   1      40.217  28.910  28.971  1.00  0.00     0.049 A 
ATOM     43  H   UNL A   1      40.147  29.827  30.839  1.00  0.00     0.167 HD
ATOM     44  C   UNL A   1      39.717  31.699  34.800  1.00  0.00     0.037 A 
ATOM     45  C   UNL A   1      41.230  28.024  29.015  1.00  0.00     0.037 A 
ATOM     46  C   UNL A   1      40.791  30.754  34.948  1.00  0.00     0.049 A 
ATOM     47  C   UNL A   1      42.005  27.860  30.298  1.00  0.00     0.074 A 
ATOM     48  C   UNL A   1      41.545  30.470  36.073  1.00  0.00     0.029 A 
ATOM     49  N   UNL A   1      41.263  29.936  33.932  1.00  0.00    -0.354 N 
ATOM     50  N   UNL A   1      41.824  28.443  31.459  1.00  0.00    -0.248 NA
ATOM     51  C   UNL A   1      43.119  26.902  30.277  1.00  0.00     0.031 C 
ATOM     52  C   UNL A   1      42.499  29.507  35.727  1.00  0.00     0.029 A 
ATOM     53  C   UNL A   1      42.308  29.157  34.400  1.00  0.00     0.049 A 
ATOM     54  H   UNL A   1      40.906  29.912  33.014  1.00  0.00     0.167 HD
ATOM     55  C   UNL A   1      42.779  27.901  32.312  1.00  0.00     0.074 A 
ATOM     56  C   UNL A   1      43.521  26.928  31.540  1.00  0.00     0.031 C 
ATOM     57  C   UNL A   1      43.024  28.184  33.615  1.00  0.00     0.037 A 
BRANCH  44  58
ATOM     58  C   UNL A   1      39.305  32.508  35.994  1.00  0.00     0.064 A 
ATOM     59  C   UNL A   1      38.386  32.013  36.933  1.00  0.00     0.173 A 
ATOM     60  C   UNL A   1      39.854  33.778  36.220  1.00  0.00     0.173 A 
ATOM     61  F   UNL A   1      37.818  30.810  36.752  1.00  0.00    -0.203 F 
ATOM     62  C   UNL A   1      38.016  32.769  38.041  1.00  0.00     0.198 A 
ATOM     63  C   UNL A   1      39.502  34.521  37.346  1.00  0.00     0.198 A 
ATOM     64  F   UNL A   1      40.736  34.298  35.354  1.00  0.00    -0.203 F 
ATOM     65  F   UNL A   1      37.103  32.294  38.901  1.00  0.00    -0.200 F 
ATOM     66  C   UNL A   1      38.579  34.019  38.251  1.00  0.00     0.200 A 
ATOM     67  F   UNL A   1      40.054  35.725  37.551  1.00  0.00    -0.200 F 
ATOM     68  F   UNL A   1      38.228  34.742  39.322  1.00  0.00    -0.200 F 
ENDBRANCH  44  58
BRANCH  45  69
ATOM     69  C   UNL A   1      41.575  27.216  27.816  1.00  0.00     0.064 A 
ATOM     70  C   UNL A   1      41.050  25.928  27.632  1.00  0.00     0.173 A 
ATOM     71  C   UNL A   1      42.480  27.693  26.856  1.00  0.00     0.173 A 
ATOM     72  F   UNL A   1      40.200  25.417  28.535  1.00  0.00    -0.203 F 
ATOM     73  C   UNL A   1      41.439  25.139  26.553  1.00  0.00     0.198 A 
ATOM     74  C   UNL A   1      42.846  26.913  25.760  1.00  0.00     0.198 A 
ATOM     75  F   UNL A   1      43.014  28.916  26.984  1.00  0.00    -0.203 F 
ATOM     76  F   UNL A   1      40.969  23.889  26.435  1.00  0.00    -0.200 F 
ATOM     77  C   UNL A   1      42.335  25.632  25.616  1.00  0.00     0.200 A 
ATOM     78  F   UNL A   1      43.703  27.399  24.852  1.00  0.00    -0.200 F 
ATOM     79  F   UNL A   1      42.716  24.870  24.582  1.00  0.00    -0.200 F 
ENDBRANCH  45  69
BRANCH  57  80
ATOM     80  C   UNL A   1      44.112  27.402  34.292  1.00  0.00     0.064 A 
ATOM     81  C   UNL A   1      45.430  27.875  34.352  1.00  0.00     0.173 A 
ATOM     82  C   UNL A   1      43.826  26.171  34.903  1.00  0.00     0.173 A 
ATOM     83  F   UNL A   1      45.757  29.040  33.771  1.00  0.00    -0.203 F 
ATOM     84  C   UNL A   1      46.431  27.127  34.965  1.00  0.00     0.198 A 
ATOM     85  C   UNL A   1      44.823  25.442  35.543  1.00  0.00     0.198 A 
ATOM     86  F   UNL A   1      42.579  25.678  34.882  1.00  0.00    -0.203 F 
ATOM     87  F   UNL A   1      47.696  27.571  34.958  1.00  0.00    -0.200 F 
ATOM     88  C   UNL A   1      46.126  25.915  35.565  1.00  0.00     0.200 A 
ATOM     89  F   UNL A   1      44.523  24.276  36.135  1.00  0.00    -0.200 F 
ATOM     90  F   UNL A   1      47.092  25.196  36.155  1.00  0.00    -0.200 F 
ENDBRANCH  57  80
ENDBRANCH  31  32
ENDBRANCH  24  26
ENDBRANCH  23  24
ENDBRANCH  22  23
ENDBRANCH   1  22
TORSDOF 15
ENDMDL
