MODEL 1
REMARK VINA RESULT:     -11.9      0.000      0.000
REMARK SMILES O=C(Cc1ccn[nH]1)Nc1sc2c(c1C(=O)OCCOCCOC(=O)c1ccc(-c3c4nc(c(-c5c(F)c(F)c(F)c(F)c5F)c5ccc([nH]5)c(-c5c(F)c(F)c(F)c(F)c5F)c5nc(c(-c6c(F)c(F)c(F)c(F)c6F)c6ccc3[nH]6)C=C5)C=C4)cc1)CCC2
REMARK SMILES IDX 19 1 18 2 17 3 15 4 16 5 14 6 10 7 11 8 12 9 13 10 91 11
REMARK SMILES IDX 89 12 90 13 9 14 1 15 2 16 3 18 4 19 5 20 8 21 6 22 7 23
REMARK SMILES IDX 20 25 21 26 22 27 23 28 24 29 25 30 26 31 27 32 88 33 28 34
REMARK SMILES IDX 87 35 29 36 30 37 31 38 81 39 32 40 86 41 80 42 82 43 33 44
REMARK SMILES IDX 85 45 79 46 78 47 34 49 66 50 46 51 65 52 47 53 50 54 64 55
REMARK SMILES IDX 83 56 48 57 49 58 63 60 84 61 51 62 35 63 36 64 44 65 37 66
REMARK SMILES IDX 38 67 42 68 45 69 39 70 40 71 43 72 41 73 67 74 68 75 76 76
REMARK SMILES IDX 69 77 70 78 74 79 77 80 71 81 72 82 75 83 73 84 52 85 53 86
REMARK SMILES IDX 61 87 54 88 55 89 59 90 62 91 56 92 57 93 60 94 58 95
REMARK H PARENT 9 17 8 24 82 48 50 59
REMARK Flexibility Score: inf
ROOT
ATOM      1  C   UNL A   1      39.229  22.243  26.450  1.00  0.00     0.202 C 
ENDROOT
BRANCH   1   2
ATOM      2  C   UNL A   1      37.997  22.431  25.563  1.00  0.00     0.261 C 
BRANCH   2   3
ATOM      3  O   UNL A   1      36.882  21.600  25.952  1.00  0.00    -0.460 OA
BRANCH   3   4
ATOM      4  C   UNL A   1      36.629  20.555  25.111  1.00  0.00     0.341 C 
ATOM      5  O   UNL A   1      37.504  19.819  24.656  1.00  0.00    -0.246 OA
BRANCH   4   6
ATOM      6  C   UNL A   1      35.219  20.343  24.814  1.00  0.00     0.098 A 
ATOM      7  C   UNL A   1      34.296  21.387  24.804  1.00  0.00     0.110 A 
ATOM      8  S   UNL A   1      32.667  20.882  24.826  1.00  0.00    -0.122 S 
ATOM      9  C   UNL A   1      33.161  19.304  24.575  1.00  0.00     0.011 A 
ATOM     10  C   UNL A   1      34.521  19.126  24.575  1.00  0.00    -0.017 A 
ATOM     11  C   UNL A   1      32.379  18.058  24.419  1.00  0.00     0.047 C 
ATOM     12  C   UNL A   1      34.861  17.687  24.425  1.00  0.00     0.038 C 
ATOM     13  C   UNL A   1      33.495  17.058  23.996  1.00  0.00     0.010 C 
BRANCH   7  14
ATOM     14  N   UNL A   1      34.485  22.753  24.757  1.00  0.00    -0.317 N 
ATOM     15  O   UNL A   1      34.175  22.974  27.033  1.00  0.00    -0.274 OA
ATOM     16  C   UNL A   1      34.240  23.473  25.909  1.00  0.00     0.230 C 
ATOM     17  H   UNL A   1      34.785  23.197  23.932  1.00  0.00     0.170 HD
BRANCH  16  18
ATOM     18  C   UNL A   1      34.162  24.975  25.736  1.00  0.00     0.155 C 
BRANCH  18  19
ATOM     19  C   UNL A   1      32.776  25.454  25.971  1.00  0.00     0.044 A 
ATOM     20  C   UNL A   1      32.225  26.712  25.883  1.00  0.00     0.045 A 
ATOM     21  N   UNL A   1      31.743  24.615  26.307  1.00  0.00    -0.282 N 
ATOM     22  C   UNL A   1      30.875  26.535  26.231  1.00  0.00     0.135 A 
ATOM     23  N   UNL A   1      30.583  25.262  26.503  1.00  0.00    -0.184 NA
ATOM     24  H   UNL A   1      31.842  23.639  26.395  1.00  0.00     0.190 HD
ENDBRANCH  18  19
ENDBRANCH  16  18
ENDBRANCH   7  14
ENDBRANCH   4   6
ENDBRANCH   3   4
ENDBRANCH   2   3
ENDBRANCH   1   2
BRANCH   1  25
ATOM     25  O   UNL A   1      40.180  21.237  26.100  1.00  0.00    -0.374 OA
BRANCH  25  26
ATOM     26  C   UNL A   1      41.151  20.815  27.054  1.00  0.00     0.202 C 
BRANCH  26  27
ATOM     27  C   UNL A   1      42.268  19.888  26.596  1.00  0.00     0.261 C 
BRANCH  27  28
ATOM     28  O   UNL A   1      42.728  20.244  25.309  1.00  0.00    -0.460 OA
BRANCH  28  29
ATOM     29  C   UNL A   1      44.066  20.227  25.190  1.00  0.00     0.338 C 
ATOM     30  O   UNL A   1      44.821  19.262  25.312  1.00  0.00    -0.246 OA
BRANCH  29  31
ATOM     31  C   UNL A   1      44.513  21.609  25.033  1.00  0.00     0.060 A 
ATOM     32  C   UNL A   1      45.563  21.975  25.871  1.00  0.00     0.016 A 
ATOM     33  C   UNL A   1      43.648  22.546  24.440  1.00  0.00     0.016 A 
ATOM     34  C   UNL A   1      45.533  23.240  26.396  1.00  0.00     0.010 A 
ATOM     35  C   UNL A   1      43.603  23.801  24.984  1.00  0.00     0.010 A 
ATOM     36  C   UNL A   1      44.475  24.078  26.033  1.00  0.00    -0.014 A 
BRANCH  36  37
ATOM     37  C   UNL A   1      44.279  25.256  26.837  1.00  0.00     0.031 A 
ATOM     38  C   UNL A   1      45.347  26.255  26.689  1.00  0.00     0.074 A 
ATOM     39  C   UNL A   1      43.182  25.415  27.595  1.00  0.00     0.049 A 
ATOM     40  N   UNL A   1      46.205  26.635  27.573  1.00  0.00    -0.248 NA
ATOM     41  C   UNL A   1      45.575  26.782  25.338  1.00  0.00     0.031 C 
ATOM     42  C   UNL A   1      41.940  24.637  27.570  1.00  0.00     0.029 A 
ATOM     43  N   UNL A   1      42.920  26.399  28.491  1.00  0.00    -0.354 N 
ATOM     44  C   UNL A   1      46.989  27.584  26.929  1.00  0.00     0.074 A 
ATOM     45  C   UNL A   1      46.682  27.496  25.526  1.00  0.00     0.031 C 
ATOM     46  C   UNL A   1      40.988  25.311  28.255  1.00  0.00     0.029 A 
ATOM     47  C   UNL A   1      41.590  26.490  28.856  1.00  0.00     0.049 A 
ATOM     48  H   UNL A   1      43.616  26.996  28.851  1.00  0.00     0.167 HD
ATOM     49  C   UNL A   1      47.642  28.546  27.628  1.00  0.00     0.037 A 
ATOM     50  C   UNL A   1      41.024  27.525  29.521  1.00  0.00     0.037 A 
ATOM     51  C   UNL A   1      47.780  28.191  29.017  1.00  0.00     0.049 A 
ATOM     52  C   UNL A   1      42.111  28.306  30.163  1.00  0.00     0.074 A 
ATOM     53  C   UNL A   1      48.424  27.180  29.702  1.00  0.00     0.029 A 
ATOM     54  N   UNL A   1      46.903  28.753  29.910  1.00  0.00    -0.354 N 
ATOM     55  N   UNL A   1      42.825  27.881  31.169  1.00  0.00    -0.248 NA
ATOM     56  C   UNL A   1      42.695  29.415  29.419  1.00  0.00     0.031 C 
ATOM     57  C   UNL A   1      47.612  26.915  30.844  1.00  0.00     0.029 A 
ATOM     58  C   UNL A   1      46.522  27.785  30.800  1.00  0.00     0.049 A 
ATOM     59  H   UNL A   1      46.601  29.690  29.911  1.00  0.00     0.167 HD
ATOM     60  C   UNL A   1      44.102  28.377  30.938  1.00  0.00     0.074 A 
ATOM     61  C   UNL A   1      43.932  29.408  29.923  1.00  0.00     0.031 C 
ATOM     62  C   UNL A   1      45.203  27.706  31.388  1.00  0.00     0.037 A 
BRANCH  49  63
ATOM     63  C   UNL A   1      47.819  29.955  27.128  1.00  0.00     0.064 A 
ATOM     64  C   UNL A   1      49.095  30.545  27.197  1.00  0.00     0.173 A 
ATOM     65  C   UNL A   1      46.751  30.842  26.863  1.00  0.00     0.173 A 
ATOM     66  F   UNL A   1      50.177  29.799  27.462  1.00  0.00    -0.203 F 
ATOM     67  C   UNL A   1      49.273  31.924  27.084  1.00  0.00     0.198 A 
ATOM     68  C   UNL A   1      46.941  32.210  26.689  1.00  0.00     0.198 A 
ATOM     69  F   UNL A   1      45.471  30.451  26.872  1.00  0.00    -0.203 F 
ATOM     70  F   UNL A   1      50.487  32.454  27.287  1.00  0.00    -0.200 F 
ATOM     71  C   UNL A   1      48.197  32.757  26.836  1.00  0.00     0.200 A 
ATOM     72  F   UNL A   1      45.881  32.998  26.463  1.00  0.00    -0.200 F 
ATOM     73  F   UNL A   1      48.358  34.084  26.790  1.00  0.00    -0.200 F 
ENDBRANCH  49  63
BRANCH  50  74
ATOM     74  C   UNL A   1      39.645  28.032  29.369  1.00  0.00     0.064 A 
ATOM     75  C   UNL A   1      38.780  28.137  30.467  1.00  0.00     0.173 A 
ATOM     76  C   UNL A   1      39.223  28.646  28.173  1.00  0.00     0.173 A 
ATOM     77  F   UNL A   1      39.135  27.627  31.655  1.00  0.00    -0.203 F 
ATOM     78  C   UNL A   1      37.562  28.818  30.373  1.00  0.00     0.198 A 
ATOM     79  C   UNL A   1      38.004  29.314  28.076  1.00  0.00     0.198 A 
ATOM     80  F   UNL A   1      40.025  28.687  27.100  1.00  0.00    -0.203 F 
ATOM     81  F   UNL A   1      36.781  28.943  31.455  1.00  0.00    -0.200 F 
ATOM     82  C   UNL A   1      37.177  29.408  29.179  1.00  0.00     0.200 A 
ATOM     83  F   UNL A   1      37.663  29.913  26.927  1.00  0.00    -0.200 F 
ATOM     84  F   UNL A   1      36.032  30.101  29.103  1.00  0.00    -0.200 F 
ENDBRANCH  50  74
BRANCH  62  85
ATOM     85  C   UNL A   1      44.970  26.612  32.388  1.00  0.00     0.064 A 
ATOM     86  C   UNL A   1      44.895  26.834  33.774  1.00  0.00     0.173 A 
ATOM     87  C   UNL A   1      44.698  25.320  31.922  1.00  0.00     0.173 A 
ATOM     88  F   UNL A   1      45.039  28.065  34.279  1.00  0.00    -0.203 F 
ATOM     89  C   UNL A   1      44.615  25.794  34.656  1.00  0.00     0.198 A 
ATOM     90  C   UNL A   1      44.382  24.289  32.803  1.00  0.00     0.198 A 
ATOM     91  F   UNL A   1      44.695  25.067  30.604  1.00  0.00    -0.203 F 
ATOM     92  F   UNL A   1      44.568  26.026  35.976  1.00  0.00    -0.200 F 
ATOM     93  C   UNL A   1      44.353  24.523  34.169  1.00  0.00     0.200 A 
ATOM     94  F   UNL A   1      44.080  23.074  32.326  1.00  0.00    -0.200 F 
ATOM     95  F   UNL A   1      44.048  23.529  35.016  1.00  0.00    -0.200 F 
ENDBRANCH  62  85
ENDBRANCH  36  37
ENDBRANCH  29  31
ENDBRANCH  28  29
ENDBRANCH  27  28
ENDBRANCH  26  27
ENDBRANCH  25  26
ENDBRANCH   1  25
TORSDOF 17
ENDMDL
MODEL 2
REMARK VINA RESULT:     -11.8      1.421      3.115
REMARK SMILES O=C(Cc1ccn[nH]1)Nc1sc2c(c1C(=O)OCCOCCOC(=O)c1ccc(-c3c4nc(c(-c5c(F)c(F)c(F)c(F)c5F)c5ccc([nH]5)c(-c5c(F)c(F)c(F)c(F)c5F)c5nc(c(-c6c(F)c(F)c(F)c(F)c6F)c6ccc3[nH]6)C=C5)C=C4)cc1)CCC2
REMARK SMILES IDX 19 1 18 2 17 3 15 4 16 5 14 6 10 7 11 8 12 9 13 10 91 11
REMARK SMILES IDX 89 12 90 13 9 14 1 15 2 16 3 18 4 19 5 20 8 21 6 22 7 23
REMARK SMILES IDX 20 25 21 26 22 27 23 28 24 29 25 30 26 31 27 32 88 33 28 34
REMARK SMILES IDX 87 35 29 36 30 37 31 38 81 39 32 40 86 41 80 42 82 43 33 44
REMARK SMILES IDX 85 45 79 46 78 47 34 49 66 50 46 51 65 52 47 53 50 54 64 55
REMARK SMILES IDX 83 56 48 57 49 58 63 60 84 61 51 62 35 63 36 64 44 65 37 66
REMARK SMILES IDX 38 67 42 68 45 69 39 70 40 71 43 72 41 73 67 74 68 75 76 76
REMARK SMILES IDX 69 77 70 78 74 79 77 80 71 81 72 82 75 83 73 84 52 85 53 86
REMARK SMILES IDX 61 87 54 88 55 89 59 90 62 91 56 92 57 93 60 94 58 95
REMARK H PARENT 9 17 8 24 82 48 50 59
REMARK Flexibility Score: inf
ROOT
ATOM      1  C   UNL A   1      39.260  21.926  26.159  1.00  0.00     0.202 C 
ENDROOT
BRANCH   1   2
ATOM      2  C   UNL A   1      37.971  22.175  25.373  1.00  0.00     0.261 C 
BRANCH   2   3
ATOM      3  O   UNL A   1      36.777  21.985  26.161  1.00  0.00    -0.460 OA
BRANCH   3   4
ATOM      4  C   UNL A   1      35.769  21.324  25.520  1.00  0.00     0.341 C 
ATOM      5  O   UNL A   1      35.928  20.269  24.906  1.00  0.00    -0.246 OA
BRANCH   4   6
ATOM      6  C   UNL A   1      34.458  21.947  25.647  1.00  0.00     0.098 A 
ATOM      7  C   UNL A   1      33.283  21.200  25.711  1.00  0.00     0.110 A 
ATOM      8  S   UNL A   1      31.862  22.109  25.462  1.00  0.00    -0.122 S 
ATOM      9  C   UNL A   1      32.758  23.519  25.540  1.00  0.00     0.011 A 
ATOM     10  C   UNL A   1      34.112  23.328  25.647  1.00  0.00    -0.017 A 
ATOM     11  C   UNL A   1      32.344  24.936  25.446  1.00  0.00     0.047 C 
ATOM     12  C   UNL A   1      34.829  24.629  25.630  1.00  0.00     0.038 C 
ATOM     13  C   UNL A   1      33.669  25.658  25.834  1.00  0.00     0.010 C 
BRANCH   7  14
ATOM     14  N   UNL A   1      33.084  19.859  25.963  1.00  0.00    -0.317 N 
ATOM     15  O   UNL A   1      32.869  19.367  23.720  1.00  0.00    -0.274 OA
ATOM     16  C   UNL A   1      32.722  19.054  24.902  1.00  0.00     0.230 C 
ATOM     17  H   UNL A   1      33.196  19.489  26.869  1.00  0.00     0.170 HD
BRANCH  16  18
ATOM     18  C   UNL A   1      32.221  17.674  25.269  1.00  0.00     0.155 C 
BRANCH  18  19
ATOM     19  C   UNL A   1      33.340  16.698  25.271  1.00  0.00     0.044 A 
ATOM     20  C   UNL A   1      34.701  16.879  25.167  1.00  0.00     0.045 A 
ATOM     21  N   UNL A   1      33.152  15.347  25.431  1.00  0.00    -0.282 N 
ATOM     22  C   UNL A   1      35.238  15.581  25.224  1.00  0.00     0.135 A 
ATOM     23  N   UNL A   1      34.297  14.648  25.370  1.00  0.00    -0.184 NA
ATOM     24  H   UNL A   1      32.270  14.935  25.575  1.00  0.00     0.190 HD
ENDBRANCH  18  19
ENDBRANCH  16  18
ENDBRANCH   7  14
ENDBRANCH   4   6
ENDBRANCH   3   4
ENDBRANCH   2   3
ENDBRANCH   1   2
BRANCH   1  25
ATOM     25  O   UNL A   1      39.784  20.599  26.216  1.00  0.00    -0.374 OA
BRANCH  25  26
ATOM     26  C   UNL A   1      40.885  20.306  27.070  1.00  0.00     0.202 C 
BRANCH  26  27
ATOM     27  C   UNL A   1      42.116  19.637  26.472  1.00  0.00     0.261 C 
BRANCH  27  28
ATOM     28  O   UNL A   1      42.593  20.358  25.356  1.00  0.00    -0.460 OA
BRANCH  28  29
ATOM     29  C   UNL A   1      43.926  20.295  25.202  1.00  0.00     0.338 C 
ATOM     30  O   UNL A   1      44.647  19.299  25.282  1.00  0.00    -0.246 OA
BRANCH  29  31
ATOM     31  C   UNL A   1      44.421  21.663  25.069  1.00  0.00     0.060 A 
ATOM     32  C   UNL A   1      45.440  21.998  25.956  1.00  0.00     0.016 A 
ATOM     33  C   UNL A   1      43.613  22.625  24.436  1.00  0.00     0.016 A 
ATOM     34  C   UNL A   1      45.423  23.263  26.480  1.00  0.00     0.010 A 
ATOM     35  C   UNL A   1      43.580  23.881  24.979  1.00  0.00     0.010 A 
ATOM     36  C   UNL A   1      44.409  24.132  26.068  1.00  0.00    -0.014 A 
BRANCH  36  37
ATOM     37  C   UNL A   1      44.210  25.316  26.863  1.00  0.00     0.031 A 
ATOM     38  C   UNL A   1      45.278  26.314  26.712  1.00  0.00     0.074 A 
ATOM     39  C   UNL A   1      43.110  25.480  27.615  1.00  0.00     0.049 A 
ATOM     40  N   UNL A   1      46.133  26.701  27.597  1.00  0.00    -0.248 NA
ATOM     41  C   UNL A   1      45.511  26.832  25.358  1.00  0.00     0.031 C 
ATOM     42  C   UNL A   1      41.868  24.702  27.591  1.00  0.00     0.029 A 
ATOM     43  N   UNL A   1      42.845  26.471  28.504  1.00  0.00    -0.354 N 
ATOM     44  C   UNL A   1      46.919  27.645  26.949  1.00  0.00     0.074 A 
ATOM     45  C   UNL A   1      46.618  27.547  25.546  1.00  0.00     0.031 C 
ATOM     46  C   UNL A   1      40.914  25.381  28.269  1.00  0.00     0.029 A 
ATOM     47  C   UNL A   1      41.513  26.564  28.863  1.00  0.00     0.049 A 
ATOM     48  H   UNL A   1      43.539  27.070  28.862  1.00  0.00     0.167 HD
ATOM     49  C   UNL A   1      47.570  28.612  27.644  1.00  0.00     0.037 A 
ATOM     50  C   UNL A   1      40.945  27.604  29.519  1.00  0.00     0.037 A 
ATOM     51  C   UNL A   1      47.702  28.266  29.035  1.00  0.00     0.049 A 
ATOM     52  C   UNL A   1      42.029  28.390  30.160  1.00  0.00     0.074 A 
ATOM     53  C   UNL A   1      48.344  27.260  29.730  1.00  0.00     0.029 A 
ATOM     54  N   UNL A   1      46.822  28.835  29.921  1.00  0.00    -0.354 N 
ATOM     55  N   UNL A   1      42.740  27.972  31.171  1.00  0.00    -0.248 NA
ATOM     56  C   UNL A   1      42.616  29.493  29.410  1.00  0.00     0.031 C 
ATOM     57  C   UNL A   1      47.528  27.004  30.870  1.00  0.00     0.029 A 
ATOM     58  C   UNL A   1      46.437  27.873  30.817  1.00  0.00     0.049 A 
ATOM     59  H   UNL A   1      46.520  29.772  29.914  1.00  0.00     0.167 HD
ATOM     60  C   UNL A   1      44.017  28.466  30.942  1.00  0.00     0.074 A 
ATOM     61  C   UNL A   1      43.851  29.489  29.918  1.00  0.00     0.031 C 
ATOM     62  C   UNL A   1      45.117  27.798  31.400  1.00  0.00     0.037 A 
BRANCH  49  63
ATOM     63  C   UNL A   1      47.749  30.018  27.135  1.00  0.00     0.064 A 
ATOM     64  C   UNL A   1      49.032  30.594  27.168  1.00  0.00     0.173 A 
ATOM     65  C   UNL A   1      46.683  30.915  26.894  1.00  0.00     0.173 A 
ATOM     66  F   UNL A   1      50.113  29.837  27.408  1.00  0.00    -0.203 F 
ATOM     67  C   UNL A   1      49.222  31.971  27.047  1.00  0.00     0.198 A 
ATOM     68  C   UNL A   1      46.883  32.280  26.710  1.00  0.00     0.198 A 
ATOM     69  F   UNL A   1      45.400  30.537  26.937  1.00  0.00    -0.203 F 
ATOM     70  F   UNL A   1      50.446  32.488  27.216  1.00  0.00    -0.200 F 
ATOM     71  C   UNL A   1      48.149  32.814  26.823  1.00  0.00     0.200 A 
ATOM     72  F   UNL A   1      45.826  33.079  26.510  1.00  0.00    -0.200 F 
ATOM     73  F   UNL A   1      48.322  34.140  26.768  1.00  0.00    -0.200 F 
ENDBRANCH  49  63
BRANCH  50  74
ATOM     74  C   UNL A   1      39.566  28.109  29.358  1.00  0.00     0.064 A 
ATOM     75  C   UNL A   1      38.687  28.192  30.446  1.00  0.00     0.173 A 
ATOM     76  C   UNL A   1      39.158  28.744  28.168  1.00  0.00     0.173 A 
ATOM     77  F   UNL A   1      39.028  27.662  31.630  1.00  0.00    -0.203 F 
ATOM     78  C   UNL A   1      37.468  28.872  30.349  1.00  0.00     0.198 A 
ATOM     79  C   UNL A   1      37.938  29.410  28.067  1.00  0.00     0.198 A 
ATOM     80  F   UNL A   1      39.974  28.806  27.106  1.00  0.00    -0.203 F 
ATOM     81  F   UNL A   1      36.673  28.976  31.423  1.00  0.00    -0.200 F 
ATOM     82  C   UNL A   1      37.096  29.482  29.161  1.00  0.00     0.200 A 
ATOM     83  F   UNL A   1      37.610  30.028  26.924  1.00  0.00    -0.200 F 
ATOM     84  F   UNL A   1      35.951  30.173  29.082  1.00  0.00    -0.200 F 
ENDBRANCH  50  74
BRANCH  62  85
ATOM     85  C   UNL A   1      44.880  26.711  32.407  1.00  0.00     0.064 A 
ATOM     86  C   UNL A   1      44.773  26.947  33.789  1.00  0.00     0.173 A 
ATOM     87  C   UNL A   1      44.637  25.411  31.950  1.00  0.00     0.173 A 
ATOM     88  F   UNL A   1      44.888  28.185  34.284  1.00  0.00    -0.203 F 
ATOM     89  C   UNL A   1      44.491  25.911  34.676  1.00  0.00     0.198 A 
ATOM     90  C   UNL A   1      44.318  24.384  32.835  1.00  0.00     0.198 A 
ATOM     91  F   UNL A   1      44.665  25.144  30.635  1.00  0.00    -0.203 F 
ATOM     92  F   UNL A   1      44.413  26.157  35.992  1.00  0.00    -0.200 F 
ATOM     93  C   UNL A   1      44.259  24.632  34.198  1.00  0.00     0.200 A 
ATOM     94  F   UNL A   1      44.044  23.160  32.365  1.00  0.00    -0.200 F 
ATOM     95  F   UNL A   1      43.951  23.642  35.049  1.00  0.00    -0.200 F 
ENDBRANCH  62  85
ENDBRANCH  36  37
ENDBRANCH  29  31
ENDBRANCH  28  29
ENDBRANCH  27  28
ENDBRANCH  26  27
ENDBRANCH  25  26
ENDBRANCH   1  25
TORSDOF 17
ENDMDL
MODEL 3
REMARK VINA RESULT:     -11.4      5.201     10.119
REMARK SMILES O=C(Cc1ccn[nH]1)Nc1sc2c(c1C(=O)OCCOCCOC(=O)c1ccc(-c3c4nc(c(-c5c(F)c(F)c(F)c(F)c5F)c5ccc([nH]5)c(-c5c(F)c(F)c(F)c(F)c5F)c5nc(c(-c6c(F)c(F)c(F)c(F)c6F)c6ccc3[nH]6)C=C5)C=C4)cc1)CCC2
REMARK SMILES IDX 19 1 18 2 17 3 15 4 16 5 14 6 10 7 11 8 12 9 13 10 91 11
REMARK SMILES IDX 89 12 90 13 9 14 1 15 2 16 3 18 4 19 5 20 8 21 6 22 7 23
REMARK SMILES IDX 20 25 21 26 22 27 23 28 24 29 25 30 26 31 27 32 88 33 28 34
REMARK SMILES IDX 87 35 29 36 30 37 31 38 81 39 32 40 86 41 80 42 82 43 33 44
REMARK SMILES IDX 85 45 79 46 78 47 34 49 66 50 46 51 65 52 47 53 50 54 64 55
REMARK SMILES IDX 83 56 48 57 49 58 63 60 84 61 51 62 35 63 36 64 44 65 37 66
REMARK SMILES IDX 38 67 42 68 45 69 39 70 40 71 43 72 41 73 67 74 68 75 76 76
REMARK SMILES IDX 69 77 70 78 74 79 77 80 71 81 72 82 75 83 73 84 52 85 53 86
REMARK SMILES IDX 61 87 54 88 55 89 59 90 62 91 56 92 57 93 60 94 58 95
REMARK H PARENT 9 17 8 24 82 48 50 59
REMARK Flexibility Score: inf
ROOT
ATOM      1  C   UNL A   1      34.182  30.908  27.645  1.00  0.00     0.202 C 
ENDROOT
BRANCH   1   2
ATOM      2  C   UNL A   1      33.152  30.509  26.585  1.00  0.00     0.261 C 
BRANCH   2   3
ATOM      3  O   UNL A   1      33.572  29.390  25.776  1.00  0.00    -0.460 OA
BRANCH   3   4
ATOM      4  C   UNL A   1      32.602  28.455  25.550  1.00  0.00     0.341 C 
ATOM      5  O   UNL A   1      31.529  28.426  26.153  1.00  0.00    -0.246 OA
BRANCH   4   6
ATOM      6  C   UNL A   1      32.916  27.498  24.497  1.00  0.00     0.098 A 
ATOM      7  C   UNL A   1      32.433  27.637  23.198  1.00  0.00     0.110 A 
ATOM      8  S   UNL A   1      32.584  26.234  22.241  1.00  0.00    -0.122 S 
ATOM      9  C   UNL A   1      33.523  25.531  23.433  1.00  0.00     0.011 A 
ATOM     10  C   UNL A   1      33.646  26.278  24.576  1.00  0.00    -0.017 A 
ATOM     11  C   UNL A   1      34.188  24.210  23.488  1.00  0.00     0.047 C 
ATOM     12  C   UNL A   1      34.428  25.542  25.603  1.00  0.00     0.038 C 
ATOM     13  C   UNL A   1      35.046  24.365  24.779  1.00  0.00     0.010 C 
BRANCH   7  14
ATOM     14  N   UNL A   1      31.878  28.726  22.558  1.00  0.00    -0.317 N 
ATOM     15  O   UNL A   1      29.749  28.175  23.257  1.00  0.00    -0.274 OA
ATOM     16  C   UNL A   1      30.501  28.809  22.515  1.00  0.00     0.230 C 
ATOM     17  H   UNL A   1      32.444  29.418  22.147  1.00  0.00     0.170 HD
BRANCH  16  18
ATOM     18  C   UNL A   1      29.938  29.836  21.556  1.00  0.00     0.155 C 
BRANCH  18  19
ATOM     19  C   UNL A   1      29.098  30.822  22.283  1.00  0.00     0.044 A 
ATOM     20  C   UNL A   1      28.037  30.650  23.143  1.00  0.00     0.045 A 
ATOM     21  N   UNL A   1      29.313  32.177  22.220  1.00  0.00    -0.282 N 
ATOM     22  C   UNL A   1      27.653  31.953  23.501  1.00  0.00     0.135 A 
ATOM     23  N   UNL A   1      28.419  32.884  22.930  1.00  0.00    -0.184 NA
ATOM     24  H   UNL A   1      30.047  32.586  21.707  1.00  0.00     0.190 HD
ENDBRANCH  18  19
ENDBRANCH  16  18
ENDBRANCH   7  14
ENDBRANCH   4   6
ENDBRANCH   3   4
ENDBRANCH   2   3
ENDBRANCH   1   2
BRANCH   1  25
ATOM     25  O   UNL A   1      34.608  32.269  27.711  1.00  0.00    -0.374 OA
BRANCH  25  26
ATOM     26  C   UNL A   1      33.664  33.295  28.002  1.00  0.00     0.202 C 
BRANCH  26  27
ATOM     27  C   UNL A   1      34.034  34.358  29.027  1.00  0.00     0.261 C 
BRANCH  27  28
ATOM     28  O   UNL A   1      33.278  34.207  30.210  1.00  0.00    -0.460 OA
BRANCH  28  29
ATOM     29  C   UNL A   1      33.637  35.050  31.191  1.00  0.00     0.338 C 
ATOM     30  O   UNL A   1      33.368  36.248  31.292  1.00  0.00    -0.246 OA
BRANCH  29  31
ATOM     31  C   UNL A   1      34.553  34.334  32.076  1.00  0.00     0.060 A 
ATOM     32  C   UNL A   1      35.707  35.040  32.407  1.00  0.00     0.016 A 
ATOM     33  C   UNL A   1      34.463  32.934  32.167  1.00  0.00     0.016 A 
ATOM     34  C   UNL A   1      36.874  34.328  32.490  1.00  0.00     0.010 A 
ATOM     35  C   UNL A   1      35.633  32.225  32.223  1.00  0.00     0.010 A 
ATOM     36  C   UNL A   1      36.821  32.949  32.268  1.00  0.00    -0.014 A 
BRANCH  36  37
ATOM     37  C   UNL A   1      38.075  32.284  32.029  1.00  0.00     0.031 A 
ATOM     38  C   UNL A   1      38.939  32.211  33.216  1.00  0.00     0.074 A 
ATOM     39  C   UNL A   1      38.369  31.745  30.836  1.00  0.00     0.049 A 
ATOM     40  N   UNL A   1      40.073  32.793  33.410  1.00  0.00    -0.248 NA
ATOM     41  C   UNL A   1      38.389  31.521  34.391  1.00  0.00     0.031 C 
ATOM     42  C   UNL A   1      37.469  31.495  29.706  1.00  0.00     0.029 A 
ATOM     43  N   UNL A   1      39.546  31.205  30.428  1.00  0.00    -0.354 N 
ATOM     44  C   UNL A   1      40.465  32.404  34.684  1.00  0.00     0.074 A 
ATOM     45  C   UNL A   1      39.322  31.787  35.302  1.00  0.00     0.031 C 
ATOM     46  C   UNL A   1      38.084  30.664  28.833  1.00  0.00     0.029 A 
ATOM     47  C   UNL A   1      39.445  30.430  29.288  1.00  0.00     0.049 A 
ATOM     48  H   UNL A   1      40.396  31.353  30.902  1.00  0.00     0.167 HD
ATOM     49  C   UNL A   1      41.774  32.388  35.041  1.00  0.00     0.037 A 
ATOM     50  C   UNL A   1      40.395  29.584  28.824  1.00  0.00     0.037 A 
ATOM     51  C   UNL A   1      42.573  33.202  34.163  1.00  0.00     0.049 A 
ATOM     52  C   UNL A   1      41.685  29.947  29.464  1.00  0.00     0.074 A 
ATOM     53  C   UNL A   1      42.617  34.548  33.857  1.00  0.00     0.029 A 
ATOM     54  N   UNL A   1      43.287  32.567  33.178  1.00  0.00    -0.354 N 
ATOM     55  N   UNL A   1      42.349  31.040  29.208  1.00  0.00    -0.248 NA
ATOM     56  C   UNL A   1      42.044  29.287  30.712  1.00  0.00     0.031 C 
ATOM     57  C   UNL A   1      43.002  34.615  32.486  1.00  0.00     0.029 A 
ATOM     58  C   UNL A   1      43.182  33.309  32.031  1.00  0.00     0.049 A 
ATOM     59  H   UNL A   1      43.788  31.726  33.279  1.00  0.00     0.167 HD
ATOM     60  C   UNL A   1      42.900  31.420  30.425  1.00  0.00     0.074 A 
ATOM     61  C   UNL A   1      42.783  30.245  31.278  1.00  0.00     0.031 C 
ATOM     62  C   UNL A   1      43.136  32.736  30.705  1.00  0.00     0.037 A 
BRANCH  49  63
ATOM     63  C   UNL A   1      42.370  31.347  35.951  1.00  0.00     0.064 A 
ATOM     64  C   UNL A   1      43.120  31.767  37.065  1.00  0.00     0.173 A 
ATOM     65  C   UNL A   1      42.486  29.977  35.620  1.00  0.00     0.173 A 
ATOM     66  F   UNL A   1      43.099  33.050  37.456  1.00  0.00    -0.203 F 
ATOM     67  C   UNL A   1      43.977  30.899  37.743  1.00  0.00     0.198 A 
ATOM     68  C   UNL A   1      43.293  29.101  36.338  1.00  0.00     0.198 A 
ATOM     69  F   UNL A   1      41.918  29.450  34.528  1.00  0.00    -0.203 F 
ATOM     70  F   UNL A   1      44.769  31.374  38.713  1.00  0.00    -0.200 F 
ATOM     71  C   UNL A   1      44.067  29.569  37.377  1.00  0.00     0.200 A 
ATOM     72  F   UNL A   1      43.376  27.819  35.956  1.00  0.00    -0.200 F 
ATOM     73  F   UNL A   1      44.933  28.751  37.987  1.00  0.00    -0.200 F 
ENDBRANCH  49  63
BRANCH  50  74
ATOM     74  C   UNL A   1      40.178  28.310  28.108  1.00  0.00     0.064 A 
ATOM     75  C   UNL A   1      40.803  28.046  26.882  1.00  0.00     0.173 A 
ATOM     76  C   UNL A   1      39.531  27.225  28.733  1.00  0.00     0.173 A 
ATOM     77  F   UNL A   1      41.486  29.012  26.252  1.00  0.00    -0.203 F 
ATOM     78  C   UNL A   1      40.781  26.768  26.312  1.00  0.00     0.198 A 
ATOM     79  C   UNL A   1      39.499  25.955  28.160  1.00  0.00     0.198 A 
ATOM     80  F   UNL A   1      38.994  27.355  29.954  1.00  0.00    -0.203 F 
ATOM     81  F   UNL A   1      41.431  26.537  25.164  1.00  0.00    -0.200 F 
ATOM     82  C   UNL A   1      40.132  25.724  26.954  1.00  0.00     0.200 A 
ATOM     83  F   UNL A   1      38.901  24.947  28.810  1.00  0.00    -0.200 F 
ATOM     84  F   UNL A   1      40.152  24.490  26.432  1.00  0.00    -0.200 F 
ENDBRANCH  50  74
BRANCH  62  85
ATOM     85  C   UNL A   1      43.076  33.696  29.553  1.00  0.00     0.064 A 
ATOM     86  C   UNL A   1      41.911  34.391  29.185  1.00  0.00     0.173 A 
ATOM     87  C   UNL A   1      44.260  34.010  28.875  1.00  0.00     0.173 A 
ATOM     88  F   UNL A   1      40.768  34.219  29.860  1.00  0.00    -0.203 F 
ATOM     89  C   UNL A   1      41.923  35.318  28.146  1.00  0.00     0.198 A 
ATOM     90  C   UNL A   1      44.278  34.965  27.861  1.00  0.00     0.198 A 
ATOM     91  F   UNL A   1      45.413  33.421  29.228  1.00  0.00    -0.203 F 
ATOM     92  F   UNL A   1      40.795  35.955  27.800  1.00  0.00    -0.200 F 
ATOM     93  C   UNL A   1      43.108  35.608  27.489  1.00  0.00     0.200 A 
ATOM     94  F   UNL A   1      45.434  35.279  27.262  1.00  0.00    -0.200 F 
ATOM     95  F   UNL A   1      43.127  36.528  26.513  1.00  0.00    -0.200 F 
ENDBRANCH  62  85
ENDBRANCH  36  37
ENDBRANCH  29  31
ENDBRANCH  28  29
ENDBRANCH  27  28
ENDBRANCH  26  27
ENDBRANCH  25  26
ENDBRANCH   1  25
TORSDOF 17
ENDMDL
