MODEL 1
REMARK VINA RESULT:     -10.8      0.000      0.000
REMARK SMILES COC(=O)[C@@H]([NH2+]CC(C)(C)C(=O)OCCOCCOC(=O)c1ccc(-c2c3nc(c(-c4c(F)c(F)c(F)c(F)c4F)c4ccc([nH]4)c(-c4c(F)c(F)c(F)c(F)c4F)c4nc(c(-c5c(F)c(F)c(F)c(F)c5F)c5ccc2[nH]5)C=C4)C=C3)cc1)c1ccccc1
REMARK SMILES IDX 14 1 13 2 11 3 12 4 8 5 9 6 10 7 7 8 6 9 5 12 3 13 4 14 2 15
REMARK SMILES IDX 1 16 85 17 86 18 90 19 87 20 89 21 88 22 15 23 16 24 17 25
REMARK SMILES IDX 18 26 19 27 20 28 21 29 22 30 23 31 84 32 24 33 83 34 25 35
REMARK SMILES IDX 26 36 27 37 77 38 28 39 82 40 76 41 78 42 29 43 81 44 75 45
REMARK SMILES IDX 74 46 30 48 62 49 42 50 61 51 43 52 46 53 60 54 79 55 44 56
REMARK SMILES IDX 45 57 59 59 80 60 47 61 31 62 32 63 40 64 33 65 34 66 38 67
REMARK SMILES IDX 41 68 35 69 36 70 39 71 37 72 63 73 64 74 72 75 65 76 66 77
REMARK SMILES IDX 70 78 73 79 67 80 68 81 71 82 69 83 48 84 49 85 57 86 50 87
REMARK SMILES IDX 51 88 55 89 58 90 52 91 53 92 56 93 54 94
REMARK H PARENT 6 10 6 11 78 47 46 58
REMARK Flexibility Score: inf
ROOT
ATOM      1  C   UNL A   1      33.824  32.296  27.902  1.00  0.00     0.261 C 
ENDROOT
BRANCH   1   2
ATOM      2  O   UNL A   1      33.159  31.247  27.187  1.00  0.00    -0.463 OA
BRANCH   2   3
ATOM      3  C   UNL A   1      33.898  30.127  26.974  1.00  0.00     0.317 C 
ATOM      4  O   UNL A   1      35.087  30.030  27.257  1.00  0.00    -0.251 OA
BRANCH   3   5
ATOM      5  C   UNL A   1      33.099  28.978  26.356  1.00  0.00     0.111 C 
ATOM      6  C   UNL A   1      31.691  29.076  26.966  1.00  0.00     0.029 C 
ATOM      7  C   UNL A   1      33.672  27.593  26.741  1.00  0.00     0.029 C 
BRANCH   5   8
ATOM      8  C   UNL A   1      33.069  29.051  24.796  1.00  0.00     0.279 C 
BRANCH   8   9
ATOM      9  N   UNL A   1      32.048  29.825  24.075  1.00  0.00    -0.330 N 
ATOM     10  H   UNL A   1      31.406  30.219  24.763  1.00  0.00     0.347 HD
ATOM     11  H   UNL A   1      32.555  30.530  23.539  1.00  0.00     0.347 HD
BRANCH   9  12
ATOM     12  C   UNL A   1      31.244  29.049  23.084  1.00  0.00     0.324 C 
BRANCH  12  13
ATOM     13  C   UNL A   1      29.889  29.767  22.878  1.00  0.00     0.369 C 
ATOM     14  O   UNL A   1      29.402  30.513  23.725  1.00  0.00    -0.245 OA
BRANCH  13  15
ATOM     15  O   UNL A   1      29.285  29.469  21.694  1.00  0.00    -0.464 OA
ATOM     16  C   UNL A   1      28.123  30.253  21.420  1.00  0.00     0.282 C 
ENDBRANCH  13  15
ENDBRANCH  12  13
BRANCH  12  17
ATOM     17  C   UNL A   1      31.130  27.536  23.280  1.00  0.00     0.021 A 
ATOM     18  C   UNL A   1      30.152  27.069  24.184  1.00  0.00     0.010 A 
ATOM     19  C   UNL A   1      31.855  26.583  22.550  1.00  0.00     0.010 A 
ATOM     20  C   UNL A   1      29.858  25.711  24.302  1.00  0.00     0.001 A 
ATOM     21  C   UNL A   1      31.545  25.220  22.655  1.00  0.00     0.001 A 
ATOM     22  C   UNL A   1      30.539  24.787  23.519  1.00  0.00     0.000 A 
ENDBRANCH  12  17
ENDBRANCH   9  12
ENDBRANCH   8   9
ENDBRANCH   5   8
ENDBRANCH   3   5
ENDBRANCH   2   3
ENDBRANCH   1   2
BRANCH   1  23
ATOM     23  C   UNL A   1      32.969  33.561  28.026  1.00  0.00     0.202 C 
BRANCH  23  24
ATOM     24  O   UNL A   1      33.124  34.381  29.175  1.00  0.00    -0.374 OA
BRANCH  24  25
ATOM     25  C   UNL A   1      34.340  34.299  29.916  1.00  0.00     0.202 C 
BRANCH  25  26
ATOM     26  C   UNL A   1      34.301  33.905  31.395  1.00  0.00     0.261 C 
BRANCH  26  27
ATOM     27  O   UNL A   1      34.552  32.508  31.601  1.00  0.00    -0.460 OA
BRANCH  27  28
ATOM     28  C   UNL A   1      35.556  32.247  32.475  1.00  0.00     0.338 C 
ATOM     29  O   UNL A   1      35.576  32.445  33.674  1.00  0.00    -0.246 OA
BRANCH  28  30
ATOM     30  C   UNL A   1      36.586  31.453  31.785  1.00  0.00     0.060 A 
ATOM     31  C   UNL A   1      37.599  30.890  32.571  1.00  0.00     0.016 A 
ATOM     32  C   UNL A   1      36.585  31.309  30.399  1.00  0.00     0.016 A 
ATOM     33  C   UNL A   1      38.649  30.211  31.966  1.00  0.00     0.010 A 
ATOM     34  C   UNL A   1      37.649  30.643  29.790  1.00  0.00     0.010 A 
ATOM     35  C   UNL A   1      38.700  30.128  30.571  1.00  0.00    -0.014 A 
BRANCH  35  36
ATOM     36  C   UNL A   1      39.951  29.675  29.927  1.00  0.00     0.031 A 
ATOM     37  C   UNL A   1      41.079  30.656  29.795  1.00  0.00     0.074 A 
ATOM     38  C   UNL A   1      40.083  28.406  29.508  1.00  0.00     0.049 A 
ATOM     39  N   UNL A   1      42.247  30.509  29.227  1.00  0.00    -0.248 NA
ATOM     40  C   UNL A   1      40.857  31.988  30.384  1.00  0.00     0.031 C 
ATOM     41  C   UNL A   1      39.067  27.364  29.639  1.00  0.00     0.029 A 
ATOM     42  N   UNL A   1      41.130  27.784  28.879  1.00  0.00    -0.354 N 
ATOM     43  C   UNL A   1      42.893  31.729  29.378  1.00  0.00     0.074 A 
ATOM     44  C   UNL A   1      41.979  32.615  30.064  1.00  0.00     0.031 C 
ATOM     45  C   UNL A   1      39.536  26.229  29.092  1.00  0.00     0.029 A 
ATOM     46  C   UNL A   1      40.866  26.480  28.541  1.00  0.00     0.049 A 
ATOM     47  H   UNL A   1      41.986  28.228  28.689  1.00  0.00     0.167 HD
ATOM     48  C   UNL A   1      44.142  32.071  28.986  1.00  0.00     0.037 A 
ATOM     49  C   UNL A   1      41.610  25.604  27.839  1.00  0.00     0.037 A 
ATOM     50  C   UNL A   1      45.039  31.175  28.305  1.00  0.00     0.049 A 
ATOM     51  C   UNL A   1      42.968  26.035  27.345  1.00  0.00     0.074 A 
ATOM     52  C   UNL A   1      46.331  31.411  27.874  1.00  0.00     0.029 A 
ATOM     53  N   UNL A   1      44.727  29.870  27.949  1.00  0.00    -0.354 N 
ATOM     54  N   UNL A   1      43.584  27.182  27.507  1.00  0.00    -0.248 NA
ATOM     55  C   UNL A   1      43.734  25.048  26.575  1.00  0.00     0.031 C 
ATOM     56  C   UNL A   1      46.780  30.269  27.202  1.00  0.00     0.029 A 
ATOM     57  C   UNL A   1      45.793  29.297  27.276  1.00  0.00     0.049 A 
ATOM     58  H   UNL A   1      43.876  29.418  28.147  1.00  0.00     0.167 HD
ATOM     59  C   UNL A   1      44.820  27.045  26.888  1.00  0.00     0.074 A 
ATOM     60  C   UNL A   1      44.870  25.696  26.360  1.00  0.00     0.031 C 
ATOM     61  C   UNL A   1      45.823  27.948  26.767  1.00  0.00     0.037 A 
BRANCH  48  62
ATOM     62  C   UNL A   1      44.593  33.478  29.248  1.00  0.00     0.064 A 
ATOM     63  C   UNL A   1      44.352  34.518  28.338  1.00  0.00     0.173 A 
ATOM     64  C   UNL A   1      45.254  33.796  30.445  1.00  0.00     0.173 A 
ATOM     65  F   UNL A   1      43.740  34.265  27.171  1.00  0.00    -0.203 F 
ATOM     66  C   UNL A   1      44.778  35.818  28.603  1.00  0.00     0.198 A 
ATOM     67  C   UNL A   1      45.649  35.103  30.722  1.00  0.00     0.198 A 
ATOM     68  F   UNL A   1      45.511  32.841  31.351  1.00  0.00    -0.203 F 
ATOM     69  F   UNL A   1      44.581  36.784  27.696  1.00  0.00    -0.200 F 
ATOM     70  C   UNL A   1      45.417  36.110  29.799  1.00  0.00     0.200 A 
ATOM     71  F   UNL A   1      46.256  35.386  31.883  1.00  0.00    -0.200 F 
ATOM     72  F   UNL A   1      45.818  37.363  30.057  1.00  0.00    -0.200 F 
ENDBRANCH  48  62
BRANCH  49  73
ATOM     73  C   UNL A   1      41.082  24.245  27.547  1.00  0.00     0.064 A 
ATOM     74  C   UNL A   1      41.667  23.103  28.112  1.00  0.00     0.173 A 
ATOM     75  C   UNL A   1      39.993  24.059  26.683  1.00  0.00     0.173 A 
ATOM     76  F   UNL A   1      42.725  23.226  28.927  1.00  0.00    -0.203 F 
ATOM     77  C   UNL A   1      41.197  21.828  27.806  1.00  0.00     0.198 A 
ATOM     78  C   UNL A   1      39.503  22.785  26.403  1.00  0.00     0.198 A 
ATOM     79  F   UNL A   1      39.396  25.118  26.116  1.00  0.00    -0.203 F 
ATOM     80  F   UNL A   1      41.809  20.751  28.318  1.00  0.00    -0.200 F 
ATOM     81  C   UNL A   1      40.112  21.670  26.956  1.00  0.00     0.200 A 
ATOM     82  F   UNL A   1      38.445  22.640  25.594  1.00  0.00    -0.200 F 
ATOM     83  F   UNL A   1      39.660  20.443  26.665  1.00  0.00    -0.200 F 
ENDBRANCH  49  73
BRANCH  61  84
ATOM     84  C   UNL A   1      47.079  27.497  26.077  1.00  0.00     0.064 A 
ATOM     85  C   UNL A   1      47.267  27.667  24.698  1.00  0.00     0.173 A 
ATOM     86  C   UNL A   1      48.127  26.928  26.818  1.00  0.00     0.173 A 
ATOM     87  F   UNL A   1      46.292  28.195  23.942  1.00  0.00    -0.203 F 
ATOM     88  C   UNL A   1      48.447  27.257  24.081  1.00  0.00     0.198 A 
ATOM     89  C   UNL A   1      49.319  26.553  26.204  1.00  0.00     0.198 A 
ATOM     90  F   UNL A   1      48.002  26.753  28.142  1.00  0.00    -0.203 F 
ATOM     91  F   UNL A   1      48.584  27.380  22.754  1.00  0.00    -0.200 F 
ATOM     92  C   UNL A   1      49.474  26.710  24.835  1.00  0.00     0.200 A 
ATOM     93  F   UNL A   1      50.316  26.043  26.938  1.00  0.00    -0.200 F 
ATOM     94  F   UNL A   1      50.612  26.325  24.242  1.00  0.00    -0.200 F 
ENDBRANCH  61  84
ENDBRANCH  35  36
ENDBRANCH  28  30
ENDBRANCH  27  28
ENDBRANCH  26  27
ENDBRANCH  25  26
ENDBRANCH  24  25
ENDBRANCH  23  24
ENDBRANCH   1  23
TORSDOF 20
ENDMDL
MODEL 2
REMARK VINA RESULT:     -10.7      5.088      7.556
REMARK SMILES COC(=O)[C@@H]([NH2+]CC(C)(C)C(=O)OCCOCCOC(=O)c1ccc(-c2c3nc(c(-c4c(F)c(F)c(F)c(F)c4F)c4ccc([nH]4)c(-c4c(F)c(F)c(F)c(F)c4F)c4nc(c(-c5c(F)c(F)c(F)c(F)c5F)c5ccc2[nH]5)C=C4)C=C3)cc1)c1ccccc1
REMARK SMILES IDX 14 1 13 2 11 3 12 4 8 5 9 6 10 7 7 8 6 9 5 12 3 13 4 14 2 15
REMARK SMILES IDX 1 16 85 17 86 18 90 19 87 20 89 21 88 22 15 23 16 24 17 25
REMARK SMILES IDX 18 26 19 27 20 28 21 29 22 30 23 31 84 32 24 33 83 34 25 35
REMARK SMILES IDX 26 36 27 37 77 38 28 39 82 40 76 41 78 42 29 43 81 44 75 45
REMARK SMILES IDX 74 46 30 48 62 49 42 50 61 51 43 52 46 53 60 54 79 55 44 56
REMARK SMILES IDX 45 57 59 59 80 60 47 61 31 62 32 63 40 64 33 65 34 66 38 67
REMARK SMILES IDX 41 68 35 69 36 70 39 71 37 72 63 73 64 74 72 75 65 76 66 77
REMARK SMILES IDX 70 78 73 79 67 80 68 81 71 82 69 83 48 84 49 85 57 86 50 87
REMARK SMILES IDX 51 88 55 89 58 90 52 91 53 92 56 93 54 94
REMARK H PARENT 6 10 6 11 78 47 46 58
REMARK Flexibility Score: inf
ROOT
ATOM      1  C   UNL A   1      34.466  31.300  28.341  1.00  0.00     0.261 C 
ENDROOT
BRANCH   1   2
ATOM      2  O   UNL A   1      34.359  30.543  27.130  1.00  0.00    -0.463 OA
BRANCH   2   3
ATOM      3  C   UNL A   1      33.091  30.255  26.733  1.00  0.00     0.317 C 
ATOM      4  O   UNL A   1      32.174  31.069  26.737  1.00  0.00    -0.251 OA
BRANCH   3   5
ATOM      5  C   UNL A   1      32.913  28.811  26.261  1.00  0.00     0.111 C 
ATOM      6  C   UNL A   1      31.741  28.248  27.082  1.00  0.00     0.029 C 
ATOM      7  C   UNL A   1      34.152  27.937  26.569  1.00  0.00     0.029 C 
BRANCH   5   8
ATOM      8  C   UNL A   1      32.650  28.719  24.724  1.00  0.00     0.279 C 
BRANCH   8   9
ATOM      9  N   UNL A   1      31.810  29.700  24.021  1.00  0.00    -0.330 N 
ATOM     10  H   UNL A   1      31.810  30.563  24.564  1.00  0.00     0.347 HD
ATOM     11  H   UNL A   1      32.216  29.804  23.090  1.00  0.00     0.347 HD
BRANCH   9  12
ATOM     12  C   UNL A   1      30.390  29.287  23.810  1.00  0.00     0.324 C 
BRANCH  12  13
ATOM     13  C   UNL A   1      30.375  27.854  23.228  1.00  0.00     0.369 C 
ATOM     14  O   UNL A   1      30.698  27.609  22.068  1.00  0.00    -0.245 OA
BRANCH  13  15
ATOM     15  O   UNL A   1      29.943  26.910  24.109  1.00  0.00    -0.464 OA
ATOM     16  C   UNL A   1      28.583  26.513  23.918  1.00  0.00     0.282 C 
ENDBRANCH  13  15
ENDBRANCH  12  13
BRANCH  12  17
ATOM     17  C   UNL A   1      29.457  30.267  23.094  1.00  0.00     0.021 A 
ATOM     18  C   UNL A   1      29.153  31.475  23.756  1.00  0.00     0.010 A 
ATOM     19  C   UNL A   1      28.973  30.094  21.790  1.00  0.00     0.010 A 
ATOM     20  C   UNL A   1      28.455  32.500  23.117  1.00  0.00     0.001 A 
ATOM     21  C   UNL A   1      28.289  31.132  21.142  1.00  0.00     0.001 A 
ATOM     22  C   UNL A   1      28.043  32.337  21.799  1.00  0.00     0.000 A 
ENDBRANCH  12  17
ENDBRANCH   9  12
ENDBRANCH   8   9
ENDBRANCH   5   8
ENDBRANCH   3   5
ENDBRANCH   2   3
ENDBRANCH   1   2
BRANCH   1  23
ATOM     23  C   UNL A   1      35.217  32.622  28.147  1.00  0.00     0.202 C 
BRANCH  23  24
ATOM     24  O   UNL A   1      34.809  33.756  28.897  1.00  0.00    -0.374 OA
BRANCH  24  25
ATOM     25  C   UNL A   1      34.061  34.779  28.241  1.00  0.00     0.202 C 
BRANCH  25  26
ATOM     26  C   UNL A   1      33.052  35.610  29.039  1.00  0.00     0.261 C 
BRANCH  26  27
ATOM     27  O   UNL A   1      32.575  34.929  30.206  1.00  0.00    -0.460 OA
BRANCH  27  28
ATOM     28  C   UNL A   1      32.811  35.587  31.369  1.00  0.00     0.338 C 
ATOM     29  O   UNL A   1      32.138  36.457  31.886  1.00  0.00    -0.246 OA
BRANCH  28  30
ATOM     30  C   UNL A   1      33.924  34.925  32.068  1.00  0.00     0.060 A 
ATOM     31  C   UNL A   1      35.175  35.553  32.029  1.00  0.00     0.016 A 
ATOM     32  C   UNL A   1      33.755  33.694  32.700  1.00  0.00     0.016 A 
ATOM     33  C   UNL A   1      36.282  34.929  32.589  1.00  0.00     0.010 A 
ATOM     34  C   UNL A   1      34.870  33.058  33.246  1.00  0.00     0.010 A 
ATOM     35  C   UNL A   1      36.140  33.659  33.157  1.00  0.00    -0.014 A 
BRANCH  35  36
ATOM     36  C   UNL A   1      37.354  32.880  33.478  1.00  0.00     0.031 A 
ATOM     37  C   UNL A   1      38.058  33.160  34.774  1.00  0.00     0.074 A 
ATOM     38  C   UNL A   1      37.790  31.919  32.646  1.00  0.00     0.049 A 
ATOM     39  N   UNL A   1      39.161  32.646  35.250  1.00  0.00    -0.248 NA
ATOM     40  C   UNL A   1      37.430  34.162  35.654  1.00  0.00     0.031 C 
ATOM     41  C   UNL A   1      37.147  31.535  31.392  1.00  0.00     0.029 A 
ATOM     42  N   UNL A   1      38.884  31.099  32.734  1.00  0.00    -0.354 N 
ATOM     43  C   UNL A   1      39.366  33.268  36.474  1.00  0.00     0.074 A 
ATOM     44  C   UNL A   1      38.293  34.219  36.657  1.00  0.00     0.031 C 
ATOM     45  C   UNL A   1      37.869  30.558  30.816  1.00  0.00     0.029 A 
ATOM     46  C   UNL A   1      39.041  30.280  31.644  1.00  0.00     0.049 A 
ATOM     47  H   UNL A   1      39.497  31.097  33.504  1.00  0.00     0.167 HD
ATOM     48  C   UNL A   1      40.360  33.054  37.367  1.00  0.00     0.037 A 
ATOM     49  C   UNL A   1      40.038  29.427  31.343  1.00  0.00     0.037 A 
ATOM     50  C   UNL A   1      41.421  32.102  37.170  1.00  0.00     0.049 A 
ATOM     51  C   UNL A   1      41.175  29.264  32.320  1.00  0.00     0.074 A 
ATOM     52  C   UNL A   1      42.471  31.792  38.014  1.00  0.00     0.029 A 
ATOM     53  N   UNL A   1      41.568  31.311  36.038  1.00  0.00    -0.354 N 
ATOM     54  N   UNL A   1      41.356  29.838  33.486  1.00  0.00    -0.248 NA
ATOM     55  C   UNL A   1      42.243  28.331  31.941  1.00  0.00     0.031 C 
ATOM     56  C   UNL A   1      43.288  30.859  37.367  1.00  0.00     0.029 A 
ATOM     57  C   UNL A   1      42.709  30.535  36.149  1.00  0.00     0.049 A 
ATOM     58  H   UNL A   1      40.951  31.302  35.271  1.00  0.00     0.167 HD
ATOM     59  C   UNL A   1      42.539  29.313  33.992  1.00  0.00     0.074 A 
ATOM     60  C   UNL A   1      43.024  28.364  33.011  1.00  0.00     0.031 C 
ATOM     61  C   UNL A   1      43.167  29.589  35.162  1.00  0.00     0.037 A 
BRANCH  48  62
ATOM     62  C   UNL A   1      40.366  33.888  38.615  1.00  0.00     0.064 A 
ATOM     63  C   UNL A   1      39.668  33.504  39.770  1.00  0.00     0.173 A 
ATOM     64  C   UNL A   1      41.109  35.078  38.665  1.00  0.00     0.173 A 
ATOM     65  F   UNL A   1      38.928  32.385  39.770  1.00  0.00    -0.203 F 
ATOM     66  C   UNL A   1      39.689  34.293  40.918  1.00  0.00     0.198 A 
ATOM     67  C   UNL A   1      41.156  35.847  39.825  1.00  0.00     0.198 A 
ATOM     68  F   UNL A   1      41.796  35.493  37.590  1.00  0.00    -0.203 F 
ATOM     69  F   UNL A   1      38.974  33.932  41.991  1.00  0.00    -0.200 F 
ATOM     70  C   UNL A   1      40.441  35.458  40.947  1.00  0.00     0.200 A 
ATOM     71  F   UNL A   1      41.892  36.967  39.856  1.00  0.00    -0.200 F 
ATOM     72  F   UNL A   1      40.470  36.211  42.055  1.00  0.00    -0.200 F 
ENDBRANCH  48  62
BRANCH  49  73
ATOM     73  C   UNL A   1      40.016  28.679  30.059  1.00  0.00     0.064 A 
ATOM     74  C   UNL A   1      39.419  27.414  29.965  1.00  0.00     0.173 A 
ATOM     75  C   UNL A   1      40.608  29.206  28.901  1.00  0.00     0.173 A 
ATOM     76  F   UNL A   1      38.859  26.857  31.050  1.00  0.00    -0.203 F 
ATOM     77  C   UNL A   1      39.434  26.697  28.771  1.00  0.00     0.198 A 
ATOM     78  C   UNL A   1      40.594  28.502  27.699  1.00  0.00     0.198 A 
ATOM     79  F   UNL A   1      41.193  30.412  28.934  1.00  0.00    -0.203 F 
ATOM     80  F   UNL A   1      38.903  25.467  28.725  1.00  0.00    -0.200 F 
ATOM     81  C   UNL A   1      40.017  27.243  27.637  1.00  0.00     0.200 A 
ATOM     82  F   UNL A   1      41.144  29.041  26.603  1.00  0.00    -0.200 F 
ATOM     83  F   UNL A   1      40.029  26.553  26.489  1.00  0.00    -0.200 F 
ENDBRANCH  49  73
BRANCH  61  84
ATOM     84  C   UNL A   1      44.423  28.824  35.468  1.00  0.00     0.064 A 
ATOM     85  C   UNL A   1      44.394  27.591  36.138  1.00  0.00     0.173 A 
ATOM     86  C   UNL A   1      45.669  29.311  35.043  1.00  0.00     0.173 A 
ATOM     87  F   UNL A   1      43.230  27.088  36.576  1.00  0.00    -0.203 F 
ATOM     88  C   UNL A   1      45.569  26.890  36.396  1.00  0.00     0.198 A 
ATOM     89  C   UNL A   1      46.837  28.590  35.271  1.00  0.00     0.198 A 
ATOM     90  F   UNL A   1      45.751  30.479  34.389  1.00  0.00    -0.203 F 
ATOM     91  F   UNL A   1      45.523  25.741  37.085  1.00  0.00    -0.200 F 
ATOM     92  C   UNL A   1      46.787  27.385  35.955  1.00  0.00     0.200 A 
ATOM     93  F   UNL A   1      48.010  29.060  34.826  1.00  0.00    -0.200 F 
ATOM     94  F   UNL A   1      47.916  26.704  36.195  1.00  0.00    -0.200 F 
ENDBRANCH  61  84
ENDBRANCH  35  36
ENDBRANCH  28  30
ENDBRANCH  27  28
ENDBRANCH  26  27
ENDBRANCH  25  26
ENDBRANCH  24  25
ENDBRANCH  23  24
ENDBRANCH   1  23
TORSDOF 20
ENDMDL
MODEL 3
REMARK VINA RESULT:     -10.6      5.188      7.698
REMARK SMILES COC(=O)[C@@H]([NH2+]CC(C)(C)C(=O)OCCOCCOC(=O)c1ccc(-c2c3nc(c(-c4c(F)c(F)c(F)c(F)c4F)c4ccc([nH]4)c(-c4c(F)c(F)c(F)c(F)c4F)c4nc(c(-c5c(F)c(F)c(F)c(F)c5F)c5ccc2[nH]5)C=C4)C=C3)cc1)c1ccccc1
REMARK SMILES IDX 14 1 13 2 11 3 12 4 8 5 9 6 10 7 7 8 6 9 5 12 3 13 4 14 2 15
REMARK SMILES IDX 1 16 85 17 86 18 90 19 87 20 89 21 88 22 15 23 16 24 17 25
REMARK SMILES IDX 18 26 19 27 20 28 21 29 22 30 23 31 84 32 24 33 83 34 25 35
REMARK SMILES IDX 26 36 27 37 77 38 28 39 82 40 76 41 78 42 29 43 81 44 75 45
REMARK SMILES IDX 74 46 30 48 62 49 42 50 61 51 43 52 46 53 60 54 79 55 44 56
REMARK SMILES IDX 45 57 59 59 80 60 47 61 31 62 32 63 40 64 33 65 34 66 38 67
REMARK SMILES IDX 41 68 35 69 36 70 39 71 37 72 63 73 64 74 72 75 65 76 66 77
REMARK SMILES IDX 70 78 73 79 67 80 68 81 71 82 69 83 48 84 49 85 57 86 50 87
REMARK SMILES IDX 51 88 55 89 58 90 52 91 53 92 56 93 54 94
REMARK H PARENT 6 10 6 11 78 47 46 58
REMARK Flexibility Score: inf
ROOT
ATOM      1  C   UNL A   1      34.023  32.129  28.211  1.00  0.00     0.261 C 
ENDROOT
BRANCH   1   2
ATOM      2  O   UNL A   1      34.098  31.123  27.193  1.00  0.00    -0.463 OA
BRANCH   2   3
ATOM      3  C   UNL A   1      32.906  30.600  26.802  1.00  0.00     0.317 C 
ATOM      4  O   UNL A   1      31.885  31.262  26.656  1.00  0.00    -0.251 OA
BRANCH   3   5
ATOM      5  C   UNL A   1      32.958  29.093  26.544  1.00  0.00     0.111 C 
ATOM      6  C   UNL A   1      31.785  28.495  27.339  1.00  0.00     0.029 C 
ATOM      7  C   UNL A   1      34.256  28.449  27.087  1.00  0.00     0.029 C 
BRANCH   5   8
ATOM      8  C   UNL A   1      32.870  28.750  25.023  1.00  0.00     0.279 C 
BRANCH   8   9
ATOM      9  N   UNL A   1      32.087  29.570  24.087  1.00  0.00    -0.330 N 
ATOM     10  H   UNL A   1      32.133  30.540  24.401  1.00  0.00     0.347 HD
ATOM     11  H   UNL A   1      32.501  29.421  23.166  1.00  0.00     0.347 HD
BRANCH   9  12
ATOM     12  C   UNL A   1      30.647  29.192  23.960  1.00  0.00     0.324 C 
BRANCH  12  13
ATOM     13  C   UNL A   1      30.563  27.748  23.415  1.00  0.00     0.369 C 
ATOM     14  O   UNL A   1      31.309  27.330  22.532  1.00  0.00    -0.245 OA
BRANCH  13  15
ATOM     15  O   UNL A   1      29.572  27.005  23.982  1.00  0.00    -0.464 OA
ATOM     16  C   UNL A   1      30.042  25.955  24.829  1.00  0.00     0.282 C 
ENDBRANCH  13  15
ENDBRANCH  12  13
BRANCH  12  17
ATOM     17  C   UNL A   1      29.705  30.181  23.271  1.00  0.00     0.021 A 
ATOM     18  C   UNL A   1      29.393  29.945  21.915  1.00  0.00     0.010 A 
ATOM     19  C   UNL A   1      29.051  31.239  23.919  1.00  0.00     0.010 A 
ATOM     20  C   UNL A   1      28.416  30.687  21.252  1.00  0.00     0.001 A 
ATOM     21  C   UNL A   1      28.054  31.971  23.257  1.00  0.00     0.001 A 
ATOM     22  C   UNL A   1      27.728  31.686  21.932  1.00  0.00     0.000 A 
ENDBRANCH  12  17
ENDBRANCH   9  12
ENDBRANCH   8   9
ENDBRANCH   5   8
ENDBRANCH   3   5
ENDBRANCH   2   3
ENDBRANCH   1   2
BRANCH   1  23
ATOM     23  C   UNL A   1      35.052  33.248  28.013  1.00  0.00     0.202 C 
BRANCH  23  24
ATOM     24  O   UNL A   1      34.963  34.409  28.825  1.00  0.00    -0.374 OA
BRANCH  24  25
ATOM     25  C   UNL A   1      34.155  35.497  28.380  1.00  0.00     0.202 C 
BRANCH  25  26
ATOM     26  C   UNL A   1      33.044  36.036  29.285  1.00  0.00     0.261 C 
BRANCH  26  27
ATOM     27  O   UNL A   1      32.646  35.096  30.290  1.00  0.00    -0.460 OA
BRANCH  27  28
ATOM     28  C   UNL A   1      32.707  35.577  31.557  1.00  0.00     0.338 C 
ATOM     29  O   UNL A   1      31.896  36.277  32.131  1.00  0.00    -0.246 OA
BRANCH  28  30
ATOM     30  C   UNL A   1      33.831  34.931  32.254  1.00  0.00     0.060 A 
ATOM     31  C   UNL A   1      35.065  35.594  32.239  1.00  0.00     0.016 A 
ATOM     32  C   UNL A   1      33.689  33.683  32.859  1.00  0.00     0.016 A 
ATOM     33  C   UNL A   1      36.183  34.988  32.798  1.00  0.00     0.010 A 
ATOM     34  C   UNL A   1      34.816  33.067  33.403  1.00  0.00     0.010 A 
ATOM     35  C   UNL A   1      36.070  33.703  33.339  1.00  0.00    -0.014 A 
BRANCH  35  36
ATOM     36  C   UNL A   1      37.301  32.950  33.655  1.00  0.00     0.031 A 
ATOM     37  C   UNL A   1      37.988  33.227  34.961  1.00  0.00     0.074 A 
ATOM     38  C   UNL A   1      37.768  32.015  32.812  1.00  0.00     0.049 A 
ATOM     39  N   UNL A   1      39.102  32.733  35.436  1.00  0.00    -0.248 NA
ATOM     40  C   UNL A   1      37.330  34.197  35.852  1.00  0.00     0.031 C 
ATOM     41  C   UNL A   1      37.143  31.635  31.546  1.00  0.00     0.029 A 
ATOM     42  N   UNL A   1      38.881  31.222  32.894  1.00  0.00    -0.354 N 
ATOM     43  C   UNL A   1      39.282  33.340  36.672  1.00  0.00     0.074 A 
ATOM     44  C   UNL A   1      38.183  34.259  36.863  1.00  0.00     0.031 C 
ATOM     45  C   UNL A   1      37.894  30.686  30.960  1.00  0.00     0.029 A 
ATOM     46  C   UNL A   1      39.067  30.425  31.792  1.00  0.00     0.049 A 
ATOM     47  H   UNL A   1      39.489  31.222  33.668  1.00  0.00     0.167 HD
ATOM     48  C   UNL A   1      40.275  33.136  37.569  1.00  0.00     0.037 A 
ATOM     49  C   UNL A   1      40.088  29.603  31.484  1.00  0.00     0.037 A 
ATOM     50  C   UNL A   1      41.361  32.216  37.364  1.00  0.00     0.049 A 
ATOM     51  C   UNL A   1      41.221  29.453  32.467  1.00  0.00     0.074 A 
ATOM     52  C   UNL A   1      42.413  31.919  38.210  1.00  0.00     0.029 A 
ATOM     53  N   UNL A   1      41.536  31.448  36.220  1.00  0.00    -0.354 N 
ATOM     54  N   UNL A   1      41.380  30.012  33.643  1.00  0.00    -0.248 NA
ATOM     55  C   UNL A   1      42.317  28.554  32.080  1.00  0.00     0.031 C 
ATOM     56  C   UNL A   1      43.259  31.018  37.554  1.00  0.00     0.029 A 
ATOM     57  C   UNL A   1      42.697  30.699  36.327  1.00  0.00     0.049 A 
ATOM     58  H   UNL A   1      40.925  31.436  35.449  1.00  0.00     0.167 HD
ATOM     59  C   UNL A   1      42.572  29.510  34.150  1.00  0.00     0.074 A 
ATOM     60  C   UNL A   1      43.088  28.589  33.156  1.00  0.00     0.031 C 
ATOM     61  C   UNL A   1      43.185  29.782  35.328  1.00  0.00     0.037 A 
BRANCH  48  62
ATOM     62  C   UNL A   1      40.251  33.950  38.831  1.00  0.00     0.064 A 
ATOM     63  C   UNL A   1      40.933  35.171  38.940  1.00  0.00     0.173 A 
ATOM     64  C   UNL A   1      39.509  33.512  39.939  1.00  0.00     0.173 A 
ATOM     65  F   UNL A   1      41.671  35.626  37.917  1.00  0.00    -0.203 F 
ATOM     66  C   UNL A   1      40.895  35.911  40.120  1.00  0.00     0.198 A 
ATOM     67  C   UNL A   1      39.446  34.270  41.106  1.00  0.00     0.198 A 
ATOM     68  F   UNL A   1      38.838  32.352  39.889  1.00  0.00    -0.203 F 
ATOM     69  F   UNL A   1      41.595  37.048  40.219  1.00  0.00    -0.200 F 
ATOM     70  C   UNL A   1      40.144  35.464  41.198  1.00  0.00     0.200 A 
ATOM     71  F   UNL A   1      38.710  33.844  42.141  1.00  0.00    -0.200 F 
ATOM     72  F   UNL A   1      40.100  36.181  42.329  1.00  0.00    -0.200 F 
ENDBRANCH  48  62
BRANCH  49  73
ATOM     73  C   UNL A   1      40.094  28.876  30.188  1.00  0.00     0.064 A 
ATOM     74  C   UNL A   1      40.739  29.406  29.061  1.00  0.00     0.173 A 
ATOM     75  C   UNL A   1      39.440  27.643  30.043  1.00  0.00     0.173 A 
ATOM     76  F   UNL A   1      41.360  30.592  29.142  1.00  0.00    -0.203 F 
ATOM     77  C   UNL A   1      40.710  28.743  27.836  1.00  0.00     0.198 A 
ATOM     78  C   UNL A   1      39.439  26.965  28.826  1.00  0.00     0.198 A 
ATOM     79  F   UNL A   1      38.808  27.090  31.089  1.00  0.00    -0.203 F 
ATOM     80  F   UNL A   1      41.289  29.299  26.763  1.00  0.00    -0.200 F 
ATOM     81  C   UNL A   1      40.065  27.520  27.721  1.00  0.00     0.200 A 
ATOM     82  F   UNL A   1      38.829  25.777  28.724  1.00  0.00    -0.200 F 
ATOM     83  F   UNL A   1      40.040  26.882  26.543  1.00  0.00    -0.200 F 
ENDBRANCH  49  73
BRANCH  61  84
ATOM     84  C   UNL A   1      44.458  29.044  35.630  1.00  0.00     0.064 A 
ATOM     85  C   UNL A   1      45.715  29.564  35.285  1.00  0.00     0.173 A 
ATOM     86  C   UNL A   1      44.420  27.820  36.317  1.00  0.00     0.173 A 
ATOM     87  F   UNL A   1      45.806  30.724  34.617  1.00  0.00    -0.203 F 
ATOM     88  C   UNL A   1      46.884  28.871  35.591  1.00  0.00     0.198 A 
ATOM     89  C   UNL A   1      45.592  27.148  36.652  1.00  0.00     0.198 A 
ATOM     90  F   UNL A   1      43.245  27.284  36.679  1.00  0.00    -0.203 F 
ATOM     91  F   UNL A   1      48.070  29.359  35.204  1.00  0.00    -0.200 F 
ATOM     92  C   UNL A   1      46.821  27.670  36.281  1.00  0.00     0.200 A 
ATOM     93  F   UNL A   1      45.530  25.998  37.336  1.00  0.00    -0.200 F 
ATOM     94  F   UNL A   1      47.948  27.009  36.584  1.00  0.00    -0.200 F 
ENDBRANCH  61  84
ENDBRANCH  35  36
ENDBRANCH  28  30
ENDBRANCH  27  28
ENDBRANCH  26  27
ENDBRANCH  25  26
ENDBRANCH  24  25
ENDBRANCH  23  24
ENDBRANCH   1  23
TORSDOF 20
ENDMDL
