MODEL 1
REMARK VINA RESULT:     -11.8      0.000      0.000
REMARK SMILES C[C@@H](C(=O)OCCOCCOC(=O)c1ccc(-c2c3nc(c(-c4c(F)c(F)c(F)c(F)c4F)c4ccc([nH]4)c(-c4c(F)c(F)c(F)c(F)c4F)c4nc(c(-c5c(F)c(F)c(F)c(F)c5F)c5ccc2[nH]5)C=C4)C=C3)cc1)c1ccc(-c2cccc(OC(=O)NCCC3CCCCC3)c2)c(F)c1
REMARK SMILES IDX 6 1 5 2 3 3 4 4 2 5 1 6 77 7 78 8 101 9 79 10 99 11 80 12
REMARK SMILES IDX 100 13 81 14 82 15 98 16 83 17 85 18 84 19 86 20 87 21 88 22
REMARK SMILES IDX 89 23 90 25 91 26 92 27 93 28 97 29 94 30 96 31 95 32 7 33
REMARK SMILES IDX 8 34 9 35 10 36 11 37 12 38 13 39 14 40 15 41 76 42 16 43
REMARK SMILES IDX 75 44 17 45 18 46 19 47 69 48 20 49 74 50 68 51 70 52 21 53
REMARK SMILES IDX 73 54 67 55 66 56 22 58 54 59 34 60 53 61 35 62 38 63 52 64
REMARK SMILES IDX 71 65 36 66 37 67 51 69 72 70 39 71 23 72 24 73 32 74 25 75
REMARK SMILES IDX 26 76 30 77 33 78 27 79 28 80 31 81 29 82 55 83 56 84 64 85
REMARK SMILES IDX 57 86 58 87 62 88 65 89 59 90 60 91 63 92 61 93 40 94 41 95
REMARK SMILES IDX 49 96 42 97 43 98 47 99 50 100 44 101 45 102 48 103 46 104
REMARK H PARENT 89 24 70 57 38 68
REMARK Flexibility Score: inf
ROOT
ATOM      1  C   UNL A   1      40.275  20.252  26.504  1.00  0.00     0.261 C 
ENDROOT
BRANCH   1   2
ATOM      2  O   UNL A   1      39.675  21.456  25.994  1.00  0.00    -0.463 OA
BRANCH   2   3
ATOM      3  C   UNL A   1      39.713  22.527  26.835  1.00  0.00     0.313 C 
ATOM      4  O   UNL A   1      40.238  22.509  27.944  1.00  0.00    -0.252 OA
BRANCH   3   5
ATOM      5  C   UNL A   1      39.039  23.778  26.249  1.00  0.00     0.126 C 
ATOM      6  C   UNL A   1      39.005  24.995  27.180  1.00  0.00     0.025 C 
BRANCH   5   7
ATOM      7  C   UNL A   1      37.676  23.413  25.661  1.00  0.00    -0.031 A 
ATOM      8  C   UNL A   1      37.422  23.302  24.284  1.00  0.00     0.005 A 
ATOM      9  C   UNL A   1      36.590  23.280  26.537  1.00  0.00     0.044 A 
ATOM     10  C   UNL A   1      36.116  23.111  23.802  1.00  0.00     0.012 A 
ATOM     11  C   UNL A   1      35.300  23.082  26.052  1.00  0.00     0.131 A 
ATOM     12  C   UNL A   1      35.027  23.015  24.680  1.00  0.00     0.018 A 
ATOM     13  F   UNL A   1      34.304  22.985  26.947  1.00  0.00    -0.206 F 
BRANCH  12  14
ATOM     14  C   UNL A   1      33.643  22.932  24.183  1.00  0.00    -0.012 A 
ATOM     15  C   UNL A   1      33.199  21.873  23.378  1.00  0.00     0.009 A 
ATOM     16  C   UNL A   1      32.725  23.946  24.516  1.00  0.00     0.056 A 
ATOM     17  C   UNL A   1      31.872  21.821  22.935  1.00  0.00     0.004 A 
ATOM     18  C   UNL A   1      31.411  23.908  24.056  1.00  0.00     0.133 A 
ATOM     19  C   UNL A   1      30.977  22.838  23.275  1.00  0.00     0.047 A 
BRANCH  18  20
ATOM     20  O   UNL A   1      30.439  24.900  24.340  1.00  0.00    -0.410 OA
BRANCH  20  21
ATOM     21  C   UNL A   1      30.349  25.600  25.541  1.00  0.00     0.412 C 
ATOM     22  O   UNL A   1      30.017  25.146  26.632  1.00  0.00    -0.224 OA
ATOM     23  N   UNL A   1      30.699  26.915  25.449  1.00  0.00    -0.321 N 
ATOM     24  H   UNL A   1      30.664  27.427  26.288  1.00  0.00     0.167 HD
BRANCH  23  25
ATOM     25  C   UNL A   1      31.115  27.650  24.276  1.00  0.00     0.119 C 
BRANCH  25  26
ATOM     26  C   UNL A   1      31.060  29.161  24.517  1.00  0.00     0.025 C 
BRANCH  26  27
ATOM     27  C   UNL A   1      30.130  29.933  23.554  1.00  0.00    -0.009 C 
ATOM     28  C   UNL A   1      28.929  29.084  23.103  1.00  0.00     0.003 C 
ATOM     29  C   UNL A   1      29.654  31.235  24.219  1.00  0.00     0.003 C 
ATOM     30  C   UNL A   1      27.962  29.875  22.224  1.00  0.00     0.000 C 
ATOM     31  C   UNL A   1      28.701  32.017  23.319  1.00  0.00     0.000 C 
ATOM     32  C   UNL A   1      27.509  31.165  22.898  1.00  0.00     0.000 C 
ENDBRANCH  26  27
ENDBRANCH  25  26
ENDBRANCH  23  25
ENDBRANCH  20  21
ENDBRANCH  18  20
ENDBRANCH  12  14
ENDBRANCH   5   7
ENDBRANCH   3   5
ENDBRANCH   2   3
ENDBRANCH   1   2
BRANCH   1  33
ATOM     33  C   UNL A   1      41.636  19.976  25.856  1.00  0.00     0.202 C 
BRANCH  33  34
ATOM     34  O   UNL A   1      42.400  21.091  25.404  1.00  0.00    -0.374 OA
BRANCH  34  35
ATOM     35  C   UNL A   1      43.820  20.969  25.390  1.00  0.00     0.202 C 
BRANCH  35  36
ATOM     36  C   UNL A   1      44.635  22.104  24.754  1.00  0.00     0.261 C 
BRANCH  36  37
ATOM     37  O   UNL A   1      43.895  23.330  24.619  1.00  0.00    -0.460 OA
BRANCH  37  38
ATOM     38  C   UNL A   1      44.568  24.434  25.024  1.00  0.00     0.338 C 
ATOM     39  O   UNL A   1      45.635  24.849  24.604  1.00  0.00    -0.246 OA
BRANCH  38  40
ATOM     40  C   UNL A   1      43.741  25.223  25.956  1.00  0.00     0.060 A 
ATOM     41  C   UNL A   1      43.894  26.615  25.931  1.00  0.00     0.016 A 
ATOM     42  C   UNL A   1      42.915  24.614  26.901  1.00  0.00     0.016 A 
ATOM     43  C   UNL A   1      43.258  27.405  26.883  1.00  0.00     0.010 A 
ATOM     44  C   UNL A   1      42.283  25.409  27.864  1.00  0.00     0.010 A 
ATOM     45  C   UNL A   1      42.483  26.802  27.881  1.00  0.00    -0.014 A 
BRANCH  45  46
ATOM     46  C   UNL A   1      42.007  27.619  29.024  1.00  0.00     0.031 A 
ATOM     47  C   UNL A   1      42.773  27.588  30.317  1.00  0.00     0.074 A 
ATOM     48  C   UNL A   1      40.931  28.415  28.896  1.00  0.00     0.049 A 
ATOM     49  N   UNL A   1      42.517  28.187  31.452  1.00  0.00    -0.248 NA
ATOM     50  C   UNL A   1      43.995  26.768  30.332  1.00  0.00     0.031 C 
ATOM     51  C   UNL A   1      40.135  28.566  27.680  1.00  0.00     0.029 A 
ATOM     52  N   UNL A   1      40.318  29.241  29.805  1.00  0.00    -0.354 N 
ATOM     53  C   UNL A   1      43.540  27.814  32.315  1.00  0.00     0.074 A 
ATOM     54  C   UNL A   1      44.398  26.906  31.587  1.00  0.00     0.031 C 
ATOM     55  C   UNL A   1      39.131  29.425  27.920  1.00  0.00     0.029 A 
ATOM     56  C   UNL A   1      39.191  29.852  29.318  1.00  0.00     0.049 A 
ATOM     57  H   UNL A   1      40.655  29.381  30.720  1.00  0.00     0.167 HD
ATOM     58  C   UNL A   1      43.749  28.205  33.594  1.00  0.00     0.037 A 
ATOM     59  C   UNL A   1      38.294  30.643  29.938  1.00  0.00     0.037 A 
ATOM     60  C   UNL A   1      42.888  29.107  34.316  1.00  0.00     0.049 A 
ATOM     61  C   UNL A   1      38.502  30.998  31.387  1.00  0.00     0.074 A 
ATOM     62  C   UNL A   1      43.014  29.567  35.614  1.00  0.00     0.029 A 
ATOM     63  N   UNL A   1      41.735  29.679  33.800  1.00  0.00    -0.354 N 
ATOM     64  N   UNL A   1      39.476  30.650  32.195  1.00  0.00    -0.248 NA
ATOM     65  C   UNL A   1      37.490  31.860  32.010  1.00  0.00     0.031 C 
ATOM     66  C   UNL A   1      41.905  30.370  35.904  1.00  0.00     0.029 A 
ATOM     67  C   UNL A   1      41.125  30.468  34.763  1.00  0.00     0.049 A 
ATOM     68  H   UNL A   1      41.398  29.545  32.883  1.00  0.00     0.167 HD
ATOM     69  C   UNL A   1      39.211  31.274  33.407  1.00  0.00     0.074 A 
ATOM     70  C   UNL A   1      37.992  32.035  33.225  1.00  0.00     0.031 C 
ATOM     71  C   UNL A   1      39.913  31.224  34.566  1.00  0.00     0.037 A 
BRANCH  58  72
ATOM     72  C   UNL A   1      44.946  27.641  34.307  1.00  0.00     0.064 A 
ATOM     73  C   UNL A   1      44.879  26.440  35.029  1.00  0.00     0.173 A 
ATOM     74  C   UNL A   1      46.187  28.294  34.239  1.00  0.00     0.173 A 
ATOM     75  F   UNL A   1      43.714  25.781  35.138  1.00  0.00    -0.203 F 
ATOM     76  C   UNL A   1      45.999  25.928  35.679  1.00  0.00     0.198 A 
ATOM     77  C   UNL A   1      47.313  27.761  34.860  1.00  0.00     0.198 A 
ATOM     78  F   UNL A   1      46.310  29.443  33.559  1.00  0.00    -0.203 F 
ATOM     79  F   UNL A   1      45.898  24.806  36.404  1.00  0.00    -0.200 F 
ATOM     80  C   UNL A   1      47.218  26.585  35.587  1.00  0.00     0.200 A 
ATOM     81  F   UNL A   1      48.493  28.390  34.758  1.00  0.00    -0.200 F 
ATOM     82  F   UNL A   1      48.298  26.087  36.204  1.00  0.00    -0.200 F 
ENDBRANCH  58  72
BRANCH  59  83
ATOM     83  C   UNL A   1      37.105  31.138  29.194  1.00  0.00     0.064 A 
ATOM     84  C   UNL A   1      37.018  32.469  28.764  1.00  0.00     0.173 A 
ATOM     85  C   UNL A   1      36.026  30.288  28.905  1.00  0.00     0.173 A 
ATOM     86  F   UNL A   1      38.013  33.326  29.037  1.00  0.00    -0.203 F 
ATOM     87  C   UNL A   1      35.890  32.937  28.094  1.00  0.00     0.198 A 
ATOM     88  C   UNL A   1      34.913  30.749  28.206  1.00  0.00     0.198 A 
ATOM     89  F   UNL A   1      36.057  29.005  29.294  1.00  0.00    -0.203 F 
ATOM     90  F   UNL A   1      35.811  34.227  27.739  1.00  0.00    -0.200 F 
ATOM     91  C   UNL A   1      34.842  32.075  27.808  1.00  0.00     0.200 A 
ATOM     92  F   UNL A   1      33.910  29.907  27.919  1.00  0.00    -0.200 F 
ATOM     93  F   UNL A   1      33.760  32.523  27.157  1.00  0.00    -0.200 F 
ENDBRANCH  59  83
BRANCH  71  94
ATOM     94  C   UNL A   1      39.408  32.045  35.720  1.00  0.00     0.064 A 
ATOM     95  C   UNL A   1      39.790  33.383  35.901  1.00  0.00     0.173 A 
ATOM     96  C   UNL A   1      38.496  31.495  36.635  1.00  0.00     0.173 A 
ATOM     97  F   UNL A   1      40.669  33.954  35.063  1.00  0.00    -0.203 F 
ATOM     98  C   UNL A   1      39.302  34.128  36.972  1.00  0.00     0.198 A 
ATOM     99  C   UNL A   1      37.982  32.255  37.682  1.00  0.00     0.198 A 
ATOM    100  F   UNL A   1      38.090  30.224  36.504  1.00  0.00    -0.203 F 
ATOM    101  F   UNL A   1      39.724  35.387  37.156  1.00  0.00    -0.200 F 
ATOM    102  C   UNL A   1      38.392  33.567  37.856  1.00  0.00     0.200 A 
ATOM    103  F   UNL A   1      37.090  31.716  38.524  1.00  0.00    -0.200 F 
ATOM    104  F   UNL A   1      37.917  34.290  38.880  1.00  0.00    -0.200 F 
ENDBRANCH  71  94
ENDBRANCH  45  46
ENDBRANCH  38  40
ENDBRANCH  37  38
ENDBRANCH  36  37
ENDBRANCH  35  36
ENDBRANCH  34  35
ENDBRANCH  33  34
ENDBRANCH   1  33
TORSDOF 21
ENDMDL
MODEL 2
REMARK VINA RESULT:     -11.5      5.329     12.072
REMARK SMILES C[C@@H](C(=O)OCCOCCOC(=O)c1ccc(-c2c3nc(c(-c4c(F)c(F)c(F)c(F)c4F)c4ccc([nH]4)c(-c4c(F)c(F)c(F)c(F)c4F)c4nc(c(-c5c(F)c(F)c(F)c(F)c5F)c5ccc2[nH]5)C=C4)C=C3)cc1)c1ccc(-c2cccc(OC(=O)NCCC3CCCCC3)c2)c(F)c1
REMARK SMILES IDX 6 1 5 2 3 3 4 4 2 5 1 6 77 7 78 8 101 9 79 10 99 11 80 12
REMARK SMILES IDX 100 13 81 14 82 15 98 16 83 17 85 18 84 19 86 20 87 21 88 22
REMARK SMILES IDX 89 23 90 25 91 26 92 27 93 28 97 29 94 30 96 31 95 32 7 33
REMARK SMILES IDX 8 34 9 35 10 36 11 37 12 38 13 39 14 40 15 41 76 42 16 43
REMARK SMILES IDX 75 44 17 45 18 46 19 47 69 48 20 49 74 50 68 51 70 52 21 53
REMARK SMILES IDX 73 54 67 55 66 56 22 58 54 59 34 60 53 61 35 62 38 63 52 64
REMARK SMILES IDX 71 65 36 66 37 67 51 69 72 70 39 71 23 72 24 73 32 74 25 75
REMARK SMILES IDX 26 76 30 77 33 78 27 79 28 80 31 81 29 82 55 83 56 84 64 85
REMARK SMILES IDX 57 86 58 87 62 88 65 89 59 90 60 91 63 92 61 93 40 94 41 95
REMARK SMILES IDX 49 96 42 97 43 98 47 99 50 100 44 101 45 102 48 103 46 104
REMARK H PARENT 89 24 70 57 38 68
REMARK Flexibility Score: inf
ROOT
ATOM      1  C   UNL A   1      33.773  34.938  32.341  1.00  0.00     0.261 C 
ENDROOT
BRANCH   1   2
ATOM      2  O   UNL A   1      35.116  35.381  32.603  1.00  0.00    -0.463 OA
BRANCH   2   3
ATOM      3  C   UNL A   1      35.902  34.493  33.274  1.00  0.00     0.313 C 
ATOM      4  O   UNL A   1      36.153  34.570  34.473  1.00  0.00    -0.252 OA
BRANCH   3   5
ATOM      5  C   UNL A   1      36.439  33.366  32.378  1.00  0.00     0.126 C 
ATOM      6  C   UNL A   1      36.774  32.059  33.106  1.00  0.00     0.025 C 
BRANCH   5   7
ATOM      7  C   UNL A   1      37.575  33.891  31.500  1.00  0.00    -0.031 A 
ATOM      8  C   UNL A   1      37.532  33.917  30.096  1.00  0.00     0.005 A 
ATOM      9  C   UNL A   1      38.772  34.272  32.122  1.00  0.00     0.044 A 
ATOM     10  C   UNL A   1      38.663  34.272  29.343  1.00  0.00     0.012 A 
ATOM     11  C   UNL A   1      39.887  34.630  31.369  1.00  0.00     0.131 A 
ATOM     12  C   UNL A   1      39.870  34.617  29.968  1.00  0.00     0.018 A 
ATOM     13  F   UNL A   1      41.007  34.964  32.030  1.00  0.00    -0.206 F 
BRANCH  12  14
ATOM     14  C   UNL A   1      41.093  34.876  29.190  1.00  0.00    -0.012 A 
ATOM     15  C   UNL A   1      41.099  35.702  28.057  1.00  0.00     0.009 A 
ATOM     16  C   UNL A   1      42.304  34.276  29.584  1.00  0.00     0.056 A 
ATOM     17  C   UNL A   1      42.285  35.934  27.349  1.00  0.00     0.004 A 
ATOM     18  C   UNL A   1      43.480  34.488  28.867  1.00  0.00     0.133 A 
ATOM     19  C   UNL A   1      43.476  35.329  27.755  1.00  0.00     0.047 A 
BRANCH  18  20
ATOM     20  O   UNL A   1      44.730  33.906  29.198  1.00  0.00    -0.410 OA
BRANCH  20  21
ATOM     21  C   UNL A   1      45.630  33.383  28.272  1.00  0.00     0.412 C 
ATOM     22  O   UNL A   1      46.254  34.010  27.420  1.00  0.00    -0.224 OA
ATOM     23  N   UNL A   1      45.823  32.038  28.380  1.00  0.00    -0.321 N 
ATOM     24  H   UNL A   1      46.471  31.646  27.750  1.00  0.00     0.167 HD
BRANCH  23  25
ATOM     25  C   UNL A   1      45.199  31.115  29.299  1.00  0.00     0.119 C 
BRANCH  25  26
ATOM     26  C   UNL A   1      44.392  30.047  28.556  1.00  0.00     0.025 C 
BRANCH  26  27
ATOM     27  C   UNL A   1      45.203  29.227  27.527  1.00  0.00    -0.009 C 
ATOM     28  C   UNL A   1      46.389  28.493  28.175  1.00  0.00     0.003 C 
ATOM     29  C   UNL A   1      44.279  28.233  26.805  1.00  0.00     0.003 C 
ATOM     30  C   UNL A   1      47.136  27.612  27.177  1.00  0.00     0.000 C 
ATOM     31  C   UNL A   1      45.043  27.373  25.801  1.00  0.00     0.000 C 
ATOM     32  C   UNL A   1      46.201  26.639  26.468  1.00  0.00     0.000 C 
ENDBRANCH  26  27
ENDBRANCH  25  26
ENDBRANCH  23  25
ENDBRANCH  20  21
ENDBRANCH  18  20
ENDBRANCH  12  14
ENDBRANCH   5   7
ENDBRANCH   3   5
ENDBRANCH   2   3
ENDBRANCH   1   2
BRANCH   1  33
ATOM     33  C   UNL A   1      33.182  35.615  31.101  1.00  0.00     0.202 C 
BRANCH  33  34
ATOM     34  O   UNL A   1      33.856  35.441  29.857  1.00  0.00    -0.374 OA
BRANCH  34  35
ATOM     35  C   UNL A   1      33.423  34.388  29.001  1.00  0.00     0.202 C 
BRANCH  35  36
ATOM     36  C   UNL A   1      34.493  33.509  28.339  1.00  0.00     0.261 C 
BRANCH  36  37
ATOM     37  O   UNL A   1      34.702  32.258  29.019  1.00  0.00    -0.460 OA
BRANCH  37  38
ATOM     38  C   UNL A   1      34.730  31.178  28.201  1.00  0.00     0.338 C 
ATOM     39  O   UNL A   1      33.964  30.916  27.290  1.00  0.00    -0.246 OA
BRANCH  38  40
ATOM     40  C   UNL A   1      35.962  30.399  28.428  1.00  0.00     0.060 A 
ATOM     41  C   UNL A   1      36.141  29.836  29.698  1.00  0.00     0.016 A 
ATOM     42  C   UNL A   1      36.962  30.307  27.461  1.00  0.00     0.016 A 
ATOM     43  C   UNL A   1      37.344  29.219  30.025  1.00  0.00     0.010 A 
ATOM     44  C   UNL A   1      38.175  29.694  27.793  1.00  0.00     0.010 A 
ATOM     45  C   UNL A   1      38.384  29.182  29.088  1.00  0.00    -0.014 A 
BRANCH  45  46
ATOM     46  C   UNL A   1      39.733  28.740  29.517  1.00  0.00     0.031 A 
ATOM     47  C   UNL A   1      40.503  29.582  30.496  1.00  0.00     0.074 A 
ATOM     48  C   UNL A   1      40.247  27.579  29.076  1.00  0.00     0.049 A 
ATOM     49  N   UNL A   1      41.709  29.411  30.975  1.00  0.00    -0.248 NA
ATOM     50  C   UNL A   1      39.821  30.783  31.003  1.00  0.00     0.031 C 
ATOM     51  C   UNL A   1      39.576  26.655  28.164  1.00  0.00     0.029 A 
ATOM     52  N   UNL A   1      41.457  26.983  29.332  1.00  0.00    -0.354 N 
ATOM     53  C   UNL A   1      41.930  30.480  31.833  1.00  0.00     0.074 A 
ATOM     54  C   UNL A   1      40.752  31.317  31.779  1.00  0.00     0.031 C 
ATOM     55  C   UNL A   1      40.389  25.611  27.927  1.00  0.00     0.029 A 
ATOM     56  C   UNL A   1      41.650  25.815  28.638  1.00  0.00     0.049 A 
ATOM     57  H   UNL A   1      42.122  27.358  29.953  1.00  0.00     0.167 HD
ATOM     58  C   UNL A   1      43.014  30.733  32.605  1.00  0.00     0.037 A 
ATOM     59  C   UNL A   1      42.733  25.017  28.564  1.00  0.00     0.037 A 
ATOM     60  C   UNL A   1      44.187  29.898  32.651  1.00  0.00     0.049 A 
ATOM     61  C   UNL A   1      43.959  25.363  29.368  1.00  0.00     0.074 A 
ATOM     62  C   UNL A   1      45.337  30.065  33.402  1.00  0.00     0.029 A 
ATOM     63  N   UNL A   1      44.361  28.740  31.907  1.00  0.00    -0.354 N 
ATOM     64  N   UNL A   1      44.158  26.370  30.185  1.00  0.00    -0.248 NA
ATOM     65  C   UNL A   1      45.109  24.458  29.244  1.00  0.00     0.031 C 
ATOM     66  C   UNL A   1      46.230  29.041  33.067  1.00  0.00     0.029 A 
ATOM     67  C   UNL A   1      45.610  28.196  32.161  1.00  0.00     0.049 A 
ATOM     68  H   UNL A   1      43.694  28.360  31.289  1.00  0.00     0.167 HD
ATOM     69  C   UNL A   1      45.440  26.203  30.695  1.00  0.00     0.074 A 
ATOM     70  C   UNL A   1      45.966  24.989  30.105  1.00  0.00     0.031 C 
ATOM     71  C   UNL A   1      46.120  26.983  31.571  1.00  0.00     0.037 A 
BRANCH  58  72
ATOM     72  C   UNL A   1      42.993  31.977  33.447  1.00  0.00     0.064 A 
ATOM     73  C   UNL A   1      42.323  32.025  34.680  1.00  0.00     0.173 A 
ATOM     74  C   UNL A   1      43.682  33.128  33.033  1.00  0.00     0.173 A 
ATOM     75  F   UNL A   1      41.638  30.958  35.118  1.00  0.00    -0.203 F 
ATOM     76  C   UNL A   1      42.320  33.186  35.450  1.00  0.00     0.198 A 
ATOM     77  C   UNL A   1      43.706  34.274  33.822  1.00  0.00     0.198 A 
ATOM     78  F   UNL A   1      44.343  33.136  31.866  1.00  0.00    -0.203 F 
ATOM     79  F   UNL A   1      41.631  33.223  36.598  1.00  0.00    -0.200 F 
ATOM     80  C   UNL A   1      43.018  34.306  35.025  1.00  0.00     0.200 A 
ATOM     81  F   UNL A   1      44.393  35.351  33.416  1.00  0.00    -0.200 F 
ATOM     82  F   UNL A   1      43.022  35.419  35.772  1.00  0.00    -0.200 F 
ENDBRANCH  58  72
BRANCH  59  83
ATOM     83  C   UNL A   1      42.711  23.822  27.680  1.00  0.00     0.064 A 
ATOM     84  C   UNL A   1      42.406  22.550  28.184  1.00  0.00     0.173 A 
ATOM     85  C   UNL A   1      43.005  23.926  26.312  1.00  0.00     0.173 A 
ATOM     86  F   UNL A   1      42.141  22.393  29.489  1.00  0.00    -0.203 F 
ATOM     87  C   UNL A   1      42.416  21.427  27.359  1.00  0.00     0.198 A 
ATOM     88  C   UNL A   1      42.983  22.809  25.482  1.00  0.00     0.198 A 
ATOM     89  F   UNL A   1      43.305  25.120  25.778  1.00  0.00    -0.203 F 
ATOM     90  F   UNL A   1      42.170  20.216  27.877  1.00  0.00    -0.200 F 
ATOM     91  C   UNL A   1      42.696  21.559  26.007  1.00  0.00     0.200 A 
ATOM     92  F   UNL A   1      43.240  22.944  24.174  1.00  0.00    -0.200 F 
ATOM     93  F   UNL A   1      42.700  20.480  25.212  1.00  0.00    -0.200 F 
ENDBRANCH  59  83
BRANCH  71  94
ATOM     94  C   UNL A   1      47.493  26.530  31.983  1.00  0.00     0.064 A 
ATOM     95  C   UNL A   1      47.685  25.550  32.970  1.00  0.00     0.173 A 
ATOM     96  C   UNL A   1      48.632  27.056  31.354  1.00  0.00     0.173 A 
ATOM     97  F   UNL A   1      46.632  25.023  33.612  1.00  0.00    -0.203 F 
ATOM     98  C   UNL A   1      48.966  25.138  33.329  1.00  0.00     0.198 A 
ATOM     99  C   UNL A   1      49.908  26.615  31.690  1.00  0.00     0.198 A 
ATOM    100  F   UNL A   1      48.505  27.989  30.398  1.00  0.00    -0.203 F 
ATOM    101  F   UNL A   1      49.127  24.240  34.311  1.00  0.00    -0.200 F 
ATOM    102  C   UNL A   1      50.075  25.663  32.683  1.00  0.00     0.200 A 
ATOM    103  F   UNL A   1      50.977  27.111  31.052  1.00  0.00    -0.200 F 
ATOM    104  F   UNL A   1      51.306  25.258  33.025  1.00  0.00    -0.200 F 
ENDBRANCH  71  94
ENDBRANCH  45  46
ENDBRANCH  38  40
ENDBRANCH  37  38
ENDBRANCH  36  37
ENDBRANCH  35  36
ENDBRANCH  34  35
ENDBRANCH  33  34
ENDBRANCH   1  33
TORSDOF 21
ENDMDL
MODEL 3
REMARK VINA RESULT:     -11.5      5.083     12.007
REMARK SMILES C[C@@H](C(=O)OCCOCCOC(=O)c1ccc(-c2c3nc(c(-c4c(F)c(F)c(F)c(F)c4F)c4ccc([nH]4)c(-c4c(F)c(F)c(F)c(F)c4F)c4nc(c(-c5c(F)c(F)c(F)c(F)c5F)c5ccc2[nH]5)C=C4)C=C3)cc1)c1ccc(-c2cccc(OC(=O)NCCC3CCCCC3)c2)c(F)c1
REMARK SMILES IDX 6 1 5 2 3 3 4 4 2 5 1 6 77 7 78 8 101 9 79 10 99 11 80 12
REMARK SMILES IDX 100 13 81 14 82 15 98 16 83 17 85 18 84 19 86 20 87 21 88 22
REMARK SMILES IDX 89 23 90 25 91 26 92 27 93 28 97 29 94 30 96 31 95 32 7 33
REMARK SMILES IDX 8 34 9 35 10 36 11 37 12 38 13 39 14 40 15 41 76 42 16 43
REMARK SMILES IDX 75 44 17 45 18 46 19 47 69 48 20 49 74 50 68 51 70 52 21 53
REMARK SMILES IDX 73 54 67 55 66 56 22 58 54 59 34 60 53 61 35 62 38 63 52 64
REMARK SMILES IDX 71 65 36 66 37 67 51 69 72 70 39 71 23 72 24 73 32 74 25 75
REMARK SMILES IDX 26 76 30 77 33 78 27 79 28 80 31 81 29 82 55 83 56 84 64 85
REMARK SMILES IDX 57 86 58 87 62 88 65 89 59 90 60 91 63 92 61 93 40 94 41 95
REMARK SMILES IDX 49 96 42 97 43 98 47 99 50 100 44 101 45 102 48 103 46 104
REMARK H PARENT 89 24 70 57 38 68
REMARK Flexibility Score: inf
ROOT
ATOM      1  C   UNL A   1      33.181  35.634  31.340  1.00  0.00     0.261 C 
ENDROOT
BRANCH   1   2
ATOM      2  O   UNL A   1      34.480  35.935  31.879  1.00  0.00    -0.463 OA
BRANCH   2   3
ATOM      3  C   UNL A   1      35.079  34.917  32.559  1.00  0.00     0.313 C 
ATOM      4  O   UNL A   1      35.243  34.909  33.775  1.00  0.00    -0.252 OA
BRANCH   3   5
ATOM      5  C   UNL A   1      35.520  33.761  31.647  1.00  0.00     0.126 C 
ATOM      6  C   UNL A   1      35.363  32.361  32.251  1.00  0.00     0.025 C 
BRANCH   5   7
ATOM      7  C   UNL A   1      36.915  34.038  31.087  1.00  0.00    -0.031 A 
ATOM      8  C   UNL A   1      37.273  33.839  29.744  1.00  0.00     0.005 A 
ATOM      9  C   UNL A   1      37.926  34.415  31.982  1.00  0.00     0.044 A 
ATOM     10  C   UNL A   1      38.607  33.969  29.323  1.00  0.00     0.012 A 
ATOM     11  C   UNL A   1      39.245  34.550  31.556  1.00  0.00     0.131 A 
ATOM     12  C   UNL A   1      39.622  34.310  30.228  1.00  0.00     0.018 A 
ATOM     13  F   UNL A   1      40.166  34.892  32.471  1.00  0.00    -0.206 F 
BRANCH  12  14
ATOM     14  C   UNL A   1      41.038  34.335  29.824  1.00  0.00    -0.012 A 
ATOM     15  C   UNL A   1      41.651  35.489  29.317  1.00  0.00     0.009 A 
ATOM     16  C   UNL A   1      41.812  33.165  29.939  1.00  0.00     0.056 A 
ATOM     17  C   UNL A   1      43.003  35.478  28.953  1.00  0.00     0.004 A 
ATOM     18  C   UNL A   1      43.151  33.146  29.556  1.00  0.00     0.133 A 
ATOM     19  C   UNL A   1      43.754  34.307  29.075  1.00  0.00     0.047 A 
BRANCH  18  20
ATOM     20  O   UNL A   1      43.985  32.002  29.633  1.00  0.00    -0.410 OA
BRANCH  20  21
ATOM     21  C   UNL A   1      44.970  31.803  30.598  1.00  0.00     0.412 C 
ATOM     22  O   UNL A   1      45.297  32.585  31.485  1.00  0.00    -0.224 OA
ATOM     23  N   UNL A   1      45.588  30.590  30.522  1.00  0.00    -0.321 N 
ATOM     24  H   UNL A   1      46.274  30.416  31.206  1.00  0.00     0.167 HD
BRANCH  23  25
ATOM     25  C   UNL A   1      45.364  29.529  29.568  1.00  0.00     0.119 C 
BRANCH  25  26
ATOM     26  C   UNL A   1      46.624  29.243  28.746  1.00  0.00     0.025 C 
BRANCH  26  27
ATOM     27  C   UNL A   1      46.951  27.742  28.570  1.00  0.00    -0.009 C 
ATOM     28  C   UNL A   1      46.748  27.272  27.120  1.00  0.00     0.003 C 
ATOM     29  C   UNL A   1      48.390  27.463  29.035  1.00  0.00     0.003 C 
ATOM     30  C   UNL A   1      47.158  25.813  26.925  1.00  0.00     0.000 C 
ATOM     31  C   UNL A   1      48.773  25.997  28.847  1.00  0.00     0.000 C 
ATOM     32  C   UNL A   1      48.583  25.556  27.400  1.00  0.00     0.000 C 
ENDBRANCH  26  27
ENDBRANCH  25  26
ENDBRANCH  23  25
ENDBRANCH  20  21
ENDBRANCH  18  20
ENDBRANCH  12  14
ENDBRANCH   5   7
ENDBRANCH   3   5
ENDBRANCH   2   3
ENDBRANCH   1   2
BRANCH   1  33
ATOM     33  C   UNL A   1      33.030  36.142  29.902  1.00  0.00     0.202 C 
BRANCH  33  34
ATOM     34  O   UNL A   1      33.830  35.536  28.891  1.00  0.00    -0.374 OA
BRANCH  34  35
ATOM     35  C   UNL A   1      33.374  34.315  28.315  1.00  0.00     0.202 C 
BRANCH  35  36
ATOM     36  C   UNL A   1      34.422  33.258  27.941  1.00  0.00     0.261 C 
BRANCH  36  37
ATOM     37  O   UNL A   1      34.308  32.047  28.710  1.00  0.00    -0.460 OA
BRANCH  37  38
ATOM     38  C   UNL A   1      34.503  30.913  27.995  1.00  0.00     0.338 C 
ATOM     39  O   UNL A   1      33.842  30.505  27.055  1.00  0.00    -0.246 OA
BRANCH  38  40
ATOM     40  C   UNL A   1      35.776  30.278  28.382  1.00  0.00     0.060 A 
ATOM     41  C   UNL A   1      35.841  29.690  29.652  1.00  0.00     0.016 A 
ATOM     42  C   UNL A   1      36.907  30.344  27.570  1.00  0.00     0.016 A 
ATOM     43  C   UNL A   1      37.052  29.208  30.137  1.00  0.00     0.010 A 
ATOM     44  C   UNL A   1      38.127  29.868  28.062  1.00  0.00     0.010 A 
ATOM     45  C   UNL A   1      38.211  29.333  29.362  1.00  0.00    -0.014 A 
BRANCH  45  46
ATOM     46  C   UNL A   1      39.530  29.038  29.974  1.00  0.00     0.031 A 
ATOM     47  C   UNL A   1      40.346  27.893  29.441  1.00  0.00     0.074 A 
ATOM     48  C   UNL A   1      40.014  29.809  30.963  1.00  0.00     0.049 A 
ATOM     49  N   UNL A   1      41.501  27.431  29.848  1.00  0.00    -0.248 NA
ATOM     50  C   UNL A   1      39.781  27.168  28.291  1.00  0.00     0.031 C 
ATOM     51  C   UNL A   1      39.338  30.973  31.530  1.00  0.00     0.029 A 
ATOM     52  N   UNL A   1      41.188  29.722  31.669  1.00  0.00    -0.354 N 
ATOM     53  C   UNL A   1      41.798  26.364  29.011  1.00  0.00     0.074 A 
ATOM     54  C   UNL A   1      40.685  26.219  28.098  1.00  0.00     0.031 C 
ATOM     55  C   UNL A   1      40.104  31.488  32.506  1.00  0.00     0.029 A 
ATOM     56  C   UNL A   1      41.303  30.666  32.658  1.00  0.00     0.049 A 
ATOM     57  H   UNL A   1      41.880  29.047  31.484  1.00  0.00     0.167 HD
ATOM     58  C   UNL A   1      42.905  25.585  28.998  1.00  0.00     0.037 A 
ATOM     59  C   UNL A   1      42.255  30.828  33.598  1.00  0.00     0.037 A 
ATOM     60  C   UNL A   1      44.008  25.731  29.912  1.00  0.00     0.049 A 
ATOM     61  C   UNL A   1      43.439  29.896  33.616  1.00  0.00     0.074 A 
ATOM     62  C   UNL A   1      45.177  24.994  29.980  1.00  0.00     0.029 A 
ATOM     63  N   UNL A   1      44.074  26.677  30.925  1.00  0.00    -0.354 N 
ATOM     64  N   UNL A   1      43.719  28.895  32.816  1.00  0.00    -0.248 NA
ATOM     65  C   UNL A   1      44.442  30.120  34.665  1.00  0.00     0.031 C 
ATOM     66  C   UNL A   1      45.922  25.455  31.071  1.00  0.00     0.029 A 
ATOM     67  C   UNL A   1      45.252  26.526  31.640  1.00  0.00     0.049 A 
ATOM     68  H   UNL A   1      43.385  27.357  31.109  1.00  0.00     0.167 HD
ATOM     69  C   UNL A   1      44.941  28.391  33.244  1.00  0.00     0.074 A 
ATOM     70  C   UNL A   1      45.356  29.207  34.366  1.00  0.00     0.031 C 
ATOM     71  C   UNL A   1      45.655  27.349  32.753  1.00  0.00     0.037 A 
BRANCH  58  72
ATOM     72  C   UNL A   1      42.970  24.485  27.976  1.00  0.00     0.064 A 
ATOM     73  C   UNL A   1      42.587  23.169  28.279  1.00  0.00     0.173 A 
ATOM     74  C   UNL A   1      43.387  24.758  26.663  1.00  0.00     0.173 A 
ATOM     75  F   UNL A   1      42.192  22.851  29.521  1.00  0.00    -0.203 F 
ATOM     76  C   UNL A   1      42.648  22.164  27.317  1.00  0.00     0.198 A 
ATOM     77  C   UNL A   1      43.413  23.758  25.696  1.00  0.00     0.198 A 
ATOM     78  F   UNL A   1      43.760  25.998  26.316  1.00  0.00    -0.203 F 
ATOM     79  F   UNL A   1      42.326  20.905  27.645  1.00  0.00    -0.200 F 
ATOM     80  C   UNL A   1      43.052  22.460  26.024  1.00  0.00     0.200 A 
ATOM     81  F   UNL A   1      43.791  24.050  24.443  1.00  0.00    -0.200 F 
ATOM     82  F   UNL A   1      43.100  21.494  25.097  1.00  0.00    -0.200 F 
ENDBRANCH  58  72
BRANCH  59  83
ATOM     83  C   UNL A   1      42.117  31.908  34.611  1.00  0.00     0.064 A 
ATOM     84  C   UNL A   1      42.463  33.233  34.313  1.00  0.00     0.173 A 
ATOM     85  C   UNL A   1      41.645  31.633  35.903  1.00  0.00     0.173 A 
ATOM     86  F   UNL A   1      42.943  33.543  33.100  1.00  0.00    -0.203 F 
ATOM     87  C   UNL A   1      42.361  34.237  35.274  1.00  0.00     0.198 A 
ATOM     88  C   UNL A   1      41.512  32.643  36.852  1.00  0.00     0.198 A 
ATOM     89  F   UNL A   1      41.301  30.381  36.241  1.00  0.00    -0.203 F 
ATOM     90  F   UNL A   1      42.746  35.486  34.978  1.00  0.00    -0.200 F 
ATOM     91  C   UNL A   1      41.878  33.943  36.540  1.00  0.00     0.200 A 
ATOM     92  F   UNL A   1      41.030  32.355  38.070  1.00  0.00    -0.200 F 
ATOM     93  F   UNL A   1      41.774  34.910  37.462  1.00  0.00    -0.200 F 
ENDBRANCH  59  83
BRANCH  71  94
ATOM     94  C   UNL A   1      46.982  27.053  33.395  1.00  0.00     0.064 A 
ATOM     95  C   UNL A   1      48.144  27.763  33.057  1.00  0.00     0.173 A 
ATOM     96  C   UNL A   1      47.083  26.070  34.392  1.00  0.00     0.173 A 
ATOM     97  F   UNL A   1      48.107  28.703  32.101  1.00  0.00    -0.203 F 
ATOM     98  C   UNL A   1      49.361  27.478  33.672  1.00  0.00     0.198 A 
ATOM     99  C   UNL A   1      48.293  25.814  35.031  1.00  0.00     0.198 A 
ATOM    100  F   UNL A   1      46.001  25.367  34.761  1.00  0.00    -0.203 F 
ATOM    101  F   UNL A   1      50.469  28.132  33.294  1.00  0.00    -0.200 F 
ATOM    102  C   UNL A   1      49.433  26.511  34.664  1.00  0.00     0.200 A 
ATOM    103  F   UNL A   1      48.355  24.892  36.001  1.00  0.00    -0.200 F 
ATOM    104  F   UNL A   1      50.603  26.246  35.260  1.00  0.00    -0.200 F 
ENDBRANCH  71  94
ENDBRANCH  45  46
ENDBRANCH  38  40
ENDBRANCH  37  38
ENDBRANCH  36  37
ENDBRANCH  35  36
ENDBRANCH  34  35
ENDBRANCH  33  34
ENDBRANCH   1  33
TORSDOF 21
ENDMDL
