MODEL 1
REMARK VINA RESULT:     -11.2      0.000      0.000
REMARK SMILES CC(C)c1nc(N2C[C@H](C)OC(C)(C)C2)sc1C(=O)OCCOCCOC(=O)c1ccc(-c2c3nc(c(-c4c(F)c(F)c(F)c(F)c4F)c4ccc([nH]4)c(-c4c(F)c(F)c(F)c(F)c4F)c4nc(c(-c5c(F)c(F)c(F)c(F)c5F)c5ccc2[nH]5)C=C4)C=C3)cc1
REMARK SMILES IDX 24 1 23 2 22 3 21 4 20 5 18 6 19 7 17 8 4 9 5 10 6 11 16 12
REMARK SMILES IDX 2 13 1 14 3 15 7 16 8 17 15 18 9 19 12 20 11 21 10 22 13 23
REMARK SMILES IDX 14 24 25 25 26 26 27 27 28 28 29 29 30 30 91 31 31 32 90 33
REMARK SMILES IDX 32 34 33 35 34 36 84 37 35 38 89 39 83 40 85 41 36 42 88 43
REMARK SMILES IDX 82 44 81 45 37 47 69 48 49 49 68 50 50 51 53 52 67 53 86 54
REMARK SMILES IDX 51 55 52 56 66 58 87 59 54 60 38 61 39 62 47 63 40 64 41 65
REMARK SMILES IDX 45 66 48 67 42 68 43 69 46 70 44 71 70 72 71 73 79 74 72 75
REMARK SMILES IDX 73 76 77 77 80 78 74 79 75 80 78 81 76 82 55 83 56 84 64 85
REMARK SMILES IDX 57 86 58 87 62 88 65 89 59 90 60 91 63 92 61 93
REMARK H PARENT 85 46 53 57
REMARK Flexibility Score: inf
ROOT
ATOM      1  C   UNL A   1      45.194  20.761  24.966  1.00  0.00     0.202 C 
ENDROOT
BRANCH   1   2
ATOM      2  O   UNL A   1      43.770  20.669  24.876  1.00  0.00    -0.374 OA
BRANCH   2   3
ATOM      3  C   UNL A   1      43.186  19.463  25.376  1.00  0.00     0.202 C 
BRANCH   3   4
ATOM      4  C   UNL A   1      41.931  19.726  26.209  1.00  0.00     0.261 C 
BRANCH   4   5
ATOM      5  O   UNL A   1      41.497  21.067  25.928  1.00  0.00    -0.459 OA
BRANCH   5   6
ATOM      6  C   UNL A   1      40.831  21.721  26.907  1.00  0.00     0.350 C 
ATOM      7  O   UNL A   1      41.323  22.008  27.992  1.00  0.00    -0.245 OA
BRANCH   6   8
ATOM      8  C   UNL A   1      39.536  22.145  26.423  1.00  0.00     0.137 A 
ATOM      9  C   UNL A   1      38.813  23.337  26.427  1.00  0.00     0.071 A 
ATOM     10  N   UNL A   1      37.570  23.227  25.797  1.00  0.00    -0.224 NA
ATOM     11  C   UNL A   1      37.323  22.011  25.387  1.00  0.00     0.186 A 
ATOM     12  S   UNL A   1      38.567  20.892  25.720  1.00  0.00    -0.089 S 
BRANCH   9  13
ATOM     13  C   UNL A   1      39.094  24.753  26.894  1.00  0.00     0.034 C 
ATOM     14  C   UNL A   1      39.283  25.009  28.380  1.00  0.00     0.014 C 
ATOM     15  C   UNL A   1      40.270  25.352  26.113  1.00  0.00     0.014 C 
ENDBRANCH   9  13
BRANCH  11  16
ATOM     16  N   UNL A   1      36.210  21.682  24.703  1.00  0.00    -0.343 N 
ATOM     17  C   UNL A   1      35.597  20.367  24.777  1.00  0.00     0.150 C 
ATOM     18  C   UNL A   1      35.707  22.575  23.667  1.00  0.00     0.153 C 
ATOM     19  C   UNL A   1      34.068  20.547  24.890  1.00  0.00     0.135 C 
ATOM     20  C   UNL A   1      34.161  22.666  23.728  1.00  0.00     0.081 C 
ATOM     21  O   UNL A   1      33.552  21.356  23.814  1.00  0.00    -0.369 OA
ATOM     22  C   UNL A   1      33.354  19.205  24.835  1.00  0.00     0.040 C 
ATOM     23  C   UNL A   1      33.704  23.558  24.892  1.00  0.00     0.044 C 
ATOM     24  C   UNL A   1      33.650  23.275  22.414  1.00  0.00     0.044 C 
ENDBRANCH  11  16
ENDBRANCH   6   8
ENDBRANCH   5   6
ENDBRANCH   4   5
ENDBRANCH   3   4
ENDBRANCH   2   3
ENDBRANCH   1   2
BRANCH   1  25
ATOM     25  C   UNL A   1      45.683  22.123  25.464  1.00  0.00     0.261 C 
BRANCH  25  26
ATOM     26  O   UNL A   1      44.603  23.076  25.470  1.00  0.00    -0.460 OA
BRANCH  26  27
ATOM     27  C   UNL A   1      44.984  24.375  25.457  1.00  0.00     0.338 C 
ATOM     28  O   UNL A   1      45.789  24.902  24.709  1.00  0.00    -0.246 OA
BRANCH  27  29
ATOM     29  C   UNL A   1      44.165  25.147  26.416  1.00  0.00     0.060 A 
ATOM     30  C   UNL A   1      44.317  26.539  26.418  1.00  0.00     0.016 A 
ATOM     31  C   UNL A   1      43.301  24.530  27.326  1.00  0.00     0.016 A 
ATOM     32  C   UNL A   1      43.646  27.313  27.362  1.00  0.00     0.010 A 
ATOM     33  C   UNL A   1      42.630  25.308  28.275  1.00  0.00     0.010 A 
ATOM     34  C   UNL A   1      42.826  26.700  28.318  1.00  0.00    -0.014 A 
BRANCH  34  35
ATOM     35  C   UNL A   1      42.284  27.505  29.439  1.00  0.00     0.031 A 
ATOM     36  C   UNL A   1      42.991  27.480  30.764  1.00  0.00     0.074 A 
ATOM     37  C   UNL A   1      41.197  28.276  29.266  1.00  0.00     0.049 A 
ATOM     38  N   UNL A   1      42.696  28.109  31.874  1.00  0.00    -0.248 NA
ATOM     39  C   UNL A   1      44.191  26.634  30.853  1.00  0.00     0.031 C 
ATOM     40  C   UNL A   1      40.443  28.407  28.022  1.00  0.00     0.029 A 
ATOM     41  N   UNL A   1      40.539  29.095  30.149  1.00  0.00    -0.354 N 
ATOM     42  C   UNL A   1      43.672  27.736  32.789  1.00  0.00     0.074 A 
ATOM     43  C   UNL A   1      44.552  26.806  32.116  1.00  0.00     0.031 C 
ATOM     44  C   UNL A   1      39.418  29.253  28.221  1.00  0.00     0.029 A 
ATOM     45  C   UNL A   1      39.433  29.706  29.612  1.00  0.00     0.049 A 
ATOM     46  H   UNL A   1      40.831  29.231  31.079  1.00  0.00     0.167 HD
ATOM     47  C   UNL A   1      43.825  28.141  34.071  1.00  0.00     0.037 A 
ATOM     48  C   UNL A   1      38.531  30.526  30.185  1.00  0.00     0.037 A 
ATOM     49  C   UNL A   1      42.956  29.071  34.741  1.00  0.00     0.049 A 
ATOM     50  C   UNL A   1      38.693  30.914  31.631  1.00  0.00     0.074 A 
ATOM     51  C   UNL A   1      43.050  29.564  36.031  1.00  0.00     0.029 A 
ATOM     52  N   UNL A   1      41.828  29.644  34.174  1.00  0.00    -0.354 N 
ATOM     53  N   UNL A   1      39.638  30.585  32.476  1.00  0.00    -0.248 NA
ATOM     54  C   UNL A   1      37.657  31.790  32.201  1.00  0.00     0.031 C 
ATOM     55  C   UNL A   1      41.956  30.407  36.258  1.00  0.00     0.029 A 
ATOM     56  C   UNL A   1      41.203  30.466  35.097  1.00  0.00     0.049 A 
ATOM     57  H   UNL A   1      41.518  29.488  33.253  1.00  0.00     0.167 HD
ATOM     58  C   UNL A   1      39.330  31.234  33.665  1.00  0.00     0.074 A 
ATOM     59  C   UNL A   1      38.113  31.982  33.431  1.00  0.00     0.031 C 
ATOM     60  C   UNL A   1      39.997  31.211  34.845  1.00  0.00     0.037 A 
BRANCH  47  61
ATOM     61  C   UNL A   1      44.973  27.568  34.844  1.00  0.00     0.064 A 
ATOM     62  C   UNL A   1      44.847  26.375  35.569  1.00  0.00     0.173 A 
ATOM     63  C   UNL A   1      46.227  28.198  34.822  1.00  0.00     0.173 A 
ATOM     64  F   UNL A   1      43.664  25.745  35.631  1.00  0.00    -0.203 F 
ATOM     65  C   UNL A   1      45.932  25.840  36.258  1.00  0.00     0.198 A 
ATOM     66  C   UNL A   1      47.315  27.649  35.496  1.00  0.00     0.198 A 
ATOM     67  F   UNL A   1      46.397  29.340  34.141  1.00  0.00    -0.203 F 
ATOM     68  F   UNL A   1      45.781  24.716  36.972  1.00  0.00    -0.200 F 
ATOM     69  C   UNL A   1      47.165  26.473  36.216  1.00  0.00     0.200 A 
ATOM     70  F   UNL A   1      48.508  28.258  35.448  1.00  0.00    -0.200 F 
ATOM     71  F   UNL A   1      48.209  25.953  36.875  1.00  0.00    -0.200 F 
ENDBRANCH  47  61
BRANCH  48  72
ATOM     72  C   UNL A   1      37.384  31.036  29.392  1.00  0.00     0.064 A 
ATOM     73  C   UNL A   1      37.336  32.370  28.968  1.00  0.00     0.173 A 
ATOM     74  C   UNL A   1      36.304  30.204  29.062  1.00  0.00     0.173 A 
ATOM     75  F   UNL A   1      38.334  33.209  29.283  1.00  0.00    -0.203 F 
ATOM     76  C   UNL A   1      36.241  32.860  28.258  1.00  0.00     0.198 A 
ATOM     77  C   UNL A   1      35.221  30.689  28.333  1.00  0.00     0.198 A 
ATOM     78  F   UNL A   1      36.303  28.920  29.448  1.00  0.00    -0.203 F 
ATOM     79  F   UNL A   1      36.200  34.151  27.903  1.00  0.00    -0.200 F 
ATOM     80  C   UNL A   1      35.187  32.018  27.937  1.00  0.00     0.200 A 
ATOM     81  F   UNL A   1      34.208  29.870  28.018  1.00  0.00    -0.200 F 
ATOM     82  F   UNL A   1      34.134  32.489  27.256  1.00  0.00    -0.200 F 
ENDBRANCH  48  72
BRANCH  60  83
ATOM     83  C   UNL A   1      39.445  32.043  35.964  1.00  0.00     0.064 A 
ATOM     84  C   UNL A   1      39.885  33.356  36.185  1.00  0.00     0.173 A 
ATOM     85  C   UNL A   1      38.435  31.537  36.795  1.00  0.00     0.173 A 
ATOM     86  F   UNL A   1      40.860  33.878  35.427  1.00  0.00    -0.203 F 
ATOM     87  C   UNL A   1      39.344  34.127  37.211  1.00  0.00     0.198 A 
ATOM     88  C   UNL A   1      37.880  32.319  37.804  1.00  0.00     0.198 A 
ATOM     89  F   UNL A   1      37.977  30.289  36.619  1.00  0.00    -0.203 F 
ATOM     90  F   UNL A   1      39.804  35.367  37.429  1.00  0.00    -0.200 F 
ATOM     91  C   UNL A   1      38.339  33.610  38.015  1.00  0.00     0.200 A 
ATOM     92  F   UNL A   1      36.901  31.822  38.573  1.00  0.00    -0.200 F 
ATOM     93  F   UNL A   1      37.815  34.355  38.998  1.00  0.00    -0.200 F 
ENDBRANCH  60  83
ENDBRANCH  34  35
ENDBRANCH  27  29
ENDBRANCH  26  27
ENDBRANCH  25  26
ENDBRANCH   1  25
TORSDOF 16
ENDMDL
MODEL 2
REMARK VINA RESULT:     -11.1      0.945      2.102
REMARK SMILES CC(C)c1nc(N2C[C@H](C)OC(C)(C)C2)sc1C(=O)OCCOCCOC(=O)c1ccc(-c2c3nc(c(-c4c(F)c(F)c(F)c(F)c4F)c4ccc([nH]4)c(-c4c(F)c(F)c(F)c(F)c4F)c4nc(c(-c5c(F)c(F)c(F)c(F)c5F)c5ccc2[nH]5)C=C4)C=C3)cc1
REMARK SMILES IDX 24 1 23 2 22 3 21 4 20 5 18 6 19 7 17 8 4 9 5 10 6 11 16 12
REMARK SMILES IDX 2 13 1 14 3 15 7 16 8 17 15 18 9 19 12 20 11 21 10 22 13 23
REMARK SMILES IDX 14 24 25 25 26 26 27 27 28 28 29 29 30 30 91 31 31 32 90 33
REMARK SMILES IDX 32 34 33 35 34 36 84 37 35 38 89 39 83 40 85 41 36 42 88 43
REMARK SMILES IDX 82 44 81 45 37 47 69 48 49 49 68 50 50 51 53 52 67 53 86 54
REMARK SMILES IDX 51 55 52 56 66 58 87 59 54 60 38 61 39 62 47 63 40 64 41 65
REMARK SMILES IDX 45 66 48 67 42 68 43 69 46 70 44 71 70 72 71 73 79 74 72 75
REMARK SMILES IDX 73 76 77 77 80 78 74 79 75 80 78 81 76 82 55 83 56 84 64 85
REMARK SMILES IDX 57 86 58 87 62 88 65 89 59 90 60 91 63 92 61 93
REMARK H PARENT 85 46 53 57
REMARK Flexibility Score: inf
ROOT
ATOM      1  C   UNL A   1      44.510  22.995  24.212  1.00  0.00     0.202 C 
ENDROOT
BRANCH   1   2
ATOM      2  O   UNL A   1      43.908  21.700  24.247  1.00  0.00    -0.374 OA
BRANCH   2   3
ATOM      3  C   UNL A   1      43.809  21.089  25.537  1.00  0.00     0.202 C 
BRANCH   3   4
ATOM      4  C   UNL A   1      42.769  21.770  26.427  1.00  0.00     0.261 C 
BRANCH   4   5
ATOM      5  O   UNL A   1      41.550  21.868  25.672  1.00  0.00    -0.459 OA
BRANCH   5   6
ATOM      6  C   UNL A   1      40.451  21.275  26.189  1.00  0.00     0.350 C 
ATOM      7  O   UNL A   1      40.453  20.157  26.692  1.00  0.00    -0.245 OA
BRANCH   6   8
ATOM      8  C   UNL A   1      39.342  22.203  26.187  1.00  0.00     0.137 A 
ATOM      9  C   UNL A   1      39.159  23.536  26.552  1.00  0.00     0.071 A 
ATOM     10  N   UNL A   1      37.854  23.989  26.336  1.00  0.00    -0.224 NA
ATOM     11  C   UNL A   1      37.065  23.047  25.889  1.00  0.00     0.186 A 
ATOM     12  S   UNL A   1      37.824  21.533  25.686  1.00  0.00    -0.089 S 
BRANCH   9  13
ATOM     13  C   UNL A   1      40.068  24.636  27.065  1.00  0.00     0.034 C 
ATOM     14  C   UNL A   1      40.638  25.636  26.072  1.00  0.00     0.014 C 
ATOM     15  C   UNL A   1      39.404  25.384  28.227  1.00  0.00     0.014 C 
ENDBRANCH   9  13
BRANCH  11  16
ATOM     16  N   UNL A   1      35.779  23.269  25.556  1.00  0.00    -0.343 N 
ATOM     17  C   UNL A   1      35.381  23.851  24.286  1.00  0.00     0.150 C 
ATOM     18  C   UNL A   1      34.738  23.150  26.569  1.00  0.00     0.153 C 
ATOM     19  C   UNL A   1      34.167  23.064  23.748  1.00  0.00     0.135 C 
ATOM     20  C   UNL A   1      33.486  22.448  25.985  1.00  0.00     0.081 C 
ATOM     21  O   UNL A   1      33.097  23.020  24.713  1.00  0.00    -0.369 OA
ATOM     22  C   UNL A   1      33.615  23.706  22.484  1.00  0.00     0.040 C 
ATOM     23  C   UNL A   1      33.708  20.933  25.857  1.00  0.00     0.044 C 
ATOM     24  C   UNL A   1      32.298  22.691  26.928  1.00  0.00     0.044 C 
ENDBRANCH  11  16
ENDBRANCH   6   8
ENDBRANCH   5   6
ENDBRANCH   4   5
ENDBRANCH   3   4
ENDBRANCH   2   3
ENDBRANCH   1   2
BRANCH   1  25
ATOM     25  C   UNL A   1      45.936  23.015  24.769  1.00  0.00     0.261 C 
BRANCH  25  26
ATOM     26  O   UNL A   1      46.035  23.933  25.874  1.00  0.00    -0.460 OA
BRANCH  26  27
ATOM     27  C   UNL A   1      45.918  25.241  25.544  1.00  0.00     0.338 C 
ATOM     28  O   UNL A   1      46.383  25.802  24.567  1.00  0.00    -0.246 OA
BRANCH  27  29
ATOM     29  C   UNL A   1      44.995  25.913  26.484  1.00  0.00     0.060 A 
ATOM     30  C   UNL A   1      45.031  27.312  26.531  1.00  0.00     0.016 A 
ATOM     31  C   UNL A   1      44.148  25.200  27.337  1.00  0.00     0.016 A 
ATOM     32  C   UNL A   1      44.256  28.000  27.462  1.00  0.00     0.010 A 
ATOM     33  C   UNL A   1      43.374  25.892  28.275  1.00  0.00     0.010 A 
ATOM     34  C   UNL A   1      43.450  27.293  28.363  1.00  0.00    -0.014 A 
BRANCH  34  35
ATOM     35  C   UNL A   1      42.794  28.016  29.479  1.00  0.00     0.031 A 
ATOM     36  C   UNL A   1      43.486  28.085  30.811  1.00  0.00     0.074 A 
ATOM     37  C   UNL A   1      41.615  28.635  29.296  1.00  0.00     0.049 A 
ATOM     38  N   UNL A   1      43.099  28.667  31.918  1.00  0.00    -0.248 NA
ATOM     39  C   UNL A   1      44.788  27.407  30.911  1.00  0.00     0.031 C 
ATOM     40  C   UNL A   1      40.862  28.665  28.045  1.00  0.00     0.029 A 
ATOM     41  N   UNL A   1      40.845  29.357  30.173  1.00  0.00    -0.354 N 
ATOM     42  C   UNL A   1      44.107  28.427  32.843  1.00  0.00     0.074 A 
ATOM     43  C   UNL A   1      45.110  27.624  32.178  1.00  0.00     0.031 C 
ATOM     44  C   UNL A   1      39.731  29.366  28.234  1.00  0.00     0.029 A 
ATOM     45  C   UNL A   1      39.672  29.815  29.625  1.00  0.00     0.049 A 
ATOM     46  H   UNL A   1      41.108  29.530  31.106  1.00  0.00     0.167 HD
ATOM     47  C   UNL A   1      44.192  28.847  34.126  1.00  0.00     0.037 A 
ATOM     48  C   UNL A   1      38.663  30.506  30.189  1.00  0.00     0.037 A 
ATOM     49  C   UNL A   1      43.200  29.651  34.788  1.00  0.00     0.049 A 
ATOM     50  C   UNL A   1      38.757  30.910  31.637  1.00  0.00     0.074 A 
ATOM     51  C   UNL A   1      43.214  30.150  36.079  1.00  0.00     0.029 A 
ATOM     52  N   UNL A   1      42.011  30.068  34.210  1.00  0.00    -0.354 N 
ATOM     53  N   UNL A   1      39.731  30.710  32.491  1.00  0.00    -0.248 NA
ATOM     54  C   UNL A   1      37.609  31.639  32.198  1.00  0.00     0.031 C 
ATOM     55  C   UNL A   1      42.015  30.838  36.295  1.00  0.00     0.029 A 
ATOM     56  C   UNL A   1      41.272  30.798  35.127  1.00  0.00     0.049 A 
ATOM     57  H   UNL A   1      41.733  29.873  33.286  1.00  0.00     0.167 HD
ATOM     58  C   UNL A   1      39.327  31.309  33.677  1.00  0.00     0.074 A 
ATOM     59  C   UNL A   1      38.023  31.888  33.432  1.00  0.00     0.031 C 
ATOM     60  C   UNL A   1      39.979  31.375  34.864  1.00  0.00     0.037 A 
BRANCH  47  61
ATOM     61  C   UNL A   1      45.399  28.432  34.910  1.00  0.00     0.064 A 
ATOM     62  C   UNL A   1      45.423  27.237  35.643  1.00  0.00     0.173 A 
ATOM     63  C   UNL A   1      46.561  29.218  34.890  1.00  0.00     0.173 A 
ATOM     64  F   UNL A   1      44.331  26.460  35.702  1.00  0.00    -0.203 F 
ATOM     65  C   UNL A   1      46.563  26.851  36.343  1.00  0.00     0.198 A 
ATOM     66  C   UNL A   1      47.706  28.819  35.575  1.00  0.00     0.198 A 
ATOM     67  F   UNL A   1      46.588  30.368  34.202  1.00  0.00    -0.203 F 
ATOM     68  F   UNL A   1      46.554  25.721  37.064  1.00  0.00    -0.200 F 
ATOM     69  C   UNL A   1      47.704  27.638  36.303  1.00  0.00     0.200 A 
ATOM     70  F   UNL A   1      48.811  29.576  35.529  1.00  0.00    -0.200 F 
ATOM     71  F   UNL A   1      48.803  27.261  36.972  1.00  0.00    -0.200 F 
ENDBRANCH  47  61
BRANCH  48  72
ATOM     72  C   UNL A   1      37.466  30.858  29.385  1.00  0.00     0.064 A 
ATOM     73  C   UNL A   1      36.481  29.903  29.101  1.00  0.00     0.173 A 
ATOM     74  C   UNL A   1      37.295  32.150  28.867  1.00  0.00     0.173 A 
ATOM     75  F   UNL A   1      36.616  28.647  29.553  1.00  0.00    -0.203 F 
ATOM     76  C   UNL A   1      35.377  30.222  28.313  1.00  0.00     0.198 A 
ATOM     77  C   UNL A   1      36.179  32.474  28.099  1.00  0.00     0.198 A 
ATOM     78  F   UNL A   1      38.211  33.098  29.110  1.00  0.00    -0.203 F 
ATOM     79  F   UNL A   1      34.472  29.279  28.018  1.00  0.00    -0.200 F 
ATOM     80  C   UNL A   1      35.225  31.508  27.817  1.00  0.00     0.200 A 
ATOM     81  F   UNL A   1      36.031  33.719  27.628  1.00  0.00    -0.200 F 
ATOM     82  F   UNL A   1      34.164  31.814  27.057  1.00  0.00    -0.200 F 
ENDBRANCH  48  72
BRANCH  60  83
ATOM     83  C   UNL A   1      39.311  32.123  35.977  1.00  0.00     0.064 A 
ATOM     84  C   UNL A   1      38.393  31.497  36.834  1.00  0.00     0.173 A 
ATOM     85  C   UNL A   1      39.625  33.469  36.218  1.00  0.00     0.173 A 
ATOM     86  F   UNL A   1      38.050  30.216  36.633  1.00  0.00    -0.203 F 
ATOM     87  C   UNL A   1      37.800  32.197  37.881  1.00  0.00     0.198 A 
ATOM     88  C   UNL A   1      39.048  34.159  37.281  1.00  0.00     0.198 A 
ATOM     89  F   UNL A   1      40.501  34.110  35.431  1.00  0.00    -0.203 F 
ATOM     90  F   UNL A   1      36.898  31.590  38.665  1.00  0.00    -0.200 F 
ATOM     91  C   UNL A   1      38.133  33.525  38.107  1.00  0.00     0.200 A 
ATOM     92  F   UNL A   1      39.378  35.438  37.505  1.00  0.00    -0.200 F 
ATOM     93  F   UNL A   1      37.566  34.196  39.119  1.00  0.00    -0.200 F 
ENDBRANCH  60  83
ENDBRANCH  34  35
ENDBRANCH  27  29
ENDBRANCH  26  27
ENDBRANCH  25  26
ENDBRANCH   1  25
TORSDOF 16
ENDMDL
MODEL 3
REMARK VINA RESULT:     -11.1      3.558      9.096
REMARK SMILES CC(C)c1nc(N2C[C@H](C)OC(C)(C)C2)sc1C(=O)OCCOCCOC(=O)c1ccc(-c2c3nc(c(-c4c(F)c(F)c(F)c(F)c4F)c4ccc([nH]4)c(-c4c(F)c(F)c(F)c(F)c4F)c4nc(c(-c5c(F)c(F)c(F)c(F)c5F)c5ccc2[nH]5)C=C4)C=C3)cc1
REMARK SMILES IDX 24 1 23 2 22 3 21 4 20 5 18 6 19 7 17 8 4 9 5 10 6 11 16 12
REMARK SMILES IDX 2 13 1 14 3 15 7 16 8 17 15 18 9 19 12 20 11 21 10 22 13 23
REMARK SMILES IDX 14 24 25 25 26 26 27 27 28 28 29 29 30 30 91 31 31 32 90 33
REMARK SMILES IDX 32 34 33 35 34 36 84 37 35 38 89 39 83 40 85 41 36 42 88 43
REMARK SMILES IDX 82 44 81 45 37 47 69 48 49 49 68 50 50 51 53 52 67 53 86 54
REMARK SMILES IDX 51 55 52 56 66 58 87 59 54 60 38 61 39 62 47 63 40 64 41 65
REMARK SMILES IDX 45 66 48 67 42 68 43 69 46 70 44 71 70 72 71 73 79 74 72 75
REMARK SMILES IDX 73 76 77 77 80 78 74 79 75 80 78 81 76 82 55 83 56 84 64 85
REMARK SMILES IDX 57 86 58 87 62 88 65 89 59 90 60 91 63 92 61 93
REMARK H PARENT 85 46 53 57
REMARK Flexibility Score: inf
ROOT
ATOM      1  C   UNL A   1      31.414  31.821  26.545  1.00  0.00     0.202 C 
ENDROOT
BRANCH   1   2
ATOM      2  O   UNL A   1      32.409  30.799  26.638  1.00  0.00    -0.374 OA
BRANCH   2   3
ATOM      3  C   UNL A   1      32.252  29.687  25.751  1.00  0.00     0.202 C 
BRANCH   3   4
ATOM      4  C   UNL A   1      31.829  28.413  26.483  1.00  0.00     0.261 C 
BRANCH   4   5
ATOM      5  O   UNL A   1      31.143  27.577  25.537  1.00  0.00    -0.459 OA
BRANCH   5   6
ATOM      6  C   UNL A   1      30.907  26.295  25.898  1.00  0.00     0.350 C 
ATOM      7  O   UNL A   1      29.905  25.932  26.504  1.00  0.00    -0.245 OA
BRANCH   6   8
ATOM      8  C   UNL A   1      31.923  25.430  25.341  1.00  0.00     0.137 A 
ATOM      9  C   UNL A   1      32.625  25.365  24.138  1.00  0.00     0.071 A 
ATOM     10  N   UNL A   1      33.541  24.310  24.095  1.00  0.00    -0.224 NA
ATOM     11  C   UNL A   1      33.504  23.570  25.172  1.00  0.00     0.186 A 
ATOM     12  S   UNL A   1      32.366  24.082  26.335  1.00  0.00    -0.089 S 
BRANCH   9  13
ATOM     13  C   UNL A   1      32.678  26.221  22.887  1.00  0.00     0.034 C 
ATOM     14  C   UNL A   1      31.374  26.702  22.274  1.00  0.00     0.014 C 
ATOM     15  C   UNL A   1      33.623  27.412  23.092  1.00  0.00     0.014 C 
ENDBRANCH   9  13
BRANCH  11  16
ATOM     16  N   UNL A   1      34.338  22.533  25.374  1.00  0.00    -0.343 N 
ATOM     17  C   UNL A   1      33.883  21.155  25.442  1.00  0.00     0.150 C 
ATOM     18  C   UNL A   1      35.717  22.779  25.774  1.00  0.00     0.153 C 
ATOM     19  C   UNL A   1      34.863  20.277  24.634  1.00  0.00     0.135 C 
ATOM     20  C   UNL A   1      36.682  21.821  25.030  1.00  0.00     0.081 C 
ATOM     21  O   UNL A   1      36.220  20.450  25.087  1.00  0.00    -0.369 OA
ATOM     22  C   UNL A   1      34.519  18.801  24.775  1.00  0.00     0.040 C 
ATOM     23  C   UNL A   1      36.893  22.265  23.575  1.00  0.00     0.044 C 
ATOM     24  C   UNL A   1      38.039  21.830  25.748  1.00  0.00     0.044 C 
ENDBRANCH  11  16
ENDBRANCH   6   8
ENDBRANCH   5   6
ENDBRANCH   4   5
ENDBRANCH   3   4
ENDBRANCH   2   3
ENDBRANCH   1   2
BRANCH   1  25
ATOM     25  C   UNL A   1      31.956  33.222  26.844  1.00  0.00     0.261 C 
BRANCH  25  26
ATOM     26  O   UNL A   1      32.703  33.222  28.075  1.00  0.00    -0.460 OA
BRANCH  26  27
ATOM     27  C   UNL A   1      33.801  34.013  28.079  1.00  0.00     0.338 C 
ATOM     28  O   UNL A   1      33.845  35.219  27.906  1.00  0.00    -0.246 OA
BRANCH  27  29
ATOM     29  C   UNL A   1      34.986  33.223  28.477  1.00  0.00     0.060 A 
ATOM     30  C   UNL A   1      34.759  31.953  29.022  1.00  0.00     0.016 A 
ATOM     31  C   UNL A   1      36.287  33.722  28.367  1.00  0.00     0.016 A 
ATOM     32  C   UNL A   1      35.827  31.199  29.505  1.00  0.00     0.010 A 
ATOM     33  C   UNL A   1      37.358  32.965  28.856  1.00  0.00     0.010 A 
ATOM     34  C   UNL A   1      37.128  31.715  29.456  1.00  0.00    -0.014 A 
BRANCH  34  35
ATOM     35  C   UNL A   1      38.223  31.000  30.155  1.00  0.00     0.031 A 
ATOM     36  C   UNL A   1      38.482  31.299  31.605  1.00  0.00     0.074 A 
ATOM     37  C   UNL A   1      38.952  30.070  29.515  1.00  0.00     0.049 A 
ATOM     38  N   UNL A   1      39.380  30.790  32.410  1.00  0.00    -0.248 NA
ATOM     39  C   UNL A   1      37.614  32.308  32.232  1.00  0.00     0.031 C 
ATOM     40  C   UNL A   1      38.777  29.670  28.122  1.00  0.00     0.029 A 
ATOM     41  N   UNL A   1      39.992  29.293  29.963  1.00  0.00    -0.354 N 
ATOM     42  C   UNL A   1      39.184  31.414  33.635  1.00  0.00     0.074 A 
ATOM     43  C   UNL A   1      38.102  32.358  33.463  1.00  0.00     0.031 C 
ATOM     44  C   UNL A   1      39.684  28.724  27.823  1.00  0.00     0.029 A 
ATOM     45  C   UNL A   1      40.516  28.469  28.999  1.00  0.00     0.049 A 
ATOM     46  H   UNL A   1      40.329  29.324  30.887  1.00  0.00     0.167 HD
ATOM     47  C   UNL A   1      39.841  31.209  34.801  1.00  0.00     0.037 A 
ATOM     48  C   UNL A   1      41.556  27.615  29.059  1.00  0.00     0.037 A 
ATOM     49  C   UNL A   1      40.913  30.265  34.977  1.00  0.00     0.049 A 
ATOM     50  C   UNL A   1      42.308  27.450  30.353  1.00  0.00     0.074 A 
ATOM     51  C   UNL A   1      41.619  29.967  36.129  1.00  0.00     0.029 A 
ATOM     52  N   UNL A   1      41.437  29.472  33.968  1.00  0.00    -0.354 N 
ATOM     53  N   UNL A   1      42.092  28.017  31.514  1.00  0.00    -0.248 NA
ATOM     54  C   UNL A   1      43.450  26.524  30.342  1.00  0.00     0.031 C 
ATOM     55  C   UNL A   1      42.597  29.019  35.809  1.00  0.00     0.029 A 
ATOM     56  C   UNL A   1      42.475  28.701  34.467  1.00  0.00     0.049 A 
ATOM     57  H   UNL A   1      41.119  29.458  33.037  1.00  0.00     0.167 HD
ATOM     58  C   UNL A   1      43.048  27.497  32.377  1.00  0.00     0.074 A 
ATOM     59  C   UNL A   1      43.843  26.564  31.608  1.00  0.00     0.031 C 
ATOM     60  C   UNL A   1      43.250  27.770  33.690  1.00  0.00     0.037 A 
BRANCH  47  61
ATOM     61  C   UNL A   1      39.428  32.033  35.980  1.00  0.00     0.064 A 
ATOM     62  C   UNL A   1      40.029  33.269  36.259  1.00  0.00     0.173 A 
ATOM     63  C   UNL A   1      38.387  31.602  36.817  1.00  0.00     0.173 A 
ATOM     64  F   UNL A   1      41.037  33.716  35.495  1.00  0.00    -0.203 F 
ATOM     65  C   UNL A   1      39.612  34.037  37.343  1.00  0.00     0.198 A 
ATOM     66  C   UNL A   1      37.961  32.382  37.888  1.00  0.00     0.198 A 
ATOM     67  F   UNL A   1      37.781  30.428  36.590  1.00  0.00    -0.203 F 
ATOM     68  F   UNL A   1      40.222  35.201  37.610  1.00  0.00    -0.200 F 
ATOM     69  C   UNL A   1      38.576  33.597  38.152  1.00  0.00     0.200 A 
ATOM     70  F   UNL A   1      36.954  31.959  38.665  1.00  0.00    -0.200 F 
ATOM     71  F   UNL A   1      38.173  34.341  39.191  1.00  0.00    -0.200 F 
ENDBRANCH  47  61
BRANCH  48  72
ATOM     72  C   UNL A   1      41.958  26.851  27.851  1.00  0.00     0.064 A 
ATOM     73  C   UNL A   1      41.401  25.595  27.574  1.00  0.00     0.173 A 
ATOM     74  C   UNL A   1      42.922  27.350  26.964  1.00  0.00     0.173 A 
ATOM     75  F   UNL A   1      40.494  25.066  28.409  1.00  0.00    -0.203 F 
ATOM     76  C   UNL A   1      41.807  24.859  26.463  1.00  0.00     0.198 A 
ATOM     77  C   UNL A   1      43.311  26.623  25.841  1.00  0.00     0.198 A 
ATOM     78  F   UNL A   1      43.486  28.545  27.189  1.00  0.00    -0.203 F 
ATOM     79  F   UNL A   1      41.292  23.641  26.245  1.00  0.00    -0.200 F 
ATOM     80  C   UNL A   1      42.758  25.375  25.596  1.00  0.00     0.200 A 
ATOM     81  F   UNL A   1      44.224  27.128  25.001  1.00  0.00    -0.200 F 
ATOM     82  F   UNL A   1      43.149  24.666  24.528  1.00  0.00    -0.200 F 
ENDBRANCH  48  72
BRANCH  60  83
ATOM     83  C   UNL A   1      44.350  27.027  34.386  1.00  0.00     0.064 A 
ATOM     84  C   UNL A   1      44.137  25.759  34.947  1.00  0.00     0.173 A 
ATOM     85  C   UNL A   1      45.642  27.569  34.454  1.00  0.00     0.173 A 
ATOM     86  F   UNL A   1      42.915  25.207  34.921  1.00  0.00    -0.203 F 
ATOM     87  C   UNL A   1      45.174  25.068  35.567  1.00  0.00     0.198 A 
ATOM     88  C   UNL A   1      46.682  26.865  35.054  1.00  0.00     0.198 A 
ATOM     89  F   UNL A   1      45.897  28.775  33.927  1.00  0.00    -0.203 F 
ATOM     90  F   UNL A   1      44.940  23.874  36.130  1.00  0.00    -0.200 F 
ATOM     91  C   UNL A   1      46.447  25.619  35.615  1.00  0.00     0.200 A 
ATOM     92  F   UNL A   1      47.913  27.393  35.089  1.00  0.00    -0.200 F 
ATOM     93  F   UNL A   1      47.446  24.950  36.207  1.00  0.00    -0.200 F 
ENDBRANCH  60  83
ENDBRANCH  34  35
ENDBRANCH  27  29
ENDBRANCH  26  27
ENDBRANCH  25  26
ENDBRANCH   1  25
TORSDOF 16
ENDMDL
