MODEL 1
REMARK VINA RESULT:     -11.3      0.000      0.000
REMARK SMILES Cc1cc(C(=O)N2CCC[C@@H]2C(C)C)sc1/C=C/C(=O)OCCOCCOC(=O)c1ccc(-c2c3nc(c(-c4c(F)c(F)c(F)c(F)c4F)c4ccc([nH]4)c(-c4c(F)c(F)c(F)c(F)c4F)c4nc(c(-c5c(F)c(F)c(F)c(F)c5F)c5ccc2[nH]5)C=C4)C=C3)cc1
REMARK SMILES IDX 23 1 22 2 21 3 19 4 20 5 18 6 17 7 16 8 1 9 2 10 3 11 4 12
REMARK SMILES IDX 15 13 5 14 6 15 7 16 8 17 11 18 9 19 10 20 12 21 13 22 14 23
REMARK SMILES IDX 24 24 25 25 26 26 27 27 28 28 29 29 30 30 31 31 92 32 32 33
REMARK SMILES IDX 91 34 33 35 34 36 35 37 85 38 36 39 90 40 84 41 86 42 37 43
REMARK SMILES IDX 89 44 83 45 82 46 38 48 70 49 50 50 69 51 51 52 54 53 68 54
REMARK SMILES IDX 87 55 52 56 53 57 67 59 88 60 55 61 39 62 40 63 48 64 41 65
REMARK SMILES IDX 42 66 46 67 49 68 43 69 44 70 47 71 45 72 71 73 72 74 80 75
REMARK SMILES IDX 73 76 74 77 78 78 81 79 75 80 76 81 79 82 77 83 56 84 57 85
REMARK SMILES IDX 65 86 58 87 59 88 63 89 66 90 60 91 61 92 64 93 62 94
REMARK H PARENT 86 47 54 58
REMARK Flexibility Score: inf
ROOT
ATOM      1  C   UNL A   1      41.920  20.624  26.130  1.00  0.00     0.202 C 
ENDROOT
BRANCH   1   2
ATOM      2  C   UNL A   1      40.509  20.742  26.710  1.00  0.00     0.261 C 
BRANCH   2   3
ATOM      3  O   UNL A   1      39.626  21.405  25.790  1.00  0.00    -0.460 OA
BRANCH   3   4
ATOM      4  C   UNL A   1      38.926  22.437  26.314  1.00  0.00     0.330 C 
ATOM      5  O   UNL A   1      39.275  23.159  27.236  1.00  0.00    -0.247 OA
BRANCH   4   6
ATOM      6  C   UNL A   1      37.669  22.692  25.587  1.00  0.00     0.095 C 
ATOM      7  C   UNL A   1      36.631  21.848  25.449  1.00  0.00     0.027 C 
BRANCH   7   8
ATOM      8  C   UNL A   1      35.461  22.188  24.686  1.00  0.00     0.031 A 
ATOM      9  C   UNL A   1      33.947  20.139  25.104  1.00  0.00     0.046 C 
ATOM     10  C   UNL A   1      34.284  21.465  24.496  1.00  0.00    -0.032 A 
ATOM     11  C   UNL A   1      33.344  22.181  23.668  1.00  0.00     0.029 A 
ATOM     12  C   UNL A   1      33.798  23.419  23.258  1.00  0.00     0.093 A 
ATOM     13  S   UNL A   1      35.383  23.673  23.817  1.00  0.00    -0.130 S 
BRANCH  12  14
ATOM     14  C   UNL A   1      33.031  24.454  22.559  1.00  0.00     0.264 C 
ATOM     15  O   UNL A   1      33.073  24.593  21.337  1.00  0.00    -0.268 OA
BRANCH  14  16
ATOM     16  N   UNL A   1      32.136  25.186  23.326  1.00  0.00    -0.335 N 
ATOM     17  C   UNL A   1      30.722  24.867  23.306  1.00  0.00     0.120 C 
ATOM     18  C   UNL A   1      32.502  25.838  24.591  1.00  0.00     0.088 C 
ATOM     19  C   UNL A   1      30.109  26.007  24.080  1.00  0.00     0.024 C 
ATOM     20  C   UNL A   1      31.131  26.245  25.190  1.00  0.00     0.027 C 
BRANCH  18  21
ATOM     21  C   UNL A   1      33.489  27.032  24.412  1.00  0.00     0.005 C 
ATOM     22  C   UNL A   1      33.035  28.008  23.317  1.00  0.00     0.009 C 
ATOM     23  C   UNL A   1      33.662  27.848  25.702  1.00  0.00     0.009 C 
ENDBRANCH  18  21
ENDBRANCH  14  16
ENDBRANCH  12  14
ENDBRANCH   7   8
ENDBRANCH   4   6
ENDBRANCH   3   4
ENDBRANCH   2   3
ENDBRANCH   1   2
BRANCH   1  24
ATOM     24  O   UNL A   1      42.926  21.370  26.813  1.00  0.00    -0.374 OA
BRANCH  24  25
ATOM     25  C   UNL A   1      44.079  21.741  26.054  1.00  0.00     0.202 C 
BRANCH  25  26
ATOM     26  C   UNL A   1      43.800  22.210  24.621  1.00  0.00     0.261 C 
BRANCH  26  27
ATOM     27  O   UNL A   1      43.179  23.510  24.597  1.00  0.00    -0.460 OA
BRANCH  27  28
ATOM     28  C   UNL A   1      43.967  24.529  25.008  1.00  0.00     0.338 C 
ATOM     29  O   UNL A   1      45.073  24.833  24.582  1.00  0.00    -0.246 OA
BRANCH  28  30
ATOM     30  C   UNL A   1      43.232  25.380  25.963  1.00  0.00     0.060 A 
ATOM     31  C   UNL A   1      43.681  26.695  26.137  1.00  0.00     0.016 A 
ATOM     32  C   UNL A   1      42.166  24.889  26.721  1.00  0.00     0.016 A 
ATOM     33  C   UNL A   1      43.097  27.511  27.105  1.00  0.00     0.010 A 
ATOM     34  C   UNL A   1      41.586  25.707  27.698  1.00  0.00     0.010 A 
ATOM     35  C   UNL A   1      42.070  27.009  27.916  1.00  0.00    -0.014 A 
BRANCH  35  36
ATOM     36  C   UNL A   1      41.604  27.800  29.080  1.00  0.00     0.031 A 
ATOM     37  C   UNL A   1      42.342  27.687  30.385  1.00  0.00     0.074 A 
ATOM     38  C   UNL A   1      40.550  28.628  28.972  1.00  0.00     0.049 A 
ATOM     39  N   UNL A   1      42.091  28.258  31.536  1.00  0.00    -0.248 NA
ATOM     40  C   UNL A   1      43.524  26.810  30.393  1.00  0.00     0.031 C 
ATOM     41  C   UNL A   1      39.774  28.851  27.754  1.00  0.00     0.029 A 
ATOM     42  N   UNL A   1      39.946  29.430  29.909  1.00  0.00    -0.354 N 
ATOM     43  C   UNL A   1      43.078  27.808  32.403  1.00  0.00     0.074 A 
ATOM     44  C   UNL A   1      43.914  26.892  31.656  1.00  0.00     0.031 C 
ATOM     45  C   UNL A   1      38.789  29.726  28.021  1.00  0.00     0.029 A 
ATOM     46  C   UNL A   1      38.846  30.099  29.433  1.00  0.00     0.049 A 
ATOM     47  H   UNL A   1      40.272  29.517  30.834  1.00  0.00     0.167 HD
ATOM     48  C   UNL A   1      43.274  28.137  33.702  1.00  0.00     0.037 A 
ATOM     49  C   UNL A   1      37.975  30.904  30.071  1.00  0.00     0.037 A 
ATOM     50  C   UNL A   1      42.445  29.048  34.444  1.00  0.00     0.049 A 
ATOM     51  C   UNL A   1      38.177  31.202  31.535  1.00  0.00     0.074 A 
ATOM     52  C   UNL A   1      42.575  29.460  35.760  1.00  0.00     0.029 A 
ATOM     53  N   UNL A   1      41.323  29.685  33.935  1.00  0.00    -0.354 N 
ATOM     54  N   UNL A   1      39.128  30.793  32.340  1.00  0.00    -0.248 NA
ATOM     55  C   UNL A   1      37.185  32.076  32.177  1.00  0.00     0.031 C 
ATOM     56  C   UNL A   1      41.504  30.309  36.060  1.00  0.00     0.029 A 
ATOM     57  C   UNL A   1      40.736  30.467  34.918  1.00  0.00     0.049 A 
ATOM     58  H   UNL A   1      40.991  29.595  33.012  1.00  0.00     0.167 HD
ATOM     59  C   UNL A   1      38.866  31.382  33.571  1.00  0.00     0.074 A 
ATOM     60  C   UNL A   1      37.673  32.185  33.404  1.00  0.00     0.031 C 
ATOM     61  C   UNL A   1      39.551  31.267  34.735  1.00  0.00     0.037 A 
BRANCH  48  62
ATOM     62  C   UNL A   1      44.426  27.487  34.413  1.00  0.00     0.064 A 
ATOM     63  C   UNL A   1      45.693  28.085  34.463  1.00  0.00     0.173 A 
ATOM     64  C   UNL A   1      44.249  26.266  35.082  1.00  0.00     0.173 A 
ATOM     65  F   UNL A   1      45.917  29.246  33.828  1.00  0.00    -0.203 F 
ATOM     66  C   UNL A   1      46.749  27.473  35.135  1.00  0.00     0.198 A 
ATOM     67  C   UNL A   1      45.298  25.671  35.775  1.00  0.00     0.198 A 
ATOM     68  F   UNL A   1      43.055  25.654  35.068  1.00  0.00    -0.203 F 
ATOM     69  F   UNL A   1      47.962  28.041  35.132  1.00  0.00    -0.200 F 
ATOM     70  C   UNL A   1      46.548  26.270  35.797  1.00  0.00     0.200 A 
ATOM     71  F   UNL A   1      45.100  24.513  36.423  1.00  0.00    -0.200 F 
ATOM     72  F   UNL A   1      47.562  25.686  36.448  1.00  0.00    -0.200 F 
ENDBRANCH  48  62
BRANCH  49  73
ATOM     73  C   UNL A   1      36.822  31.481  29.333  1.00  0.00     0.064 A 
ATOM     74  C   UNL A   1      36.776  32.843  29.011  1.00  0.00     0.173 A 
ATOM     75  C   UNL A   1      35.733  30.683  28.952  1.00  0.00     0.173 A 
ATOM     76  F   UNL A   1      37.781  33.652  29.378  1.00  0.00    -0.203 F 
ATOM     77  C   UNL A   1      35.679  33.390  28.348  1.00  0.00     0.198 A 
ATOM     78  C   UNL A   1      34.648  31.225  28.266  1.00  0.00     0.198 A 
ATOM     79  F   UNL A   1      35.727  29.373  29.239  1.00  0.00    -0.203 F 
ATOM     80  F   UNL A   1      35.640  34.704  28.092  1.00  0.00    -0.200 F 
ATOM     81  C   UNL A   1      34.618  32.579  27.971  1.00  0.00     0.200 A 
ATOM     82  F   UNL A   1      33.632  30.435  27.894  1.00  0.00    -0.200 F 
ATOM     83  F   UNL A   1      33.565  33.104  27.332  1.00  0.00    -0.200 F 
ENDBRANCH  49  73
BRANCH  61  84
ATOM     84  C   UNL A   1      39.054  32.056  35.912  1.00  0.00     0.064 A 
ATOM     85  C   UNL A   1      38.211  31.486  36.876  1.00  0.00     0.173 A 
ATOM     86  C   UNL A   1      39.461  33.387  36.098  1.00  0.00     0.173 A 
ATOM     87  F   UNL A   1      37.782  30.222  36.736  1.00  0.00    -0.203 F 
ATOM     88  C   UNL A   1      37.774  32.227  37.973  1.00  0.00     0.198 A 
ATOM     89  C   UNL A   1      39.047  34.114  37.210  1.00  0.00     0.198 A 
ATOM     90  F   UNL A   1      40.273  33.976  35.208  1.00  0.00    -0.203 F 
ATOM     91  F   UNL A   1      36.934  31.676  38.859  1.00  0.00    -0.200 F 
ATOM     92  C   UNL A   1      38.199  33.536  38.142  1.00  0.00     0.200 A 
ATOM     93  F   UNL A   1      39.468  35.375  37.378  1.00  0.00    -0.200 F 
ATOM     94  F   UNL A   1      37.784  34.244  39.202  1.00  0.00    -0.200 F 
ENDBRANCH  61  84
ENDBRANCH  35  36
ENDBRANCH  28  30
ENDBRANCH  27  28
ENDBRANCH  26  27
ENDBRANCH  25  26
ENDBRANCH  24  25
ENDBRANCH   1  24
TORSDOF 18
ENDMDL
MODEL 2
REMARK VINA RESULT:     -11.1      1.178      2.104
REMARK SMILES Cc1cc(C(=O)N2CCC[C@@H]2C(C)C)sc1/C=C/C(=O)OCCOCCOC(=O)c1ccc(-c2c3nc(c(-c4c(F)c(F)c(F)c(F)c4F)c4ccc([nH]4)c(-c4c(F)c(F)c(F)c(F)c4F)c4nc(c(-c5c(F)c(F)c(F)c(F)c5F)c5ccc2[nH]5)C=C4)C=C3)cc1
REMARK SMILES IDX 23 1 22 2 21 3 19 4 20 5 18 6 17 7 16 8 1 9 2 10 3 11 4 12
REMARK SMILES IDX 15 13 5 14 6 15 7 16 8 17 11 18 9 19 10 20 12 21 13 22 14 23
REMARK SMILES IDX 24 24 25 25 26 26 27 27 28 28 29 29 30 30 31 31 92 32 32 33
REMARK SMILES IDX 91 34 33 35 34 36 35 37 85 38 36 39 90 40 84 41 86 42 37 43
REMARK SMILES IDX 89 44 83 45 82 46 38 48 70 49 50 50 69 51 51 52 54 53 68 54
REMARK SMILES IDX 87 55 52 56 53 57 67 59 88 60 55 61 39 62 40 63 48 64 41 65
REMARK SMILES IDX 42 66 46 67 49 68 43 69 44 70 47 71 45 72 71 73 72 74 80 75
REMARK SMILES IDX 73 76 74 77 78 78 81 79 75 80 76 81 79 82 77 83 56 84 57 85
REMARK SMILES IDX 65 86 58 87 59 88 63 89 66 90 60 91 61 92 64 93 62 94
REMARK H PARENT 86 47 54 58
REMARK Flexibility Score: inf
ROOT
ATOM      1  C   UNL A   1      43.988  19.263  25.252  1.00  0.00     0.202 C 
ENDROOT
BRANCH   1   2
ATOM      2  C   UNL A   1      42.644  19.166  25.977  1.00  0.00     0.261 C 
BRANCH   2   3
ATOM      3  O   UNL A   1      41.813  20.300  25.676  1.00  0.00    -0.460 OA
BRANCH   3   4
ATOM      4  C   UNL A   1      41.323  20.952  26.755  1.00  0.00     0.330 C 
ATOM      5  O   UNL A   1      41.916  21.175  27.801  1.00  0.00    -0.247 OA
BRANCH   4   6
ATOM      6  C   UNL A   1      39.965  21.479  26.528  1.00  0.00     0.095 C 
ATOM      7  C   UNL A   1      39.041  20.990  25.683  1.00  0.00     0.027 C 
BRANCH   7   8
ATOM      8  C   UNL A   1      37.753  21.606  25.514  1.00  0.00     0.031 A 
ATOM      9  C   UNL A   1      38.256  24.058  26.145  1.00  0.00     0.046 C 
ATOM     10  C   UNL A   1      37.368  22.930  25.722  1.00  0.00    -0.032 A 
ATOM     11  C   UNL A   1      35.974  23.136  25.414  1.00  0.00     0.029 A 
ATOM     12  C   UNL A   1      35.330  21.999  24.970  1.00  0.00     0.093 A 
ATOM     13  S   UNL A   1      36.398  20.676  24.999  1.00  0.00    -0.130 S 
BRANCH  12  14
ATOM     14  C   UNL A   1      33.975  21.907  24.419  1.00  0.00     0.264 C 
ATOM     15  O   UNL A   1      33.277  20.901  24.548  1.00  0.00    -0.268 OA
BRANCH  14  16
ATOM     16  N   UNL A   1      33.453  23.067  23.864  1.00  0.00    -0.335 N 
ATOM     17  C   UNL A   1      33.621  23.344  22.451  1.00  0.00     0.120 C 
ATOM     18  C   UNL A   1      32.259  23.745  24.386  1.00  0.00     0.088 C 
ATOM     19  C   UNL A   1      33.113  24.758  22.322  1.00  0.00     0.024 C 
ATOM     20  C   UNL A   1      31.920  24.773  23.276  1.00  0.00     0.027 C 
BRANCH  18  21
ATOM     21  C   UNL A   1      32.472  24.387  25.792  1.00  0.00     0.005 C 
ATOM     22  C   UNL A   1      31.437  25.478  26.101  1.00  0.00     0.009 C 
ATOM     23  C   UNL A   1      32.394  23.354  26.926  1.00  0.00     0.009 C 
ENDBRANCH  18  21
ENDBRANCH  14  16
ENDBRANCH  12  14
ENDBRANCH   7   8
ENDBRANCH   4   6
ENDBRANCH   3   4
ENDBRANCH   2   3
ENDBRANCH   1   2
BRANCH   1  24
ATOM     24  O   UNL A   1      44.306  20.549  24.723  1.00  0.00    -0.374 OA
BRANCH  24  25
ATOM     25  C   UNL A   1      45.385  21.251  25.343  1.00  0.00     0.202 C 
BRANCH  25  26
ATOM     26  C   UNL A   1      44.973  22.374  26.303  1.00  0.00     0.261 C 
BRANCH  26  27
ATOM     27  O   UNL A   1      44.858  23.640  25.623  1.00  0.00    -0.460 OA
BRANCH  27  28
ATOM     28  C   UNL A   1      43.618  23.938  25.174  1.00  0.00     0.338 C 
ATOM     29  O   UNL A   1      43.023  23.426  24.235  1.00  0.00    -0.246 OA
BRANCH  28  30
ATOM     30  C   UNL A   1      42.963  24.886  26.096  1.00  0.00     0.060 A 
ATOM     31  C   UNL A   1      43.572  26.133  26.284  1.00  0.00     0.016 A 
ATOM     32  C   UNL A   1      41.813  24.543  26.812  1.00  0.00     0.016 A 
ATOM     33  C   UNL A   1      43.061  27.026  27.225  1.00  0.00     0.010 A 
ATOM     34  C   UNL A   1      41.306  25.438  27.762  1.00  0.00     0.010 A 
ATOM     35  C   UNL A   1      41.947  26.668  27.996  1.00  0.00    -0.014 A 
BRANCH  35  36
ATOM     36  C   UNL A   1      41.541  27.523  29.137  1.00  0.00     0.031 A 
ATOM     37  C   UNL A   1      42.305  27.429  30.429  1.00  0.00     0.074 A 
ATOM     38  C   UNL A   1      40.520  28.389  29.019  1.00  0.00     0.049 A 
ATOM     39  N   UNL A   1      42.106  28.055  31.561  1.00  0.00    -0.248 NA
ATOM     40  C   UNL A   1      43.449  26.504  30.445  1.00  0.00     0.031 C 
ATOM     41  C   UNL A   1      39.725  28.597  27.811  1.00  0.00     0.029 A 
ATOM     42  N   UNL A   1      39.973  29.252  29.936  1.00  0.00    -0.354 N 
ATOM     43  C   UNL A   1      43.093  27.598  32.423  1.00  0.00     0.074 A 
ATOM     44  C   UNL A   1      43.873  26.619  31.695  1.00  0.00     0.031 C 
ATOM     45  C   UNL A   1      38.783  29.522  28.065  1.00  0.00     0.029 A 
ATOM     46  C   UNL A   1      38.889  29.948  29.459  1.00  0.00     0.049 A 
ATOM     47  H   UNL A   1      40.323  29.361  30.850  1.00  0.00     0.167 HD
ATOM     48  C   UNL A   1      43.334  27.969  33.704  1.00  0.00     0.037 A 
ATOM     49  C   UNL A   1      38.068  30.813  30.084  1.00  0.00     0.037 A 
ATOM     50  C   UNL A   1      42.561  28.942  34.427  1.00  0.00     0.049 A 
ATOM     51  C   UNL A   1      38.317  31.159  31.530  1.00  0.00     0.074 A 
ATOM     52  C   UNL A   1      42.739  29.399  35.722  1.00  0.00     0.029 A 
ATOM     53  N   UNL A   1      41.454  29.605  33.918  1.00  0.00    -0.354 N 
ATOM     54  N   UNL A   1      39.269  30.742  32.329  1.00  0.00    -0.248 NA
ATOM     55  C   UNL A   1      37.377  32.098  32.158  1.00  0.00     0.031 C 
ATOM     56  C   UNL A   1      41.711  30.303  36.012  1.00  0.00     0.029 A 
ATOM     57  C   UNL A   1      40.924  30.449  34.882  1.00  0.00     0.049 A 
ATOM     58  H   UNL A   1      41.097  29.493  33.007  1.00  0.00     0.167 HD
ATOM     59  C   UNL A   1      39.061  31.389  33.541  1.00  0.00     0.074 A 
ATOM     60  C   UNL A   1      37.899  32.234  33.369  1.00  0.00     0.031 C 
ATOM     61  C   UNL A   1      39.769  31.291  34.693  1.00  0.00     0.037 A 
BRANCH  48  62
ATOM     62  C   UNL A   1      44.475  27.299  34.414  1.00  0.00     0.064 A 
ATOM     63  C   UNL A   1      45.764  27.850  34.420  1.00  0.00     0.173 A 
ATOM     64  C   UNL A   1      44.266  26.108  35.126  1.00  0.00     0.173 A 
ATOM     65  F   UNL A   1      46.019  28.981  33.743  1.00  0.00    -0.203 F 
ATOM     66  C   UNL A   1      46.809  27.221  35.093  1.00  0.00     0.198 A 
ATOM     67  C   UNL A   1      45.306  25.496  35.819  1.00  0.00     0.198 A 
ATOM     68  F   UNL A   1      43.050  25.542  35.154  1.00  0.00    -0.203 F 
ATOM     69  F   UNL A   1      48.043  27.742  35.048  1.00  0.00    -0.200 F 
ATOM     70  C   UNL A   1      46.578  26.049  35.797  1.00  0.00     0.200 A 
ATOM     71  F   UNL A   1      45.078  24.369  36.509  1.00  0.00    -0.200 F 
ATOM     72  F   UNL A   1      47.582  25.448  36.449  1.00  0.00    -0.200 F 
ENDBRANCH  48  62
BRANCH  49  73
ATOM     73  C   UNL A   1      36.922  31.408  29.350  1.00  0.00     0.064 A 
ATOM     74  C   UNL A   1      36.925  32.758  28.975  1.00  0.00     0.173 A 
ATOM     75  C   UNL A   1      35.792  30.643  29.024  1.00  0.00     0.173 A 
ATOM     76  F   UNL A   1      37.971  33.538  29.286  1.00  0.00    -0.203 F 
ATOM     77  C   UNL A   1      35.835  33.324  28.315  1.00  0.00     0.198 A 
ATOM     78  C   UNL A   1      34.715  31.202  28.342  1.00  0.00     0.198 A 
ATOM     79  F   UNL A   1      35.740  29.346  29.363  1.00  0.00    -0.203 F 
ATOM     80  F   UNL A   1      35.844  34.628  28.008  1.00  0.00    -0.200 F 
ATOM     81  C   UNL A   1      34.734  32.545  27.994  1.00  0.00     0.200 A 
ATOM     82  F   UNL A   1      33.658  30.442  28.024  1.00  0.00    -0.200 F 
ATOM     83  F   UNL A   1      33.688  33.088  27.358  1.00  0.00    -0.200 F 
ENDBRANCH  49  73
BRANCH  61  84
ATOM     84  C   UNL A   1      39.332  32.145  35.848  1.00  0.00     0.064 A 
ATOM     85  C   UNL A   1      39.811  33.452  36.020  1.00  0.00     0.173 A 
ATOM     86  C   UNL A   1      38.389  31.663  36.770  1.00  0.00     0.173 A 
ATOM     87  F   UNL A   1      40.725  33.952  35.174  1.00  0.00    -0.203 F 
ATOM     88  C   UNL A   1      39.380  34.237  37.087  1.00  0.00     0.198 A 
ATOM     89  C   UNL A   1      37.938  32.462  37.817  1.00  0.00     0.198 A 
ATOM     90  F   UNL A   1      37.894  30.423  36.646  1.00  0.00    -0.203 F 
ATOM     91  F   UNL A   1      39.884  35.467  37.258  1.00  0.00    -0.200 F 
ATOM     92  C   UNL A   1      38.439  33.745  37.978  1.00  0.00     0.200 A 
ATOM     93  F   UNL A   1      37.020  31.989  38.670  1.00  0.00    -0.200 F 
ATOM     94  F   UNL A   1      38.019  34.506  38.999  1.00  0.00    -0.200 F 
ENDBRANCH  61  84
ENDBRANCH  35  36
ENDBRANCH  28  30
ENDBRANCH  27  28
ENDBRANCH  26  27
ENDBRANCH  25  26
ENDBRANCH  24  25
ENDBRANCH   1  24
TORSDOF 18
ENDMDL
MODEL 3
REMARK VINA RESULT:     -11.1      0.713      1.802
REMARK SMILES Cc1cc(C(=O)N2CCC[C@@H]2C(C)C)sc1/C=C/C(=O)OCCOCCOC(=O)c1ccc(-c2c3nc(c(-c4c(F)c(F)c(F)c(F)c4F)c4ccc([nH]4)c(-c4c(F)c(F)c(F)c(F)c4F)c4nc(c(-c5c(F)c(F)c(F)c(F)c5F)c5ccc2[nH]5)C=C4)C=C3)cc1
REMARK SMILES IDX 23 1 22 2 21 3 19 4 20 5 18 6 17 7 16 8 1 9 2 10 3 11 4 12
REMARK SMILES IDX 15 13 5 14 6 15 7 16 8 17 11 18 9 19 10 20 12 21 13 22 14 23
REMARK SMILES IDX 24 24 25 25 26 26 27 27 28 28 29 29 30 30 31 31 92 32 32 33
REMARK SMILES IDX 91 34 33 35 34 36 35 37 85 38 36 39 90 40 84 41 86 42 37 43
REMARK SMILES IDX 89 44 83 45 82 46 38 48 70 49 50 50 69 51 51 52 54 53 68 54
REMARK SMILES IDX 87 55 52 56 53 57 67 59 88 60 55 61 39 62 40 63 48 64 41 65
REMARK SMILES IDX 42 66 46 67 49 68 43 69 44 70 47 71 45 72 71 73 72 74 80 75
REMARK SMILES IDX 73 76 74 77 78 78 81 79 75 80 76 81 79 82 77 83 56 84 57 85
REMARK SMILES IDX 65 86 58 87 59 88 63 89 66 90 60 91 61 92 64 93 62 94
REMARK H PARENT 86 47 54 58
REMARK Flexibility Score: inf
ROOT
ATOM      1  C   UNL A   1      40.876  21.121  26.560  1.00  0.00     0.202 C 
ENDROOT
BRANCH   1   2
ATOM      2  C   UNL A   1      39.664  21.930  26.093  1.00  0.00     0.261 C 
BRANCH   2   3
ATOM      3  O   UNL A   1      38.440  21.226  26.360  1.00  0.00    -0.460 OA
BRANCH   3   4
ATOM      4  C   UNL A   1      37.945  20.526  25.313  1.00  0.00     0.330 C 
ATOM      5  O   UNL A   1      38.232  19.378  25.004  1.00  0.00    -0.247 OA
BRANCH   4   6
ATOM      6  C   UNL A   1      36.905  21.269  24.578  1.00  0.00     0.095 C 
ATOM      7  C   UNL A   1      35.754  21.754  25.077  1.00  0.00     0.027 C 
BRANCH   7   8
ATOM      8  C   UNL A   1      34.790  22.438  24.259  1.00  0.00     0.031 A 
ATOM      9  C   UNL A   1      32.993  20.614  23.929  1.00  0.00     0.046 C 
ATOM     10  C   UNL A   1      33.589  21.972  23.725  1.00  0.00    -0.032 A 
ATOM     11  C   UNL A   1      32.907  22.995  22.972  1.00  0.00     0.029 A 
ATOM     12  C   UNL A   1      33.571  24.205  22.952  1.00  0.00     0.093 A 
ATOM     13  S   UNL A   1      35.048  24.073  23.783  1.00  0.00    -0.130 S 
BRANCH  12  14
ATOM     14  C   UNL A   1      33.072  25.479  22.426  1.00  0.00     0.264 C 
ATOM     15  O   UNL A   1      33.314  25.860  21.281  1.00  0.00    -0.268 OA
BRANCH  14  16
ATOM     16  N   UNL A   1      32.187  26.179  23.235  1.00  0.00    -0.335 N 
ATOM     17  C   UNL A   1      30.757  26.040  23.048  1.00  0.00     0.120 C 
ATOM     18  C   UNL A   1      32.494  26.568  24.618  1.00  0.00     0.088 C 
ATOM     19  C   UNL A   1      30.194  27.104  23.956  1.00  0.00     0.024 C 
ATOM     20  C   UNL A   1      31.121  27.035  25.168  1.00  0.00     0.027 C 
BRANCH  18  21
ATOM     21  C   UNL A   1      33.613  27.648  24.727  1.00  0.00     0.005 C 
ATOM     22  C   UNL A   1      33.100  29.059  24.401  1.00  0.00     0.009 C 
ATOM     23  C   UNL A   1      34.238  27.706  26.129  1.00  0.00     0.009 C 
ENDBRANCH  18  21
ENDBRANCH  14  16
ENDBRANCH  12  14
ENDBRANCH   7   8
ENDBRANCH   4   6
ENDBRANCH   3   4
ENDBRANCH   2   3
ENDBRANCH   1   2
BRANCH   1  24
ATOM     24  O   UNL A   1      41.641  20.512  25.520  1.00  0.00    -0.374 OA
BRANCH  24  25
ATOM     25  C   UNL A   1      43.045  20.376  25.749  1.00  0.00     0.202 C 
BRANCH  25  26
ATOM     26  C   UNL A   1      43.850  21.680  25.693  1.00  0.00     0.261 C 
BRANCH  26  27
ATOM     27  O   UNL A   1      43.132  22.720  25.000  1.00  0.00    -0.460 OA
BRANCH  27  28
ATOM     28  C   UNL A   1      43.745  23.924  24.980  1.00  0.00     0.338 C 
ATOM     29  O   UNL A   1      44.638  24.292  24.228  1.00  0.00    -0.246 OA
BRANCH  28  30
ATOM     30  C   UNL A   1      43.065  24.851  25.904  1.00  0.00     0.060 A 
ATOM     31  C   UNL A   1      43.607  26.134  26.050  1.00  0.00     0.016 A 
ATOM     32  C   UNL A   1      41.959  24.459  26.663  1.00  0.00     0.016 A 
ATOM     33  C   UNL A   1      43.075  27.016  26.990  1.00  0.00     0.010 A 
ATOM     34  C   UNL A   1      41.430  25.342  27.611  1.00  0.00     0.010 A 
ATOM     35  C   UNL A   1      42.007  26.611  27.802  1.00  0.00    -0.014 A 
BRANCH  35  36
ATOM     36  C   UNL A   1      41.587  27.464  28.940  1.00  0.00     0.031 A 
ATOM     37  C   UNL A   1      42.356  27.392  30.230  1.00  0.00     0.074 A 
ATOM     38  C   UNL A   1      40.550  28.310  28.820  1.00  0.00     0.049 A 
ATOM     39  N   UNL A   1      42.148  28.020  31.359  1.00  0.00    -0.248 NA
ATOM     40  C   UNL A   1      43.518  26.489  30.249  1.00  0.00     0.031 C 
ATOM     41  C   UNL A   1      39.749  28.497  27.612  1.00  0.00     0.029 A 
ATOM     42  N   UNL A   1      39.989  29.168  29.733  1.00  0.00    -0.354 N 
ATOM     43  C   UNL A   1      43.146  27.586  32.221  1.00  0.00     0.074 A 
ATOM     44  C   UNL A   1      43.942  26.619  31.497  1.00  0.00     0.031 C 
ATOM     45  C   UNL A   1      38.790  29.406  27.863  1.00  0.00     0.029 A 
ATOM     46  C   UNL A   1      38.892  29.841  29.255  1.00  0.00     0.049 A 
ATOM     47  H   UNL A   1      40.339  29.289  30.645  1.00  0.00     0.167 HD
ATOM     48  C   UNL A   1      43.383  27.969  33.499  1.00  0.00     0.037 A 
ATOM     49  C   UNL A   1      38.056  30.694  29.877  1.00  0.00     0.037 A 
ATOM     50  C   UNL A   1      42.592  28.931  34.219  1.00  0.00     0.049 A 
ATOM     51  C   UNL A   1      38.301  31.052  31.320  1.00  0.00     0.074 A 
ATOM     52  C   UNL A   1      42.765  29.399  35.511  1.00  0.00     0.029 A 
ATOM     53  N   UNL A   1      41.472  29.571  33.710  1.00  0.00    -0.354 N 
ATOM     54  N   UNL A   1      39.263  30.658  32.120  1.00  0.00    -0.248 NA
ATOM     55  C   UNL A   1      37.345  31.977  31.946  1.00  0.00     0.031 C 
ATOM     56  C   UNL A   1      41.721  30.285  35.799  1.00  0.00     0.029 A 
ATOM     57  C   UNL A   1      40.929  30.409  34.670  1.00  0.00     0.049 A 
ATOM     58  H   UNL A   1      41.116  29.447  32.800  1.00  0.00     0.167 HD
ATOM     59  C   UNL A   1      39.045  31.307  33.328  1.00  0.00     0.074 A 
ATOM     60  C   UNL A   1      37.867  32.129  33.155  1.00  0.00     0.031 C 
ATOM     61  C   UNL A   1      39.758  31.229  34.480  1.00  0.00     0.037 A 
BRANCH  48  62
ATOM     62  C   UNL A   1      44.537  27.325  34.210  1.00  0.00     0.064 A 
ATOM     63  C   UNL A   1      44.389  26.122  34.917  1.00  0.00     0.173 A 
ATOM     64  C   UNL A   1      45.816  27.901  34.155  1.00  0.00     0.173 A 
ATOM     65  F   UNL A   1      43.184  25.538  35.011  1.00  0.00    -0.203 F 
ATOM     66  C   UNL A   1      45.473  25.532  35.563  1.00  0.00     0.198 A 
ATOM     67  C   UNL A   1      46.902  27.295  34.779  1.00  0.00     0.198 A 
ATOM     68  F   UNL A   1      46.011  29.049  33.489  1.00  0.00    -0.203 F 
ATOM     69  F   UNL A   1      45.299  24.407  36.269  1.00  0.00    -0.200 F 
ATOM     70  C   UNL A   1      46.729  26.115  35.488  1.00  0.00     0.200 A 
ATOM     71  F   UNL A   1      48.118  27.854  34.696  1.00  0.00    -0.200 F 
ATOM     72  F   UNL A   1      47.772  25.544  36.104  1.00  0.00    -0.200 F 
ENDBRANCH  48  62
BRANCH  49  73
ATOM     73  C   UNL A   1      36.897  31.264  29.142  1.00  0.00     0.064 A 
ATOM     74  C   UNL A   1      36.891  32.600  28.725  1.00  0.00     0.173 A 
ATOM     75  C   UNL A   1      35.764  30.486  28.859  1.00  0.00     0.173 A 
ATOM     76  F   UNL A   1      37.939  33.392  28.995  1.00  0.00    -0.203 F 
ATOM     77  C   UNL A   1      35.789  33.143  28.065  1.00  0.00     0.198 A 
ATOM     78  C   UNL A   1      34.675  31.022  28.176  1.00  0.00     0.198 A 
ATOM     79  F   UNL A   1      35.720  29.200  29.240  1.00  0.00    -0.203 F 
ATOM     80  F   UNL A   1      35.791  34.437  27.717  1.00  0.00    -0.200 F 
ATOM     81  C   UNL A   1      34.685  32.352  27.786  1.00  0.00     0.200 A 
ATOM     82  F   UNL A   1      33.615  30.250  27.899  1.00  0.00    -0.200 F 
ATOM     83  F   UNL A   1      33.628  32.874  27.149  1.00  0.00    -0.200 F 
ENDBRANCH  49  73
BRANCH  61  84
ATOM     84  C   UNL A   1      39.308  32.081  35.631  1.00  0.00     0.064 A 
ATOM     85  C   UNL A   1      39.689  33.425  35.745  1.00  0.00     0.173 A 
ATOM     86  C   UNL A   1      38.448  31.555  36.609  1.00  0.00     0.173 A 
ATOM     87  F   UNL A   1      40.522  33.969  34.844  1.00  0.00    -0.203 F 
ATOM     88  C   UNL A   1      39.246  34.207  36.810  1.00  0.00     0.198 A 
ATOM     89  C   UNL A   1      37.984  32.348  37.654  1.00  0.00     0.198 A 
ATOM     90  F   UNL A   1      38.048  30.277  36.541  1.00  0.00    -0.203 F 
ATOM     91  F   UNL A   1      39.660  35.476  36.924  1.00  0.00    -0.200 F 
ATOM     92  C   UNL A   1      38.388  33.670  37.758  1.00  0.00     0.200 A 
ATOM     93  F   UNL A   1      37.145  31.831  38.563  1.00  0.00    -0.200 F 
ATOM     94  F   UNL A   1      37.957  34.426  38.777  1.00  0.00    -0.200 F 
ENDBRANCH  61  84
ENDBRANCH  35  36
ENDBRANCH  28  30
ENDBRANCH  27  28
ENDBRANCH  26  27
ENDBRANCH  25  26
ENDBRANCH  24  25
ENDBRANCH   1  24
TORSDOF 18
ENDMDL
