MODEL 1
REMARK VINA RESULT:     -12.0      0.000      0.000
REMARK SMILES C[C@H](C(=O)OCCOCCOC(=O)c1ccc(-c2c3nc(c(-c4c(F)c(F)c(F)c(F)c4F)c4ccc([nH]4)c(-c4c(F)c(F)c(F)c(F)c4F)c4nc(c(-c5c(F)c(F)c(F)c(F)c5F)c5ccc2[nH]5)C=C4)C=C3)cc1)[C@@H](C(=O)c1ccccc1)c1ccc(F)cc1
REMARK SMILES IDX 7 1 6 2 5 3 3 4 4 5 2 6 1 7 77 8 78 9 79 10 80 11 81 12
REMARK SMILES IDX 85 13 82 14 84 15 83 16 86 17 87 18 92 19 88 20 91 21 89 22
REMARK SMILES IDX 90 23 8 24 9 25 10 26 11 27 12 28 13 29 14 30 15 31 76 32
REMARK SMILES IDX 16 33 75 34 17 35 18 36 19 37 69 38 20 39 74 40 68 41 70 42
REMARK SMILES IDX 21 43 73 44 67 45 66 46 22 48 54 49 34 50 53 51 35 52 38 53
REMARK SMILES IDX 52 54 71 55 36 56 37 57 51 59 72 60 39 61 23 62 24 63 32 64
REMARK SMILES IDX 25 65 26 66 30 67 33 68 27 69 28 70 31 71 29 72 55 73 56 74
REMARK SMILES IDX 64 75 57 76 58 77 62 78 65 79 59 80 60 81 63 82 61 83 40 84
REMARK SMILES IDX 41 85 49 86 42 87 43 88 47 89 50 90 44 91 45 92 48 93 46 94
REMARK H PARENT 70 47 38 58
REMARK Flexibility Score: inf
ROOT
ATOM      1  C   UNL A   1      39.254  21.438  26.053  1.00  0.00     0.202 C 
ENDROOT
BRANCH   1   2
ATOM      2  C   UNL A   1      37.977  20.965  25.351  1.00  0.00     0.261 C 
BRANCH   2   3
ATOM      3  O   UNL A   1      37.319  22.017  24.614  1.00  0.00    -0.463 OA
BRANCH   3   4
ATOM      4  C   UNL A   1      36.614  22.871  25.406  1.00  0.00     0.309 C 
ATOM      5  O   UNL A   1      37.000  23.990  25.728  1.00  0.00    -0.252 OA
BRANCH   4   6
ATOM      6  C   UNL A   1      35.223  22.368  25.766  1.00  0.00     0.111 C 
ATOM      7  C   UNL A   1      34.616  23.537  26.562  1.00  0.00     0.021 C 
BRANCH   6   8
ATOM      8  C   UNL A   1      34.342  21.804  24.601  1.00  0.00     0.105 C 
BRANCH   8   9
ATOM      9  C   UNL A   1      33.401  20.629  25.033  1.00  0.00     0.171 C 
ATOM     10  O   UNL A   1      32.428  20.726  25.781  1.00  0.00    -0.293 OA
BRANCH   9  11
ATOM     11  C   UNL A   1      33.459  19.321  24.371  1.00  0.00     0.018 A 
ATOM     12  C   UNL A   1      34.582  18.542  24.632  1.00  0.00     0.012 A 
ATOM     13  C   UNL A   1      32.533  18.933  23.401  1.00  0.00     0.012 A 
ATOM     14  C   UNL A   1      34.738  17.335  23.966  1.00  0.00     0.001 A 
ATOM     15  C   UNL A   1      32.683  17.702  22.761  1.00  0.00     0.001 A 
ATOM     16  C   UNL A   1      33.790  16.902  23.043  1.00  0.00     0.000 A 
ENDBRANCH   9  11
ENDBRANCH   8   9
BRANCH   8  17
ATOM     17  C   UNL A   1      33.570  22.944  23.854  1.00  0.00    -0.036 A 
ATOM     18  C   UNL A   1      34.205  24.003  23.171  1.00  0.00     0.007 A 
ATOM     19  C   UNL A   1      32.159  22.951  23.834  1.00  0.00     0.007 A 
ATOM     20  C   UNL A   1      33.482  25.016  22.529  1.00  0.00     0.039 A 
ATOM     21  C   UNL A   1      31.434  23.914  23.119  1.00  0.00     0.039 A 
ATOM     22  C   UNL A   1      32.102  24.948  22.484  1.00  0.00     0.123 A 
ATOM     23  F   UNL A   1      31.411  25.886  21.824  1.00  0.00    -0.207 F 
ENDBRANCH   8  17
ENDBRANCH   6   8
ENDBRANCH   4   6
ENDBRANCH   3   4
ENDBRANCH   2   3
ENDBRANCH   1   2
BRANCH   1  24
ATOM     24  O   UNL A   1      40.379  20.564  25.990  1.00  0.00    -0.374 OA
BRANCH  24  25
ATOM     25  C   UNL A   1      41.536  20.931  26.733  1.00  0.00     0.202 C 
BRANCH  25  26
ATOM     26  C   UNL A   1      42.706  21.551  25.955  1.00  0.00     0.261 C 
BRANCH  26  27
ATOM     27  O   UNL A   1      42.334  22.570  25.004  1.00  0.00    -0.460 OA
BRANCH  27  28
ATOM     28  C   UNL A   1      43.124  23.671  25.026  1.00  0.00     0.338 C 
ATOM     29  O   UNL A   1      44.183  23.837  24.422  1.00  0.00    -0.246 OA
BRANCH  28  30
ATOM     30  C   UNL A   1      42.529  24.761  25.820  1.00  0.00     0.060 A 
ATOM     31  C   UNL A   1      43.264  25.944  25.982  1.00  0.00     0.016 A 
ATOM     32  C   UNL A   1      41.352  24.560  26.543  1.00  0.00     0.016 A 
ATOM     33  C   UNL A   1      42.848  26.914  26.901  1.00  0.00     0.010 A 
ATOM     34  C   UNL A   1      40.937  25.535  27.461  1.00  0.00     0.010 A 
ATOM     35  C   UNL A   1      41.700  26.702  27.674  1.00  0.00    -0.014 A 
BRANCH  35  36
ATOM     36  C   UNL A   1      41.364  27.606  28.807  1.00  0.00     0.031 A 
ATOM     37  C   UNL A   1      42.099  27.440  30.109  1.00  0.00     0.074 A 
ATOM     38  C   UNL A   1      40.403  28.544  28.711  1.00  0.00     0.049 A 
ATOM     39  N   UNL A   1      41.924  28.065  31.246  1.00  0.00    -0.248 NA
ATOM     40  C   UNL A   1      43.192  26.455  30.124  1.00  0.00     0.031 C 
ATOM     41  C   UNL A   1      39.663  28.884  27.503  1.00  0.00     0.029 A 
ATOM     42  N   UNL A   1      39.851  29.357  29.673  1.00  0.00    -0.354 N 
ATOM     43  C   UNL A   1      42.901  27.574  32.099  1.00  0.00     0.074 A 
ATOM     44  C   UNL A   1      43.625  26.552  31.372  1.00  0.00     0.031 C 
ATOM     45  C   UNL A   1      38.680  29.745  27.810  1.00  0.00     0.029 A 
ATOM     46  C   UNL A   1      38.744  30.044  29.235  1.00  0.00     0.049 A 
ATOM     47  H   UNL A   1      40.213  29.439  30.585  1.00  0.00     0.167 HD
ATOM     48  C   UNL A   1      43.194  27.965  33.361  1.00  0.00     0.037 A 
ATOM     49  C   UNL A   1      37.870  30.817  29.906  1.00  0.00     0.037 A 
ATOM     50  C   UNL A   1      42.471  28.971  34.093  1.00  0.00     0.049 A 
ATOM     51  C   UNL A   1      38.121  31.133  31.352  1.00  0.00     0.074 A 
ATOM     52  C   UNL A   1      42.725  29.469  35.359  1.00  0.00     0.029 A 
ATOM     53  N   UNL A   1      41.337  29.620  33.629  1.00  0.00    -0.354 N 
ATOM     54  N   UNL A   1      39.095  30.722  32.127  1.00  0.00    -0.248 NA
ATOM     55  C   UNL A   1      37.181  32.052  32.005  1.00  0.00     0.031 C 
ATOM     56  C   UNL A   1      41.717  30.385  35.680  1.00  0.00     0.029 A 
ATOM     57  C   UNL A   1      40.859  30.490  34.597  1.00  0.00     0.049 A 
ATOM     58  H   UNL A   1      40.931  29.483  32.742  1.00  0.00     0.167 HD
ATOM     59  C   UNL A   1      38.917  31.374  33.339  1.00  0.00     0.074 A 
ATOM     60  C   UNL A   1      37.733  32.196  33.202  1.00  0.00     0.031 C 
ATOM     61  C   UNL A   1      39.685  31.311  34.454  1.00  0.00     0.037 A 
BRANCH  48  62
ATOM     62  C   UNL A   1      44.361  27.303  34.030  1.00  0.00     0.064 A 
ATOM     63  C   UNL A   1      45.652  27.847  33.946  1.00  0.00     0.173 A 
ATOM     64  C   UNL A   1      44.185  26.135  34.785  1.00  0.00     0.173 A 
ATOM     65  F   UNL A   1      45.873  28.956  33.225  1.00  0.00    -0.203 F 
ATOM     66  C   UNL A   1      46.729  27.231  34.577  1.00  0.00     0.198 A 
ATOM     67  C   UNL A   1      45.261  25.536  35.435  1.00  0.00     0.198 A 
ATOM     68  F   UNL A   1      42.969  25.579  34.897  1.00  0.00    -0.203 F 
ATOM     69  F   UNL A   1      47.961  27.744  34.451  1.00  0.00    -0.200 F 
ATOM     70  C   UNL A   1      46.532  26.080  35.325  1.00  0.00     0.200 A 
ATOM     71  F   UNL A   1      45.068  24.428  36.163  1.00  0.00    -0.200 F 
ATOM     72  F   UNL A   1      47.569  25.489  35.935  1.00  0.00    -0.200 F 
ENDBRANCH  48  62
BRANCH  49  73
ATOM     73  C   UNL A   1      36.685  31.365  29.202  1.00  0.00     0.064 A 
ATOM     74  C   UNL A   1      35.593  30.550  28.878  1.00  0.00     0.173 A 
ATOM     75  C   UNL A   1      36.622  32.719  28.844  1.00  0.00     0.173 A 
ATOM     76  F   UNL A   1      35.619  29.245  29.185  1.00  0.00    -0.203 F 
ATOM     77  C   UNL A   1      34.486  31.066  28.207  1.00  0.00     0.198 A 
ATOM     78  C   UNL A   1      35.507  33.239  28.189  1.00  0.00     0.198 A 
ATOM     79  F   UNL A   1      37.644  33.537  29.133  1.00  0.00    -0.203 F 
ATOM     80  F   UNL A   1      33.468  30.259  27.879  1.00  0.00    -0.200 F 
ATOM     81  C   UNL A   1      34.443  32.411  27.867  1.00  0.00     0.200 A 
ATOM     82  F   UNL A   1      35.466  34.539  27.866  1.00  0.00    -0.200 F 
ATOM     83  F   UNL A   1      33.377  32.906  27.224  1.00  0.00    -0.200 F 
ENDBRANCH  49  73
BRANCH  61  84
ATOM     84  C   UNL A   1      39.300  32.195  35.602  1.00  0.00     0.064 A 
ATOM     85  C   UNL A   1      39.780  33.507  35.716  1.00  0.00     0.173 A 
ATOM     86  C   UNL A   1      38.415  31.730  36.586  1.00  0.00     0.173 A 
ATOM     87  F   UNL A   1      40.644  33.990  34.811  1.00  0.00    -0.203 F 
ATOM     88  C   UNL A   1      39.405  34.314  36.786  1.00  0.00     0.198 A 
ATOM     89  C   UNL A   1      38.021  32.548  37.641  1.00  0.00     0.198 A 
ATOM     90  F   UNL A   1      37.926  30.482  36.521  1.00  0.00    -0.203 F 
ATOM     91  F   UNL A   1      39.911  35.550  36.900  1.00  0.00    -0.200 F 
ATOM     92  C   UNL A   1      38.521  33.838  37.743  1.00  0.00     0.200 A 
ATOM     93  F   UNL A   1      37.159  32.089  38.558  1.00  0.00    -0.200 F 
ATOM     94  F   UNL A   1      38.157  34.618  38.769  1.00  0.00    -0.200 F 
ENDBRANCH  61  84
ENDBRANCH  35  36
ENDBRANCH  28  30
ENDBRANCH  27  28
ENDBRANCH  26  27
ENDBRANCH  25  26
ENDBRANCH  24  25
ENDBRANCH   1  24
TORSDOF 18
ENDMDL
MODEL 2
REMARK VINA RESULT:     -11.7      4.751      9.310
REMARK SMILES C[C@H](C(=O)OCCOCCOC(=O)c1ccc(-c2c3nc(c(-c4c(F)c(F)c(F)c(F)c4F)c4ccc([nH]4)c(-c4c(F)c(F)c(F)c(F)c4F)c4nc(c(-c5c(F)c(F)c(F)c(F)c5F)c5ccc2[nH]5)C=C4)C=C3)cc1)[C@@H](C(=O)c1ccccc1)c1ccc(F)cc1
REMARK SMILES IDX 7 1 6 2 5 3 3 4 4 5 2 6 1 7 77 8 78 9 79 10 80 11 81 12
REMARK SMILES IDX 85 13 82 14 84 15 83 16 86 17 87 18 92 19 88 20 91 21 89 22
REMARK SMILES IDX 90 23 8 24 9 25 10 26 11 27 12 28 13 29 14 30 15 31 76 32
REMARK SMILES IDX 16 33 75 34 17 35 18 36 19 37 69 38 20 39 74 40 68 41 70 42
REMARK SMILES IDX 21 43 73 44 67 45 66 46 22 48 54 49 34 50 53 51 35 52 38 53
REMARK SMILES IDX 52 54 71 55 36 56 37 57 51 59 72 60 39 61 23 62 24 63 32 64
REMARK SMILES IDX 25 65 26 66 30 67 33 68 27 69 28 70 31 71 29 72 55 73 56 74
REMARK SMILES IDX 64 75 57 76 58 77 62 78 65 79 59 80 60 81 63 82 61 83 40 84
REMARK SMILES IDX 41 85 49 86 42 87 43 88 47 89 50 90 44 91 45 92 48 93 46 94
REMARK H PARENT 70 47 38 58
REMARK Flexibility Score: inf
ROOT
ATOM      1  C   UNL A   1      37.982  23.528  26.119  1.00  0.00     0.202 C 
ENDROOT
BRANCH   1   2
ATOM      2  C   UNL A   1      36.616  23.476  25.429  1.00  0.00     0.261 C 
BRANCH   2   3
ATOM      3  O   UNL A   1      35.565  23.006  26.300  1.00  0.00    -0.463 OA
BRANCH   3   4
ATOM      4  C   UNL A   1      34.388  23.666  26.130  1.00  0.00     0.309 C 
ATOM      5  O   UNL A   1      34.291  24.884  26.014  1.00  0.00    -0.252 OA
BRANCH   4   6
ATOM      6  C   UNL A   1      33.186  22.747  25.963  1.00  0.00     0.111 C 
ATOM      7  C   UNL A   1      32.079  23.461  26.759  1.00  0.00     0.021 C 
BRANCH   6   8
ATOM      8  C   UNL A   1      32.810  22.318  24.505  1.00  0.00     0.105 C 
BRANCH   8   9
ATOM      9  C   UNL A   1      33.420  23.242  23.397  1.00  0.00     0.171 C 
ATOM     10  O   UNL A   1      34.343  22.942  22.641  1.00  0.00    -0.293 OA
BRANCH   9  11
ATOM     11  C   UNL A   1      32.762  24.491  22.998  1.00  0.00     0.018 A 
ATOM     12  C   UNL A   1      33.581  25.483  22.470  1.00  0.00     0.012 A 
ATOM     13  C   UNL A   1      31.419  24.750  23.279  1.00  0.00     0.012 A 
ATOM     14  C   UNL A   1      33.033  26.719  22.158  1.00  0.00     0.001 A 
ATOM     15  C   UNL A   1      30.871  25.987  22.931  1.00  0.00     0.001 A 
ATOM     16  C   UNL A   1      31.681  26.973  22.370  1.00  0.00     0.000 A 
ENDBRANCH   9  11
ENDBRANCH   8   9
BRANCH   8  17
ATOM     17  C   UNL A   1      33.113  20.801  24.251  1.00  0.00    -0.036 A 
ATOM     18  C   UNL A   1      34.148  20.091  24.893  1.00  0.00     0.007 A 
ATOM     19  C   UNL A   1      32.329  20.065  23.337  1.00  0.00     0.007 A 
ATOM     20  C   UNL A   1      34.402  18.739  24.627  1.00  0.00     0.039 A 
ATOM     21  C   UNL A   1      32.524  18.691  23.135  1.00  0.00     0.039 A 
ATOM     22  C   UNL A   1      33.570  18.043  23.771  1.00  0.00     0.123 A 
ATOM     23  F   UNL A   1      33.777  16.737  23.557  1.00  0.00    -0.207 F 
ENDBRANCH   8  17
ENDBRANCH   6   8
ENDBRANCH   4   6
ENDBRANCH   3   4
ENDBRANCH   2   3
ENDBRANCH   1   2
BRANCH   1  24
ATOM     24  O   UNL A   1      38.668  22.288  26.277  1.00  0.00    -0.374 OA
BRANCH  24  25
ATOM     25  C   UNL A   1      38.450  21.288  25.288  1.00  0.00     0.202 C 
BRANCH  25  26
ATOM     26  C   UNL A   1      38.989  19.880  25.579  1.00  0.00     0.261 C 
BRANCH  26  27
ATOM     27  O   UNL A   1      39.923  19.798  26.675  1.00  0.00    -0.460 OA
BRANCH  27  28
ATOM     28  C   UNL A   1      41.207  19.579  26.302  1.00  0.00     0.338 C 
ATOM     29  O   UNL A   1      41.658  18.577  25.749  1.00  0.00    -0.246 OA
BRANCH  28  30
ATOM     30  C   UNL A   1      42.063  20.753  26.552  1.00  0.00     0.060 A 
ATOM     31  C   UNL A   1      42.277  21.149  27.880  1.00  0.00     0.016 A 
ATOM     32  C   UNL A   1      42.500  21.558  25.500  1.00  0.00     0.016 A 
ATOM     33  C   UNL A   1      42.891  22.374  28.162  1.00  0.00     0.010 A 
ATOM     34  C   UNL A   1      43.117  22.784  25.785  1.00  0.00     0.010 A 
ATOM     35  C   UNL A   1      43.285  23.218  27.117  1.00  0.00    -0.014 A 
BRANCH  35  36
ATOM     36  C   UNL A   1      43.732  24.612  27.386  1.00  0.00     0.031 A 
ATOM     37  C   UNL A   1      42.706  25.637  27.787  1.00  0.00     0.074 A 
ATOM     38  C   UNL A   1      45.018  24.988  27.253  1.00  0.00     0.049 A 
ATOM     39  N   UNL A   1      42.855  26.920  28.001  1.00  0.00    -0.248 NA
ATOM     40  C   UNL A   1      41.335  25.145  27.994  1.00  0.00     0.031 C 
ATOM     41  C   UNL A   1      46.137  24.104  26.957  1.00  0.00     0.029 A 
ATOM     42  N   UNL A   1      45.592  26.236  27.306  1.00  0.00    -0.354 N 
ATOM     43  C   UNL A   1      41.609  27.382  28.399  1.00  0.00     0.074 A 
ATOM     44  C   UNL A   1      40.699  26.257  28.334  1.00  0.00     0.031 C 
ATOM     45  C   UNL A   1      47.239  24.837  26.739  1.00  0.00     0.029 A 
ATOM     46  C   UNL A   1      46.910  26.246  26.916  1.00  0.00     0.049 A 
ATOM     47  H   UNL A   1      45.107  27.042  27.597  1.00  0.00     0.167 HD
ATOM     48  C   UNL A   1      41.262  28.621  28.818  1.00  0.00     0.037 A 
ATOM     49  C   UNL A   1      47.755  27.272  26.710  1.00  0.00     0.037 A 
ATOM     50  C   UNL A   1      42.159  29.745  28.874  1.00  0.00     0.049 A 
ATOM     51  C   UNL A   1      47.315  28.670  27.040  1.00  0.00     0.074 A 
ATOM     52  C   UNL A   1      41.911  31.027  29.332  1.00  0.00     0.029 A 
ATOM     53  N   UNL A   1      43.476  29.724  28.439  1.00  0.00    -0.354 N 
ATOM     54  N   UNL A   1      46.156  29.083  27.490  1.00  0.00    -0.248 NA
ATOM     55  C   UNL A   1      48.312  29.736  26.878  1.00  0.00     0.031 C 
ATOM     56  C   UNL A   1      43.063  31.795  29.129  1.00  0.00     0.029 A 
ATOM     57  C   UNL A   1      44.043  30.981  28.585  1.00  0.00     0.049 A 
ATOM     58  H   UNL A   1      43.940  28.933  28.080  1.00  0.00     0.167 HD
ATOM     59  C   UNL A   1      46.300  30.444  27.717  1.00  0.00     0.074 A 
ATOM     60  C   UNL A   1      47.654  30.791  27.340  1.00  0.00     0.031 C 
ATOM     61  C   UNL A   1      45.393  31.319  28.216  1.00  0.00     0.037 A 
BRANCH  48  62
ATOM     62  C   UNL A   1      39.844  28.822  29.260  1.00  0.00     0.064 A 
ATOM     63  C   UNL A   1      39.459  28.603  30.592  1.00  0.00     0.173 A 
ATOM     64  C   UNL A   1      38.869  29.268  28.357  1.00  0.00     0.173 A 
ATOM     65  F   UNL A   1      40.354  28.164  31.490  1.00  0.00    -0.203 F 
ATOM     66  C   UNL A   1      38.143  28.800  30.997  1.00  0.00     0.198 A 
ATOM     67  C   UNL A   1      37.559  29.487  28.771  1.00  0.00     0.198 A 
ATOM     68  F   UNL A   1      39.189  29.494  27.073  1.00  0.00    -0.203 F 
ATOM     69  F   UNL A   1      37.787  28.546  32.264  1.00  0.00    -0.200 F 
ATOM     70  C   UNL A   1      37.195  29.247  30.088  1.00  0.00     0.200 A 
ATOM     71  F   UNL A   1      36.645  29.926  27.894  1.00  0.00    -0.200 F 
ATOM     72  F   UNL A   1      35.928  29.441  30.480  1.00  0.00    -0.200 F 
ENDBRANCH  48  62
BRANCH  49  73
ATOM     73  C   UNL A   1      49.116  27.008  26.182  1.00  0.00     0.064 A 
ATOM     74  C   UNL A   1      50.186  26.724  27.041  1.00  0.00     0.173 A 
ATOM     75  C   UNL A   1      49.370  27.030  24.803  1.00  0.00     0.173 A 
ATOM     76  F   UNL A   1      49.992  26.711  28.368  1.00  0.00    -0.203 F 
ATOM     77  C   UNL A   1      51.464  26.487  26.540  1.00  0.00     0.198 A 
ATOM     78  C   UNL A   1      50.645  26.775  24.302  1.00  0.00     0.198 A 
ATOM     79  F   UNL A   1      48.377  27.298  23.942  1.00  0.00    -0.203 F 
ATOM     80  F   UNL A   1      52.477  26.250  27.384  1.00  0.00    -0.200 F 
ATOM     81  C   UNL A   1      51.691  26.509  25.172  1.00  0.00     0.200 A 
ATOM     82  F   UNL A   1      50.861  26.792  22.980  1.00  0.00    -0.200 F 
ATOM     83  F   UNL A   1      52.922  26.279  24.693  1.00  0.00    -0.200 F 
ENDBRANCH  49  73
BRANCH  61  84
ATOM     84  C   UNL A   1      45.849  32.730  28.435  1.00  0.00     0.064 A 
ATOM     85  C   UNL A   1      46.428  33.139  29.645  1.00  0.00     0.173 A 
ATOM     86  C   UNL A   1      45.733  33.678  27.408  1.00  0.00     0.173 A 
ATOM     87  F   UNL A   1      46.543  32.274  30.664  1.00  0.00    -0.203 F 
ATOM     88  C   UNL A   1      46.852  34.452  29.826  1.00  0.00     0.198 A 
ATOM     89  C   UNL A   1      46.182  34.984  27.583  1.00  0.00     0.198 A 
ATOM     90  F   UNL A   1      45.188  33.336  26.230  1.00  0.00    -0.203 F 
ATOM     91  F   UNL A   1      47.361  34.834  31.006  1.00  0.00    -0.200 F 
ATOM     92  C   UNL A   1      46.736  35.371  28.794  1.00  0.00     0.200 A 
ATOM     93  F   UNL A   1      46.079  35.867  26.580  1.00  0.00    -0.200 F 
ATOM     94  F   UNL A   1      47.151  36.633  28.968  1.00  0.00    -0.200 F 
ENDBRANCH  61  84
ENDBRANCH  35  36
ENDBRANCH  28  30
ENDBRANCH  27  28
ENDBRANCH  26  27
ENDBRANCH  25  26
ENDBRANCH  24  25
ENDBRANCH   1  24
TORSDOF 18
ENDMDL
MODEL 3
REMARK VINA RESULT:     -11.7      3.043      8.016
REMARK SMILES C[C@H](C(=O)OCCOCCOC(=O)c1ccc(-c2c3nc(c(-c4c(F)c(F)c(F)c(F)c4F)c4ccc([nH]4)c(-c4c(F)c(F)c(F)c(F)c4F)c4nc(c(-c5c(F)c(F)c(F)c(F)c5F)c5ccc2[nH]5)C=C4)C=C3)cc1)[C@@H](C(=O)c1ccccc1)c1ccc(F)cc1
REMARK SMILES IDX 7 1 6 2 5 3 3 4 4 5 2 6 1 7 77 8 78 9 79 10 80 11 81 12
REMARK SMILES IDX 85 13 82 14 84 15 83 16 86 17 87 18 92 19 88 20 91 21 89 22
REMARK SMILES IDX 90 23 8 24 9 25 10 26 11 27 12 28 13 29 14 30 15 31 76 32
REMARK SMILES IDX 16 33 75 34 17 35 18 36 19 37 69 38 20 39 74 40 68 41 70 42
REMARK SMILES IDX 21 43 73 44 67 45 66 46 22 48 54 49 34 50 53 51 35 52 38 53
REMARK SMILES IDX 52 54 71 55 36 56 37 57 51 59 72 60 39 61 23 62 24 63 32 64
REMARK SMILES IDX 25 65 26 66 30 67 33 68 27 69 28 70 31 71 29 72 55 73 56 74
REMARK SMILES IDX 64 75 57 76 58 77 62 78 65 79 59 80 60 81 63 82 61 83 40 84
REMARK SMILES IDX 41 85 49 86 42 87 43 88 47 89 50 90 44 91 45 92 48 93 46 94
REMARK H PARENT 70 47 38 58
REMARK Flexibility Score: inf
ROOT
ATOM      1  C   UNL A   1      32.886  26.422  24.654  1.00  0.00     0.202 C 
ENDROOT
BRANCH   1   2
ATOM      2  C   UNL A   1      32.318  25.254  23.841  1.00  0.00     0.261 C 
BRANCH   2   3
ATOM      3  O   UNL A   1      32.999  24.008  24.098  1.00  0.00    -0.463 OA
BRANCH   3   4
ATOM      4  C   UNL A   1      32.221  23.088  24.730  1.00  0.00     0.309 C 
ATOM      5  O   UNL A   1      31.332  23.369  25.529  1.00  0.00    -0.252 OA
BRANCH   4   6
ATOM      6  C   UNL A   1      32.458  21.658  24.265  1.00  0.00     0.111 C 
ATOM      7  C   UNL A   1      32.169  21.723  22.755  1.00  0.00     0.021 C 
BRANCH   6   8
ATOM      8  C   UNL A   1      33.812  20.988  24.674  1.00  0.00     0.105 C 
BRANCH   8   9
ATOM      9  C   UNL A   1      34.440  21.578  25.981  1.00  0.00     0.171 C 
ATOM     10  O   UNL A   1      33.955  21.499  27.110  1.00  0.00    -0.293 OA
BRANCH   9  11
ATOM     11  C   UNL A   1      35.817  22.082  26.007  1.00  0.00     0.018 A 
ATOM     12  C   UNL A   1      35.974  23.457  26.154  1.00  0.00     0.012 A 
ATOM     13  C   UNL A   1      36.916  21.266  25.733  1.00  0.00     0.012 A 
ATOM     14  C   UNL A   1      37.247  24.004  26.095  1.00  0.00     0.001 A 
ATOM     15  C   UNL A   1      38.197  21.822  25.708  1.00  0.00     0.001 A 
ATOM     16  C   UNL A   1      38.362  23.195  25.888  1.00  0.00     0.000 A 
ENDBRANCH   9  11
ENDBRANCH   8   9
BRANCH   8  17
ATOM     17  C   UNL A   1      33.696  19.426  24.719  1.00  0.00    -0.036 A 
ATOM     18  C   UNL A   1      32.525  18.738  25.099  1.00  0.00     0.007 A 
ATOM     19  C   UNL A   1      34.801  18.621  24.368  1.00  0.00     0.007 A 
ATOM     20  C   UNL A   1      32.462  17.340  25.146  1.00  0.00     0.039 A 
ATOM     21  C   UNL A   1      34.715  17.223  24.330  1.00  0.00     0.039 A 
ATOM     22  C   UNL A   1      33.550  16.593  24.734  1.00  0.00     0.123 A 
ATOM     23  F   UNL A   1      33.475  15.256  24.727  1.00  0.00    -0.207 F 
ENDBRANCH   8  17
ENDBRANCH   6   8
ENDBRANCH   4   6
ENDBRANCH   3   4
ENDBRANCH   2   3
ENDBRANCH   1   2
BRANCH   1  24
ATOM     24  O   UNL A   1      32.613  27.734  24.165  1.00  0.00    -0.374 OA
BRANCH  24  25
ATOM     25  C   UNL A   1      33.202  28.827  24.859  1.00  0.00     0.202 C 
BRANCH  25  26
ATOM     26  C   UNL A   1      32.252  29.842  25.513  1.00  0.00     0.261 C 
BRANCH  26  27
ATOM     27  O   UNL A   1      32.465  30.054  26.924  1.00  0.00    -0.460 OA
BRANCH  27  28
ATOM     28  C   UNL A   1      33.135  31.193  27.224  1.00  0.00     0.338 C 
ATOM     29  O   UNL A   1      32.682  32.337  27.246  1.00  0.00    -0.246 OA
BRANCH  28  30
ATOM     30  C   UNL A   1      34.525  30.924  27.630  1.00  0.00     0.060 A 
ATOM     31  C   UNL A   1      34.911  29.592  27.843  1.00  0.00     0.016 A 
ATOM     32  C   UNL A   1      35.387  31.967  27.972  1.00  0.00     0.016 A 
ATOM     33  C   UNL A   1      36.142  29.300  28.439  1.00  0.00     0.010 A 
ATOM     34  C   UNL A   1      36.621  31.671  28.567  1.00  0.00     0.010 A 
ATOM     35  C   UNL A   1      36.993  30.338  28.838  1.00  0.00    -0.014 A 
BRANCH  35  36
ATOM     36  C   UNL A   1      38.196  30.064  29.670  1.00  0.00     0.031 A 
ATOM     37  C   UNL A   1      39.180  29.026  29.201  1.00  0.00     0.074 A 
ATOM     38  C   UNL A   1      38.413  30.692  30.841  1.00  0.00     0.049 A 
ATOM     39  N   UNL A   1      40.256  28.575  29.795  1.00  0.00    -0.248 NA
ATOM     40  C   UNL A   1      38.929  28.436  27.877  1.00  0.00     0.031 C 
ATOM     41  C   UNL A   1      37.606  31.774  31.389  1.00  0.00     0.029 A 
ATOM     42  N   UNL A   1      39.365  30.472  31.808  1.00  0.00    -0.354 N 
ATOM     43  C   UNL A   1      40.826  27.675  28.907  1.00  0.00     0.074 A 
ATOM     44  C   UNL A   1      39.945  27.593  27.761  1.00  0.00     0.031 C 
ATOM     45  C   UNL A   1      38.016  32.048  32.637  1.00  0.00     0.029 A 
ATOM     46  C   UNL A   1      39.142  31.181  32.964  1.00  0.00     0.049 A 
ATOM     47  H   UNL A   1      40.132  29.866  31.684  1.00  0.00     0.167 HD
ATOM     48  C   UNL A   1      41.997  27.007  29.018  1.00  0.00     0.037 A 
ATOM     49  C   UNL A   1      39.763  31.133  34.156  1.00  0.00     0.037 A 
ATOM     50  C   UNL A   1      42.872  27.076  30.158  1.00  0.00     0.049 A 
ATOM     51  C   UNL A   1      40.984  30.274  34.319  1.00  0.00     0.074 A 
ATOM     52  C   UNL A   1      44.104  26.472  30.341  1.00  0.00     0.029 A 
ATOM     53  N   UNL A   1      42.595  27.778  31.322  1.00  0.00    -0.354 N 
ATOM     54  N   UNL A   1      41.558  29.485  33.445  1.00  0.00    -0.248 NA
ATOM     55  C   UNL A   1      41.668  30.331  35.617  1.00  0.00     0.031 C 
ATOM     56  C   UNL A   1      44.551  26.771  31.633  1.00  0.00     0.029 A 
ATOM     57  C   UNL A   1      43.618  27.595  32.240  1.00  0.00     0.049 A 
ATOM     58  H   UNL A   1      41.791  28.326  31.473  1.00  0.00     0.167 HD
ATOM     59  C   UNL A   1      42.698  28.996  34.064  1.00  0.00     0.074 A 
ATOM     60  C   UNL A   1      42.727  29.564  35.395  1.00  0.00     0.031 C 
ATOM     61  C   UNL A   1      43.646  28.169  33.560  1.00  0.00     0.037 A 
BRANCH  48  62
ATOM     62  C   UNL A   1      42.406  26.144  27.862  1.00  0.00     0.064 A 
ATOM     63  C   UNL A   1      41.866  24.860  27.686  1.00  0.00     0.173 A 
ATOM     64  C   UNL A   1      43.317  26.613  26.906  1.00  0.00     0.173 A 
ATOM     65  F   UNL A   1      41.000  24.363  28.581  1.00  0.00    -0.203 F 
ATOM     66  C   UNL A   1      42.244  24.069  26.605  1.00  0.00     0.198 A 
ATOM     67  C   UNL A   1      43.674  25.828  25.813  1.00  0.00     0.198 A 
ATOM     68  F   UNL A   1      43.858  27.835  27.030  1.00  0.00    -0.203 F 
ATOM     69  F   UNL A   1      41.748  22.830  26.477  1.00  0.00    -0.200 F 
ATOM     70  C   UNL A   1      43.142  24.555  25.667  1.00  0.00     0.200 A 
ATOM     71  F   UNL A   1      44.537  26.301  24.904  1.00  0.00    -0.200 F 
ATOM     72  F   UNL A   1      43.503  23.793  24.625  1.00  0.00    -0.200 F 
ENDBRANCH  48  62
BRANCH  49  73
ATOM     73  C   UNL A   1      39.247  31.945  35.286  1.00  0.00     0.064 A 
ATOM     74  C   UNL A   1      39.566  33.303  35.408  1.00  0.00     0.173 A 
ATOM     75  C   UNL A   1      38.420  31.374  36.264  1.00  0.00     0.173 A 
ATOM     76  F   UNL A   1      40.370  33.885  34.506  1.00  0.00    -0.203 F 
ATOM     77  C   UNL A   1      39.089  34.059  36.477  1.00  0.00     0.198 A 
ATOM     78  C   UNL A   1      37.928  32.134  37.323  1.00  0.00     0.198 A 
ATOM     79  F   UNL A   1      38.089  30.077  36.188  1.00  0.00    -0.203 F 
ATOM     80  F   UNL A   1      39.435  35.348  36.590  1.00  0.00    -0.200 F 
ATOM     81  C   UNL A   1      38.267  33.475  37.430  1.00  0.00     0.200 A 
ATOM     82  F   UNL A   1      37.131  31.570  38.239  1.00  0.00    -0.200 F 
ATOM     83  F   UNL A   1      37.807  34.204  38.456  1.00  0.00    -0.200 F 
ENDBRANCH  49  73
BRANCH  61  84
ATOM     84  C   UNL A   1      44.827  27.866  34.433  1.00  0.00     0.064 A 
ATOM     85  C   UNL A   1      44.852  26.749  35.280  1.00  0.00     0.173 A 
ATOM     86  C   UNL A   1      45.962  28.691  34.398  1.00  0.00     0.173 A 
ATOM     87  F   UNL A   1      43.784  25.942  35.363  1.00  0.00    -0.203 F 
ATOM     88  C   UNL A   1      45.962  26.481  36.077  1.00  0.00     0.198 A 
ATOM     89  C   UNL A   1      47.080  28.406  35.177  1.00  0.00     0.198 A 
ATOM     90  F   UNL A   1      45.989  29.771  33.603  1.00  0.00    -0.203 F 
ATOM     91  F   UNL A   1      45.947  25.434  36.912  1.00  0.00    -0.200 F 
ATOM     92  C   UNL A   1      47.077  27.304  36.020  1.00  0.00     0.200 A 
ATOM     93  F   UNL A   1      48.160  29.197  35.112  1.00  0.00    -0.200 F 
ATOM     94  F   UNL A   1      48.146  27.042  36.783  1.00  0.00    -0.200 F 
ENDBRANCH  61  84
ENDBRANCH  35  36
ENDBRANCH  28  30
ENDBRANCH  27  28
ENDBRANCH  26  27
ENDBRANCH  25  26
ENDBRANCH  24  25
ENDBRANCH   1  24
TORSDOF 18
ENDMDL
