MODEL 1
REMARK VINA RESULT:     -12.7      0.000      0.000
REMARK SMILES Cc1ccc(N2C(=O)C[C@H](Sc3ccccc3C(=O)OCCOCCOC(=O)c3ccc(-c4c5nc(c(-c6c(F)c(F)c(F)c(F)c6F)c6ccc([nH]6)c(-c6c(F)c(F)c(F)c(F)c6F)c6nc(c(-c7c(F)c(F)c(F)c(F)c7F)c7ccc4[nH]7)C=C6)C=C5)cc3)C2=O)cc1
REMARK SMILES IDX 22 1 21 2 20 3 18 4 19 5 17 6 12 7 13 8 14 9 16 10 15 11
REMARK SMILES IDX 11 12 10 13 6 14 7 15 92 16 8 17 9 18 93 19 5 20 1 21 2 22
REMARK SMILES IDX 3 23 95 24 4 25 94 26 23 27 24 28 25 29 26 30 27 31 28 32
REMARK SMILES IDX 29 33 30 34 91 35 31 36 90 37 32 38 33 39 34 40 84 41 35 42
REMARK SMILES IDX 89 43 83 44 85 45 36 46 88 47 82 48 81 49 37 51 69 52 49 53
REMARK SMILES IDX 68 54 50 55 53 56 67 57 86 58 51 59 52 60 66 62 87 63 54 64
REMARK SMILES IDX 38 65 39 66 47 67 40 68 41 69 45 70 48 71 42 72 43 73 46 74
REMARK SMILES IDX 44 75 70 76 71 77 79 78 72 79 73 80 77 81 80 82 74 83 75 84
REMARK SMILES IDX 78 85 76 86 55 87 56 88 64 89 57 90 58 91 62 92 65 93 59 94
REMARK SMILES IDX 60 95 63 96 61 97
REMARK H PARENT 85 50 53 61
REMARK Flexibility Score: inf
ROOT
ATOM      1  C   UNL A   1      33.071  27.109  25.971  1.00  0.00     0.202 C 
ENDROOT
BRANCH   1   2
ATOM      2  C   UNL A   1      34.267  26.303  25.647  1.00  0.00     0.261 C 
BRANCH   2   3
ATOM      3  O   UNL A   1      34.061  24.886  25.833  1.00  0.00    -0.460 OA
BRANCH   3   4
ATOM      4  C   UNL A   1      34.851  23.935  25.245  1.00  0.00     0.339 C 
ATOM      5  O   UNL A   1      36.034  23.977  25.046  1.00  0.00    -0.246 OA
BRANCH   4   6
ATOM      6  C   UNL A   1      33.975  22.793  24.905  1.00  0.00     0.073 A 
ATOM      7  C   UNL A   1      33.302  22.677  23.674  1.00  0.00     0.023 A 
ATOM      8  C   UNL A   1      32.643  21.461  23.418  1.00  0.00     0.016 A 
ATOM      9  C   UNL A   1      32.653  20.411  24.344  1.00  0.00     0.001 A 
ATOM     10  C   UNL A   1      33.882  21.770  25.872  1.00  0.00     0.017 A 
ATOM     11  C   UNL A   1      33.244  20.576  25.586  1.00  0.00     0.001 A 
BRANCH   7  12
ATOM     12  S   UNL A   1      32.983  24.015  22.512  1.00  0.00    -0.111 SA
BRANCH  12  13
ATOM     13  C   UNL A   1      31.301  24.631  22.854  1.00  0.00     0.151 C 
ATOM     14  N   UNL A   1      30.218  26.601  23.437  1.00  0.00    -0.250 N 
ATOM     15  C   UNL A   1      30.010  25.745  24.493  1.00  0.00     0.235 C 
ATOM     16  C   UNL A   1      30.992  26.046  22.446  1.00  0.00     0.247 C 
ATOM     17  O   UNL A   1      29.340  25.934  25.498  1.00  0.00    -0.274 OA
ATOM     18  C   UNL A   1      30.940  24.578  24.327  1.00  0.00     0.126 C 
ATOM     19  O   UNL A   1      31.254  26.545  21.361  1.00  0.00    -0.273 OA
BRANCH  14  20
ATOM     20  C   UNL A   1      29.747  27.926  23.400  1.00  0.00     0.052 A 
ATOM     21  C   UNL A   1      28.314  31.990  23.362  1.00  0.00     0.044 C 
ATOM     22  C   UNL A   1      28.806  30.573  23.412  1.00  0.00    -0.051 A 
ATOM     23  C   UNL A   1      28.021  29.538  22.888  1.00  0.00     0.005 A 
ATOM     24  C   UNL A   1      30.071  30.275  23.925  1.00  0.00     0.005 A 
ATOM     25  C   UNL A   1      28.471  28.216  22.920  1.00  0.00     0.027 A 
ATOM     26  C   UNL A   1      30.555  28.966  23.882  1.00  0.00     0.027 A 
ENDBRANCH  14  20
ENDBRANCH  12  13
ENDBRANCH   7  12
ENDBRANCH   4   6
ENDBRANCH   3   4
ENDBRANCH   2   3
ENDBRANCH   1   2
BRANCH   1  27
ATOM     27  O   UNL A   1      33.699  28.151  26.667  1.00  0.00    -0.374 OA
BRANCH  27  28
ATOM     28  C   UNL A   1      33.633  29.382  26.042  1.00  0.00     0.202 C 
BRANCH  28  29
ATOM     29  C   UNL A   1      33.011  30.352  27.018  1.00  0.00     0.261 C 
BRANCH  29  30
ATOM     30  O   UNL A   1      33.893  30.862  28.092  1.00  0.00    -0.460 OA
BRANCH  30  31
ATOM     31  C   UNL A   1      35.194  31.284  28.013  1.00  0.00     0.338 C 
ATOM     32  O   UNL A   1      35.509  32.469  27.971  1.00  0.00    -0.246 OA
BRANCH  31  33
ATOM     33  C   UNL A   1      36.272  30.276  28.256  1.00  0.00     0.060 A 
ATOM     34  C   UNL A   1      36.406  29.660  29.521  1.00  0.00     0.016 A 
ATOM     35  C   UNL A   1      37.205  29.990  27.270  1.00  0.00     0.016 A 
ATOM     36  C   UNL A   1      37.582  28.966  29.869  1.00  0.00     0.010 A 
ATOM     37  C   UNL A   1      38.382  29.339  27.632  1.00  0.00     0.010 A 
ATOM     38  C   UNL A   1      38.623  28.904  28.952  1.00  0.00    -0.014 A 
BRANCH  38  39
ATOM     39  C   UNL A   1      39.997  28.439  29.242  1.00  0.00     0.031 A 
ATOM     40  C   UNL A   1      40.342  27.060  28.847  1.00  0.00     0.074 A 
ATOM     41  C   UNL A   1      41.006  29.269  29.627  1.00  0.00     0.049 A 
ATOM     42  N   UNL A   1      41.435  26.479  29.195  1.00  0.00    -0.248 NA
ATOM     43  C   UNL A   1      39.461  26.179  28.085  1.00  0.00     0.031 C 
ATOM     44  C   UNL A   1      42.458  29.133  29.426  1.00  0.00     0.029 A 
ATOM     45  N   UNL A   1      40.953  30.537  30.218  1.00  0.00    -0.354 N 
ATOM     46  C   UNL A   1      41.579  25.370  28.403  1.00  0.00     0.074 A 
ATOM     47  C   UNL A   1      40.255  25.119  27.900  1.00  0.00     0.031 C 
ATOM     48  C   UNL A   1      43.109  30.072  30.148  1.00  0.00     0.029 A 
ATOM     49  C   UNL A   1      42.115  30.753  30.964  1.00  0.00     0.049 A 
ATOM     50  H   UNL A   1      40.211  31.177  30.123  1.00  0.00     0.167 HD
ATOM     51  C   UNL A   1      42.847  24.923  28.169  1.00  0.00     0.037 A 
ATOM     52  C   UNL A   1      42.034  30.887  32.316  1.00  0.00     0.037 A 
ATOM     53  C   UNL A   1      43.819  25.658  29.008  1.00  0.00     0.049 A 
ATOM     54  C   UNL A   1      42.709  29.707  32.954  1.00  0.00     0.074 A 
ATOM     55  C   UNL A   1      44.839  26.567  28.776  1.00  0.00     0.029 A 
ATOM     56  N   UNL A   1      43.594  25.712  30.380  1.00  0.00    -0.354 N 
ATOM     57  N   UNL A   1      43.180  28.722  32.247  1.00  0.00    -0.248 NA
ATOM     58  C   UNL A   1      42.874  29.488  34.381  1.00  0.00     0.031 C 
ATOM     59  C   UNL A   1      45.209  27.154  30.034  1.00  0.00     0.029 A 
ATOM     60  C   UNL A   1      44.441  26.581  31.034  1.00  0.00     0.049 A 
ATOM     61  H   UNL A   1      42.899  25.184  30.836  1.00  0.00     0.167 HD
ATOM     62  C   UNL A   1      43.723  27.776  33.037  1.00  0.00     0.074 A 
ATOM     63  C   UNL A   1      43.448  28.268  34.383  1.00  0.00     0.031 C 
ATOM     64  C   UNL A   1      44.344  26.687  32.492  1.00  0.00     0.037 A 
BRANCH  51  65
ATOM     65  C   UNL A   1      43.259  23.939  27.083  1.00  0.00     0.064 A 
ATOM     66  C   UNL A   1      42.911  22.574  27.204  1.00  0.00     0.173 A 
ATOM     67  C   UNL A   1      44.035  24.231  25.938  1.00  0.00     0.173 A 
ATOM     68  F   UNL A   1      42.169  22.133  28.229  1.00  0.00    -0.203 F 
ATOM     69  C   UNL A   1      43.316  21.602  26.281  1.00  0.00     0.198 A 
ATOM     70  C   UNL A   1      44.407  23.264  24.996  1.00  0.00     0.198 A 
ATOM     71  F   UNL A   1      44.509  25.448  25.675  1.00  0.00    -0.203 F 
ATOM     72  F   UNL A   1      42.985  20.318  26.482  1.00  0.00    -0.200 F 
ATOM     73  C   UNL A   1      44.057  21.947  25.172  1.00  0.00     0.200 A 
ATOM     74  F   UNL A   1      45.126  23.629  23.924  1.00  0.00    -0.200 F 
ATOM     75  F   UNL A   1      44.438  21.020  24.284  1.00  0.00    -0.200 F 
ENDBRANCH  51  65
BRANCH  52  76
ATOM     76  C   UNL A   1      40.775  31.576  32.757  1.00  0.00     0.064 A 
ATOM     77  C   UNL A   1      40.655  32.967  32.535  1.00  0.00     0.173 A 
ATOM     78  C   UNL A   1      39.581  30.858  32.915  1.00  0.00     0.173 A 
ATOM     79  F   UNL A   1      41.753  33.708  32.310  1.00  0.00    -0.203 F 
ATOM     80  C   UNL A   1      39.408  33.575  32.345  1.00  0.00     0.198 A 
ATOM     81  C   UNL A   1      38.336  31.465  32.702  1.00  0.00     0.198 A 
ATOM     82  F   UNL A   1      39.616  29.536  33.130  1.00  0.00    -0.203 F 
ATOM     83  F   UNL A   1      39.340  34.850  31.929  1.00  0.00    -0.200 F 
ATOM     84  C   UNL A   1      38.254  32.809  32.375  1.00  0.00     0.200 A 
ATOM     85  F   UNL A   1      37.221  30.722  32.701  1.00  0.00    -0.200 F 
ATOM     86  F   UNL A   1      37.087  33.341  31.981  1.00  0.00    -0.200 F 
ENDBRANCH  52  76
BRANCH  64  87
ATOM     87  C   UNL A   1      44.872  25.582  33.344  1.00  0.00     0.064 A 
ATOM     88  C   UNL A   1      44.042  24.790  34.143  1.00  0.00     0.173 A 
ATOM     89  C   UNL A   1      46.252  25.287  33.394  1.00  0.00     0.173 A 
ATOM     90  F   UNL A   1      42.746  25.096  34.307  1.00  0.00    -0.203 F 
ATOM     91  C   UNL A   1      44.529  23.666  34.801  1.00  0.00     0.198 A 
ATOM     92  C   UNL A   1      46.748  24.212  34.113  1.00  0.00     0.198 A 
ATOM     93  F   UNL A   1      47.165  26.001  32.723  1.00  0.00    -0.203 F 
ATOM     94  F   UNL A   1      43.678  22.859  35.447  1.00  0.00    -0.200 F 
ATOM     95  C   UNL A   1      45.881  23.372  34.779  1.00  0.00     0.200 A 
ATOM     96  F   UNL A   1      48.068  23.980  34.128  1.00  0.00    -0.200 F 
ATOM     97  F   UNL A   1      46.348  22.283  35.399  1.00  0.00    -0.200 F 
ENDBRANCH  64  87
ENDBRANCH  38  39
ENDBRANCH  31  33
ENDBRANCH  30  31
ENDBRANCH  29  30
ENDBRANCH  28  29
ENDBRANCH  27  28
ENDBRANCH   1  27
TORSDOF 17
ENDMDL
MODEL 2
REMARK VINA RESULT:     -11.9      3.509      9.454
REMARK SMILES Cc1ccc(N2C(=O)C[C@H](Sc3ccccc3C(=O)OCCOCCOC(=O)c3ccc(-c4c5nc(c(-c6c(F)c(F)c(F)c(F)c6F)c6ccc([nH]6)c(-c6c(F)c(F)c(F)c(F)c6F)c6nc(c(-c7c(F)c(F)c(F)c(F)c7F)c7ccc4[nH]7)C=C6)C=C5)cc3)C2=O)cc1
REMARK SMILES IDX 22 1 21 2 20 3 18 4 19 5 17 6 12 7 13 8 14 9 16 10 15 11
REMARK SMILES IDX 11 12 10 13 6 14 7 15 92 16 8 17 9 18 93 19 5 20 1 21 2 22
REMARK SMILES IDX 3 23 95 24 4 25 94 26 23 27 24 28 25 29 26 30 27 31 28 32
REMARK SMILES IDX 29 33 30 34 91 35 31 36 90 37 32 38 33 39 34 40 84 41 35 42
REMARK SMILES IDX 89 43 83 44 85 45 36 46 88 47 82 48 81 49 37 51 69 52 49 53
REMARK SMILES IDX 68 54 50 55 53 56 67 57 86 58 51 59 52 60 66 62 87 63 54 64
REMARK SMILES IDX 38 65 39 66 47 67 40 68 41 69 45 70 48 71 42 72 43 73 46 74
REMARK SMILES IDX 44 75 70 76 71 77 79 78 72 79 73 80 77 81 80 82 74 83 75 84
REMARK SMILES IDX 78 85 76 86 55 87 56 88 64 89 57 90 58 91 62 92 65 93 59 94
REMARK SMILES IDX 60 95 63 96 61 97
REMARK H PARENT 85 50 53 61
REMARK Flexibility Score: inf
ROOT
ATOM      1  C   UNL A   1      39.735  20.468  26.362  1.00  0.00     0.202 C 
ENDROOT
BRANCH   1   2
ATOM      2  C   UNL A   1      38.928  20.178  25.158  1.00  0.00     0.261 C 
BRANCH   2   3
ATOM      3  O   UNL A   1      37.511  20.350  25.371  1.00  0.00    -0.460 OA
BRANCH   3   4
ATOM      4  C   UNL A   1      36.776  21.321  24.746  1.00  0.00     0.339 C 
ATOM      5  O   UNL A   1      37.176  22.246  24.094  1.00  0.00    -0.246 OA
BRANCH   4   6
ATOM      6  C   UNL A   1      35.350  21.016  24.997  1.00  0.00     0.073 A 
ATOM      7  C   UNL A   1      34.411  21.988  25.392  1.00  0.00     0.023 A 
ATOM      8  C   UNL A   1      33.062  21.595  25.428  1.00  0.00     0.016 A 
ATOM      9  C   UNL A   1      32.666  20.295  25.089  1.00  0.00     0.001 A 
ATOM     10  C   UNL A   1      34.948  19.683  24.767  1.00  0.00     0.017 A 
ATOM     11  C   UNL A   1      33.612  19.329  24.790  1.00  0.00     0.001 A 
BRANCH   7  12
ATOM     12  S   UNL A   1      34.791  23.599  26.100  1.00  0.00    -0.111 SA
BRANCH  12  13
ATOM     13  C   UNL A   1      34.586  24.830  24.770  1.00  0.00     0.151 C 
ATOM     14  N   UNL A   1      32.899  25.962  23.645  1.00  0.00    -0.250 N 
ATOM     15  C   UNL A   1      33.512  25.183  22.692  1.00  0.00     0.235 C 
ATOM     16  C   UNL A   1      33.439  25.795  24.899  1.00  0.00     0.247 C 
ATOM     17  O   UNL A   1      33.284  25.139  21.492  1.00  0.00    -0.274 OA
ATOM     18  C   UNL A   1      34.393  24.198  23.404  1.00  0.00     0.126 C 
ATOM     19  O   UNL A   1      33.151  26.426  25.906  1.00  0.00    -0.273 OA
BRANCH  14  20
ATOM     20  C   UNL A   1      31.793  26.793  23.384  1.00  0.00     0.052 A 
ATOM     21  C   UNL A   1      28.438  29.389  22.628  1.00  0.00     0.044 C 
ATOM     22  C   UNL A   1      29.614  28.505  22.922  1.00  0.00    -0.051 A 
ATOM     23  C   UNL A   1      29.414  27.212  23.423  1.00  0.00     0.005 A 
ATOM     24  C   UNL A   1      30.916  28.934  22.647  1.00  0.00     0.005 A 
ATOM     25  C   UNL A   1      30.500  26.375  23.692  1.00  0.00     0.027 A 
ATOM     26  C   UNL A   1      31.994  28.068  22.838  1.00  0.00     0.027 A 
ENDBRANCH  14  20
ENDBRANCH  12  13
ENDBRANCH   7  12
ENDBRANCH   4   6
ENDBRANCH   3   4
ENDBRANCH   2   3
ENDBRANCH   1   2
BRANCH   1  27
ATOM     27  O   UNL A   1      40.999  20.529  25.762  1.00  0.00    -0.374 OA
BRANCH  27  28
ATOM     28  C   UNL A   1      41.755  21.627  26.122  1.00  0.00     0.202 C 
BRANCH  28  29
ATOM     29  C   UNL A   1      41.317  22.044  27.506  1.00  0.00     0.261 C 
BRANCH  29  30
ATOM     30  O   UNL A   1      41.006  23.479  27.693  1.00  0.00    -0.460 OA
BRANCH  30  31
ATOM     31  C   UNL A   1      39.915  24.190  27.265  1.00  0.00     0.338 C 
ATOM     32  O   UNL A   1      38.931  23.660  26.760  1.00  0.00    -0.246 OA
BRANCH  31  33
ATOM     33  C   UNL A   1      39.813  25.625  27.671  1.00  0.00     0.060 A 
ATOM     34  C   UNL A   1      40.182  26.653  26.773  1.00  0.00     0.016 A 
ATOM     35  C   UNL A   1      39.431  25.968  28.959  1.00  0.00     0.016 A 
ATOM     36  C   UNL A   1      40.400  27.969  27.227  1.00  0.00     0.010 A 
ATOM     37  C   UNL A   1      39.687  27.260  29.411  1.00  0.00     0.010 A 
ATOM     38  C   UNL A   1      40.259  28.246  28.581  1.00  0.00    -0.014 A 
BRANCH  38  39
ATOM     39  C   UNL A   1      40.684  29.494  29.250  1.00  0.00     0.031 A 
ATOM     40  C   UNL A   1      39.633  30.471  29.592  1.00  0.00     0.074 A 
ATOM     41  C   UNL A   1      41.930  29.681  29.771  1.00  0.00     0.049 A 
ATOM     42  N   UNL A   1      39.885  31.659  30.014  1.00  0.00    -0.248 NA
ATOM     43  C   UNL A   1      38.203  30.231  29.424  1.00  0.00     0.031 C 
ATOM     44  C   UNL A   1      42.358  30.536  30.890  1.00  0.00     0.029 A 
ATOM     45  N   UNL A   1      43.136  29.035  29.474  1.00  0.00    -0.354 N 
ATOM     46  C   UNL A   1      38.723  32.162  30.538  1.00  0.00     0.074 A 
ATOM     47  C   UNL A   1      37.690  31.342  29.963  1.00  0.00     0.031 C 
ATOM     48  C   UNL A   1      43.708  30.584  30.937  1.00  0.00     0.029 A 
ATOM     49  C   UNL A   1      44.205  29.889  29.759  1.00  0.00     0.049 A 
ATOM     50  H   UNL A   1      43.218  28.121  29.117  1.00  0.00     0.167 HD
ATOM     51  C   UNL A   1      38.830  33.109  31.515  1.00  0.00     0.037 A 
ATOM     52  C   UNL A   1      45.002  30.335  28.750  1.00  0.00     0.037 A 
ATOM     53  C   UNL A   1      40.238  33.536  31.672  1.00  0.00     0.049 A 
ATOM     54  C   UNL A   1      44.799  31.815  28.600  1.00  0.00     0.074 A 
ATOM     55  C   UNL A   1      41.208  33.408  32.652  1.00  0.00     0.029 A 
ATOM     56  N   UNL A   1      40.925  33.960  30.539  1.00  0.00    -0.354 N 
ATOM     57  N   UNL A   1      43.915  32.461  29.303  1.00  0.00    -0.248 NA
ATOM     58  C   UNL A   1      45.492  32.680  27.659  1.00  0.00     0.031 C 
ATOM     59  C   UNL A   1      42.475  33.765  32.078  1.00  0.00     0.029 A 
ATOM     60  C   UNL A   1      42.274  34.143  30.760  1.00  0.00     0.049 A 
ATOM     61  H   UNL A   1      40.491  34.114  29.668  1.00  0.00     0.167 HD
ATOM     62  C   UNL A   1      43.906  33.770  28.984  1.00  0.00     0.074 A 
ATOM     63  C   UNL A   1      44.870  33.853  27.893  1.00  0.00     0.031 C 
ATOM     64  C   UNL A   1      43.101  34.644  29.659  1.00  0.00     0.037 A 
BRANCH  51  65
ATOM     65  C   UNL A   1      37.714  33.555  32.450  1.00  0.00     0.064 A 
ATOM     66  C   UNL A   1      36.587  34.227  31.926  1.00  0.00     0.173 A 
ATOM     67  C   UNL A   1      37.697  33.422  33.858  1.00  0.00     0.173 A 
ATOM     68  F   UNL A   1      36.445  34.428  30.609  1.00  0.00    -0.203 F 
ATOM     69  C   UNL A   1      35.557  34.727  32.733  1.00  0.00     0.198 A 
ATOM     70  C   UNL A   1      36.648  33.889  34.660  1.00  0.00     0.198 A 
ATOM     71  F   UNL A   1      38.694  32.869  34.546  1.00  0.00    -0.203 F 
ATOM     72  F   UNL A   1      34.537  35.392  32.171  1.00  0.00    -0.200 F 
ATOM     73  C   UNL A   1      35.583  34.552  34.099  1.00  0.00     0.200 A 
ATOM     74  F   UNL A   1      36.698  33.702  35.987  1.00  0.00    -0.200 F 
ATOM     75  F   UNL A   1      34.596  35.023  34.872  1.00  0.00    -0.200 F 
ENDBRANCH  51  65
BRANCH  52  76
ATOM     76  C   UNL A   1      45.184  29.317  27.662  1.00  0.00     0.064 A 
ATOM     77  C   UNL A   1      46.077  28.244  27.885  1.00  0.00     0.173 A 
ATOM     78  C   UNL A   1      44.192  29.118  26.690  1.00  0.00     0.173 A 
ATOM     79  F   UNL A   1      47.011  28.338  28.847  1.00  0.00    -0.203 F 
ATOM     80  C   UNL A   1      45.898  26.999  27.269  1.00  0.00     0.198 A 
ATOM     81  C   UNL A   1      44.004  27.865  26.092  1.00  0.00     0.198 A 
ATOM     82  F   UNL A   1      43.311  30.091  26.422  1.00  0.00    -0.203 F 
ATOM     83  F   UNL A   1      46.634  25.946  27.661  1.00  0.00    -0.200 F 
ATOM     84  C   UNL A   1      44.827  26.798  26.415  1.00  0.00     0.200 A 
ATOM     85  F   UNL A   1      42.951  27.660  25.289  1.00  0.00    -0.200 F 
ATOM     86  F   UNL A   1      44.527  25.559  25.997  1.00  0.00    -0.200 F 
ENDBRANCH  52  76
BRANCH  64  87
ATOM     87  C   UNL A   1      43.005  36.080  29.266  1.00  0.00     0.064 A 
ATOM     88  C   UNL A   1      43.611  37.100  30.005  1.00  0.00     0.173 A 
ATOM     89  C   UNL A   1      42.277  36.482  28.125  1.00  0.00     0.173 A 
ATOM     90  F   UNL A   1      44.174  36.851  31.197  1.00  0.00    -0.203 F 
ATOM     91  C   UNL A   1      43.646  38.409  29.535  1.00  0.00     0.198 A 
ATOM     92  C   UNL A   1      42.248  37.801  27.700  1.00  0.00     0.198 A 
ATOM     93  F   UNL A   1      41.601  35.616  27.360  1.00  0.00    -0.203 F 
ATOM     94  F   UNL A   1      44.351  39.331  30.204  1.00  0.00    -0.200 F 
ATOM     95  C   UNL A   1      42.972  38.757  28.378  1.00  0.00     0.200 A 
ATOM     96  F   UNL A   1      41.539  38.127  26.611  1.00  0.00    -0.200 F 
ATOM     97  F   UNL A   1      43.018  40.012  27.919  1.00  0.00    -0.200 F 
ENDBRANCH  64  87
ENDBRANCH  38  39
ENDBRANCH  31  33
ENDBRANCH  30  31
ENDBRANCH  29  30
ENDBRANCH  28  29
ENDBRANCH  27  28
ENDBRANCH   1  27
TORSDOF 17
ENDMDL
MODEL 3
REMARK VINA RESULT:     -11.8      5.569     10.667
REMARK SMILES Cc1ccc(N2C(=O)C[C@H](Sc3ccccc3C(=O)OCCOCCOC(=O)c3ccc(-c4c5nc(c(-c6c(F)c(F)c(F)c(F)c6F)c6ccc([nH]6)c(-c6c(F)c(F)c(F)c(F)c6F)c6nc(c(-c7c(F)c(F)c(F)c(F)c7F)c7ccc4[nH]7)C=C6)C=C5)cc3)C2=O)cc1
REMARK SMILES IDX 22 1 21 2 20 3 18 4 19 5 17 6 12 7 13 8 14 9 16 10 15 11
REMARK SMILES IDX 11 12 10 13 6 14 7 15 92 16 8 17 9 18 93 19 5 20 1 21 2 22
REMARK SMILES IDX 3 23 95 24 4 25 94 26 23 27 24 28 25 29 26 30 27 31 28 32
REMARK SMILES IDX 29 33 30 34 91 35 31 36 90 37 32 38 33 39 34 40 84 41 35 42
REMARK SMILES IDX 89 43 83 44 85 45 36 46 88 47 82 48 81 49 37 51 69 52 49 53
REMARK SMILES IDX 68 54 50 55 53 56 67 57 86 58 51 59 52 60 66 62 87 63 54 64
REMARK SMILES IDX 38 65 39 66 47 67 40 68 41 69 45 70 48 71 42 72 43 73 46 74
REMARK SMILES IDX 44 75 70 76 71 77 79 78 72 79 73 80 77 81 80 82 74 83 75 84
REMARK SMILES IDX 78 85 76 86 55 87 56 88 64 89 57 90 58 91 62 92 65 93 59 94
REMARK SMILES IDX 60 95 63 96 61 97
REMARK H PARENT 85 50 53 61
REMARK Flexibility Score: inf
ROOT
ATOM      1  C   UNL A   1      46.652  24.687  25.636  1.00  0.00     0.202 C 
ENDROOT
BRANCH   1   2
ATOM      2  C   UNL A   1      46.385  23.569  24.706  1.00  0.00     0.261 C 
BRANCH   2   3
ATOM      3  O   UNL A   1      45.450  22.605  25.234  1.00  0.00    -0.460 OA
BRANCH   3   4
ATOM      4  C   UNL A   1      44.503  21.986  24.463  1.00  0.00     0.339 C 
ATOM      5  O   UNL A   1      44.528  21.788  23.279  1.00  0.00    -0.246 OA
BRANCH   4   6
ATOM      6  C   UNL A   1      43.412  21.565  25.369  1.00  0.00     0.073 A 
ATOM      7  C   UNL A   1      42.418  22.443  25.840  1.00  0.00     0.023 A 
ATOM      8  C   UNL A   1      41.348  21.873  26.553  1.00  0.00     0.016 A 
ATOM      9  C   UNL A   1      41.273  20.494  26.787  1.00  0.00     0.001 A 
ATOM     10  C   UNL A   1      43.379  20.196  25.709  1.00  0.00     0.017 A 
ATOM     11  C   UNL A   1      42.305  19.658  26.394  1.00  0.00     0.001 A 
BRANCH   7  12
ATOM     12  S   UNL A   1      42.511  24.241  25.846  1.00  0.00    -0.111 SA
BRANCH  12  13
ATOM     13  C   UNL A   1      42.021  24.797  27.512  1.00  0.00     0.151 C 
ATOM     14  N   UNL A   1      40.863  26.530  28.535  1.00  0.00    -0.250 N 
ATOM     15  C   UNL A   1      42.156  26.639  28.989  1.00  0.00     0.235 C 
ATOM     16  C   UNL A   1      40.697  25.500  27.640  1.00  0.00     0.247 C 
ATOM     17  O   UNL A   1      42.604  27.425  29.811  1.00  0.00    -0.274 OA
ATOM     18  C   UNL A   1      43.018  25.758  28.132  1.00  0.00     0.126 C 
ATOM     19  O   UNL A   1      39.641  25.120  27.154  1.00  0.00    -0.273 OA
BRANCH  14  20
ATOM     20  C   UNL A   1      39.830  27.417  28.894  1.00  0.00     0.052 A 
ATOM     21  C   UNL A   1      36.718  30.189  29.988  1.00  0.00     0.044 C 
ATOM     22  C   UNL A   1      37.827  29.249  29.617  1.00  0.00    -0.051 A 
ATOM     23  C   UNL A   1      38.131  28.160  30.443  1.00  0.00     0.005 A 
ATOM     24  C   UNL A   1      38.530  29.412  28.420  1.00  0.00     0.005 A 
ATOM     25  C   UNL A   1      39.156  27.272  30.105  1.00  0.00     0.027 A 
ATOM     26  C   UNL A   1      39.497  28.478  28.041  1.00  0.00     0.027 A 
ENDBRANCH  14  20
ENDBRANCH  12  13
ENDBRANCH   7  12
ENDBRANCH   4   6
ENDBRANCH   3   4
ENDBRANCH   2   3
ENDBRANCH   1   2
BRANCH   1  27
ATOM     27  O   UNL A   1      46.284  25.751  24.802  1.00  0.00    -0.374 OA
BRANCH  27  28
ATOM     28  C   UNL A   1      45.393  26.643  25.366  1.00  0.00     0.202 C 
BRANCH  28  29
ATOM     29  C   UNL A   1      46.155  27.908  25.678  1.00  0.00     0.261 C 
BRANCH  29  30
ATOM     30  O   UNL A   1      45.580  28.781  26.726  1.00  0.00    -0.460 OA
BRANCH  30  31
ATOM     31  C   UNL A   1      45.392  30.139  26.711  1.00  0.00     0.338 C 
ATOM     32  O   UNL A   1      45.954  30.881  25.913  1.00  0.00    -0.246 OA
BRANCH  31  33
ATOM     33  C   UNL A   1      44.263  30.696  27.517  1.00  0.00     0.060 A 
ATOM     34  C   UNL A   1      44.476  31.786  28.392  1.00  0.00     0.016 A 
ATOM     35  C   UNL A   1      43.010  30.104  27.481  1.00  0.00     0.016 A 
ATOM     36  C   UNL A   1      43.531  32.117  29.383  1.00  0.00     0.010 A 
ATOM     37  C   UNL A   1      42.097  30.407  28.487  1.00  0.00     0.010 A 
ATOM     38  C   UNL A   1      42.381  31.346  29.501  1.00  0.00    -0.014 A 
BRANCH  38  39
ATOM     39  C   UNL A   1      41.423  31.400  30.625  1.00  0.00     0.031 A 
ATOM     40  C   UNL A   1      40.421  32.483  30.610  1.00  0.00     0.074 A 
ATOM     41  C   UNL A   1      41.264  30.391  31.528  1.00  0.00     0.049 A 
ATOM     42  N   UNL A   1      39.649  32.745  31.604  1.00  0.00    -0.248 NA
ATOM     43  C   UNL A   1      40.240  33.419  29.503  1.00  0.00     0.031 C 
ATOM     44  C   UNL A   1      40.076  30.013  32.311  1.00  0.00     0.029 A 
ATOM     45  N   UNL A   1      42.139  29.358  31.886  1.00  0.00    -0.354 N 
ATOM     46  C   UNL A   1      38.649  33.560  31.142  1.00  0.00     0.074 A 
ATOM     47  C   UNL A   1      39.174  34.109  29.920  1.00  0.00     0.031 C 
ATOM     48  C   UNL A   1      40.415  29.088  33.236  1.00  0.00     0.029 A 
ATOM     49  C   UNL A   1      41.862  28.945  33.192  1.00  0.00     0.049 A 
ATOM     50  H   UNL A   1      42.841  28.983  31.307  1.00  0.00     0.167 HD
ATOM     51  C   UNL A   1      37.452  33.521  31.797  1.00  0.00     0.037 A 
ATOM     52  C   UNL A   1      42.791  29.128  34.170  1.00  0.00     0.037 A 
ATOM     53  C   UNL A   1      37.560  32.707  33.028  1.00  0.00     0.049 A 
ATOM     54  C   UNL A   1      42.262  30.138  35.147  1.00  0.00     0.074 A 
ATOM     55  C   UNL A   1      37.049  31.494  33.460  1.00  0.00     0.029 A 
ATOM     56  N   UNL A   1      38.571  33.015  33.931  1.00  0.00    -0.354 N 
ATOM     57  N   UNL A   1      41.131  30.752  34.954  1.00  0.00    -0.248 NA
ATOM     58  C   UNL A   1      42.931  30.586  36.358  1.00  0.00     0.031 C 
ATOM     59  C   UNL A   1      37.776  31.095  34.633  1.00  0.00     0.029 A 
ATOM     60  C   UNL A   1      38.705  32.078  34.935  1.00  0.00     0.049 A 
ATOM     61  H   UNL A   1      39.135  33.820  33.861  1.00  0.00     0.167 HD
ATOM     62  C   UNL A   1      40.875  31.619  35.953  1.00  0.00     0.074 A 
ATOM     63  C   UNL A   1      42.070  31.532  36.785  1.00  0.00     0.031 C 
ATOM     64  C   UNL A   1      39.699  32.315  35.985  1.00  0.00     0.037 A 
BRANCH  51  65
ATOM     65  C   UNL A   1      36.133  34.074  31.275  1.00  0.00     0.064 A 
ATOM     66  C   UNL A   1      35.310  34.847  32.126  1.00  0.00     0.173 A 
ATOM     67  C   UNL A   1      35.578  33.849  29.994  1.00  0.00     0.173 A 
ATOM     68  F   UNL A   1      35.694  35.159  33.371  1.00  0.00    -0.203 F 
ATOM     69  C   UNL A   1      34.054  35.328  31.737  1.00  0.00     0.198 A 
ATOM     70  C   UNL A   1      34.338  34.362  29.594  1.00  0.00     0.198 A 
ATOM     71  F   UNL A   1      36.173  33.098  29.069  1.00  0.00    -0.203 F 
ATOM     72  F   UNL A   1      33.308  36.019  32.611  1.00  0.00    -0.200 F 
ATOM     73  C   UNL A   1      33.570  35.093  30.468  1.00  0.00     0.200 A 
ATOM     74  F   UNL A   1      33.893  34.120  28.352  1.00  0.00    -0.200 F 
ATOM     75  F   UNL A   1      32.372  35.559  30.092  1.00  0.00    -0.200 F 
ENDBRANCH  51  65
BRANCH  52  76
ATOM     76  C   UNL A   1      44.198  28.984  33.669  1.00  0.00     0.064 A 
ATOM     77  C   UNL A   1      44.713  27.682  33.473  1.00  0.00     0.173 A 
ATOM     78  C   UNL A   1      44.816  30.020  32.952  1.00  0.00     0.173 A 
ATOM     79  F   UNL A   1      44.130  26.632  34.075  1.00  0.00    -0.203 F 
ATOM     80  C   UNL A   1      45.697  27.419  32.512  1.00  0.00     0.198 A 
ATOM     81  C   UNL A   1      45.784  29.749  31.977  1.00  0.00     0.198 A 
ATOM     82  F   UNL A   1      44.383  31.280  33.088  1.00  0.00    -0.203 F 
ATOM     83  F   UNL A   1      46.012  26.149  32.205  1.00  0.00    -0.200 F 
ATOM     84  C   UNL A   1      46.190  28.448  31.727  1.00  0.00     0.200 A 
ATOM     85  F   UNL A   1      46.240  30.738  31.196  1.00  0.00    -0.200 F 
ATOM     86  F   UNL A   1      46.964  28.170  30.667  1.00  0.00    -0.200 F 
ENDBRANCH  52  76
BRANCH  64  87
ATOM     87  C   UNL A   1      39.430  33.347  37.028  1.00  0.00     0.064 A 
ATOM     88  C   UNL A   1      38.647  33.083  38.157  1.00  0.00     0.173 A 
ATOM     89  C   UNL A   1      39.947  34.656  36.918  1.00  0.00     0.173 A 
ATOM     90  F   UNL A   1      37.965  31.934  38.272  1.00  0.00    -0.203 F 
ATOM     91  C   UNL A   1      38.542  34.004  39.194  1.00  0.00     0.198 A 
ATOM     92  C   UNL A   1      39.776  35.600  37.919  1.00  0.00     0.198 A 
ATOM     93  F   UNL A   1      40.665  35.060  35.863  1.00  0.00    -0.203 F 
ATOM     94  F   UNL A   1      37.895  33.663  40.316  1.00  0.00    -0.200 F 
ATOM     95  C   UNL A   1      39.114  35.259  39.079  1.00  0.00     0.200 A 
ATOM     96  F   UNL A   1      40.286  36.828  37.760  1.00  0.00    -0.200 F 
ATOM     97  F   UNL A   1      39.026  36.138  40.082  1.00  0.00    -0.200 F 
ENDBRANCH  64  87
ENDBRANCH  38  39
ENDBRANCH  31  33
ENDBRANCH  30  31
ENDBRANCH  29  30
ENDBRANCH  28  29
ENDBRANCH  27  28
ENDBRANCH   1  27
TORSDOF 17
ENDMDL
