MODEL 1
REMARK VINA RESULT:     -11.6      0.000      0.000
REMARK SMILES COc1ccc(C(=O)c2ccccc2)cc1[C@@H](C)C(=O)OCCOCCOC(=O)c1ccc(-c2c3nc(c(-c4c(F)c(F)c(F)c(F)c4F)c4ccc([nH]4)c(-c4c(F)c(F)c(F)c(F)c4F)c4nc(c(-c5c(F)c(F)c(F)c(F)c5F)c5ccc2[nH]5)C=C4)C=C3)cc1
REMARK SMILES IDX 23 1 22 2 21 3 19 4 20 5 17 6 18 7 16 8 3 9 4 10 5 11 15 12
REMARK SMILES IDX 6 13 2 14 1 15 7 16 8 17 9 18 10 19 14 20 11 21 13 22 12 23
REMARK SMILES IDX 24 24 25 25 26 26 27 27 28 28 29 29 30 30 31 31 92 32 32 33
REMARK SMILES IDX 91 34 33 35 34 36 35 37 85 38 36 39 90 40 84 41 86 42 37 43
REMARK SMILES IDX 89 44 83 45 82 46 38 48 70 49 50 50 69 51 51 52 54 53 68 54
REMARK SMILES IDX 87 55 52 56 53 57 67 59 88 60 55 61 39 62 40 63 48 64 41 65
REMARK SMILES IDX 42 66 46 67 49 68 43 69 44 70 47 71 45 72 71 73 72 74 80 75
REMARK SMILES IDX 73 76 74 77 78 78 81 79 75 80 76 81 79 82 77 83 56 84 57 85
REMARK SMILES IDX 65 86 58 87 59 88 63 89 66 90 60 91 61 92 64 93 62 94
REMARK H PARENT 86 47 54 58
REMARK Flexibility Score: inf
ROOT
ATOM      1  C   UNL A   1      33.041  30.567  27.355  1.00  0.00     0.202 C 
ENDROOT
BRANCH   1   2
ATOM      2  C   UNL A   1      33.990  29.725  26.498  1.00  0.00     0.261 C 
BRANCH   2   3
ATOM      3  O   UNL A   1      33.358  29.356  25.256  1.00  0.00    -0.463 OA
BRANCH   3   4
ATOM      4  C   UNL A   1      33.325  28.029  24.960  1.00  0.00     0.313 C 
ATOM      5  O   UNL A   1      33.864  27.153  25.626  1.00  0.00    -0.252 OA
BRANCH   4   6
ATOM      6  C   UNL A   1      32.574  27.734  23.670  1.00  0.00     0.130 C 
ATOM      7  C   UNL A   1      32.743  28.898  22.693  1.00  0.00     0.025 C 
BRANCH   6   8
ATOM      8  C   UNL A   1      31.110  27.328  23.827  1.00  0.00     0.009 A 
ATOM      9  C   UNL A   1      30.745  26.008  24.128  1.00  0.00     0.122 A 
ATOM     10  C   UNL A   1      29.407  25.608  24.112  1.00  0.00     0.047 A 
ATOM     11  C   UNL A   1      28.404  26.527  23.804  1.00  0.00     0.016 A 
ATOM     12  C   UNL A   1      30.073  28.255  23.595  1.00  0.00     0.020 A 
ATOM     13  C   UNL A   1      28.728  27.860  23.526  1.00  0.00     0.023 A 
BRANCH   9  14
ATOM     14  O   UNL A   1      31.685  25.036  24.340  1.00  0.00    -0.496 OA
ATOM     15  C   UNL A   1      31.502  24.413  25.614  1.00  0.00     0.278 C 
ENDBRANCH   9  14
BRANCH  13  16
ATOM     16  C   UNL A   1      27.614  28.796  23.181  1.00  0.00     0.193 C 
ATOM     17  O   UNL A   1      26.457  28.437  23.402  1.00  0.00    -0.289 OA
BRANCH  16  18
ATOM     18  C   UNL A   1      27.831  30.164  22.631  1.00  0.00     0.022 A 
ATOM     19  C   UNL A   1      27.846  31.229  23.538  1.00  0.00     0.012 A 
ATOM     20  C   UNL A   1      28.015  30.435  21.271  1.00  0.00     0.012 A 
ATOM     21  C   UNL A   1      28.168  32.520  23.117  1.00  0.00     0.001 A 
ATOM     22  C   UNL A   1      28.351  31.725  20.850  1.00  0.00     0.001 A 
ATOM     23  C   UNL A   1      28.449  32.762  21.776  1.00  0.00     0.000 A 
ENDBRANCH  16  18
ENDBRANCH  13  16
ENDBRANCH   6   8
ENDBRANCH   4   6
ENDBRANCH   3   4
ENDBRANCH   2   3
ENDBRANCH   1   2
BRANCH   1  24
ATOM     24  O   UNL A   1      31.766  30.818  26.764  1.00  0.00    -0.374 OA
BRANCH  24  25
ATOM     25  C   UNL A   1      31.381  32.188  26.654  1.00  0.00     0.202 C 
BRANCH  25  26
ATOM     26  C   UNL A   1      32.446  33.206  27.072  1.00  0.00     0.261 C 
BRANCH  26  27
ATOM     27  O   UNL A   1      32.250  33.663  28.421  1.00  0.00    -0.460 OA
BRANCH  27  28
ATOM     28  C   UNL A   1      32.965  34.761  28.758  1.00  0.00     0.338 C 
ATOM     29  O   UNL A   1      32.664  35.932  28.571  1.00  0.00    -0.246 OA
BRANCH  28  30
ATOM     30  C   UNL A   1      34.139  34.367  29.556  1.00  0.00     0.060 A 
ATOM     31  C   UNL A   1      35.392  34.367  28.927  1.00  0.00     0.016 A 
ATOM     32  C   UNL A   1      34.015  33.942  30.877  1.00  0.00     0.016 A 
ATOM     33  C   UNL A   1      36.522  33.911  29.609  1.00  0.00     0.010 A 
ATOM     34  C   UNL A   1      35.148  33.476  31.550  1.00  0.00     0.010 A 
ATOM     35  C   UNL A   1      36.407  33.439  30.920  1.00  0.00    -0.014 A 
BRANCH  35  36
ATOM     36  C   UNL A   1      37.557  32.785  31.600  1.00  0.00     0.031 A 
ATOM     37  C   UNL A   1      38.224  31.607  30.940  1.00  0.00     0.074 A 
ATOM     38  C   UNL A   1      37.995  33.208  32.803  1.00  0.00     0.049 A 
ATOM     39  N   UNL A   1      39.192  30.842  31.379  1.00  0.00    -0.248 NA
ATOM     40  C   UNL A   1      37.716  31.228  29.612  1.00  0.00     0.031 C 
ATOM     41  C   UNL A   1      37.439  34.325  33.564  1.00  0.00     0.029 A 
ATOM     42  N   UNL A   1      39.001  32.726  33.604  1.00  0.00    -0.354 N 
ATOM     43  C   UNL A   1      39.392  29.885  30.393  1.00  0.00     0.074 A 
ATOM     44  C   UNL A   1      38.409  30.130  29.360  1.00  0.00     0.031 C 
ATOM     45  C   UNL A   1      38.103  34.435  34.727  1.00  0.00     0.029 A 
ATOM     46  C   UNL A   1      39.117  33.384  34.803  1.00  0.00     0.049 A 
ATOM     47  H   UNL A   1      39.585  31.976  33.343  1.00  0.00     0.167 HD
ATOM     48  C   UNL A   1      40.329  28.908  30.333  1.00  0.00     0.037 A 
ATOM     49  C   UNL A   1      39.938  33.159  35.848  1.00  0.00     0.037 A 
ATOM     50  C   UNL A   1      41.335  28.683  31.335  1.00  0.00     0.049 A 
ATOM     51  C   UNL A   1      40.960  32.052  35.770  1.00  0.00     0.074 A 
ATOM     52  C   UNL A   1      42.371  27.767  31.327  1.00  0.00     0.029 A 
ATOM     53  N   UNL A   1      41.429  29.385  32.527  1.00  0.00    -0.354 N 
ATOM     54  N   UNL A   1      41.185  31.199  34.802  1.00  0.00    -0.248 NA
ATOM     55  C   UNL A   1      41.851  31.889  36.929  1.00  0.00     0.031 C 
ATOM     56  C   UNL A   1      43.070  27.886  32.533  1.00  0.00     0.029 A 
ATOM     57  C   UNL A   1      42.496  28.908  33.272  1.00  0.00     0.049 A 
ATOM     58  H   UNL A   1      40.828  30.114  32.803  1.00  0.00     0.167 HD
ATOM     59  C   UNL A   1      42.266  30.429  35.214  1.00  0.00     0.074 A 
ATOM     60  C   UNL A   1      42.653  30.915  36.521  1.00  0.00     0.031 C 
ATOM     61  C   UNL A   1      42.885  29.414  34.563  1.00  0.00     0.037 A 
BRANCH  48  62
ATOM     62  C   UNL A   1      40.308  28.011  29.130  1.00  0.00     0.064 A 
ATOM     63  C   UNL A   1      39.566  26.819  29.113  1.00  0.00     0.173 A 
ATOM     64  C   UNL A   1      41.028  28.352  27.975  1.00  0.00     0.173 A 
ATOM     65  F   UNL A   1      38.871  26.441  30.196  1.00  0.00    -0.203 F 
ATOM     66  C   UNL A   1      39.578  25.984  28.000  1.00  0.00     0.198 A 
ATOM     67  C   UNL A   1      41.010  27.530  26.852  1.00  0.00     0.198 A 
ATOM     68  F   UNL A   1      41.746  29.485  27.936  1.00  0.00    -0.203 F 
ATOM     69  F   UNL A   1      38.910  24.823  28.029  1.00  0.00    -0.200 F 
ATOM     70  C   UNL A   1      40.295  26.343  26.868  1.00  0.00     0.200 A 
ATOM     71  F   UNL A   1      41.693  27.885  25.753  1.00  0.00    -0.200 F 
ATOM     72  F   UNL A   1      40.304  25.539  25.796  1.00  0.00    -0.200 F 
ENDBRANCH  48  62
BRANCH  49  73
ATOM     73  C   UNL A   1      39.841  34.008  37.065  1.00  0.00     0.064 A 
ATOM     74  C   UNL A   1      39.024  33.636  38.142  1.00  0.00     0.173 A 
ATOM     75  C   UNL A   1      40.543  35.216  37.163  1.00  0.00     0.173 A 
ATOM     76  F   UNL A   1      38.315  32.499  38.083  1.00  0.00    -0.203 F 
ATOM     77  C   UNL A   1      38.896  34.453  39.263  1.00  0.00     0.198 A 
ATOM     78  C   UNL A   1      40.433  36.021  38.296  1.00  0.00     0.198 A 
ATOM     79  F   UNL A   1      41.343  35.613  36.163  1.00  0.00    -0.203 F 
ATOM     80  F   UNL A   1      38.073  34.097  40.258  1.00  0.00    -0.200 F 
ATOM     81  C   UNL A   1      39.603  35.644  39.341  1.00  0.00     0.200 A 
ATOM     82  F   UNL A   1      41.127  37.165  38.373  1.00  0.00    -0.200 F 
ATOM     83  F   UNL A   1      39.480  36.430  40.419  1.00  0.00    -0.200 F 
ENDBRANCH  49  73
BRANCH  61  84
ATOM     84  C   UNL A   1      44.082  28.792  35.223  1.00  0.00     0.064 A 
ATOM     85  C   UNL A   1      43.966  27.681  36.071  1.00  0.00     0.173 A 
ATOM     86  C   UNL A   1      45.370  29.287  34.963  1.00  0.00     0.173 A 
ATOM     87  F   UNL A   1      42.757  27.179  36.363  1.00  0.00    -0.203 F 
ATOM     88  C   UNL A   1      45.094  27.102  36.650  1.00  0.00     0.198 A 
ATOM     89  C   UNL A   1      46.496  28.690  35.521  1.00  0.00     0.198 A 
ATOM     90  F   UNL A   1      45.537  30.345  34.154  1.00  0.00    -0.203 F 
ATOM     91  F   UNL A   1      44.955  26.068  37.490  1.00  0.00    -0.200 F 
ATOM     92  C   UNL A   1      46.356  27.601  36.369  1.00  0.00     0.200 A 
ATOM     93  F   UNL A   1      47.717  29.165  35.238  1.00  0.00    -0.200 F 
ATOM     94  F   UNL A   1      47.440  27.038  36.921  1.00  0.00    -0.200 F 
ENDBRANCH  61  84
ENDBRANCH  35  36
ENDBRANCH  28  30
ENDBRANCH  27  28
ENDBRANCH  26  27
ENDBRANCH  25  26
ENDBRANCH  24  25
ENDBRANCH   1  24
TORSDOF 18
ENDMDL
MODEL 2
REMARK VINA RESULT:     -11.4      0.789      7.313
REMARK SMILES COc1ccc(C(=O)c2ccccc2)cc1[C@@H](C)C(=O)OCCOCCOC(=O)c1ccc(-c2c3nc(c(-c4c(F)c(F)c(F)c(F)c4F)c4ccc([nH]4)c(-c4c(F)c(F)c(F)c(F)c4F)c4nc(c(-c5c(F)c(F)c(F)c(F)c5F)c5ccc2[nH]5)C=C4)C=C3)cc1
REMARK SMILES IDX 23 1 22 2 21 3 19 4 20 5 17 6 18 7 16 8 3 9 4 10 5 11 15 12
REMARK SMILES IDX 6 13 2 14 1 15 7 16 8 17 9 18 10 19 14 20 11 21 13 22 12 23
REMARK SMILES IDX 24 24 25 25 26 26 27 27 28 28 29 29 30 30 31 31 92 32 32 33
REMARK SMILES IDX 91 34 33 35 34 36 35 37 85 38 36 39 90 40 84 41 86 42 37 43
REMARK SMILES IDX 89 44 83 45 82 46 38 48 70 49 50 50 69 51 51 52 54 53 68 54
REMARK SMILES IDX 87 55 52 56 53 57 67 59 88 60 55 61 39 62 40 63 48 64 41 65
REMARK SMILES IDX 42 66 46 67 49 68 43 69 44 70 47 71 45 72 71 73 72 74 80 75
REMARK SMILES IDX 73 76 74 77 78 78 81 79 75 80 76 81 79 82 77 83 56 84 57 85
REMARK SMILES IDX 65 86 58 87 59 88 63 89 66 90 60 91 61 92 64 93 62 94
REMARK H PARENT 86 47 54 58
REMARK Flexibility Score: inf
ROOT
ATOM      1  C   UNL A   1      33.651  30.739  27.462  1.00  0.00     0.202 C 
ENDROOT
BRANCH   1   2
ATOM      2  C   UNL A   1      34.465  29.564  26.916  1.00  0.00     0.261 C 
BRANCH   2   3
ATOM      3  O   UNL A   1      33.985  29.177  25.613  1.00  0.00    -0.463 OA
BRANCH   3   4
ATOM      4  C   UNL A   1      33.334  27.986  25.532  1.00  0.00     0.313 C 
ATOM      5  O   UNL A   1      33.208  27.197  26.461  1.00  0.00    -0.252 OA
BRANCH   4   6
ATOM      6  C   UNL A   1      32.804  27.700  24.135  1.00  0.00     0.130 C 
ATOM      7  C   UNL A   1      33.056  28.905  23.227  1.00  0.00     0.025 C 
BRANCH   6   8
ATOM      8  C   UNL A   1      31.357  27.219  24.055  1.00  0.00     0.009 A 
ATOM      9  C   UNL A   1      31.038  25.853  24.069  1.00  0.00     0.122 A 
ATOM     10  C   UNL A   1      29.733  25.413  23.835  1.00  0.00     0.047 A 
ATOM     11  C   UNL A   1      28.716  26.336  23.592  1.00  0.00     0.016 A 
ATOM     12  C   UNL A   1      30.298  28.133  23.884  1.00  0.00     0.020 A 
ATOM     13  C   UNL A   1      28.991  27.708  23.598  1.00  0.00     0.023 A 
BRANCH   9  14
ATOM     14  O   UNL A   1      32.006  24.894  24.203  1.00  0.00    -0.496 OA
ATOM     15  C   UNL A   1      32.233  24.217  22.964  1.00  0.00     0.278 C 
ENDBRANCH   9  14
BRANCH  13  16
ATOM     16  C   UNL A   1      27.866  28.651  23.309  1.00  0.00     0.193 C 
ATOM     17  O   UNL A   1      26.716  28.280  23.544  1.00  0.00    -0.289 OA
BRANCH  16  18
ATOM     18  C   UNL A   1      28.065  30.037  22.799  1.00  0.00     0.022 A 
ATOM     19  C   UNL A   1      28.374  30.187  21.443  1.00  0.00     0.012 A 
ATOM     20  C   UNL A   1      27.961  31.181  23.597  1.00  0.00     0.012 A 
ATOM     21  C   UNL A   1      28.450  31.454  20.864  1.00  0.00     0.001 A 
ATOM     22  C   UNL A   1      28.025  32.451  23.016  1.00  0.00     0.001 A 
ATOM     23  C   UNL A   1      28.247  32.586  21.647  1.00  0.00     0.000 A 
ENDBRANCH  16  18
ENDBRANCH  13  16
ENDBRANCH   6   8
ENDBRANCH   4   6
ENDBRANCH   3   4
ENDBRANCH   2   3
ENDBRANCH   1   2
BRANCH   1  24
ATOM     24  O   UNL A   1      32.285  30.766  27.045  1.00  0.00    -0.374 OA
BRANCH  24  25
ATOM     25  C   UNL A   1      31.697  32.058  26.895  1.00  0.00     0.202 C 
BRANCH  25  26
ATOM     26  C   UNL A   1      32.643  33.241  27.122  1.00  0.00     0.261 C 
BRANCH  26  27
ATOM     27  O   UNL A   1      32.262  34.017  28.271  1.00  0.00    -0.460 OA
BRANCH  27  28
ATOM     28  C   UNL A   1      33.137  34.992  28.613  1.00  0.00     0.338 C 
ATOM     29  O   UNL A   1      32.998  36.199  28.474  1.00  0.00    -0.246 OA
BRANCH  28  30
ATOM     30  C   UNL A   1      34.271  34.408  29.351  1.00  0.00     0.060 A 
ATOM     31  C   UNL A   1      35.554  34.553  28.807  1.00  0.00     0.016 A 
ATOM     32  C   UNL A   1      34.081  33.676  30.522  1.00  0.00     0.016 A 
ATOM     33  C   UNL A   1      36.651  33.939  29.415  1.00  0.00     0.010 A 
ATOM     34  C   UNL A   1      35.182  33.054  31.119  1.00  0.00     0.010 A 
ATOM     35  C   UNL A   1      36.471  33.164  30.566  1.00  0.00    -0.014 A 
BRANCH  35  36
ATOM     36  C   UNL A   1      37.589  32.357  31.125  1.00  0.00     0.031 A 
ATOM     37  C   UNL A   1      38.118  32.691  32.495  1.00  0.00     0.074 A 
ATOM     38  C   UNL A   1      38.153  31.355  30.422  1.00  0.00     0.049 A 
ATOM     39  N   UNL A   1      39.127  32.172  33.149  1.00  0.00    -0.248 NA
ATOM     40  C   UNL A   1      37.428  33.770  33.217  1.00  0.00     0.031 C 
ATOM     41  C   UNL A   1      37.753  30.930  29.082  1.00  0.00     0.029 A 
ATOM     42  N   UNL A   1      39.202  30.527  30.736  1.00  0.00    -0.354 N 
ATOM     43  C   UNL A   1      39.202  32.874  34.345  1.00  0.00     0.074 A 
ATOM     44  C   UNL A   1      38.175  33.892  34.302  1.00  0.00     0.031 C 
ATOM     45  C   UNL A   1      38.556  29.927  28.683  1.00  0.00     0.029 A 
ATOM     46  C   UNL A   1      39.539  29.654  29.730  1.00  0.00     0.049 A 
ATOM     47  H   UNL A   1      39.671  30.556  31.602  1.00  0.00     0.167 HD
ATOM     48  C   UNL A   1      40.028  32.673  35.400  1.00  0.00     0.037 A 
ATOM     49  C   UNL A   1      40.533  28.747  29.657  1.00  0.00     0.037 A 
ATOM     50  C   UNL A   1      41.024  31.637  35.467  1.00  0.00     0.049 A 
ATOM     51  C   UNL A   1      41.456  28.554  30.834  1.00  0.00     0.074 A 
ATOM     52  C   UNL A   1      41.857  31.309  36.521  1.00  0.00     0.029 A 
ATOM     53  N   UNL A   1      41.321  30.763  34.434  1.00  0.00    -0.354 N 
ATOM     54  N   UNL A   1      41.471  29.176  31.986  1.00  0.00    -0.248 NA
ATOM     55  C   UNL A   1      42.492  27.517  30.702  1.00  0.00     0.031 C 
ATOM     56  C   UNL A   1      42.687  30.260  36.112  1.00  0.00     0.029 A 
ATOM     57  C   UNL A   1      42.339  29.905  34.819  1.00  0.00     0.049 A 
ATOM     58  H   UNL A   1      40.874  30.751  33.557  1.00  0.00     0.167 HD
ATOM     59  C   UNL A   1      42.484  28.582  32.730  1.00  0.00     0.074 A 
ATOM     60  C   UNL A   1      43.062  27.548  31.898  1.00  0.00     0.031 C 
ATOM     61  C   UNL A   1      42.893  28.866  33.991  1.00  0.00     0.037 A 
BRANCH  48  62
ATOM     62  C   UNL A   1      39.879  33.595  36.574  1.00  0.00     0.064 A 
ATOM     63  C   UNL A   1      40.609  34.791  36.668  1.00  0.00     0.173 A 
ATOM     64  C   UNL A   1      38.986  33.288  37.611  1.00  0.00     0.173 A 
ATOM     65  F   UNL A   1      41.484  35.125  35.708  1.00  0.00    -0.203 F 
ATOM     66  C   UNL A   1      40.479  35.623  37.776  1.00  0.00     0.198 A 
ATOM     67  C   UNL A   1      38.835  34.140  38.702  1.00  0.00     0.198 A 
ATOM     68  F   UNL A   1      38.258  32.162  37.566  1.00  0.00    -0.203 F 
ATOM     69  F   UNL A   1      41.230  36.730  37.872  1.00  0.00    -0.200 F 
ATOM     70  C   UNL A   1      39.588  35.301  38.789  1.00  0.00     0.200 A 
ATOM     71  F   UNL A   1      37.964  33.834  39.674  1.00  0.00    -0.200 F 
ATOM     72  F   UNL A   1      39.463  36.105  39.854  1.00  0.00    -0.200 F 
ENDBRANCH  48  62
BRANCH  49  73
ATOM     73  C   UNL A   1      40.707  27.935  28.424  1.00  0.00     0.064 A 
ATOM     74  C   UNL A   1      40.110  26.673  28.300  1.00  0.00     0.173 A 
ATOM     75  C   UNL A   1      41.492  28.395  27.358  1.00  0.00     0.173 A 
ATOM     76  F   UNL A   1      39.368  26.182  29.304  1.00  0.00    -0.203 F 
ATOM     77  C   UNL A   1      40.310  25.891  27.164  1.00  0.00     0.198 A 
ATOM     78  C   UNL A   1      41.672  27.621  26.212  1.00  0.00     0.198 A 
ATOM     79  F   UNL A   1      42.080  29.598  27.425  1.00  0.00    -0.203 F 
ATOM     80  F   UNL A   1      39.765  24.670  27.090  1.00  0.00    -0.200 F 
ATOM     81  C   UNL A   1      41.088  26.367  26.120  1.00  0.00     0.200 A 
ATOM     82  F   UNL A   1      42.414  28.090  25.200  1.00  0.00    -0.200 F 
ATOM     83  F   UNL A   1      41.280  25.615  25.027  1.00  0.00    -0.200 F 
ENDBRANCH  49  73
BRANCH  61  84
ATOM     84  C   UNL A   1      43.982  28.014  34.577  1.00  0.00     0.064 A 
ATOM     85  C   UNL A   1      45.329  28.402  34.534  1.00  0.00     0.173 A 
ATOM     86  C   UNL A   1      43.665  26.814  35.233  1.00  0.00     0.173 A 
ATOM     87  F   UNL A   1      45.686  29.532  33.906  1.00  0.00    -0.203 F 
ATOM     88  C   UNL A   1      46.320  27.609  35.110  1.00  0.00     0.198 A 
ATOM     89  C   UNL A   1      44.654  26.039  35.831  1.00  0.00     0.198 A 
ATOM     90  F   UNL A   1      42.390  26.400  35.307  1.00  0.00    -0.203 F 
ATOM     91  F   UNL A   1      47.605  27.979  35.020  1.00  0.00    -0.200 F 
ATOM     92  C   UNL A   1      45.982  26.434  35.763  1.00  0.00     0.200 A 
ATOM     93  F   UNL A   1      44.323  24.910  36.474  1.00  0.00    -0.200 F 
ATOM     94  F   UNL A   1      46.935  25.678  36.323  1.00  0.00    -0.200 F 
ENDBRANCH  61  84
ENDBRANCH  35  36
ENDBRANCH  28  30
ENDBRANCH  27  28
ENDBRANCH  26  27
ENDBRANCH  25  26
ENDBRANCH  24  25
ENDBRANCH   1  24
TORSDOF 18
ENDMDL
MODEL 3
REMARK VINA RESULT:     -11.3      2.192      8.367
REMARK SMILES COc1ccc(C(=O)c2ccccc2)cc1[C@@H](C)C(=O)OCCOCCOC(=O)c1ccc(-c2c3nc(c(-c4c(F)c(F)c(F)c(F)c4F)c4ccc([nH]4)c(-c4c(F)c(F)c(F)c(F)c4F)c4nc(c(-c5c(F)c(F)c(F)c(F)c5F)c5ccc2[nH]5)C=C4)C=C3)cc1
REMARK SMILES IDX 23 1 22 2 21 3 19 4 20 5 17 6 18 7 16 8 3 9 4 10 5 11 15 12
REMARK SMILES IDX 6 13 2 14 1 15 7 16 8 17 9 18 10 19 14 20 11 21 13 22 12 23
REMARK SMILES IDX 24 24 25 25 26 26 27 27 28 28 29 29 30 30 31 31 92 32 32 33
REMARK SMILES IDX 91 34 33 35 34 36 35 37 85 38 36 39 90 40 84 41 86 42 37 43
REMARK SMILES IDX 89 44 83 45 82 46 38 48 70 49 50 50 69 51 51 52 54 53 68 54
REMARK SMILES IDX 87 55 52 56 53 57 67 59 88 60 55 61 39 62 40 63 48 64 41 65
REMARK SMILES IDX 42 66 46 67 49 68 43 69 44 70 47 71 45 72 71 73 72 74 80 75
REMARK SMILES IDX 73 76 74 77 78 78 81 79 75 80 76 81 79 82 77 83 56 84 57 85
REMARK SMILES IDX 65 86 58 87 59 88 63 89 66 90 60 91 61 92 64 93 62 94
REMARK H PARENT 86 47 54 58
REMARK Flexibility Score: inf
ROOT
ATOM      1  C   UNL A   1      34.770  33.108  28.398  1.00  0.00     0.202 C 
ENDROOT
BRANCH   1   2
ATOM      2  C   UNL A   1      35.219  31.728  27.909  1.00  0.00     0.261 C 
BRANCH   2   3
ATOM      3  O   UNL A   1      34.092  30.971  27.426  1.00  0.00    -0.463 OA
BRANCH   3   4
ATOM      4  C   UNL A   1      34.309  29.653  27.169  1.00  0.00     0.313 C 
ATOM      5  O   UNL A   1      35.331  29.045  27.465  1.00  0.00    -0.252 OA
BRANCH   4   6
ATOM      6  C   UNL A   1      33.153  29.001  26.425  1.00  0.00     0.130 C 
ATOM      7  C   UNL A   1      32.032  28.656  27.407  1.00  0.00     0.025 C 
BRANCH   6   8
ATOM      8  C   UNL A   1      33.516  27.815  25.534  1.00  0.00     0.009 A 
ATOM      9  C   UNL A   1      33.483  27.914  24.135  1.00  0.00     0.122 A 
ATOM     10  C   UNL A   1      33.659  26.788  23.328  1.00  0.00     0.047 A 
ATOM     11  C   UNL A   1      33.881  25.539  23.907  1.00  0.00     0.016 A 
ATOM     12  C   UNL A   1      33.819  26.557  26.092  1.00  0.00     0.020 A 
ATOM     13  C   UNL A   1      33.948  25.406  25.298  1.00  0.00     0.023 A 
BRANCH   9  14
ATOM     14  O   UNL A   1      33.171  29.090  23.508  1.00  0.00    -0.496 OA
ATOM     15  C   UNL A   1      31.947  28.974  22.779  1.00  0.00     0.278 C 
ENDBRANCH   9  14
BRANCH  13  16
ATOM     16  C   UNL A   1      34.168  24.039  25.864  1.00  0.00     0.193 C 
ATOM     17  O   UNL A   1      33.291  23.553  26.579  1.00  0.00    -0.289 OA
BRANCH  16  18
ATOM     18  C   UNL A   1      35.369  23.209  25.566  1.00  0.00     0.022 A 
ATOM     19  C   UNL A   1      36.624  23.787  25.788  1.00  0.00     0.012 A 
ATOM     20  C   UNL A   1      35.308  21.899  25.079  1.00  0.00     0.012 A 
ATOM     21  C   UNL A   1      37.790  23.033  25.654  1.00  0.00     0.001 A 
ATOM     22  C   UNL A   1      36.475  21.139  24.956  1.00  0.00     0.001 A 
ATOM     23  C   UNL A   1      37.713  21.700  25.265  1.00  0.00     0.000 A 
ENDBRANCH  16  18
ENDBRANCH  13  16
ENDBRANCH   6   8
ENDBRANCH   4   6
ENDBRANCH   3   4
ENDBRANCH   2   3
ENDBRANCH   1   2
BRANCH   1  24
ATOM     24  O   UNL A   1      33.361  33.335  28.338  1.00  0.00    -0.374 OA
BRANCH  24  25
ATOM     25  C   UNL A   1      32.940  34.697  28.390  1.00  0.00     0.202 C 
BRANCH  25  26
ATOM     26  C   UNL A   1      33.301  35.449  29.675  1.00  0.00     0.261 C 
BRANCH  26  27
ATOM     27  O   UNL A   1      32.385  35.153  30.743  1.00  0.00    -0.460 OA
BRANCH  27  28
ATOM     28  C   UNL A   1      32.724  35.681  31.943  1.00  0.00     0.338 C 
ATOM     29  O   UNL A   1      32.115  36.529  32.581  1.00  0.00    -0.246 OA
BRANCH  28  30
ATOM     30  C   UNL A   1      33.889  34.966  32.491  1.00  0.00     0.060 A 
ATOM     31  C   UNL A   1      35.138  35.599  32.426  1.00  0.00     0.016 A 
ATOM     32  C   UNL A   1      33.780  33.674  33.002  1.00  0.00     0.016 A 
ATOM     33  C   UNL A   1      36.290  34.929  32.845  1.00  0.00     0.010 A 
ATOM     34  C   UNL A   1      34.938  33.005  33.408  1.00  0.00     0.010 A 
ATOM     35  C   UNL A   1      36.203  33.615  33.318  1.00  0.00    -0.014 A 
BRANCH  35  36
ATOM     36  C   UNL A   1      37.431  32.822  33.598  1.00  0.00     0.031 A 
ATOM     37  C   UNL A   1      38.216  33.107  34.852  1.00  0.00     0.074 A 
ATOM     38  C   UNL A   1      37.866  31.877  32.742  1.00  0.00     0.049 A 
ATOM     39  N   UNL A   1      39.349  32.593  35.261  1.00  0.00    -0.248 NA
ATOM     40  C   UNL A   1      37.658  34.125  35.755  1.00  0.00     0.031 C 
ATOM     41  C   UNL A   1      37.216  31.503  31.488  1.00  0.00     0.029 A 
ATOM     42  N   UNL A   1      38.978  31.072  32.795  1.00  0.00    -0.354 N 
ATOM     43  C   UNL A   1      39.644  33.238  36.455  1.00  0.00     0.074 A 
ATOM     44  C   UNL A   1      38.605  34.220  36.674  1.00  0.00     0.031 C 
ATOM     45  C   UNL A   1      37.947  30.551  30.883  1.00  0.00     0.029 A 
ATOM     46  C   UNL A   1      39.127  30.262  31.696  1.00  0.00     0.049 A 
ATOM     47  H   UNL A   1      39.610  31.076  33.550  1.00  0.00     0.167 HD
ATOM     48  C   UNL A   1      40.671  33.015  37.311  1.00  0.00     0.037 A 
ATOM     49  C   UNL A   1      40.109  29.395  31.376  1.00  0.00     0.037 A 
ATOM     50  C   UNL A   1      41.685  32.014  37.122  1.00  0.00     0.049 A 
ATOM     51  C   UNL A   1      41.254  29.177  32.333  1.00  0.00     0.074 A 
ATOM     52  C   UNL A   1      42.721  31.664  37.969  1.00  0.00     0.029 A 
ATOM     53  N   UNL A   1      41.790  31.202  36.003  1.00  0.00    -0.354 N 
ATOM     54  N   UNL A   1      41.485  29.743  33.492  1.00  0.00    -0.248 NA
ATOM     55  C   UNL A   1      42.268  28.186  31.940  1.00  0.00     0.031 C 
ATOM     56  C   UNL A   1      43.478  30.666  37.346  1.00  0.00     0.029 A 
ATOM     57  C   UNL A   1      42.886  30.363  36.130  1.00  0.00     0.049 A 
ATOM     58  H   UNL A   1      41.177  31.217  35.234  1.00  0.00     0.167 HD
ATOM     59  C   UNL A   1      42.641  29.150  33.985  1.00  0.00     0.074 A 
ATOM     60  C   UNL A   1      43.066  28.179  32.999  1.00  0.00     0.031 C 
ATOM     61  C   UNL A   1      43.288  29.386  35.152  1.00  0.00     0.037 A 
BRANCH  48  62
ATOM     62  C   UNL A   1      40.738  33.873  38.541  1.00  0.00     0.064 A 
ATOM     63  C   UNL A   1      41.524  35.035  38.585  1.00  0.00     0.173 A 
ATOM     64  C   UNL A   1      39.996  33.539  39.683  1.00  0.00     0.173 A 
ATOM     65  F   UNL A   1      42.261  35.393  37.523  1.00  0.00    -0.203 F 
ATOM     66  C   UNL A   1      41.597  35.807  39.741  1.00  0.00     0.198 A 
ATOM     67  C   UNL A   1      40.046  34.331  40.827  1.00  0.00     0.198 A 
ATOM     68  F   UNL A   1      39.221  32.443  39.690  1.00  0.00    -0.203 F 
ATOM     69  F   UNL A   1      42.401  36.878  39.780  1.00  0.00    -0.200 F 
ATOM     70  C   UNL A   1      40.853  35.458  40.859  1.00  0.00     0.200 A 
ATOM     71  F   UNL A   1      39.316  34.000  41.902  1.00  0.00    -0.200 F 
ATOM     72  F   UNL A   1      40.923  36.203  41.970  1.00  0.00    -0.200 F 
ENDBRANCH  48  62
BRANCH  49  73
ATOM     73  C   UNL A   1      40.052  28.651  30.091  1.00  0.00     0.064 A 
ATOM     74  C   UNL A   1      39.437  27.394  30.010  1.00  0.00     0.173 A 
ATOM     75  C   UNL A   1      40.631  29.171  28.925  1.00  0.00     0.173 A 
ATOM     76  F   UNL A   1      38.888  26.846  31.105  1.00  0.00    -0.203 F 
ATOM     77  C   UNL A   1      39.422  26.675  28.817  1.00  0.00     0.198 A 
ATOM     78  C   UNL A   1      40.596  28.461  27.727  1.00  0.00     0.198 A 
ATOM     79  F   UNL A   1      41.227  30.373  28.949  1.00  0.00    -0.203 F 
ATOM     80  F   UNL A   1      38.868  25.456  28.778  1.00  0.00    -0.200 F 
ATOM     81  C   UNL A   1      40.000  27.210  27.675  1.00  0.00     0.200 A 
ATOM     82  F   UNL A   1      41.144  28.987  26.623  1.00  0.00    -0.200 F 
ATOM     83  F   UNL A   1      39.986  26.519  26.527  1.00  0.00    -0.200 F 
ENDBRANCH  49  73
BRANCH  61  84
ATOM     84  C   UNL A   1      44.494  28.545  35.461  1.00  0.00     0.064 A 
ATOM     85  C   UNL A   1      45.782  28.924  35.060  1.00  0.00     0.173 A 
ATOM     86  C   UNL A   1      44.360  27.367  36.213  1.00  0.00     0.173 A 
ATOM     87  F   UNL A   1      45.962  30.033  34.327  1.00  0.00    -0.203 F 
ATOM     88  C   UNL A   1      46.891  28.143  35.383  1.00  0.00     0.198 A 
ATOM     89  C   UNL A   1      45.472  26.605  36.558  1.00  0.00     0.198 A 
ATOM     90  F   UNL A   1      43.149  26.963  36.627  1.00  0.00    -0.203 F 
ATOM     91  F   UNL A   1      48.108  28.503  34.952  1.00  0.00    -0.200 F 
ATOM     92  C   UNL A   1      46.736  26.990  36.137  1.00  0.00     0.200 A 
ATOM     93  F   UNL A   1      45.322  25.497  37.298  1.00  0.00    -0.200 F 
ATOM     94  F   UNL A   1      47.804  26.246  36.453  1.00  0.00    -0.200 F 
ENDBRANCH  61  84
ENDBRANCH  35  36
ENDBRANCH  28  30
ENDBRANCH  27  28
ENDBRANCH  26  27
ENDBRANCH  25  26
ENDBRANCH  24  25
ENDBRANCH   1  24
TORSDOF 18
ENDMDL
