MODEL 1
REMARK VINA RESULT:     -11.8      0.000      0.000
REMARK SMILES O=C(OCCOCCOC(=O)c1cccc2c(=O)oc(=O)[nH]c12)c1ccc(-c2c3nc(c(-c4c(F)c(F)c(F)c(F)c4F)c4ccc([nH]4)c(-c4c(F)c(F)c(F)c(F)c4F)c4nc(c(-c5c(F)c(F)c(F)c(F)c5F)c5ccc2[nH]5)C=C4)C=C3)cc1
REMARK SMILES IDX 5 1 4 2 3 3 2 4 1 5 24 6 25 7 86 8 26 9 85 10 27 11 28 12
REMARK SMILES IDX 29 13 79 14 30 15 84 16 78 17 80 18 31 19 83 20 77 21 76 22
REMARK SMILES IDX 32 24 64 25 44 26 63 27 45 28 48 29 62 30 81 31 46 32 47 33
REMARK SMILES IDX 61 35 82 36 49 37 33 38 34 39 42 40 35 41 36 42 40 43 43 44
REMARK SMILES IDX 37 45 38 46 41 47 39 48 65 49 66 50 74 51 67 52 68 53 72 54
REMARK SMILES IDX 75 55 69 56 70 57 73 58 71 59 50 60 51 61 59 62 52 63 53 64
REMARK SMILES IDX 57 65 60 66 54 67 55 68 58 69 56 70 6 71 7 72 8 73 9 74
REMARK SMILES IDX 10 75 11 76 12 77 13 78 23 79 14 80 16 81 22 82 15 83 17 84
REMARK SMILES IDX 20 85 18 87 19 88 21 89
REMARK H PARENT 80 23 48 34 22 86
REMARK Flexibility Score: inf
ROOT
ATOM      1  C   UNL A   1      31.158  32.346  26.500  1.00  0.00     0.202 C 
ENDROOT
BRANCH   1   2
ATOM      2  C   UNL A   1      32.410  32.870  27.205  1.00  0.00     0.261 C 
BRANCH   2   3
ATOM      3  O   UNL A   1      32.193  34.175  27.745  1.00  0.00    -0.460 OA
BRANCH   3   4
ATOM      4  C   UNL A   1      32.937  34.822  28.671  1.00  0.00     0.338 C 
ATOM      5  O   UNL A   1      32.651  35.998  28.906  1.00  0.00    -0.246 OA
BRANCH   4   6
ATOM      6  C   UNL A   1      34.085  34.228  29.441  1.00  0.00     0.060 A 
ATOM      7  C   UNL A   1      35.363  34.435  28.884  1.00  0.00     0.016 A 
ATOM      8  C   UNL A   1      34.005  33.420  30.579  1.00  0.00     0.016 A 
ATOM      9  C   UNL A   1      36.494  33.796  29.398  1.00  0.00     0.010 A 
ATOM     10  C   UNL A   1      35.122  32.773  31.095  1.00  0.00     0.010 A 
ATOM     11  C   UNL A   1      36.363  32.937  30.489  1.00  0.00    -0.014 A 
BRANCH  11  12
ATOM     12  C   UNL A   1      37.511  32.248  31.089  1.00  0.00     0.031 A 
ATOM     13  C   UNL A   1      38.057  32.690  32.408  1.00  0.00     0.074 A 
ATOM     14  C   UNL A   1      38.128  31.326  30.335  1.00  0.00     0.049 A 
ATOM     15  N   UNL A   1      39.062  32.205  33.088  1.00  0.00    -0.248 NA
ATOM     16  C   UNL A   1      37.406  33.851  33.038  1.00  0.00     0.031 C 
ATOM     17  C   UNL A   1      37.712  30.941  28.985  1.00  0.00     0.029 A 
ATOM     18  N   UNL A   1      39.244  30.577  30.574  1.00  0.00    -0.354 N 
ATOM     19  C   UNL A   1      39.149  32.979  34.236  1.00  0.00     0.074 A 
ATOM     20  C   UNL A   1      38.141  34.012  34.131  1.00  0.00     0.031 C 
ATOM     21  C   UNL A   1      38.562  30.018  28.514  1.00  0.00     0.029 A 
ATOM     22  C   UNL A   1      39.573  29.753  29.531  1.00  0.00     0.049 A 
ATOM     23  H   UNL A   1      39.760  30.625  31.411  1.00  0.00     0.167 HD
ATOM     24  C   UNL A   1      39.989  32.814  35.286  1.00  0.00     0.037 A 
ATOM     25  C   UNL A   1      40.573  28.862  29.427  1.00  0.00     0.037 A 
ATOM     26  C   UNL A   1      41.006  31.793  35.325  1.00  0.00     0.049 A 
ATOM     27  C   UNL A   1      41.474  28.675  30.609  1.00  0.00     0.074 A 
ATOM     28  C   UNL A   1      41.876  31.469  36.350  1.00  0.00     0.029 A 
ATOM     29  N   UNL A   1      41.300  30.937  34.268  1.00  0.00    -0.354 N 
ATOM     30  N   UNL A   1      41.475  29.318  31.754  1.00  0.00    -0.248 NA
ATOM     31  C   UNL A   1      42.492  27.627  30.501  1.00  0.00     0.031 C 
ATOM     32  C   UNL A   1      42.726  30.454  35.895  1.00  0.00     0.029 A 
ATOM     33  C   UNL A   1      42.355  30.104  34.605  1.00  0.00     0.049 A 
ATOM     34  H   UNL A   1      40.826  30.925  33.405  1.00  0.00     0.167 HD
ATOM     35  C   UNL A   1      42.489  28.753  32.509  1.00  0.00     0.074 A 
ATOM     36  C   UNL A   1      43.057  27.689  31.700  1.00  0.00     0.031 C 
ATOM     37  C   UNL A   1      42.919  29.083  33.754  1.00  0.00     0.037 A 
BRANCH  24  38
ATOM     38  C   UNL A   1      39.826  33.729  36.469  1.00  0.00     0.064 A 
ATOM     39  C   UNL A   1      40.473  34.975  36.523  1.00  0.00     0.173 A 
ATOM     40  C   UNL A   1      38.982  33.392  37.538  1.00  0.00     0.173 A 
ATOM     41  F   UNL A   1      41.297  35.352  35.532  1.00  0.00    -0.203 F 
ATOM     42  C   UNL A   1      40.303  35.832  37.608  1.00  0.00     0.198 A 
ATOM     43  C   UNL A   1      38.790  34.265  38.608  1.00  0.00     0.198 A 
ATOM     44  F   UNL A   1      38.332  32.219  37.544  1.00  0.00    -0.203 F 
ATOM     45  F   UNL A   1      40.970  36.995  37.653  1.00  0.00    -0.200 F 
ATOM     46  C   UNL A   1      39.456  35.480  38.645  1.00  0.00     0.200 A 
ATOM     47  F   UNL A   1      37.959  33.931  39.605  1.00  0.00    -0.200 F 
ATOM     48  F   UNL A   1      39.285  36.311  39.685  1.00  0.00    -0.200 F 
ENDBRANCH  24  38
BRANCH  25  49
ATOM     49  C   UNL A   1      40.656  28.028  28.205  1.00  0.00     0.064 A 
ATOM     50  C   UNL A   1      41.441  28.441  27.122  1.00  0.00     0.173 A 
ATOM     51  C   UNL A   1      40.077  26.751  28.146  1.00  0.00     0.173 A 
ATOM     52  F   UNL A   1      42.013  29.655  27.136  1.00  0.00    -0.203 F 
ATOM     53  C   UNL A   1      41.654  27.607  26.028  1.00  0.00     0.198 A 
ATOM     54  C   UNL A   1      40.308  25.909  27.060  1.00  0.00     0.198 A 
ATOM     55  F   UNL A   1      39.339  26.301  29.171  1.00  0.00    -0.203 F 
ATOM     56  F   UNL A   1      42.411  28.028  25.005  1.00  0.00    -0.200 F 
ATOM     57  C   UNL A   1      41.098  26.337  26.004  1.00  0.00     0.200 A 
ATOM     58  F   UNL A   1      39.792  24.672  27.052  1.00  0.00    -0.200 F 
ATOM     59  F   UNL A   1      41.332  25.521  24.965  1.00  0.00    -0.200 F 
ENDBRANCH  25  49
BRANCH  37  60
ATOM     60  C   UNL A   1      44.081  28.299  34.285  1.00  0.00     0.064 A 
ATOM     61  C   UNL A   1      43.887  27.086  34.965  1.00  0.00     0.173 A 
ATOM     62  C   UNL A   1      45.396  28.748  34.098  1.00  0.00     0.173 A 
ATOM     63  F   UNL A   1      42.646  26.624  35.181  1.00  0.00    -0.203 F 
ATOM     64  C   UNL A   1      44.968  26.370  35.470  1.00  0.00     0.198 A 
ATOM     65  C   UNL A   1      46.476  28.012  34.574  1.00  0.00     0.198 A 
ATOM     66  F   UNL A   1      45.633  29.897  33.447  1.00  0.00    -0.203 F 
ATOM     67  F   UNL A   1      44.757  25.247  36.168  1.00  0.00    -0.200 F 
ATOM     68  C   UNL A   1      46.261  26.830  35.268  1.00  0.00     0.200 A 
ATOM     69  F   UNL A   1      47.726  28.449  34.367  1.00  0.00    -0.200 F 
ATOM     70  F   UNL A   1      47.301  26.138  35.753  1.00  0.00    -0.200 F 
ENDBRANCH  37  60
ENDBRANCH  11  12
ENDBRANCH   4   6
ENDBRANCH   3   4
ENDBRANCH   2   3
ENDBRANCH   1   2
BRANCH   1  71
ATOM     71  O   UNL A   1      31.362  31.128  25.786  1.00  0.00    -0.374 OA
BRANCH  71  72
ATOM     72  C   UNL A   1      32.124  30.134  26.470  1.00  0.00     0.202 C 
BRANCH  72  73
ATOM     73  C   UNL A   1      33.313  29.685  25.618  1.00  0.00     0.261 C 
BRANCH  73  74
ATOM     74  O   UNL A   1      32.991  28.487  24.889  1.00  0.00    -0.460 OA
BRANCH  74  75
ATOM     75  C   UNL A   1      32.385  28.659  23.683  1.00  0.00     0.340 C 
ATOM     76  O   UNL A   1      32.879  29.055  22.653  1.00  0.00    -0.246 OA
BRANCH  75  77
ATOM     77  C   UNL A   1      31.025  28.072  23.761  1.00  0.00     0.084 A 
ATOM     78  C   UNL A   1      30.865  26.712  24.061  1.00  0.00     0.018 A 
ATOM     79  C   UNL A   1      29.903  28.854  23.444  1.00  0.00     0.073 A 
ATOM     80  C   UNL A   1      29.594  26.138  24.043  1.00  0.00     0.002 A 
ATOM     81  C   UNL A   1      28.648  28.274  23.407  1.00  0.00     0.085 A 
ATOM     82  N   UNL A   1      29.993  30.194  23.094  1.00  0.00    -0.289 N 
ATOM     83  C   UNL A   1      28.484  26.919  23.717  1.00  0.00     0.018 A 
ATOM     84  C   UNL A   1      27.500  29.108  23.024  1.00  0.00     0.349 A 
ATOM     85  C   UNL A   1      28.966  30.903  22.545  1.00  0.00     0.419 A 
ATOM     86  H   UNL A   1      30.846  30.659  23.252  1.00  0.00     0.173 HD
ATOM     87  O   UNL A   1      26.364  28.658  23.127  1.00  0.00    -0.246 OA
ATOM     88  O   UNL A   1      27.734  30.336  22.514  1.00  0.00    -0.372 OA
ATOM     89  O   UNL A   1      29.173  32.014  22.066  1.00  0.00    -0.224 OA
ENDBRANCH  75  77
ENDBRANCH  74  75
ENDBRANCH  73  74
ENDBRANCH  72  73
ENDBRANCH  71  72
ENDBRANCH   1  71
TORSDOF 14
ENDMDL
MODEL 2
REMARK VINA RESULT:     -11.8      0.463      7.493
REMARK SMILES O=C(OCCOCCOC(=O)c1cccc2c(=O)oc(=O)[nH]c12)c1ccc(-c2c3nc(c(-c4c(F)c(F)c(F)c(F)c4F)c4ccc([nH]4)c(-c4c(F)c(F)c(F)c(F)c4F)c4nc(c(-c5c(F)c(F)c(F)c(F)c5F)c5ccc2[nH]5)C=C4)C=C3)cc1
REMARK SMILES IDX 5 1 4 2 3 3 2 4 1 5 24 6 25 7 86 8 26 9 85 10 27 11 28 12
REMARK SMILES IDX 29 13 79 14 30 15 84 16 78 17 80 18 31 19 83 20 77 21 76 22
REMARK SMILES IDX 32 24 64 25 44 26 63 27 45 28 48 29 62 30 81 31 46 32 47 33
REMARK SMILES IDX 61 35 82 36 49 37 33 38 34 39 42 40 35 41 36 42 40 43 43 44
REMARK SMILES IDX 37 45 38 46 41 47 39 48 65 49 66 50 74 51 67 52 68 53 72 54
REMARK SMILES IDX 75 55 69 56 70 57 73 58 71 59 50 60 51 61 59 62 52 63 53 64
REMARK SMILES IDX 57 65 60 66 54 67 55 68 58 69 56 70 6 71 7 72 8 73 9 74
REMARK SMILES IDX 10 75 11 76 12 77 13 78 23 79 14 80 16 81 22 82 15 83 17 84
REMARK SMILES IDX 20 85 18 87 19 88 21 89
REMARK H PARENT 80 23 48 34 22 86
REMARK Flexibility Score: inf
ROOT
ATOM      1  C   UNL A   1      31.190  32.040  26.501  1.00  0.00     0.202 C 
ENDROOT
BRANCH   1   2
ATOM      2  C   UNL A   1      32.453  32.566  27.186  1.00  0.00     0.261 C 
BRANCH   2   3
ATOM      3  O   UNL A   1      32.282  33.915  27.624  1.00  0.00    -0.460 OA
BRANCH   3   4
ATOM      4  C   UNL A   1      33.015  34.588  28.539  1.00  0.00     0.338 C 
ATOM      5  O   UNL A   1      32.707  35.760  28.761  1.00  0.00    -0.246 OA
BRANCH   4   6
ATOM      6  C   UNL A   1      34.178  34.026  29.312  1.00  0.00     0.060 A 
ATOM      7  C   UNL A   1      35.455  34.386  28.837  1.00  0.00     0.016 A 
ATOM      8  C   UNL A   1      34.122  33.117  30.373  1.00  0.00     0.016 A 
ATOM      9  C   UNL A   1      36.615  33.801  29.350  1.00  0.00     0.010 A 
ATOM     10  C   UNL A   1      35.268  32.522  30.886  1.00  0.00     0.010 A 
ATOM     11  C   UNL A   1      36.514  32.841  30.357  1.00  0.00    -0.014 A 
BRANCH  11  12
ATOM     12  C   UNL A   1      37.692  32.200  30.953  1.00  0.00     0.031 A 
ATOM     13  C   UNL A   1      38.379  31.073  30.252  1.00  0.00     0.074 A 
ATOM     14  C   UNL A   1      38.015  32.565  32.203  1.00  0.00     0.049 A 
ATOM     15  N   UNL A   1      39.427  30.388  30.625  1.00  0.00    -0.248 NA
ATOM     16  C   UNL A   1      37.796  30.636  28.973  1.00  0.00     0.031 C 
ATOM     17  C   UNL A   1      37.300  33.576  32.986  1.00  0.00     0.029 A 
ATOM     18  N   UNL A   1      38.992  32.112  33.042  1.00  0.00    -0.354 N 
ATOM     19  C   UNL A   1      39.648  29.459  29.620  1.00  0.00     0.074 A 
ATOM     20  C   UNL A   1      38.584  29.619  28.652  1.00  0.00     0.031 C 
ATOM     21  C   UNL A   1      37.869  33.671  34.195  1.00  0.00     0.029 A 
ATOM     22  C   UNL A   1      38.983  32.733  34.263  1.00  0.00     0.049 A 
ATOM     23  H   UNL A   1      39.637  31.412  32.795  1.00  0.00     0.167 HD
ATOM     24  C   UNL A   1      40.668  28.573  29.518  1.00  0.00     0.037 A 
ATOM     25  C   UNL A   1      39.806  32.570  35.312  1.00  0.00     0.037 A 
ATOM     26  C   UNL A   1      41.683  28.424  30.531  1.00  0.00     0.049 A 
ATOM     27  C   UNL A   1      40.943  31.605  35.169  1.00  0.00     0.074 A 
ATOM     28  C   UNL A   1      42.806  27.618  30.526  1.00  0.00     0.029 A 
ATOM     29  N   UNL A   1      41.677  29.093  31.751  1.00  0.00    -0.354 N 
ATOM     30  N   UNL A   1      41.233  30.816  34.160  1.00  0.00    -0.248 NA
ATOM     31  C   UNL A   1      41.882  31.523  36.292  1.00  0.00     0.031 C 
ATOM     32  C   UNL A   1      43.451  27.762  31.760  1.00  0.00     0.029 A 
ATOM     33  C   UNL A   1      42.762  28.699  32.518  1.00  0.00     0.049 A 
ATOM     34  H   UNL A   1      41.000  29.751  32.030  1.00  0.00     0.167 HD
ATOM     35  C   UNL A   1      42.390  30.145  34.519  1.00  0.00     0.074 A 
ATOM     36  C   UNL A   1      42.766  30.649  35.828  1.00  0.00     0.031 C 
ATOM     37  C   UNL A   1      43.078  29.195  33.837  1.00  0.00     0.037 A 
BRANCH  24  38
ATOM     38  C   UNL A   1      40.747  27.729  28.274  1.00  0.00     0.064 A 
ATOM     39  C   UNL A   1      41.490  28.143  27.157  1.00  0.00     0.173 A 
ATOM     40  C   UNL A   1      40.121  26.475  28.207  1.00  0.00     0.173 A 
ATOM     41  F   UNL A   1      42.108  29.335  27.159  1.00  0.00    -0.203 F 
ATOM     42  C   UNL A   1      41.582  27.350  26.015  1.00  0.00     0.198 A 
ATOM     43  C   UNL A   1      40.240  25.671  27.074  1.00  0.00     0.198 A 
ATOM     44  F   UNL A   1      39.400  26.021  29.242  1.00  0.00    -0.203 F 
ATOM     45  F   UNL A   1      42.261  27.793  24.946  1.00  0.00    -0.200 F 
ATOM     46  C   UNL A   1      40.963  26.112  25.977  1.00  0.00     0.200 A 
ATOM     47  F   UNL A   1      39.653  24.466  27.044  1.00  0.00    -0.200 F 
ATOM     48  F   UNL A   1      41.061  25.344  24.881  1.00  0.00    -0.200 F 
ENDBRANCH  24  38
BRANCH  25  49
ATOM     49  C   UNL A   1      39.624  33.438  36.498  1.00  0.00     0.064 A 
ATOM     50  C   UNL A   1      40.167  34.729  36.516  1.00  0.00     0.173 A 
ATOM     51  C   UNL A   1      38.798  33.060  37.567  1.00  0.00     0.173 A 
ATOM     52  F   UNL A   1      40.964  35.132  35.515  1.00  0.00    -0.203 F 
ATOM     53  C   UNL A   1      39.884  35.614  37.553  1.00  0.00     0.198 A 
ATOM     54  C   UNL A   1      38.498  33.954  38.593  1.00  0.00     0.198 A 
ATOM     55  F   UNL A   1      38.234  31.843  37.581  1.00  0.00    -0.203 F 
ATOM     56  F   UNL A   1      40.416  36.844  37.544  1.00  0.00    -0.200 F 
ATOM     57  C   UNL A   1      39.039  35.230  38.583  1.00  0.00     0.200 A 
ATOM     58  F   UNL A   1      37.660  33.590  39.573  1.00  0.00    -0.200 F 
ATOM     59  F   UNL A   1      38.740  36.096  39.563  1.00  0.00    -0.200 F 
ENDBRANCH  25  49
BRANCH  37  60
ATOM     60  C   UNL A   1      44.283  28.625  34.523  1.00  0.00     0.064 A 
ATOM     61  C   UNL A   1      45.543  29.232  34.400  1.00  0.00     0.173 A 
ATOM     62  C   UNL A   1      44.178  27.481  35.326  1.00  0.00     0.173 A 
ATOM     63  F   UNL A   1      45.696  30.321  33.631  1.00  0.00    -0.203 F 
ATOM     64  C   UNL A   1      46.660  28.690  35.027  1.00  0.00     0.198 A 
ATOM     65  C   UNL A   1      45.292  26.961  35.979  1.00  0.00     0.198 A 
ATOM     66  F   UNL A   1      42.994  26.869  35.482  1.00  0.00    -0.203 F 
ATOM     67  F   UNL A   1      47.864  29.250  34.846  1.00  0.00    -0.200 F 
ATOM     68  C   UNL A   1      46.533  27.560  35.820  1.00  0.00     0.200 A 
ATOM     69  F   UNL A   1      45.165  25.878  36.757  1.00  0.00    -0.200 F 
ATOM     70  F   UNL A   1      47.610  27.041  36.426  1.00  0.00    -0.200 F 
ENDBRANCH  37  60
ENDBRANCH  11  12
ENDBRANCH   4   6
ENDBRANCH   3   4
ENDBRANCH   2   3
ENDBRANCH   1   2
BRANCH   1  71
ATOM     71  O   UNL A   1      31.404  30.875  25.707  1.00  0.00    -0.374 OA
BRANCH  71  72
ATOM     72  C   UNL A   1      32.181  29.846  26.321  1.00  0.00     0.202 C 
BRANCH  72  73
ATOM     73  C   UNL A   1      33.152  29.230  25.311  1.00  0.00     0.261 C 
BRANCH  73  74
ATOM     74  O   UNL A   1      32.735  29.519  23.964  1.00  0.00    -0.460 OA
BRANCH  74  75
ATOM     75  C   UNL A   1      32.549  28.448  23.147  1.00  0.00     0.340 C 
ATOM     76  O   UNL A   1      33.365  27.901  22.441  1.00  0.00    -0.246 OA
BRANCH  75  77
ATOM     77  C   UNL A   1      31.198  27.894  23.411  1.00  0.00     0.084 A 
ATOM     78  C   UNL A   1      31.049  26.543  23.751  1.00  0.00     0.018 A 
ATOM     79  C   UNL A   1      30.061  28.698  23.228  1.00  0.00     0.073 A 
ATOM     80  C   UNL A   1      29.774  25.999  23.908  1.00  0.00     0.002 A 
ATOM     81  C   UNL A   1      28.800  28.147  23.364  1.00  0.00     0.085 A 
ATOM     82  N   UNL A   1      30.134  30.031  22.847  1.00  0.00    -0.289 N 
ATOM     83  C   UNL A   1      28.649  26.801  23.715  1.00  0.00     0.018 A 
ATOM     84  C   UNL A   1      27.630  29.003  23.118  1.00  0.00     0.349 A 
ATOM     85  C   UNL A   1      29.060  30.756  22.423  1.00  0.00     0.419 A 
ATOM     86  H   UNL A   1      31.010  30.478  22.885  1.00  0.00     0.173 HD
ATOM     87  O   UNL A   1      26.508  28.582  23.375  1.00  0.00    -0.246 OA
ATOM     88  O   UNL A   1      27.822  30.218  22.562  1.00  0.00    -0.372 OA
ATOM     89  O   UNL A   1      29.227  31.855  21.902  1.00  0.00    -0.224 OA
ENDBRANCH  75  77
ENDBRANCH  74  75
ENDBRANCH  73  74
ENDBRANCH  72  73
ENDBRANCH  71  72
ENDBRANCH   1  71
TORSDOF 14
ENDMDL
MODEL 3
REMARK VINA RESULT:     -11.7      0.591      7.587
REMARK SMILES O=C(OCCOCCOC(=O)c1cccc2c(=O)oc(=O)[nH]c12)c1ccc(-c2c3nc(c(-c4c(F)c(F)c(F)c(F)c4F)c4ccc([nH]4)c(-c4c(F)c(F)c(F)c(F)c4F)c4nc(c(-c5c(F)c(F)c(F)c(F)c5F)c5ccc2[nH]5)C=C4)C=C3)cc1
REMARK SMILES IDX 5 1 4 2 3 3 2 4 1 5 24 6 25 7 86 8 26 9 85 10 27 11 28 12
REMARK SMILES IDX 29 13 79 14 30 15 84 16 78 17 80 18 31 19 83 20 77 21 76 22
REMARK SMILES IDX 32 24 64 25 44 26 63 27 45 28 48 29 62 30 81 31 46 32 47 33
REMARK SMILES IDX 61 35 82 36 49 37 33 38 34 39 42 40 35 41 36 42 40 43 43 44
REMARK SMILES IDX 37 45 38 46 41 47 39 48 65 49 66 50 74 51 67 52 68 53 72 54
REMARK SMILES IDX 75 55 69 56 70 57 73 58 71 59 50 60 51 61 59 62 52 63 53 64
REMARK SMILES IDX 57 65 60 66 54 67 55 68 58 69 56 70 6 71 7 72 8 73 9 74
REMARK SMILES IDX 10 75 11 76 12 77 13 78 23 79 14 80 16 81 22 82 15 83 17 84
REMARK SMILES IDX 20 85 18 87 19 88 21 89
REMARK H PARENT 80 23 48 34 22 86
REMARK Flexibility Score: inf
ROOT
ATOM      1  C   UNL A   1      31.201  31.963  26.704  1.00  0.00     0.202 C 
ENDROOT
BRANCH   1   2
ATOM      2  C   UNL A   1      32.493  32.675  27.109  1.00  0.00     0.261 C 
BRANCH   2   3
ATOM      3  O   UNL A   1      32.224  33.975  27.638  1.00  0.00    -0.460 OA
BRANCH   3   4
ATOM      4  C   UNL A   1      32.938  34.658  28.561  1.00  0.00     0.338 C 
ATOM      5  O   UNL A   1      32.627  35.833  28.763  1.00  0.00    -0.246 OA
BRANCH   4   6
ATOM      6  C   UNL A   1      34.081  34.103  29.367  1.00  0.00     0.060 A 
ATOM      7  C   UNL A   1      35.370  34.420  28.892  1.00  0.00     0.016 A 
ATOM      8  C   UNL A   1      33.997  33.237  30.462  1.00  0.00     0.016 A 
ATOM      9  C   UNL A   1      36.513  33.832  29.439  1.00  0.00     0.010 A 
ATOM     10  C   UNL A   1      35.125  32.640  31.009  1.00  0.00     0.010 A 
ATOM     11  C   UNL A   1      36.383  32.914  30.481  1.00  0.00    -0.014 A 
BRANCH  11  12
ATOM     12  C   UNL A   1      37.542  32.273  31.114  1.00  0.00     0.031 A 
ATOM     13  C   UNL A   1      38.260  31.157  30.427  1.00  0.00     0.074 A 
ATOM     14  C   UNL A   1      37.817  32.627  32.377  1.00  0.00     0.049 A 
ATOM     15  N   UNL A   1      39.297  30.473  30.832  1.00  0.00    -0.248 NA
ATOM     16  C   UNL A   1      37.726  30.729  29.124  1.00  0.00     0.031 C 
ATOM     17  C   UNL A   1      37.069  33.627  33.143  1.00  0.00     0.029 A 
ATOM     18  N   UNL A   1      38.765  32.172  33.248  1.00  0.00    -0.354 N 
ATOM     19  C   UNL A   1      39.560  29.554  29.826  1.00  0.00     0.074 A 
ATOM     20  C   UNL A   1      38.531  29.719  28.821  1.00  0.00     0.031 C 
ATOM     21  C   UNL A   1      37.593  33.714  34.374  1.00  0.00     0.029 A 
ATOM     22  C   UNL A   1      38.708  32.780  34.473  1.00  0.00     0.049 A 
ATOM     23  H   UNL A   1      39.422  31.477  33.017  1.00  0.00     0.167 HD
ATOM     24  C   UNL A   1      40.587  28.675  29.753  1.00  0.00     0.037 A 
ATOM     25  C   UNL A   1      39.494  32.611  35.550  1.00  0.00     0.037 A 
ATOM     26  C   UNL A   1      41.566  28.521  30.801  1.00  0.00     0.049 A 
ATOM     27  C   UNL A   1      40.641  31.653  35.439  1.00  0.00     0.074 A 
ATOM     28  C   UNL A   1      42.693  27.722  30.829  1.00  0.00     0.029 A 
ATOM     29  N   UNL A   1      41.512  29.178  32.027  1.00  0.00    -0.354 N 
ATOM     30  N   UNL A   1      40.971  30.876  34.434  1.00  0.00    -0.248 NA
ATOM     31  C   UNL A   1      41.538  31.566  36.594  1.00  0.00     0.031 C 
ATOM     32  C   UNL A   1      43.292  27.857  32.087  1.00  0.00     0.029 A 
ATOM     33  C   UNL A   1      42.571  28.782  32.829  1.00  0.00     0.049 A 
ATOM     34  H   UNL A   1      40.822  29.831  32.286  1.00  0.00     0.167 HD
ATOM     35  C   UNL A   1      42.118  30.207  34.828  1.00  0.00     0.074 A 
ATOM     36  C   UNL A   1      42.444  30.701  36.155  1.00  0.00     0.031 C 
ATOM     37  C   UNL A   1      42.836  29.267  34.162  1.00  0.00     0.037 A 
BRANCH  24  38
ATOM     38  C   UNL A   1      40.716  27.844  28.505  1.00  0.00     0.064 A 
ATOM     39  C   UNL A   1      40.072  26.600  28.387  1.00  0.00     0.173 A 
ATOM     40  C   UNL A   1      41.442  28.305  27.396  1.00  0.00     0.173 A 
ATOM     41  F   UNL A   1      39.366  26.104  29.415  1.00  0.00    -0.203 F 
ATOM     42  C   UNL A   1      40.173  25.842  27.222  1.00  0.00     0.198 A 
ATOM     43  C   UNL A   1      41.516  27.557  26.222  1.00  0.00     0.198 A 
ATOM     44  F   UNL A   1      42.075  29.485  27.445  1.00  0.00    -0.203 F 
ATOM     45  F   UNL A   1      39.585  24.638  27.155  1.00  0.00    -0.200 F 
ATOM     46  C   UNL A   1      40.887  26.324  26.138  1.00  0.00     0.200 A 
ATOM     47  F   UNL A   1      42.195  28.031  25.168  1.00  0.00    -0.200 F 
ATOM     48  F   UNL A   1      40.975  25.599  25.014  1.00  0.00    -0.200 F 
ENDBRANCH  24  38
BRANCH  25  49
ATOM     49  C   UNL A   1      39.264  33.466  36.737  1.00  0.00     0.064 A 
ATOM     50  C   UNL A   1      38.508  32.987  37.815  1.00  0.00     0.173 A 
ATOM     51  C   UNL A   1      39.901  34.707  36.885  1.00  0.00     0.173 A 
ATOM     52  F   UNL A   1      37.881  31.805  37.717  1.00  0.00    -0.203 F 
ATOM     53  C   UNL A   1      38.404  33.711  38.999  1.00  0.00     0.198 A 
ATOM     54  C   UNL A   1      39.814  35.421  38.078  1.00  0.00     0.198 A 
ATOM     55  F   UNL A   1      40.658  35.196  35.891  1.00  0.00    -0.203 F 
ATOM     56  F   UNL A   1      37.675  33.228  40.015  1.00  0.00    -0.200 F 
ATOM     57  C   UNL A   1      39.068  34.921  39.134  1.00  0.00     0.200 A 
ATOM     58  F   UNL A   1      40.479  36.577  38.216  1.00  0.00    -0.200 F 
ATOM     59  F   UNL A   1      38.996  35.601  40.288  1.00  0.00    -0.200 F 
ENDBRANCH  25  49
BRANCH  37  60
ATOM     60  C   UNL A   1      44.018  28.697  34.887  1.00  0.00     0.064 A 
ATOM     61  C   UNL A   1      43.902  27.531  35.660  1.00  0.00     0.173 A 
ATOM     62  C   UNL A   1      45.278  29.304  34.794  1.00  0.00     0.173 A 
ATOM     63  F   UNL A   1      42.713  26.923  35.791  1.00  0.00    -0.203 F 
ATOM     64  C   UNL A   1      44.999  27.015  36.343  1.00  0.00     0.198 A 
ATOM     65  C   UNL A   1      46.381  28.766  35.451  1.00  0.00     0.198 A 
ATOM     66  F   UNL A   1      45.442  30.416  34.060  1.00  0.00    -0.203 F 
ATOM     67  F   UNL A   1      44.852  25.937  37.123  1.00  0.00    -0.200 F 
ATOM     68  C   UNL A   1      46.237  27.629  36.232  1.00  0.00     0.200 A 
ATOM     69  F   UNL A   1      47.580  29.351  35.332  1.00  0.00    -0.200 F 
ATOM     70  F   UNL A   1      47.294  27.129  36.888  1.00  0.00    -0.200 F 
ENDBRANCH  37  60
ENDBRANCH  11  12
ENDBRANCH   4   6
ENDBRANCH   3   4
ENDBRANCH   2   3
ENDBRANCH   1   2
BRANCH   1  71
ATOM     71  O   UNL A   1      31.390  30.917  25.754  1.00  0.00    -0.374 OA
BRANCH  71  72
ATOM     72  C   UNL A   1      31.926  29.701  26.275  1.00  0.00     0.202 C 
BRANCH  72  73
ATOM     73  C   UNL A   1      32.991  29.133  25.334  1.00  0.00     0.261 C 
BRANCH  73  74
ATOM     74  O   UNL A   1      32.695  29.476  23.968  1.00  0.00    -0.460 OA
BRANCH  74  75
ATOM     75  C   UNL A   1      32.483  28.436  23.118  1.00  0.00     0.340 C 
ATOM     76  O   UNL A   1      33.279  27.909  22.374  1.00  0.00    -0.246 OA
BRANCH  75  77
ATOM     77  C   UNL A   1      31.135  27.881  23.392  1.00  0.00     0.084 A 
ATOM     78  C   UNL A   1      30.987  26.524  23.709  1.00  0.00     0.018 A 
ATOM     79  C   UNL A   1      29.998  28.692  23.243  1.00  0.00     0.073 A 
ATOM     80  C   UNL A   1      29.713  25.981  23.876  1.00  0.00     0.002 A 
ATOM     81  C   UNL A   1      28.737  28.142  23.389  1.00  0.00     0.085 A 
ATOM     82  N   UNL A   1      30.069  30.032  22.887  1.00  0.00    -0.289 N 
ATOM     83  C   UNL A   1      28.587  26.790  23.716  1.00  0.00     0.018 A 
ATOM     84  C   UNL A   1      27.566  29.006  23.179  1.00  0.00     0.349 A 
ATOM     85  C   UNL A   1      28.991  30.768  22.494  1.00  0.00     0.419 A 
ATOM     86  H   UNL A   1      30.947  30.475  22.920  1.00  0.00     0.173 HD
ATOM     87  O   UNL A   1      26.446  28.583  23.445  1.00  0.00    -0.246 OA
ATOM     88  O   UNL A   1      27.754  30.231  22.643  1.00  0.00    -0.372 OA
ATOM     89  O   UNL A   1      29.153  31.876  21.992  1.00  0.00    -0.224 OA
ENDBRANCH  75  77
ENDBRANCH  74  75
ENDBRANCH  73  74
ENDBRANCH  72  73
ENDBRANCH  71  72
ENDBRANCH   1  71
TORSDOF 14
ENDMDL
