MODEL 1
REMARK VINA RESULT:     -11.6      0.000      0.000
REMARK SMILES C[C@H]1CC[C@@H]([C@H](C(=O)OCCOCCOC(=O)c2ccc(-c3c4nc(c(-c5c(F)c(F)c(F)c(F)c5F)c5ccc([nH]5)c(-c5c(F)c(F)c(F)c(F)c5F)c5nc(c(-c6c(F)c(F)c(F)c(F)c6F)c6ccc3[nH]6)C=C5)C=C4)cc2)[C@@H]2CCS(=O)(=O)C2)C[C@@H]1C
REMARK SMILES IDX 13 1 12 2 11 3 10 4 9 5 7 6 8 7 6 8 5 9 1 10 2 11 3 12 89 13
REMARK SMILES IDX 4 14 88 15 90 16 81 17 82 18 87 19 83 20 84 21 85 22 86 23
REMARK SMILES IDX 14 24 15 25 16 26 17 27 18 28 19 29 80 30 20 31 79 32 21 33
REMARK SMILES IDX 22 34 23 35 73 36 24 37 78 38 72 39 74 40 25 41 77 42 71 43
REMARK SMILES IDX 70 44 26 46 58 47 38 48 57 49 39 50 42 51 56 52 75 53 40 54
REMARK SMILES IDX 41 55 55 57 76 58 43 59 27 60 28 61 36 62 29 63 30 64 34 65
REMARK SMILES IDX 37 66 31 67 32 68 35 69 33 70 59 71 60 72 68 73 61 74 62 75
REMARK SMILES IDX 66 76 69 77 63 78 64 79 67 80 65 81 44 82 45 83 53 84 46 85
REMARK SMILES IDX 47 86 51 87 54 88 48 89 49 90 52 91 50 92
REMARK H PARENT 74 45 42 56
REMARK Flexibility Score: inf
ROOT
ATOM      1  C   UNL A   1      31.691  31.877  26.520  1.00  0.00     0.202 C 
ENDROOT
BRANCH   1   2
ATOM      2  O   UNL A   1      32.084  30.698  27.209  1.00  0.00    -0.374 OA
BRANCH   2   3
ATOM      3  C   UNL A   1      33.034  29.877  26.521  1.00  0.00     0.202 C 
BRANCH   3   4
ATOM      4  C   UNL A   1      33.331  28.509  27.157  1.00  0.00     0.261 C 
BRANCH   4   5
ATOM      5  O   UNL A   1      33.111  27.432  26.209  1.00  0.00    -0.463 OA
BRANCH   5   6
ATOM      6  C   UNL A   1      31.901  26.824  26.216  1.00  0.00     0.309 C 
ATOM      7  O   UNL A   1      31.020  27.065  27.031  1.00  0.00    -0.252 OA
BRANCH   6   8
ATOM      8  C   UNL A   1      31.763  25.747  25.134  1.00  0.00     0.106 C 
BRANCH   8   9
ATOM      9  C   UNL A   1      31.084  24.356  25.490  1.00  0.00     0.004 C 
ATOM     10  C   UNL A   1      34.422  21.562  24.924  1.00  0.00     0.008 C 
ATOM     11  C   UNL A   1      32.973  22.001  25.165  1.00  0.00    -0.011 C 
ATOM     12  C   UNL A   1      32.910  22.816  26.460  1.00  0.00     0.004 C 
ATOM     13  C   UNL A   1      32.375  22.755  23.948  1.00  0.00    -0.011 C 
ATOM     14  C   UNL A   1      31.551  23.462  26.639  1.00  0.00     0.005 C 
ATOM     15  C   UNL A   1      31.029  23.438  24.258  1.00  0.00     0.008 C 
ATOM     16  C   UNL A   1      32.153  21.796  22.772  1.00  0.00     0.008 C 
ENDBRANCH   8   9
BRANCH   8  17
ATOM     17  C   UNL A   1      31.309  26.226  23.706  1.00  0.00     0.019 C 
ATOM     18  C   UNL A   1      32.399  26.810  22.788  1.00  0.00     0.021 C 
ATOM     19  C   UNL A   1      30.066  27.121  23.615  1.00  0.00     0.141 C 
ATOM     20  C   UNL A   1      32.245  28.318  22.633  1.00  0.00     0.137 C 
ATOM     21  S   UNL A   1      30.557  28.718  23.010  1.00  0.00     0.150 S 
ATOM     22  O   UNL A   1      30.535  29.659  24.108  1.00  0.00    -0.229 OA
ATOM     23  O   UNL A   1      29.850  28.980  21.774  1.00  0.00    -0.229 OA
ENDBRANCH   8  17
ENDBRANCH   6   8
ENDBRANCH   5   6
ENDBRANCH   4   5
ENDBRANCH   3   4
ENDBRANCH   2   3
ENDBRANCH   1   2
BRANCH   1  24
ATOM     24  C   UNL A   1      31.837  33.194  27.283  1.00  0.00     0.261 C 
BRANCH  24  25
ATOM     25  O   UNL A   1      33.211  33.575  27.276  1.00  0.00    -0.460 OA
BRANCH  25  26
ATOM     26  C   UNL A   1      33.672  33.824  28.518  1.00  0.00     0.338 C 
ATOM     27  O   UNL A   1      33.105  34.439  29.410  1.00  0.00    -0.246 OA
BRANCH  26  28
ATOM     28  C   UNL A   1      34.925  33.092  28.722  1.00  0.00     0.060 A 
ATOM     29  C   UNL A   1      34.805  31.739  29.055  1.00  0.00     0.016 A 
ATOM     30  C   UNL A   1      36.176  33.708  28.620  1.00  0.00     0.016 A 
ATOM     31  C   UNL A   1      35.934  31.018  29.395  1.00  0.00     0.010 A 
ATOM     32  C   UNL A   1      37.314  32.979  28.948  1.00  0.00     0.010 A 
ATOM     33  C   UNL A   1      37.180  31.657  29.401  1.00  0.00    -0.014 A 
BRANCH  33  34
ATOM     34  C   UNL A   1      38.296  30.997  30.099  1.00  0.00     0.031 A 
ATOM     35  C   UNL A   1      38.518  31.323  31.545  1.00  0.00     0.074 A 
ATOM     36  C   UNL A   1      39.034  30.077  29.463  1.00  0.00     0.049 A 
ATOM     37  N   UNL A   1      39.409  30.851  32.377  1.00  0.00    -0.248 NA
ATOM     38  C   UNL A   1      37.612  32.323  32.136  1.00  0.00     0.031 C 
ATOM     39  C   UNL A   1      38.865  29.681  28.067  1.00  0.00     0.029 A 
ATOM     40  N   UNL A   1      40.074  29.310  29.915  1.00  0.00    -0.354 N 
ATOM     41  C   UNL A   1      39.173  31.499  33.582  1.00  0.00     0.074 A 
ATOM     42  C   UNL A   1      38.093  32.434  33.363  1.00  0.00     0.031 C 
ATOM     43  C   UNL A   1      39.779  28.743  27.772  1.00  0.00     0.029 A 
ATOM     44  C   UNL A   1      40.612  28.503  28.948  1.00  0.00     0.049 A 
ATOM     45  H   UNL A   1      40.402  29.336  30.844  1.00  0.00     0.167 HD
ATOM     46  C   UNL A   1      39.797  31.315  34.769  1.00  0.00     0.037 A 
ATOM     47  C   UNL A   1      41.675  27.682  29.011  1.00  0.00     0.037 A 
ATOM     48  C   UNL A   1      40.878  30.385  34.957  1.00  0.00     0.049 A 
ATOM     49  C   UNL A   1      42.396  27.535  30.325  1.00  0.00     0.074 A 
ATOM     50  C   UNL A   1      41.582  30.097  36.111  1.00  0.00     0.029 A 
ATOM     51  N   UNL A   1      41.422  29.600  33.948  1.00  0.00    -0.354 N 
ATOM     52  N   UNL A   1      42.152  28.121  31.473  1.00  0.00    -0.248 NA
ATOM     53  C   UNL A   1      43.530  26.604  30.353  1.00  0.00     0.031 C 
ATOM     54  C   UNL A   1      42.594  29.188  35.785  1.00  0.00     0.029 A 
ATOM     55  C   UNL A   1      42.477  28.852  34.444  1.00  0.00     0.049 A 
ATOM     56  H   UNL A   1      41.105  29.578  33.015  1.00  0.00     0.167 HD
ATOM     57  C   UNL A   1      43.088  27.619  32.367  1.00  0.00     0.074 A 
ATOM     58  C   UNL A   1      43.892  26.665  31.628  1.00  0.00     0.031 C 
ATOM     59  C   UNL A   1      43.266  27.916  33.679  1.00  0.00     0.037 A 
BRANCH  46  60
ATOM     60  C   UNL A   1      39.346  32.167  35.922  1.00  0.00     0.064 A 
ATOM     61  C   UNL A   1      39.867  33.451  36.148  1.00  0.00     0.173 A 
ATOM     62  C   UNL A   1      38.395  31.681  36.832  1.00  0.00     0.173 A 
ATOM     63  F   UNL A   1      40.792  33.961  35.319  1.00  0.00    -0.203 F 
ATOM     64  C   UNL A   1      39.493  34.193  37.265  1.00  0.00     0.198 A 
ATOM     65  C   UNL A   1      37.994  32.441  37.927  1.00  0.00     0.198 A 
ATOM     66  F   UNL A   1      37.860  30.462  36.666  1.00  0.00    -0.203 F 
ATOM     67  F   UNL A   1      40.062  35.384  37.500  1.00  0.00    -0.200 F 
ATOM     68  C   UNL A   1      38.553  33.690  38.152  1.00  0.00     0.200 A 
ATOM     69  F   UNL A   1      37.075  31.958  38.776  1.00  0.00    -0.200 F 
ATOM     70  F   UNL A   1      38.196  34.402  39.229  1.00  0.00    -0.200 F 
ENDBRANCH  46  60
BRANCH  47  71
ATOM     71  C   UNL A   1      42.105  26.958  27.790  1.00  0.00     0.064 A 
ATOM     72  C   UNL A   1      43.040  27.509  26.906  1.00  0.00     0.173 A 
ATOM     73  C   UNL A   1      41.622  25.669  27.510  1.00  0.00     0.173 A 
ATOM     74  F   UNL A   1      43.520  28.743  27.122  1.00  0.00    -0.203 F 
ATOM     75  C   UNL A   1      43.470  26.804  25.784  1.00  0.00     0.198 A 
ATOM     76  C   UNL A   1      42.075  24.953  26.406  1.00  0.00     0.198 A 
ATOM     77  F   UNL A   1      40.730  25.094  28.331  1.00  0.00    -0.203 F 
ATOM     78  F   UNL A   1      44.345  27.364  24.937  1.00  0.00    -0.200 F 
ATOM     79  C   UNL A   1      42.996  25.523  25.540  1.00  0.00     0.200 A 
ATOM     80  F   UNL A   1      41.629  23.709  26.187  1.00  0.00    -0.200 F 
ATOM     81  F   UNL A   1      43.426  24.838  24.472  1.00  0.00    -0.200 F 
ENDBRANCH  47  71
BRANCH  59  82
ATOM     82  C   UNL A   1      44.359  27.182  34.404  1.00  0.00     0.064 A 
ATOM     83  C   UNL A   1      45.658  27.702  34.502  1.00  0.00     0.173 A 
ATOM     84  C   UNL A   1      44.087  25.964  35.045  1.00  0.00     0.173 A 
ATOM     85  F   UNL A   1      45.972  28.855  33.895  1.00  0.00    -0.203 F 
ATOM     86  C   UNL A   1      46.653  27.013  35.190  1.00  0.00     0.198 A 
ATOM     87  C   UNL A   1      45.075  25.296  35.764  1.00  0.00     0.198 A 
ATOM     88  F   UNL A   1      42.859  25.428  34.991  1.00  0.00    -0.203 F 
ATOM     89  F   UNL A   1      47.901  27.499  35.225  1.00  0.00    -0.200 F 
ATOM     90  C   UNL A   1      46.359  25.816  35.827  1.00  0.00     0.200 A 
ATOM     91  F   UNL A   1      44.784  24.150  36.394  1.00  0.00    -0.200 F 
ATOM     92  F   UNL A   1      47.315  25.160  36.497  1.00  0.00    -0.200 F 
ENDBRANCH  59  82
ENDBRANCH  33  34
ENDBRANCH  26  28
ENDBRANCH  25  26
ENDBRANCH  24  25
ENDBRANCH   1  24
TORSDOF 16
ENDMDL
MODEL 2
REMARK VINA RESULT:     -11.5      0.516      2.005
REMARK SMILES C[C@H]1CC[C@@H]([C@H](C(=O)OCCOCCOC(=O)c2ccc(-c3c4nc(c(-c5c(F)c(F)c(F)c(F)c5F)c5ccc([nH]5)c(-c5c(F)c(F)c(F)c(F)c5F)c5nc(c(-c6c(F)c(F)c(F)c(F)c6F)c6ccc3[nH]6)C=C5)C=C4)cc2)[C@@H]2CCS(=O)(=O)C2)C[C@@H]1C
REMARK SMILES IDX 13 1 12 2 11 3 10 4 9 5 7 6 8 7 6 8 5 9 1 10 2 11 3 12 89 13
REMARK SMILES IDX 4 14 88 15 90 16 81 17 82 18 87 19 83 20 84 21 85 22 86 23
REMARK SMILES IDX 14 24 15 25 16 26 17 27 18 28 19 29 80 30 20 31 79 32 21 33
REMARK SMILES IDX 22 34 23 35 73 36 24 37 78 38 72 39 74 40 25 41 77 42 71 43
REMARK SMILES IDX 70 44 26 46 58 47 38 48 57 49 39 50 42 51 56 52 75 53 40 54
REMARK SMILES IDX 41 55 55 57 76 58 43 59 27 60 28 61 36 62 29 63 30 64 34 65
REMARK SMILES IDX 37 66 31 67 32 68 35 69 33 70 59 71 60 72 68 73 61 74 62 75
REMARK SMILES IDX 66 76 69 77 63 78 64 79 67 80 65 81 44 82 45 83 53 84 46 85
REMARK SMILES IDX 47 86 51 87 54 88 48 89 49 90 52 91 50 92
REMARK H PARENT 74 45 42 56
REMARK Flexibility Score: inf
ROOT
ATOM      1  C   UNL A   1      31.677  31.906  26.535  1.00  0.00     0.202 C 
ENDROOT
BRANCH   1   2
ATOM      2  O   UNL A   1      31.961  30.672  27.178  1.00  0.00    -0.374 OA
BRANCH   2   3
ATOM      3  C   UNL A   1      32.770  29.762  26.423  1.00  0.00     0.202 C 
BRANCH   3   4
ATOM      4  C   UNL A   1      32.955  28.361  27.028  1.00  0.00     0.261 C 
BRANCH   4   5
ATOM      5  O   UNL A   1      32.805  27.330  26.017  1.00  0.00    -0.463 OA
BRANCH   5   6
ATOM      6  C   UNL A   1      31.651  26.622  26.007  1.00  0.00     0.309 C 
ATOM      7  O   UNL A   1      30.790  26.706  26.873  1.00  0.00    -0.252 OA
BRANCH   6   8
ATOM      8  C   UNL A   1      31.555  25.648  24.827  1.00  0.00     0.106 C 
BRANCH   8   9
ATOM      9  C   UNL A   1      30.795  24.265  25.008  1.00  0.00     0.004 C 
ATOM     10  C   UNL A   1      34.107  21.392  24.783  1.00  0.00     0.008 C 
ATOM     11  C   UNL A   1      32.650  21.867  24.835  1.00  0.00    -0.011 C 
ATOM     12  C   UNL A   1      32.420  22.621  26.148  1.00  0.00     0.004 C 
ATOM     13  C   UNL A   1      32.255  22.698  23.586  1.00  0.00    -0.011 C 
ATOM     14  C   UNL A   1      31.067  23.302  26.164  1.00  0.00     0.005 C 
ATOM     15  C   UNL A   1      30.896  23.410  23.735  1.00  0.00     0.008 C 
ATOM     16  C   UNL A   1      32.181  21.805  22.342  1.00  0.00     0.008 C 
ENDBRANCH   8   9
BRANCH   8  17
ATOM     17  C   UNL A   1      31.231  26.267  23.417  1.00  0.00     0.019 C 
ATOM     18  C   UNL A   1      32.393  26.953  22.674  1.00  0.00     0.021 C 
ATOM     19  C   UNL A   1      29.985  27.155  23.295  1.00  0.00     0.141 C 
ATOM     20  C   UNL A   1      32.225  28.468  22.658  1.00  0.00     0.137 C 
ATOM     21  S   UNL A   1      30.501  28.809  22.906  1.00  0.00     0.150 S 
ATOM     22  O   UNL A   1      30.354  29.632  24.086  1.00  0.00    -0.229 OA
ATOM     23  O   UNL A   1      29.912  29.190  21.639  1.00  0.00    -0.229 OA
ENDBRANCH   8  17
ENDBRANCH   6   8
ENDBRANCH   5   6
ENDBRANCH   4   5
ENDBRANCH   3   4
ENDBRANCH   2   3
ENDBRANCH   1   2
BRANCH   1  24
ATOM     24  C   UNL A   1      32.175  33.172  27.234  1.00  0.00     0.261 C 
BRANCH  24  25
ATOM     25  O   UNL A   1      33.211  32.811  28.145  1.00  0.00    -0.460 OA
BRANCH  25  26
ATOM     26  C   UNL A   1      34.260  33.655  28.075  1.00  0.00     0.338 C 
ATOM     27  O   UNL A   1      34.227  34.870  27.940  1.00  0.00    -0.246 OA
BRANCH  26  28
ATOM     28  C   UNL A   1      35.493  32.914  28.355  1.00  0.00     0.060 A 
ATOM     29  C   UNL A   1      35.349  31.547  28.615  1.00  0.00     0.016 A 
ATOM     30  C   UNL A   1      36.746  33.533  28.391  1.00  0.00     0.016 A 
ATOM     31  C   UNL A   1      36.446  30.812  29.021  1.00  0.00     0.010 A 
ATOM     32  C   UNL A   1      37.854  32.789  28.784  1.00  0.00     0.010 A 
ATOM     33  C   UNL A   1      37.685  31.449  29.164  1.00  0.00    -0.014 A 
BRANCH  33  34
ATOM     34  C   UNL A   1      38.738  30.757  29.927  1.00  0.00     0.031 A 
ATOM     35  C   UNL A   1      38.899  31.097  31.378  1.00  0.00     0.074 A 
ATOM     36  C   UNL A   1      39.471  29.800  29.343  1.00  0.00     0.049 A 
ATOM     37  N   UNL A   1      39.727  30.604  32.261  1.00  0.00    -0.248 NA
ATOM     38  C   UNL A   1      38.004  32.139  31.909  1.00  0.00     0.031 C 
ATOM     39  C   UNL A   1      39.357  29.389  27.946  1.00  0.00     0.029 A 
ATOM     40  N   UNL A   1      40.455  29.001  29.857  1.00  0.00    -0.354 N 
ATOM     41  C   UNL A   1      39.456  31.279  33.444  1.00  0.00     0.074 A 
ATOM     42  C   UNL A   1      38.426  32.251  33.157  1.00  0.00     0.031 C 
ATOM     43  C   UNL A   1      40.247  28.412  27.710  1.00  0.00     0.029 A 
ATOM     44  C   UNL A   1      41.010  28.159  28.930  1.00  0.00     0.049 A 
ATOM     45  H   UNL A   1      40.737  29.029  30.801  1.00  0.00     0.167 HD
ATOM     46  C   UNL A   1      40.011  31.090  34.664  1.00  0.00     0.037 A 
ATOM     47  C   UNL A   1      42.035  27.299  29.059  1.00  0.00     0.037 A 
ATOM     48  C   UNL A   1      41.045  30.123  34.919  1.00  0.00     0.049 A 
ATOM     49  C   UNL A   1      42.682  27.145  30.409  1.00  0.00     0.074 A 
ATOM     50  C   UNL A   1      41.678  29.826  36.111  1.00  0.00     0.029 A 
ATOM     51  N   UNL A   1      41.608  29.302  33.949  1.00  0.00    -0.354 N 
ATOM     52  N   UNL A   1      42.404  27.757  31.535  1.00  0.00    -0.248 NA
ATOM     53  C   UNL A   1      43.777  26.172  30.509  1.00  0.00     0.031 C 
ATOM     54  C   UNL A   1      42.669  28.874  35.850  1.00  0.00     0.029 A 
ATOM     55  C   UNL A   1      42.606  28.521  34.509  1.00  0.00     0.049 A 
ATOM     56  H   UNL A   1      41.338  29.277  33.003  1.00  0.00     0.167 HD
ATOM     57  C   UNL A   1      43.273  27.234  32.483  1.00  0.00     0.074 A 
ATOM     58  C   UNL A   1      44.076  26.239  31.799  1.00  0.00     0.031 C 
ATOM     59  C   UNL A   1      43.397  27.544  33.798  1.00  0.00     0.037 A 
BRANCH  46  60
ATOM     60  C   UNL A   1      39.536  31.976  35.780  1.00  0.00     0.064 A 
ATOM     61  C   UNL A   1      38.464  31.617  36.612  1.00  0.00     0.173 A 
ATOM     62  C   UNL A   1      40.146  33.220  36.004  1.00  0.00     0.173 A 
ATOM     63  F   UNL A   1      37.832  30.446  36.433  1.00  0.00    -0.203 F 
ATOM     64  C   UNL A   1      37.990  32.487  37.591  1.00  0.00     0.198 A 
ATOM     65  C   UNL A   1      39.694  34.071  37.009  1.00  0.00     0.198 A 
ATOM     66  F   UNL A   1      41.176  33.616  35.242  1.00  0.00    -0.203 F 
ATOM     67  F   UNL A   1      36.916  32.153  38.321  1.00  0.00    -0.200 F 
ATOM     68  C   UNL A   1      38.608  33.712  37.791  1.00  0.00     0.200 A 
ATOM     69  F   UNL A   1      40.302  35.249  37.210  1.00  0.00    -0.200 F 
ATOM     70  F   UNL A   1      38.149  34.550  38.730  1.00  0.00    -0.200 F 
ENDBRANCH  46  60
BRANCH  47  71
ATOM     71  C   UNL A   1      42.498  26.540  27.871  1.00  0.00     0.064 A 
ATOM     72  C   UNL A   1      41.970  25.282  27.557  1.00  0.00     0.173 A 
ATOM     73  C   UNL A   1      43.451  27.085  26.996  1.00  0.00     0.173 A 
ATOM     74  F   UNL A   1      41.067  24.713  28.370  1.00  0.00    -0.203 F 
ATOM     75  C   UNL A   1      42.379  24.595  26.416  1.00  0.00     0.198 A 
ATOM     76  C   UNL A   1      43.837  26.412  25.841  1.00  0.00     0.198 A 
ATOM     77  F   UNL A   1      43.983  28.290  27.248  1.00  0.00    -0.203 F 
ATOM     78  F   UNL A   1      41.878  23.381  26.152  1.00  0.00    -0.200 F 
ATOM     79  C   UNL A   1      43.305  25.165  25.553  1.00  0.00     0.200 A 
ATOM     80  F   UNL A   1      44.716  26.976  25.000  1.00  0.00    -0.200 F 
ATOM     81  F   UNL A   1      43.683  24.512  24.446  1.00  0.00    -0.200 F 
ENDBRANCH  47  71
BRANCH  59  82
ATOM     82  C   UNL A   1      44.422  26.781  34.588  1.00  0.00     0.064 A 
ATOM     83  C   UNL A   1      44.124  25.551  35.191  1.00  0.00     0.173 A 
ATOM     84  C   UNL A   1      45.733  27.270  34.703  1.00  0.00     0.173 A 
ATOM     85  F   UNL A   1      42.883  25.047  35.121  1.00  0.00    -0.203 F 
ATOM     86  C   UNL A   1      45.092  24.853  35.907  1.00  0.00     0.198 A 
ATOM     87  C   UNL A   1      46.708  26.551  35.388  1.00  0.00     0.198 A 
ATOM     88  F   UNL A   1      46.073  28.437  34.137  1.00  0.00    -0.203 F 
ATOM     89  F   UNL A   1      44.772  23.706  36.522  1.00  0.00    -0.200 F 
ATOM     90  C   UNL A   1      46.385  25.348  35.998  1.00  0.00     0.200 A 
ATOM     91  F   UNL A   1      47.960  27.023  35.458  1.00  0.00    -0.200 F 
ATOM     92  F   UNL A   1      47.318  24.670  36.678  1.00  0.00    -0.200 F 
ENDBRANCH  59  82
ENDBRANCH  33  34
ENDBRANCH  26  28
ENDBRANCH  25  26
ENDBRANCH  24  25
ENDBRANCH   1  24
TORSDOF 16
ENDMDL
MODEL 3
REMARK VINA RESULT:     -11.4      4.325      7.397
REMARK SMILES C[C@H]1CC[C@@H]([C@H](C(=O)OCCOCCOC(=O)c2ccc(-c3c4nc(c(-c5c(F)c(F)c(F)c(F)c5F)c5ccc([nH]5)c(-c5c(F)c(F)c(F)c(F)c5F)c5nc(c(-c6c(F)c(F)c(F)c(F)c6F)c6ccc3[nH]6)C=C5)C=C4)cc2)[C@@H]2CCS(=O)(=O)C2)C[C@@H]1C
REMARK SMILES IDX 13 1 12 2 11 3 10 4 9 5 7 6 8 7 6 8 5 9 1 10 2 11 3 12 89 13
REMARK SMILES IDX 4 14 88 15 90 16 81 17 82 18 87 19 83 20 84 21 85 22 86 23
REMARK SMILES IDX 14 24 15 25 16 26 17 27 18 28 19 29 80 30 20 31 79 32 21 33
REMARK SMILES IDX 22 34 23 35 73 36 24 37 78 38 72 39 74 40 25 41 77 42 71 43
REMARK SMILES IDX 70 44 26 46 58 47 38 48 57 49 39 50 42 51 56 52 75 53 40 54
REMARK SMILES IDX 41 55 55 57 76 58 43 59 27 60 28 61 36 62 29 63 30 64 34 65
REMARK SMILES IDX 37 66 31 67 32 68 35 69 33 70 59 71 60 72 68 73 61 74 62 75
REMARK SMILES IDX 66 76 69 77 63 78 64 79 67 80 65 81 44 82 45 83 53 84 46 85
REMARK SMILES IDX 47 86 51 87 54 88 48 89 49 90 52 91 50 92
REMARK H PARENT 74 45 42 56
REMARK Flexibility Score: inf
ROOT
ATOM      1  C   UNL A   1      35.955  20.733  25.269  1.00  0.00     0.202 C 
ENDROOT
BRANCH   1   2
ATOM      2  O   UNL A   1      35.669  21.826  26.130  1.00  0.00    -0.374 OA
BRANCH   2   3
ATOM      3  C   UNL A   1      34.443  21.721  26.863  1.00  0.00     0.202 C 
BRANCH   3   4
ATOM      4  C   UNL A   1      33.713  23.043  27.152  1.00  0.00     0.261 C 
BRANCH   4   5
ATOM      5  O   UNL A   1      32.315  22.962  26.773  1.00  0.00    -0.463 OA
BRANCH   5   6
ATOM      6  C   UNL A   1      31.619  24.121  26.682  1.00  0.00     0.309 C 
ATOM      7  O   UNL A   1      30.482  24.270  27.110  1.00  0.00    -0.252 OA
BRANCH   6   8
ATOM      8  C   UNL A   1      32.377  25.218  25.927  1.00  0.00     0.106 C 
BRANCH   8   9
ATOM      9  C   UNL A   1      32.232  25.331  24.350  1.00  0.00     0.004 C 
ATOM     10  C   UNL A   1      32.536  21.127  23.122  1.00  0.00     0.008 C 
ATOM     11  C   UNL A   1      32.470  22.648  22.945  1.00  0.00    -0.011 C 
ATOM     12  C   UNL A   1      31.137  23.155  23.504  1.00  0.00     0.004 C 
ATOM     13  C   UNL A   1      33.697  23.369  23.566  1.00  0.00    -0.011 C 
ATOM     14  C   UNL A   1      31.102  24.670  23.559  1.00  0.00     0.005 C 
ATOM     15  C   UNL A   1      33.527  24.899  23.644  1.00  0.00     0.008 C 
ATOM     16  C   UNL A   1      34.964  23.079  22.753  1.00  0.00     0.008 C 
ENDBRANCH   8   9
BRANCH   8  17
ATOM     17  C   UNL A   1      32.392  26.650  26.576  1.00  0.00     0.019 C 
ATOM     18  C   UNL A   1      31.170  27.550  26.309  1.00  0.00     0.021 C 
ATOM     19  C   UNL A   1      33.662  27.496  26.412  1.00  0.00     0.141 C 
ATOM     20  C   UNL A   1      31.515  28.687  25.355  1.00  0.00     0.137 C 
ATOM     21  S   UNL A   1      33.272  28.926  25.433  1.00  0.00     0.150 S 
ATOM     22  O   UNL A   1      33.825  28.748  24.109  1.00  0.00    -0.229 OA
ATOM     23  O   UNL A   1      33.550  30.111  26.216  1.00  0.00    -0.229 OA
ENDBRANCH   8  17
ENDBRANCH   6   8
ENDBRANCH   5   6
ENDBRANCH   4   5
ENDBRANCH   3   4
ENDBRANCH   2   3
ENDBRANCH   1   2
BRANCH   1  24
ATOM     24  C   UNL A   1      37.430  20.476  24.958  1.00  0.00     0.261 C 
BRANCH  24  25
ATOM     25  O   UNL A   1      38.176  21.645  25.289  1.00  0.00    -0.460 OA
BRANCH  25  26
ATOM     26  C   UNL A   1      39.254  21.359  26.046  1.00  0.00     0.338 C 
ATOM     27  O   UNL A   1      39.854  20.295  26.110  1.00  0.00    -0.246 OA
BRANCH  26  28
ATOM     28  C   UNL A   1      39.732  22.587  26.686  1.00  0.00     0.060 A 
ATOM     29  C   UNL A   1      39.121  23.777  26.278  1.00  0.00     0.016 A 
ATOM     30  C   UNL A   1      40.761  22.585  27.633  1.00  0.00     0.016 A 
ATOM     31  C   UNL A   1      39.610  24.986  26.736  1.00  0.00     0.010 A 
ATOM     32  C   UNL A   1      41.244  23.801  28.105  1.00  0.00     0.010 A 
ATOM     33  C   UNL A   1      40.711  24.997  27.601  1.00  0.00    -0.014 A 
BRANCH  33  34
ATOM     34  C   UNL A   1      41.435  26.266  27.787  1.00  0.00     0.031 A 
ATOM     35  C   UNL A   1      40.733  27.383  28.499  1.00  0.00     0.074 A 
ATOM     36  C   UNL A   1      42.711  26.375  27.391  1.00  0.00     0.049 A 
ATOM     37  N   UNL A   1      41.170  28.576  28.810  1.00  0.00    -0.248 NA
ATOM     38  C   UNL A   1      39.346  27.122  28.919  1.00  0.00     0.031 C 
ATOM     39  C   UNL A   1      43.474  25.327  26.718  1.00  0.00     0.029 A 
ATOM     40  N   UNL A   1      43.585  27.421  27.501  1.00  0.00    -0.354 N 
ATOM     41  C   UNL A   1      40.111  29.204  29.452  1.00  0.00     0.074 A 
ATOM     42  C   UNL A   1      38.996  28.285  29.443  1.00  0.00     0.031 C 
ATOM     43  C   UNL A   1      44.710  25.788  26.467  1.00  0.00     0.029 A 
ATOM     44  C   UNL A   1      44.806  27.170  26.933  1.00  0.00     0.049 A 
ATOM     45  H   UNL A   1      43.359  28.271  27.946  1.00  0.00     0.167 HD
ATOM     46  C   UNL A   1      40.083  30.435  30.013  1.00  0.00     0.037 A 
ATOM     47  C   UNL A   1      45.868  27.981  26.791  1.00  0.00     0.037 A 
ATOM     48  C   UNL A   1      41.204  31.336  29.998  1.00  0.00     0.049 A 
ATOM     49  C   UNL A   1      45.798  29.370  27.367  1.00  0.00     0.074 A 
ATOM     50  C   UNL A   1      41.305  32.602  30.542  1.00  0.00     0.029 A 
ATOM     51  N   UNL A   1      42.422  31.062  29.387  1.00  0.00    -0.354 N 
ATOM     52  N   UNL A   1      44.810  29.952  28.005  1.00  0.00    -0.248 NA
ATOM     53  C   UNL A   1      46.993  30.209  27.215  1.00  0.00     0.031 C 
ATOM     54  C   UNL A   1      42.560  33.120  30.204  1.00  0.00     0.029 A 
ATOM     55  C   UNL A   1      43.271  32.150  29.511  1.00  0.00     0.049 A 
ATOM     56  H   UNL A   1      42.650  30.219  28.933  1.00  0.00     0.167 HD
ATOM     57  C   UNL A   1      45.267  31.218  28.348  1.00  0.00     0.074 A 
ATOM     58  C   UNL A   1      46.630  31.308  27.861  1.00  0.00     0.031 C 
ATOM     59  C   UNL A   1      44.622  32.214  29.006  1.00  0.00     0.037 A 
BRANCH  46  60
ATOM     60  C   UNL A   1      38.790  30.875  30.639  1.00  0.00     0.064 A 
ATOM     61  C   UNL A   1      38.558  30.776  32.020  1.00  0.00     0.173 A 
ATOM     62  C   UNL A   1      37.752  31.381  29.840  1.00  0.00     0.173 A 
ATOM     63  F   UNL A   1      39.508  30.285  32.832  1.00  0.00    -0.203 F 
ATOM     64  C   UNL A   1      37.325  31.117  32.570  1.00  0.00     0.198 A 
ATOM     65  C   UNL A   1      36.534  31.757  30.398  1.00  0.00     0.198 A 
ATOM     66  F   UNL A   1      37.916  31.500  28.514  1.00  0.00    -0.203 F 
ATOM     67  F   UNL A   1      37.103  30.941  33.880  1.00  0.00    -0.200 F 
ATOM     68  C   UNL A   1      36.315  31.611  31.759  1.00  0.00     0.200 A 
ATOM     69  F   UNL A   1      35.563  32.248  29.613  1.00  0.00    -0.200 F 
ATOM     70  F   UNL A   1      35.127  31.936  32.287  1.00  0.00    -0.200 F 
ENDBRANCH  46  60
BRANCH  47  71
ATOM     71  C   UNL A   1      47.066  27.488  26.068  1.00  0.00     0.064 A 
ATOM     72  C   UNL A   1      47.196  27.638  24.682  1.00  0.00     0.173 A 
ATOM     73  C   UNL A   1      48.133  26.896  26.763  1.00  0.00     0.173 A 
ATOM     74  F   UNL A   1      46.197  28.184  23.971  1.00  0.00    -0.203 F 
ATOM     75  C   UNL A   1      48.342  27.210  24.017  1.00  0.00     0.198 A 
ATOM     76  C   UNL A   1      49.290  26.496  26.103  1.00  0.00     0.198 A 
ATOM     77  F   UNL A   1      48.061  26.736  28.093  1.00  0.00    -0.203 F 
ATOM     78  F   UNL A   1      48.431  27.339  22.686  1.00  0.00    -0.200 F 
ATOM     79  C   UNL A   1      49.393  26.649  24.728  1.00  0.00     0.200 A 
ATOM     80  F   UNL A   1      50.310  25.974  26.797  1.00  0.00    -0.200 F 
ATOM     81  F   UNL A   1      50.504  26.256  24.090  1.00  0.00    -0.200 F 
ENDBRANCH  47  71
BRANCH  59  82
ATOM     82  C   UNL A   1      45.392  33.478  29.258  1.00  0.00     0.064 A 
ATOM     83  C   UNL A   1      45.349  34.560  28.366  1.00  0.00     0.173 A 
ATOM     84  C   UNL A   1      46.149  33.623  30.432  1.00  0.00     0.173 A 
ATOM     85  F   UNL A   1      44.652  34.467  27.225  1.00  0.00    -0.203 F 
ATOM     86  C   UNL A   1      46.060  35.728  28.626  1.00  0.00     0.198 A 
ATOM     87  C   UNL A   1      46.828  34.807  30.706  1.00  0.00     0.198 A 
ATOM     88  F   UNL A   1      46.216  32.623  31.322  1.00  0.00    -0.203 F 
ATOM     89  F   UNL A   1      46.050  36.729  27.734  1.00  0.00    -0.200 F 
ATOM     90  C   UNL A   1      46.792  35.854  29.798  1.00  0.00     0.200 A 
ATOM     91  F   UNL A   1      47.518  34.933  31.847  1.00  0.00    -0.200 F 
ATOM     92  F   UNL A   1      47.466  36.983  30.050  1.00  0.00    -0.200 F 
ENDBRANCH  59  82
ENDBRANCH  33  34
ENDBRANCH  26  28
ENDBRANCH  25  26
ENDBRANCH  24  25
ENDBRANCH   1  24
TORSDOF 16
ENDMDL
