MODEL 1
REMARK VINA RESULT:     -10.1      0.000      0.000
REMARK SMILES O=C(CSC(=S)N1CCCCC1)OCCOCCOC(=O)c1ccc(-c2c3nc(c(-c4c(F)c(F)c(F)c(F)c4F)c4ccc([nH]4)c(-c4c(F)c(F)c(F)c(F)c4F)c4nc(c(-c5c(F)c(F)c(F)c(F)c5F)c5ccc2[nH]5)C=C4)C=C3)cc1
REMARK SMILES IDX 15 1 14 2 13 3 2 4 1 5 3 6 4 7 5 8 6 9 7 10 8 11 12 12 9 13
REMARK SMILES IDX 11 14 10 15 16 16 17 17 18 18 19 19 20 20 21 21 22 22 23 23
REMARK SMILES IDX 84 24 24 25 83 26 25 27 26 28 27 29 77 30 28 31 82 32 76 33
REMARK SMILES IDX 78 34 29 35 81 36 75 37 74 38 30 40 62 41 42 42 61 43 43 44
REMARK SMILES IDX 46 45 60 46 79 47 44 48 45 49 59 51 80 52 47 53 31 54 32 55
REMARK SMILES IDX 40 56 33 57 34 58 38 59 41 60 35 61 36 62 39 63 37 64 63 65
REMARK SMILES IDX 64 66 72 67 65 68 66 69 70 70 73 71 67 72 68 73 71 74 69 75
REMARK SMILES IDX 48 76 49 77 57 78 50 79 51 80 55 81 58 82 52 83 53 84 56 85
REMARK SMILES IDX 54 86
REMARK H PARENT 78 39 46 50
REMARK Flexibility Score: inf
ROOT
ATOM      1  C   UNL A   1      33.293  27.038  25.452  1.00  0.00     0.202 C 
ENDROOT
BRANCH   1   2
ATOM      2  C   UNL A   1      31.991  26.241  25.431  1.00  0.00     0.261 C 
BRANCH   2   3
ATOM      3  O   UNL A   1      32.103  24.997  26.144  1.00  0.00    -0.463 OA
BRANCH   3   4
ATOM      4  C   UNL A   1      31.168  24.023  26.169  1.00  0.00     0.316 C 
ATOM      5  O   UNL A   1      30.662  23.720  27.251  1.00  0.00    -0.251 OA
BRANCH   4   6
ATOM      6  C   UNL A   1      30.817  23.251  24.920  1.00  0.00     0.199 C 
BRANCH   6   7
ATOM      7  S   UNL A   1      32.129  22.949  23.732  1.00  0.00    -0.085 SA
BRANCH   7   8
ATOM      8  C   UNL A   1      33.146  21.726  24.483  1.00  0.00     0.136 C 
ATOM      9  S   UNL A   1      32.699  20.108  24.572  1.00  0.00    -0.053 S 
BRANCH   8  10
ATOM     10  N   UNL A   1      34.315  22.256  25.051  1.00  0.00    -0.358 N 
ATOM     11  C   UNL A   1      35.012  23.406  24.465  1.00  0.00     0.118 C 
ATOM     12  C   UNL A   1      35.203  21.450  25.902  1.00  0.00     0.118 C 
ATOM     13  C   UNL A   1      36.130  22.920  23.545  1.00  0.00     0.021 C 
ATOM     14  C   UNL A   1      36.282  20.837  25.009  1.00  0.00     0.021 C 
ATOM     15  C   UNL A   1      37.056  21.926  24.256  1.00  0.00     0.004 C 
ENDBRANCH   8  10
ENDBRANCH   7   8
ENDBRANCH   6   7
ENDBRANCH   4   6
ENDBRANCH   3   4
ENDBRANCH   2   3
ENDBRANCH   1   2
BRANCH   1  16
ATOM     16  O   UNL A   1      33.114  28.444  25.634  1.00  0.00    -0.374 OA
BRANCH  16  17
ATOM     17  C   UNL A   1      31.963  28.828  26.396  1.00  0.00     0.202 C 
BRANCH  17  18
ATOM     18  C   UNL A   1      31.866  30.316  26.739  1.00  0.00     0.261 C 
BRANCH  18  19
ATOM     19  O   UNL A   1      33.071  31.002  26.380  1.00  0.00    -0.460 OA
BRANCH  19  20
ATOM     20  C   UNL A   1      33.491  31.919  27.281  1.00  0.00     0.338 C 
ATOM     21  O   UNL A   1      32.861  32.866  27.728  1.00  0.00    -0.246 OA
BRANCH  20  22
ATOM     22  C   UNL A   1      34.798  31.499  27.816  1.00  0.00     0.060 A 
ATOM     23  C   UNL A   1      34.956  30.150  28.157  1.00  0.00     0.016 A 
ATOM     24  C   UNL A   1      35.840  32.410  28.000  1.00  0.00     0.016 A 
ATOM     25  C   UNL A   1      36.137  29.719  28.749  1.00  0.00     0.010 A 
ATOM     26  C   UNL A   1      37.024  31.977  28.596  1.00  0.00     0.010 A 
ATOM     27  C   UNL A   1      37.157  30.641  29.012  1.00  0.00    -0.014 A 
BRANCH  27  28
ATOM     28  C   UNL A   1      38.287  30.254  29.883  1.00  0.00     0.031 A 
ATOM     29  C   UNL A   1      39.301  29.283  29.348  1.00  0.00     0.074 A 
ATOM     30  C   UNL A   1      38.409  30.770  31.117  1.00  0.00     0.049 A 
ATOM     31  N   UNL A   1      40.331  28.741  29.945  1.00  0.00    -0.248 NA
ATOM     32  C   UNL A   1      39.124  28.857  27.949  1.00  0.00     0.031 C 
ATOM     33  C   UNL A   1      37.502  31.746  31.717  1.00  0.00     0.029 A 
ATOM     34  N   UNL A   1      39.342  30.529  32.092  1.00  0.00    -0.354 N 
ATOM     35  C   UNL A   1      40.913  27.903  29.004  1.00  0.00     0.074 A 
ATOM     36  C   UNL A   1      40.106  27.979  27.806  1.00  0.00     0.031 C 
ATOM     37  C   UNL A   1      37.916  32.012  32.968  1.00  0.00     0.029 A 
ATOM     38  C   UNL A   1      39.090  31.195  33.265  1.00  0.00     0.049 A 
ATOM     39  H   UNL A   1      40.117  29.936  31.964  1.00  0.00     0.167 HD
ATOM     40  C   UNL A   1      42.028  27.146  29.128  1.00  0.00     0.037 A 
ATOM     41  C   UNL A   1      39.726  31.125  34.451  1.00  0.00     0.037 A 
ATOM     42  C   UNL A   1      42.822  27.084  30.326  1.00  0.00     0.049 A 
ATOM     43  C   UNL A   1      40.925  30.221  34.584  1.00  0.00     0.074 A 
ATOM     44  C   UNL A   1      43.983  26.367  30.555  1.00  0.00     0.029 A 
ATOM     45  N   UNL A   1      42.528  27.759  31.503  1.00  0.00    -0.354 N 
ATOM     46  N   UNL A   1      41.490  29.453  33.683  1.00  0.00    -0.248 NA
ATOM     47  C   UNL A   1      41.578  30.178  35.899  1.00  0.00     0.031 C 
ATOM     48  C   UNL A   1      44.357  26.560  31.888  1.00  0.00     0.029 A 
ATOM     49  C   UNL A   1      43.471  27.453  32.470  1.00  0.00     0.049 A 
ATOM     50  H   UNL A   1      41.764  28.366  31.630  1.00  0.00     0.167 HD
ATOM     51  C   UNL A   1      42.583  28.866  34.309  1.00  0.00     0.074 A 
ATOM     52  C   UNL A   1      42.608  29.378  35.663  1.00  0.00     0.031 C 
ATOM     53  C   UNL A   1      43.485  27.985  33.809  1.00  0.00     0.037 A 
BRANCH  40  54
ATOM     54  C   UNL A   1      42.437  26.306  27.953  1.00  0.00     0.064 A 
ATOM     55  C   UNL A   1      41.883  25.039  27.717  1.00  0.00     0.173 A 
ATOM     56  C   UNL A   1      43.371  26.795  27.025  1.00  0.00     0.173 A 
ATOM     57  F   UNL A   1      40.999  24.517  28.580  1.00  0.00    -0.203 F 
ATOM     58  C   UNL A   1      42.265  24.284  26.610  1.00  0.00     0.198 A 
ATOM     59  C   UNL A   1      43.725  26.051  25.903  1.00  0.00     0.198 A 
ATOM     60  F   UNL A   1      43.931  28.001  27.201  1.00  0.00    -0.203 F 
ATOM     61  F   UNL A   1      41.758  23.056  26.432  1.00  0.00    -0.200 F 
ATOM     62  C   UNL A   1      43.178  24.794  25.700  1.00  0.00     0.200 A 
ATOM     63  F   UNL A   1      44.596  26.553  25.017  1.00  0.00    -0.200 F 
ATOM     64  F   UNL A   1      43.535  24.071  24.629  1.00  0.00    -0.200 F 
ENDBRANCH  40  54
BRANCH  41  65
ATOM     65  C   UNL A   1      39.236  31.921  35.608  1.00  0.00     0.064 A 
ATOM     66  C   UNL A   1      38.385  31.355  36.567  1.00  0.00     0.173 A 
ATOM     67  C   UNL A   1      39.593  33.268  35.767  1.00  0.00     0.173 A 
ATOM     68  F   UNL A   1      37.999  30.075  36.448  1.00  0.00    -0.203 F 
ATOM     69  C   UNL A   1      37.888  32.112  37.626  1.00  0.00     0.198 A 
ATOM     70  C   UNL A   1      39.122  34.016  36.845  1.00  0.00     0.198 A 
ATOM     71  F   UNL A   1      40.405  33.858  34.879  1.00  0.00    -0.203 F 
ATOM     72  F   UNL A   1      37.032  31.561  38.496  1.00  0.00    -0.200 F 
ATOM     73  C   UNL A   1      38.261  33.440  37.767  1.00  0.00     0.200 A 
ATOM     74  F   UNL A   1      39.497  35.294  36.986  1.00  0.00    -0.200 F 
ATOM     75  F   UNL A   1      37.784  34.168  38.786  1.00  0.00    -0.200 F 
ENDBRANCH  41  65
BRANCH  53  76
ATOM     76  C   UNL A   1      44.607  27.560  34.713  1.00  0.00     0.064 A 
ATOM     77  C   UNL A   1      44.522  26.413  35.514  1.00  0.00     0.173 A 
ATOM     78  C   UNL A   1      45.806  28.292  34.740  1.00  0.00     0.173 A 
ATOM     79  F   UNL A   1      43.395  25.686  35.535  1.00  0.00    -0.203 F 
ATOM     80  C   UNL A   1      45.582  26.031  36.334  1.00  0.00     0.198 A 
ATOM     81  C   UNL A   1      46.877  27.886  35.531  1.00  0.00     0.198 A 
ATOM     82  F   UNL A   1      45.945  29.391  33.985  1.00  0.00    -0.203 F 
ATOM     83  F   UNL A   1      45.456  24.963  37.134  1.00  0.00    -0.200 F 
ATOM     84  C   UNL A   1      46.760  26.763  36.334  1.00  0.00     0.200 A 
ATOM     85  F   UNL A   1      48.021  28.583  35.515  1.00  0.00    -0.200 F 
ATOM     86  F   UNL A   1      47.783  26.388  37.116  1.00  0.00    -0.200 F 
ENDBRANCH  53  76
ENDBRANCH  27  28
ENDBRANCH  20  22
ENDBRANCH  19  20
ENDBRANCH  18  19
ENDBRANCH  17  18
ENDBRANCH  16  17
ENDBRANCH   1  16
TORSDOF 17
ENDMDL
MODEL 2
REMARK VINA RESULT:     -10.0      1.240      2.543
REMARK SMILES O=C(CSC(=S)N1CCCCC1)OCCOCCOC(=O)c1ccc(-c2c3nc(c(-c4c(F)c(F)c(F)c(F)c4F)c4ccc([nH]4)c(-c4c(F)c(F)c(F)c(F)c4F)c4nc(c(-c5c(F)c(F)c(F)c(F)c5F)c5ccc2[nH]5)C=C4)C=C3)cc1
REMARK SMILES IDX 15 1 14 2 13 3 2 4 1 5 3 6 4 7 5 8 6 9 7 10 8 11 12 12 9 13
REMARK SMILES IDX 11 14 10 15 16 16 17 17 18 18 19 19 20 20 21 21 22 22 23 23
REMARK SMILES IDX 84 24 24 25 83 26 25 27 26 28 27 29 77 30 28 31 82 32 76 33
REMARK SMILES IDX 78 34 29 35 81 36 75 37 74 38 30 40 62 41 42 42 61 43 43 44
REMARK SMILES IDX 46 45 60 46 79 47 44 48 45 49 59 51 80 52 47 53 31 54 32 55
REMARK SMILES IDX 40 56 33 57 34 58 38 59 41 60 35 61 36 62 39 63 37 64 63 65
REMARK SMILES IDX 64 66 72 67 65 68 66 69 70 70 73 71 67 72 68 73 71 74 69 75
REMARK SMILES IDX 48 76 49 77 57 78 50 79 51 80 55 81 58 82 52 83 53 84 56 85
REMARK SMILES IDX 54 86
REMARK H PARENT 78 39 46 50
REMARK Flexibility Score: inf
ROOT
ATOM      1  C   UNL A   1      33.387  28.331  23.725  1.00  0.00     0.202 C 
ENDROOT
BRANCH   1   2
ATOM      2  C   UNL A   1      33.540  27.818  22.295  1.00  0.00     0.261 C 
BRANCH   2   3
ATOM      3  O   UNL A   1      33.901  26.426  22.252  1.00  0.00    -0.463 OA
BRANCH   3   4
ATOM      4  C   UNL A   1      33.036  25.397  22.131  1.00  0.00     0.316 C 
ATOM      5  O   UNL A   1      33.164  24.628  21.176  1.00  0.00    -0.251 OA
BRANCH   4   6
ATOM      6  C   UNL A   1      31.875  25.243  23.083  1.00  0.00     0.199 C 
BRANCH   6   7
ATOM      7  S   UNL A   1      31.162  23.605  23.268  1.00  0.00    -0.085 SA
BRANCH   7   8
ATOM      8  C   UNL A   1      32.325  22.712  24.238  1.00  0.00     0.136 C 
ATOM      9  S   UNL A   1      32.648  21.081  23.988  1.00  0.00    -0.053 S 
BRANCH   8  10
ATOM     10  N   UNL A   1      32.887  23.481  25.269  1.00  0.00    -0.358 N 
ATOM     11  C   UNL A   1      34.333  23.701  25.375  1.00  0.00     0.118 C 
ATOM     12  C   UNL A   1      32.205  23.675  26.558  1.00  0.00     0.118 C 
ATOM     13  C   UNL A   1      34.946  22.669  26.322  1.00  0.00     0.021 C 
ATOM     14  C   UNL A   1      32.694  22.589  27.517  1.00  0.00     0.021 C 
ATOM     15  C   UNL A   1      34.219  22.638  27.671  1.00  0.00     0.004 C 
ENDBRANCH   8  10
ENDBRANCH   7   8
ENDBRANCH   6   7
ENDBRANCH   4   6
ENDBRANCH   3   4
ENDBRANCH   2   3
ENDBRANCH   1   2
BRANCH   1  16
ATOM     16  O   UNL A   1      32.338  29.285  23.893  1.00  0.00    -0.374 OA
BRANCH  16  17
ATOM     17  C   UNL A   1      31.625  29.211  25.134  1.00  0.00     0.202 C 
BRANCH  17  18
ATOM     18  C   UNL A   1      31.682  30.467  26.004  1.00  0.00     0.261 C 
BRANCH  18  19
ATOM     19  O   UNL A   1      32.711  30.354  26.996  1.00  0.00    -0.460 OA
BRANCH  19  20
ATOM     20  C   UNL A   1      33.364  31.505  27.270  1.00  0.00     0.338 C 
ATOM     21  O   UNL A   1      32.906  32.638  27.272  1.00  0.00    -0.246 OA
BRANCH  20  22
ATOM     22  C   UNL A   1      34.711  31.183  27.770  1.00  0.00     0.060 A 
ATOM     23  C   UNL A   1      35.007  29.836  28.017  1.00  0.00     0.016 A 
ATOM     24  C   UNL A   1      35.660  32.179  28.013  1.00  0.00     0.016 A 
ATOM     25  C   UNL A   1      36.231  29.485  28.573  1.00  0.00     0.010 A 
ATOM     26  C   UNL A   1      36.887  31.826  28.574  1.00  0.00     0.010 A 
ATOM     27  C   UNL A   1      37.156  30.484  28.896  1.00  0.00    -0.014 A 
BRANCH  27  28
ATOM     28  C   UNL A   1      38.329  30.154  29.734  1.00  0.00     0.031 A 
ATOM     29  C   UNL A   1      39.348  29.195  29.190  1.00  0.00     0.074 A 
ATOM     30  C   UNL A   1      38.482  30.710  30.947  1.00  0.00     0.049 A 
ATOM     31  N   UNL A   1      40.414  28.698  29.763  1.00  0.00    -0.248 NA
ATOM     32  C   UNL A   1      39.131  28.722  27.812  1.00  0.00     0.031 C 
ATOM     33  C   UNL A   1      37.571  31.679  31.553  1.00  0.00     0.029 A 
ATOM     34  N   UNL A   1      39.457  30.523  31.893  1.00  0.00    -0.354 N 
ATOM     35  C   UNL A   1      40.984  27.848  28.824  1.00  0.00     0.074 A 
ATOM     36  C   UNL A   1      40.131  27.866  27.657  1.00  0.00     0.031 C 
ATOM     37  C   UNL A   1      38.025  31.994  32.779  1.00  0.00     0.029 A 
ATOM     38  C   UNL A   1      39.231  31.218  33.055  1.00  0.00     0.049 A 
ATOM     39  H   UNL A   1      40.243  29.947  31.752  1.00  0.00     0.167 HD
ATOM     40  C   UNL A   1      42.123  27.125  28.929  1.00  0.00     0.037 A 
ATOM     41  C   UNL A   1      39.912  31.199  34.217  1.00  0.00     0.037 A 
ATOM     42  C   UNL A   1      42.962  27.119  30.097  1.00  0.00     0.049 A 
ATOM     43  C   UNL A   1      41.139  30.332  34.330  1.00  0.00     0.074 A 
ATOM     44  C   UNL A   1      44.150  26.440  30.302  1.00  0.00     0.029 A 
ATOM     45  N   UNL A   1      42.694  27.821  31.263  1.00  0.00    -0.354 N 
ATOM     46  N   UNL A   1      41.692  29.553  33.431  1.00  0.00    -0.248 NA
ATOM     47  C   UNL A   1      41.842  30.346  35.621  1.00  0.00     0.031 C 
ATOM     48  C   UNL A   1      44.568  26.683  31.614  1.00  0.00     0.029 A 
ATOM     49  C   UNL A   1      43.680  27.570  32.202  1.00  0.00     0.049 A 
ATOM     50  H   UNL A   1      41.919  28.411  31.403  1.00  0.00     0.167 HD
ATOM     51  C   UNL A   1      42.822  29.014  34.032  1.00  0.00     0.074 A 
ATOM     52  C   UNL A   1      42.884  29.567  35.369  1.00  0.00     0.031 C 
ATOM     53  C   UNL A   1      43.730  28.142  33.524  1.00  0.00     0.037 A 
BRANCH  40  54
ATOM     54  C   UNL A   1      42.511  26.261  27.763  1.00  0.00     0.064 A 
ATOM     55  C   UNL A   1      43.455  26.677  26.813  1.00  0.00     0.173 A 
ATOM     56  C   UNL A   1      41.958  24.978  27.618  1.00  0.00     0.173 A 
ATOM     57  F   UNL A   1      44.003  27.899  26.895  1.00  0.00    -0.203 F 
ATOM     58  C   UNL A   1      43.813  25.852  25.748  1.00  0.00     0.198 A 
ATOM     59  C   UNL A   1      42.343  24.145  26.573  1.00  0.00     0.198 A 
ATOM     60  F   UNL A   1      41.051  24.529  28.499  1.00  0.00    -0.203 F 
ATOM     61  F   UNL A   1      44.681  26.291  24.826  1.00  0.00    -0.200 F 
ATOM     62  C   UNL A   1      43.264  24.584  25.635  1.00  0.00     0.200 A 
ATOM     63  F   UNL A   1      41.822  22.914  26.472  1.00  0.00    -0.200 F 
ATOM     64  F   UNL A   1      43.619  23.787  24.617  1.00  0.00    -0.200 F 
ENDBRANCH  40  54
BRANCH  41  65
ATOM     65  C   UNL A   1      39.444  32.017  35.368  1.00  0.00     0.064 A 
ATOM     66  C   UNL A   1      39.915  33.322  35.567  1.00  0.00     0.173 A 
ATOM     67  C   UNL A   1      38.533  31.503  36.303  1.00  0.00     0.173 A 
ATOM     68  F   UNL A   1      40.803  33.851  34.712  1.00  0.00    -0.203 F 
ATOM     69  C   UNL A   1      39.514  34.072  36.672  1.00  0.00     0.198 A 
ATOM     70  C   UNL A   1      38.107  32.266  37.389  1.00  0.00     0.198 A 
ATOM     71  F   UNL A   1      38.050  30.261  36.159  1.00  0.00    -0.203 F 
ATOM     72  F   UNL A   1      40.024  35.295  36.867  1.00  0.00    -0.200 F 
ATOM     73  C   UNL A   1      38.607  33.545  37.578  1.00  0.00     0.200 A 
ATOM     74  F   UNL A   1      37.218  31.759  38.253  1.00  0.00    -0.200 F 
ATOM     75  F   UNL A   1      38.220  34.267  38.638  1.00  0.00    -0.200 F 
ENDBRANCH  41  65
BRANCH  53  76
ATOM     76  C   UNL A   1      44.896  27.774  34.397  1.00  0.00     0.064 A 
ATOM     77  C   UNL A   1      46.074  28.535  34.421  1.00  0.00     0.173 A 
ATOM     78  C   UNL A   1      44.812  26.667  35.257  1.00  0.00     0.173 A 
ATOM     79  F   UNL A   1      46.210  29.594  33.610  1.00  0.00    -0.203 F 
ATOM     80  C   UNL A   1      47.137  28.182  35.250  1.00  0.00     0.198 A 
ATOM     81  C   UNL A   1      45.861  26.340  36.111  1.00  0.00     0.198 A 
ATOM     82  F   UNL A   1      43.704  25.912  35.281  1.00  0.00    -0.203 F 
ATOM     83  F   UNL A   1      48.274  28.890  35.214  1.00  0.00    -0.200 F 
ATOM     84  C   UNL A   1      47.026  27.091  36.099  1.00  0.00     0.200 A 
ATOM     85  F   UNL A   1      45.743  25.298  36.945  1.00  0.00    -0.200 F 
ATOM     86  F   UNL A   1      48.046  26.759  36.903  1.00  0.00    -0.200 F 
ENDBRANCH  53  76
ENDBRANCH  27  28
ENDBRANCH  20  22
ENDBRANCH  19  20
ENDBRANCH  18  19
ENDBRANCH  17  18
ENDBRANCH  16  17
ENDBRANCH   1  16
TORSDOF 17
ENDMDL
MODEL 3
REMARK VINA RESULT:      -9.9      4.589      7.739
REMARK SMILES O=C(CSC(=S)N1CCCCC1)OCCOCCOC(=O)c1ccc(-c2c3nc(c(-c4c(F)c(F)c(F)c(F)c4F)c4ccc([nH]4)c(-c4c(F)c(F)c(F)c(F)c4F)c4nc(c(-c5c(F)c(F)c(F)c(F)c5F)c5ccc2[nH]5)C=C4)C=C3)cc1
REMARK SMILES IDX 15 1 14 2 13 3 2 4 1 5 3 6 4 7 5 8 6 9 7 10 8 11 12 12 9 13
REMARK SMILES IDX 11 14 10 15 16 16 17 17 18 18 19 19 20 20 21 21 22 22 23 23
REMARK SMILES IDX 84 24 24 25 83 26 25 27 26 28 27 29 77 30 28 31 82 32 76 33
REMARK SMILES IDX 78 34 29 35 81 36 75 37 74 38 30 40 62 41 42 42 61 43 43 44
REMARK SMILES IDX 46 45 60 46 79 47 44 48 45 49 59 51 80 52 47 53 31 54 32 55
REMARK SMILES IDX 40 56 33 57 34 58 38 59 41 60 35 61 36 62 39 63 37 64 63 65
REMARK SMILES IDX 64 66 72 67 65 68 66 69 70 70 73 71 67 72 68 73 71 74 69 75
REMARK SMILES IDX 48 76 49 77 57 78 50 79 51 80 55 81 58 82 52 83 53 84 56 85
REMARK SMILES IDX 54 86
REMARK H PARENT 78 39 46 50
REMARK Flexibility Score: inf
ROOT
ATOM      1  C   UNL A   1      36.342  21.741  24.690  1.00  0.00     0.202 C 
ENDROOT
BRANCH   1   2
ATOM      2  C   UNL A   1      34.977  21.055  24.707  1.00  0.00     0.261 C 
BRANCH   2   3
ATOM      3  O   UNL A   1      33.905  21.971  24.418  1.00  0.00    -0.463 OA
BRANCH   3   4
ATOM      4  C   UNL A   1      33.038  22.470  25.324  1.00  0.00     0.316 C 
ATOM      5  O   UNL A   1      32.100  21.762  25.694  1.00  0.00    -0.251 OA
BRANCH   4   6
ATOM      6  C   UNL A   1      33.152  23.897  25.804  1.00  0.00     0.199 C 
BRANCH   6   7
ATOM      7  S   UNL A   1      34.452  24.912  25.093  1.00  0.00    -0.085 SA
BRANCH   7   8
ATOM      8  C   UNL A   1      33.609  26.105  24.114  1.00  0.00     0.136 C 
ATOM      9  S   UNL A   1      32.905  25.727  22.634  1.00  0.00    -0.053 S 
BRANCH   8  10
ATOM     10  N   UNL A   1      33.655  27.397  24.661  1.00  0.00    -0.358 N 
ATOM     11  C   UNL A   1      33.967  27.632  26.075  1.00  0.00     0.118 C 
ATOM     12  C   UNL A   1      32.918  28.523  24.066  1.00  0.00     0.118 C 
ATOM     13  C   UNL A   1      32.673  27.744  26.879  1.00  0.00     0.021 C 
ATOM     14  C   UNL A   1      31.556  28.610  24.756  1.00  0.00     0.021 C 
ATOM     15  C   UNL A   1      31.718  28.777  26.272  1.00  0.00     0.004 C 
ENDBRANCH   8  10
ENDBRANCH   7   8
ENDBRANCH   6   7
ENDBRANCH   4   6
ENDBRANCH   3   4
ENDBRANCH   2   3
ENDBRANCH   1   2
BRANCH   1  16
ATOM     16  O   UNL A   1      37.323  21.107  25.512  1.00  0.00    -0.374 OA
BRANCH  16  17
ATOM     17  C   UNL A   1      37.863  19.883  25.001  1.00  0.00     0.202 C 
BRANCH  17  18
ATOM     18  C   UNL A   1      39.138  19.387  25.687  1.00  0.00     0.261 C 
BRANCH  18  19
ATOM     19  O   UNL A   1      40.095  20.447  25.813  1.00  0.00    -0.460 OA
BRANCH  19  20
ATOM     20  C   UNL A   1      40.759  20.473  26.990  1.00  0.00     0.338 C 
ATOM     21  O   UNL A   1      41.267  19.530  27.579  1.00  0.00    -0.246 OA
BRANCH  20  22
ATOM     22  C   UNL A   1      40.963  21.875  27.392  1.00  0.00     0.060 A 
ATOM     23  C   UNL A   1      40.224  22.857  26.720  1.00  0.00     0.016 A 
ATOM     24  C   UNL A   1      41.872  22.225  28.393  1.00  0.00     0.016 A 
ATOM     25  C   UNL A   1      40.443  24.201  26.998  1.00  0.00     0.010 A 
ATOM     26  C   UNL A   1      42.092  23.574  28.670  1.00  0.00     0.010 A 
ATOM     27  C   UNL A   1      41.411  24.565  27.941  1.00  0.00    -0.014 A 
BRANCH  27  28
ATOM     28  C   UNL A   1      41.844  25.975  28.041  1.00  0.00     0.031 A 
ATOM     29  C   UNL A   1      43.170  26.358  27.447  1.00  0.00     0.074 A 
ATOM     30  C   UNL A   1      41.064  26.890  28.638  1.00  0.00     0.049 A 
ATOM     31  N   UNL A   1      43.793  27.507  27.475  1.00  0.00    -0.248 NA
ATOM     32  C   UNL A   1      43.898  25.296  26.731  1.00  0.00     0.031 C 
ATOM     33  C   UNL A   1      39.746  26.630  29.213  1.00  0.00     0.029 A 
ATOM     34  N   UNL A   1      41.279  28.224  28.871  1.00  0.00    -0.354 N 
ATOM     35  C   UNL A   1      44.987  27.303  26.796  1.00  0.00     0.074 A 
ATOM     36  C   UNL A   1      45.021  25.914  26.397  1.00  0.00     0.031 C 
ATOM     37  C   UNL A   1      39.273  27.770  29.747  1.00  0.00     0.029 A 
ATOM     38  C   UNL A   1      40.273  28.823  29.586  1.00  0.00     0.049 A 
ATOM     39  H   UNL A   1      42.079  28.706  28.556  1.00  0.00     0.167 HD
ATOM     40  C   UNL A   1      45.963  28.201  26.524  1.00  0.00     0.037 A 
ATOM     41  C   UNL A   1      40.190  30.074  30.076  1.00  0.00     0.037 A 
ATOM     42  C   UNL A   1      45.914  29.581  26.926  1.00  0.00     0.049 A 
ATOM     43  C   UNL A   1      41.321  31.036  29.818  1.00  0.00     0.074 A 
ATOM     44  C   UNL A   1      46.836  30.583  26.685  1.00  0.00     0.029 A 
ATOM     45  N   UNL A   1      44.886  30.151  27.664  1.00  0.00    -0.354 N 
ATOM     46  N   UNL A   1      42.435  30.849  29.150  1.00  0.00    -0.248 NA
ATOM     47  C   UNL A   1      41.182  32.387  30.379  1.00  0.00     0.031 C 
ATOM     48  C   UNL A   1      46.397  31.743  27.330  1.00  0.00     0.029 A 
ATOM     49  C   UNL A   1      45.166  31.485  27.911  1.00  0.00     0.049 A 
ATOM     50  H   UNL A   1      44.078  29.678  27.967  1.00  0.00     0.167 HD
ATOM     51  C   UNL A   1      43.109  32.063  29.178  1.00  0.00     0.074 A 
ATOM     52  C   UNL A   1      42.272  32.984  29.919  1.00  0.00     0.031 C 
ATOM     53  C   UNL A   1      44.311  32.388  28.640  1.00  0.00     0.037 A 
BRANCH  40  54
ATOM     54  C   UNL A   1      47.175  27.713  25.783  1.00  0.00     0.064 A 
ATOM     55  C   UNL A   1      47.248  27.740  24.382  1.00  0.00     0.173 A 
ATOM     56  C   UNL A   1      48.296  27.249  26.488  1.00  0.00     0.173 A 
ATOM     57  F   UNL A   1      46.200  28.159  23.658  1.00  0.00    -0.203 F 
ATOM     58  C   UNL A   1      48.389  27.298  23.715  1.00  0.00     0.198 A 
ATOM     59  C   UNL A   1      49.446  26.840  25.819  1.00  0.00     0.198 A 
ATOM     60  F   UNL A   1      48.280  27.203  27.829  1.00  0.00    -0.203 F 
ATOM     61  F   UNL A   1      48.418  27.289  22.375  1.00  0.00    -0.200 F 
ATOM     62  C   UNL A   1      49.490  26.858  24.434  1.00  0.00     0.200 A 
ATOM     63  F   UNL A   1      50.514  26.428  26.517  1.00  0.00    -0.200 F 
ATOM     64  F   UNL A   1      50.591  26.445  23.791  1.00  0.00    -0.200 F 
ENDBRANCH  40  54
BRANCH  41  65
ATOM     65  C   UNL A   1      39.001  30.488  30.869  1.00  0.00     0.064 A 
ATOM     66  C   UNL A   1      37.889  31.076  30.251  1.00  0.00     0.173 A 
ATOM     67  C   UNL A   1      38.962  30.322  32.261  1.00  0.00     0.173 A 
ATOM     68  F   UNL A   1      37.887  31.275  28.924  1.00  0.00    -0.203 F 
ATOM     69  C   UNL A   1      36.794  31.508  30.998  1.00  0.00     0.198 A 
ATOM     70  C   UNL A   1      37.852  30.723  33.003  1.00  0.00     0.198 A 
ATOM     71  F   UNL A   1      39.998  29.763  32.902  1.00  0.00    -0.203 F 
ATOM     72  F   UNL A   1      35.769  32.118  30.388  1.00  0.00    -0.200 F 
ATOM     73  C   UNL A   1      36.775  31.326  32.372  1.00  0.00     0.200 A 
ATOM     74  F   UNL A   1      37.831  30.531  34.329  1.00  0.00    -0.200 F 
ATOM     75  F   UNL A   1      35.721  31.738  33.090  1.00  0.00    -0.200 F 
ENDBRANCH  41  65
BRANCH  53  76
ATOM     76  C   UNL A   1      44.769  33.812  28.783  1.00  0.00     0.064 A 
ATOM     77  C   UNL A   1      44.514  34.777  27.797  1.00  0.00     0.173 A 
ATOM     78  C   UNL A   1      45.432  34.225  29.949  1.00  0.00     0.173 A 
ATOM     79  F   UNL A   1      43.895  34.431  26.659  1.00  0.00    -0.203 F 
ATOM     80  C   UNL A   1      44.936  36.094  27.960  1.00  0.00     0.198 A 
ATOM     81  C   UNL A   1      45.819  35.551  30.125  1.00  0.00     0.198 A 
ATOM     82  F   UNL A   1      45.691  33.346  30.929  1.00  0.00    -0.203 F 
ATOM     83  F   UNL A   1      44.732  36.985  26.980  1.00  0.00    -0.200 F 
ATOM     84  C   UNL A   1      45.579  36.481  29.126  1.00  0.00     0.200 A 
ATOM     85  F   UNL A   1      46.421  35.927  31.261  1.00  0.00    -0.200 F 
ATOM     86  F   UNL A   1      45.975  37.752  29.284  1.00  0.00    -0.200 F 
ENDBRANCH  53  76
ENDBRANCH  27  28
ENDBRANCH  20  22
ENDBRANCH  19  20
ENDBRANCH  18  19
ENDBRANCH  17  18
ENDBRANCH  16  17
ENDBRANCH   1  16
TORSDOF 17
ENDMDL
