MODEL 1
REMARK VINA RESULT:     -10.9      0.000      0.000
REMARK SMILES CC[N@@H+]1CCO[C@H](c2nc(C)c(C(=O)OCCOCCOC(=O)c3ccc(-c4c5nc(c(-c6c(F)c(F)c(F)c(F)c6F)c6ccc([nH]6)c(-c6c(F)c(F)c(F)c(F)c6F)c6nc(c(-c7c(F)c(F)c(F)c(F)c7F)c7ccc4[nH]7)C=C6)C=C5)cc3)s2)C1
REMARK SMILES IDX 18 1 17 2 16 3 15 4 13 5 14 6 12 7 8 8 9 9 87 10 10 11 11 12
REMARK SMILES IDX 7 13 3 14 4 15 88 16 5 18 6 19 2 20 1 21 19 22 20 23 21 24
REMARK SMILES IDX 22 25 23 26 24 27 25 28 86 29 26 30 85 31 27 32 28 33 29 34
REMARK SMILES IDX 79 35 30 36 84 37 78 38 80 39 31 40 83 41 77 42 76 43 32 45
REMARK SMILES IDX 64 46 44 47 63 48 45 49 48 50 62 51 81 52 46 53 47 54 61 56
REMARK SMILES IDX 82 57 49 58 33 59 34 60 42 61 35 62 36 63 40 64 43 65 37 66
REMARK SMILES IDX 38 67 41 68 39 69 65 70 66 71 74 72 67 73 68 74 72 75 75 76
REMARK SMILES IDX 69 77 70 78 73 79 71 80 50 81 51 82 59 83 52 84 53 85 57 86
REMARK SMILES IDX 60 87 54 88 55 89 58 90 56 91
REMARK H PARENT 3 17 80 44 48 55
REMARK Flexibility Score: inf
ROOT
ATOM      1  O   UNL A   1      37.334  20.954  25.121  1.00  0.00    -0.374 OA
ENDROOT
BRANCH   1   2
ATOM      2  C   UNL A   1      35.970  21.158  25.488  1.00  0.00     0.202 C 
BRANCH   2   3
ATOM      3  C   UNL A   1      34.930  20.401  24.657  1.00  0.00     0.261 C 
BRANCH   3   4
ATOM      4  O   UNL A   1      33.595  20.813  25.015  1.00  0.00    -0.459 OA
BRANCH   4   5
ATOM      5  C   UNL A   1      33.280  22.077  24.628  1.00  0.00     0.350 C 
ATOM      6  O   UNL A   1      33.644  22.597  23.579  1.00  0.00    -0.245 OA
BRANCH   5   7
ATOM      7  C   UNL A   1      32.373  22.700  25.548  1.00  0.00     0.135 A 
ATOM      8  C   UNL A   1      30.974  24.521  26.151  1.00  0.00     0.128 A 
ATOM      9  N   UNL A   1      31.590  24.068  27.233  1.00  0.00    -0.243 NA
ATOM     10  S   UNL A   1      30.897  23.324  24.922  1.00  0.00    -0.108 S 
ATOM     11  C   UNL A   1      32.382  22.963  26.903  1.00  0.00     0.063 A 
ATOM     12  C   UNL A   1      33.237  22.378  27.965  1.00  0.00     0.068 C 
BRANCH   8  13
ATOM     13  C   UNL A   1      30.391  25.906  25.950  1.00  0.00     0.232 C 
ATOM     14  N   UNL A   1      31.738  27.093  24.027  1.00  0.00    -0.331 N 
ATOM     15  C   UNL A   1      32.313  27.909  25.114  1.00  0.00     0.291 C 
ATOM     16  C   UNL A   1      30.454  26.506  24.508  1.00  0.00     0.302 C 
ATOM     17  H   UNL A   1      31.543  27.691  23.224  1.00  0.00     0.348 HD
ATOM     18  C   UNL A   1      32.332  27.204  26.479  1.00  0.00     0.222 C 
ATOM     19  O   UNL A   1      31.015  26.813  26.890  1.00  0.00    -0.359 OA
BRANCH  14  20
ATOM     20  C   UNL A   1      32.677  26.096  23.499  1.00  0.00     0.258 C 
ATOM     21  C   UNL A   1      32.614  25.923  21.986  1.00  0.00     0.071 C 
ENDBRANCH  14  20
ENDBRANCH   8  13
ENDBRANCH   5   7
ENDBRANCH   4   5
ENDBRANCH   3   4
ENDBRANCH   2   3
ENDBRANCH   1   2
BRANCH   1  22
ATOM     22  C   UNL A   1      37.795  19.608  25.011  1.00  0.00     0.202 C 
BRANCH  22  23
ATOM     23  C   UNL A   1      39.221  19.336  25.501  1.00  0.00     0.261 C 
BRANCH  23  24
ATOM     24  O   UNL A   1      39.923  20.559  25.778  1.00  0.00    -0.460 OA
BRANCH  24  25
ATOM     25  C   UNL A   1      40.642  20.546  26.926  1.00  0.00     0.338 C 
ATOM     26  O   UNL A   1      41.137  19.581  27.481  1.00  0.00    -0.246 OA
BRANCH  25  27
ATOM     27  C   UNL A   1      40.923  21.932  27.350  1.00  0.00     0.060 A 
ATOM     28  C   UNL A   1      40.317  22.960  26.616  1.00  0.00     0.016 A 
ATOM     29  C   UNL A   1      41.782  22.227  28.412  1.00  0.00     0.016 A 
ATOM     30  C   UNL A   1      40.604  24.289  26.910  1.00  0.00     0.010 A 
ATOM     31  C   UNL A   1      42.081  23.564  28.696  1.00  0.00     0.010 A 
ATOM     32  C   UNL A   1      41.517  24.597  27.927  1.00  0.00    -0.014 A 
BRANCH  32  33
ATOM     33  C   UNL A   1      41.978  25.994  28.084  1.00  0.00     0.031 A 
ATOM     34  C   UNL A   1      43.317  26.387  27.527  1.00  0.00     0.074 A 
ATOM     35  C   UNL A   1      41.197  26.911  28.680  1.00  0.00     0.049 A 
ATOM     36  N   UNL A   1      43.913  27.551  27.541  1.00  0.00    -0.248 NA
ATOM     37  C   UNL A   1      44.086  25.323  26.863  1.00  0.00     0.031 C 
ATOM     38  C   UNL A   1      39.867  26.656  29.230  1.00  0.00     0.029 A 
ATOM     39  N   UNL A   1      41.416  28.243  28.923  1.00  0.00    -0.354 N 
ATOM     40  C   UNL A   1      45.118  27.364  26.881  1.00  0.00     0.074 A 
ATOM     41  C   UNL A   1      45.187  25.968  26.508  1.00  0.00     0.031 C 
ATOM     42  C   UNL A   1      39.393  27.797  29.762  1.00  0.00     0.029 A 
ATOM     43  C   UNL A   1      40.393  28.851  29.606  1.00  0.00     0.049 A 
ATOM     44  H   UNL A   1      42.230  28.717  28.636  1.00  0.00     0.167 HD
ATOM     45  C   UNL A   1      46.078  28.278  26.600  1.00  0.00     0.037 A 
ATOM     46  C   UNL A   1      40.288  30.112  30.067  1.00  0.00     0.037 A 
ATOM     47  C   UNL A   1      46.016  29.663  26.980  1.00  0.00     0.049 A 
ATOM     48  C   UNL A   1      41.403  31.091  29.812  1.00  0.00     0.074 A 
ATOM     49  C   UNL A   1      46.926  30.673  26.720  1.00  0.00     0.029 A 
ATOM     50  N   UNL A   1      44.986  30.232  27.713  1.00  0.00    -0.354 N 
ATOM     51  N   UNL A   1      42.524  30.914  29.157  1.00  0.00    -0.248 NA
ATOM     52  C   UNL A   1      41.235  32.444  30.360  1.00  0.00     0.031 C 
ATOM     53  C   UNL A   1      46.467  31.843  27.333  1.00  0.00     0.029 A 
ATOM     54  C   UNL A   1      45.252  31.572  27.942  1.00  0.00     0.049 A 
ATOM     55  H   UNL A   1      44.183  29.755  28.025  1.00  0.00     0.167 HD
ATOM     56  C   UNL A   1      43.191  32.131  29.203  1.00  0.00     0.074 A 
ATOM     57  C   UNL A   1      42.339  33.046  29.936  1.00  0.00     0.031 C 
ATOM     58  C   UNL A   1      44.399  32.463  28.685  1.00  0.00     0.037 A 
BRANCH  45  59
ATOM     59  C   UNL A   1      47.288  27.796  25.859  1.00  0.00     0.064 A 
ATOM     60  C   UNL A   1      48.438  27.371  26.537  1.00  0.00     0.173 A 
ATOM     61  C   UNL A   1      47.289  27.740  24.458  1.00  0.00     0.173 A 
ATOM     62  F   UNL A   1      48.491  27.421  27.877  1.00  0.00    -0.203 F 
ATOM     63  C   UNL A   1      49.557  26.925  25.837  1.00  0.00     0.198 A 
ATOM     64  C   UNL A   1      48.400  27.275  23.762  1.00  0.00     0.198 A 
ATOM     65  F   UNL A   1      46.211  28.138  23.766  1.00  0.00    -0.203 F 
ATOM     66  F   UNL A   1      50.661  26.559  26.503  1.00  0.00    -0.200 F 
ATOM     67  C   UNL A   1      49.535  26.872  24.451  1.00  0.00     0.200 A 
ATOM     68  F   UNL A   1      48.376  27.220  22.423  1.00  0.00    -0.200 F 
ATOM     69  F   UNL A   1      50.611  26.443  23.779  1.00  0.00    -0.200 F 
ENDBRANCH  45  59
BRANCH  46  70
ATOM     70  C   UNL A   1      39.084  30.516  30.836  1.00  0.00     0.064 A 
ATOM     71  C   UNL A   1      37.979  31.094  30.200  1.00  0.00     0.173 A 
ATOM     72  C   UNL A   1      39.021  30.332  32.225  1.00  0.00     0.173 A 
ATOM     73  F   UNL A   1      38.005  31.311  28.877  1.00  0.00    -0.203 F 
ATOM     74  C   UNL A   1      36.855  31.483  30.927  1.00  0.00     0.198 A 
ATOM     75  C   UNL A   1      37.888  30.701  32.947  1.00  0.00     0.198 A 
ATOM     76  F   UNL A   1      40.056  29.785  32.878  1.00  0.00    -0.203 F 
ATOM     77  F   UNL A   1      35.823  32.064  30.301  1.00  0.00    -0.200 F 
ATOM     78  C   UNL A   1      36.809  31.280  32.298  1.00  0.00     0.200 A 
ATOM     79  F   UNL A   1      37.845  30.496  34.271  1.00  0.00    -0.200 F 
ATOM     80  F   UNL A   1      35.725  31.650  32.996  1.00  0.00    -0.200 F 
ENDBRANCH  46  70
BRANCH  58  81
ATOM     81  C   UNL A   1      44.870  33.871  28.891  1.00  0.00     0.064 A 
ATOM     82  C   UNL A   1      44.521  34.894  27.999  1.00  0.00     0.173 A 
ATOM     83  C   UNL A   1      45.643  34.208  30.012  1.00  0.00     0.173 A 
ATOM     84  F   UNL A   1      43.797  34.617  26.904  1.00  0.00    -0.203 F 
ATOM     85  C   UNL A   1      44.944  36.203  28.212  1.00  0.00     0.198 A 
ATOM     86  C   UNL A   1      46.044  35.523  30.235  1.00  0.00     0.198 A 
ATOM     87  F   UNL A   1      46.000  33.265  30.896  1.00  0.00    -0.203 F 
ATOM     88  F   UNL A   1      44.629  37.160  27.327  1.00  0.00    -0.200 F 
ATOM     89  C   UNL A   1      45.699  36.518  29.332  1.00  0.00     0.200 A 
ATOM     90  F   UNL A   1      46.767  35.826  31.322  1.00  0.00    -0.200 F 
ATOM     91  F   UNL A   1      46.100  37.780  29.540  1.00  0.00    -0.200 F 
ENDBRANCH  58  81
ENDBRANCH  32  33
ENDBRANCH  25  27
ENDBRANCH  24  25
ENDBRANCH  23  24
ENDBRANCH  22  23
ENDBRANCH   1  22
TORSDOF 16
ENDMDL
MODEL 2
REMARK VINA RESULT:     -10.9      4.366      7.746
REMARK SMILES CC[N@@H+]1CCO[C@H](c2nc(C)c(C(=O)OCCOCCOC(=O)c3ccc(-c4c5nc(c(-c6c(F)c(F)c(F)c(F)c6F)c6ccc([nH]6)c(-c6c(F)c(F)c(F)c(F)c6F)c6nc(c(-c7c(F)c(F)c(F)c(F)c7F)c7ccc4[nH]7)C=C6)C=C5)cc3)s2)C1
REMARK SMILES IDX 18 1 17 2 16 3 15 4 13 5 14 6 12 7 8 8 9 9 87 10 10 11 11 12
REMARK SMILES IDX 7 13 3 14 4 15 88 16 5 18 6 19 2 20 1 21 19 22 20 23 21 24
REMARK SMILES IDX 22 25 23 26 24 27 25 28 86 29 26 30 85 31 27 32 28 33 29 34
REMARK SMILES IDX 79 35 30 36 84 37 78 38 80 39 31 40 83 41 77 42 76 43 32 45
REMARK SMILES IDX 64 46 44 47 63 48 45 49 48 50 62 51 81 52 46 53 47 54 61 56
REMARK SMILES IDX 82 57 49 58 33 59 34 60 42 61 35 62 36 63 40 64 43 65 37 66
REMARK SMILES IDX 38 67 41 68 39 69 65 70 66 71 74 72 67 73 68 74 72 75 75 76
REMARK SMILES IDX 69 77 70 78 73 79 71 80 50 81 51 82 59 83 52 84 53 85 57 86
REMARK SMILES IDX 60 87 54 88 55 89 58 90 56 91
REMARK H PARENT 3 17 80 44 48 55
REMARK Flexibility Score: inf
ROOT
ATOM      1  O   UNL A   1      30.381  29.966  23.962  1.00  0.00    -0.374 OA
ENDROOT
BRANCH   1   2
ATOM      2  C   UNL A   1      30.253  28.939  22.978  1.00  0.00     0.202 C 
BRANCH   2   3
ATOM      3  C   UNL A   1      31.499  28.083  22.734  1.00  0.00     0.261 C 
BRANCH   3   4
ATOM      4  O   UNL A   1      31.143  26.692  22.603  1.00  0.00    -0.459 OA
BRANCH   4   5
ATOM      5  C   UNL A   1      31.013  26.037  23.787  1.00  0.00     0.350 C 
ATOM      6  O   UNL A   1      29.942  25.741  24.306  1.00  0.00    -0.245 OA
BRANCH   5   7
ATOM      7  C   UNL A   1      32.286  25.632  24.309  1.00  0.00     0.135 A 
ATOM      8  C   UNL A   1      33.857  23.928  24.820  1.00  0.00     0.128 A 
ATOM      9  N   UNL A   1      33.873  24.838  25.783  1.00  0.00    -0.243 NA
ATOM     10  S   UNL A   1      33.247  24.575  23.351  1.00  0.00    -0.108 S 
ATOM     11  C   UNL A   1      32.987  25.875  25.474  1.00  0.00     0.063 A 
ATOM     12  C   UNL A   1      32.783  26.941  26.485  1.00  0.00     0.068 C 
BRANCH   8  13
ATOM     13  C   UNL A   1      34.301  22.482  24.929  1.00  0.00     0.232 C 
ATOM     14  N   UNL A   1      36.715  22.441  25.974  1.00  0.00    -0.331 N 
ATOM     15  C   UNL A   1      37.153  22.073  24.614  1.00  0.00     0.291 C 
ATOM     16  C   UNL A   1      35.265  22.117  26.104  1.00  0.00     0.302 C 
ATOM     17  H   UNL A   1      37.236  21.889  26.656  1.00  0.00     0.348 HD
ATOM     18  C   UNL A   1      36.220  22.576  23.501  1.00  0.00     0.222 C 
ATOM     19  O   UNL A   1      34.885  22.079  23.668  1.00  0.00    -0.359 OA
BRANCH  14  20
ATOM     20  C   UNL A   1      37.040  23.828  26.328  1.00  0.00     0.258 C 
ATOM     21  C   UNL A   1      38.531  24.092  26.502  1.00  0.00     0.071 C 
ENDBRANCH  14  20
ENDBRANCH   8  13
ENDBRANCH   5   7
ENDBRANCH   4   5
ENDBRANCH   3   4
ENDBRANCH   2   3
ENDBRANCH   1   2
BRANCH   1  22
ATOM     22  C   UNL A   1      31.343  29.772  24.998  1.00  0.00     0.202 C 
BRANCH  22  23
ATOM     23  C   UNL A   1      31.499  30.918  26.004  1.00  0.00     0.261 C 
BRANCH  23  24
ATOM     24  O   UNL A   1      32.590  30.677  26.908  1.00  0.00    -0.460 OA
BRANCH  24  25
ATOM     25  C   UNL A   1      33.286  31.786  27.254  1.00  0.00     0.338 C 
ATOM     26  O   UNL A   1      32.892  32.940  27.257  1.00  0.00    -0.246 OA
BRANCH  25  27
ATOM     27  C   UNL A   1      34.587  31.395  27.831  1.00  0.00     0.060 A 
ATOM     28  C   UNL A   1      34.730  30.062  28.239  1.00  0.00     0.016 A 
ATOM     29  C   UNL A   1      35.631  32.307  28.005  1.00  0.00     0.016 A 
ATOM     30  C   UNL A   1      35.900  29.646  28.866  1.00  0.00     0.010 A 
ATOM     31  C   UNL A   1      36.802  31.891  28.649  1.00  0.00     0.010 A 
ATOM     32  C   UNL A   1      36.926  30.568  29.108  1.00  0.00    -0.014 A 
BRANCH  32  33
ATOM     33  C   UNL A   1      38.066  30.170  29.965  1.00  0.00     0.031 A 
ATOM     34  C   UNL A   1      39.091  29.218  29.417  1.00  0.00     0.074 A 
ATOM     35  C   UNL A   1      38.208  30.680  31.199  1.00  0.00     0.049 A 
ATOM     36  N   UNL A   1      40.171  28.744  29.984  1.00  0.00    -0.248 NA
ATOM     37  C   UNL A   1      38.869  28.737  28.044  1.00  0.00     0.031 C 
ATOM     38  C   UNL A   1      37.296  31.635  31.826  1.00  0.00     0.029 A 
ATOM     39  N   UNL A   1      39.174  30.461  32.148  1.00  0.00    -0.354 N 
ATOM     40  C   UNL A   1      40.762  27.921  29.036  1.00  0.00     0.074 A 
ATOM     41  C   UNL A   1      39.906  27.931  27.870  1.00  0.00     0.031 C 
ATOM     42  C   UNL A   1      37.741  31.910  33.065  1.00  0.00     0.029 A 
ATOM     43  C   UNL A   1      38.954  31.135  33.322  1.00  0.00     0.049 A 
ATOM     44  H   UNL A   1      39.952  29.875  31.999  1.00  0.00     0.167 HD
ATOM     45  C   UNL A   1      41.921  27.227  29.127  1.00  0.00     0.037 A 
ATOM     46  C   UNL A   1      39.645  31.112  34.477  1.00  0.00     0.037 A 
ATOM     47  C   UNL A   1      42.768  27.207  30.289  1.00  0.00     0.049 A 
ATOM     48  C   UNL A   1      40.889  30.271  34.581  1.00  0.00     0.074 A 
ATOM     49  C   UNL A   1      43.975  26.555  30.469  1.00  0.00     0.029 A 
ATOM     50  N   UNL A   1      42.487  27.864  31.477  1.00  0.00    -0.354 N 
ATOM     51  N   UNL A   1      41.460  29.523  33.669  1.00  0.00    -0.248 NA
ATOM     52  C   UNL A   1      41.585  30.274  35.876  1.00  0.00     0.031 C 
ATOM     53  C   UNL A   1      44.403  26.784  31.781  1.00  0.00     0.029 A 
ATOM     54  C   UNL A   1      43.482  27.609  32.406  1.00  0.00     0.049 A 
ATOM     55  H   UNL A   1      41.697  28.430  31.638  1.00  0.00     0.167 HD
ATOM     56  C   UNL A   1      42.584  28.975  34.271  1.00  0.00     0.074 A 
ATOM     57  C   UNL A   1      42.626  29.491  35.624  1.00  0.00     0.031 C 
ATOM     58  C   UNL A   1      43.500  28.121  33.752  1.00  0.00     0.037 A 
BRANCH  45  59
ATOM     59  C   UNL A   1      42.331  26.416  27.935  1.00  0.00     0.064 A 
ATOM     60  C   UNL A   1      43.202  26.932  26.965  1.00  0.00     0.173 A 
ATOM     61  C   UNL A   1      41.865  25.105  27.772  1.00  0.00     0.173 A 
ATOM     62  F   UNL A   1      43.661  28.189  27.068  1.00  0.00    -0.203 F 
ATOM     63  C   UNL A   1      43.575  26.169  25.861  1.00  0.00     0.198 A 
ATOM     64  C   UNL A   1      42.257  24.336  26.680  1.00  0.00     0.198 A 
ATOM     65  F   UNL A   1      41.029  24.568  28.674  1.00  0.00    -0.203 F 
ATOM     66  F   UNL A   1      44.378  26.694  24.925  1.00  0.00    -0.200 F 
ATOM     67  C   UNL A   1      43.108  24.871  25.723  1.00  0.00     0.200 A 
ATOM     68  F   UNL A   1      41.808  23.081  26.550  1.00  0.00    -0.200 F 
ATOM     69  F   UNL A   1      43.468  24.137  24.661  1.00  0.00    -0.200 F 
ENDBRANCH  45  59
BRANCH  46  70
ATOM     70  C   UNL A   1      39.162  31.902  35.638  1.00  0.00     0.064 A 
ATOM     71  C   UNL A   1      39.569  33.228  35.832  1.00  0.00     0.173 A 
ATOM     72  C   UNL A   1      38.287  31.339  36.578  1.00  0.00     0.173 A 
ATOM     73  F   UNL A   1      40.424  33.798  34.972  1.00  0.00    -0.203 F 
ATOM     74  C   UNL A   1      39.123  33.961  36.930  1.00  0.00     0.198 A 
ATOM     75  C   UNL A   1      37.825  32.080  37.663  1.00  0.00     0.198 A 
ATOM     76  F   UNL A   1      37.873  30.071  36.436  1.00  0.00    -0.203 F 
ATOM     77  F   UNL A   1      39.551  35.217  37.112  1.00  0.00    -0.200 F 
ATOM     78  C   UNL A   1      38.247  33.389  37.841  1.00  0.00     0.200 A 
ATOM     79  F   UNL A   1      36.973  31.526  38.536  1.00  0.00    -0.200 F 
ATOM     80  F   UNL A   1      37.815  34.097  38.894  1.00  0.00    -0.200 F 
ENDBRANCH  46  70
BRANCH  58  81
ATOM     81  C   UNL A   1      44.625  27.693  34.647  1.00  0.00     0.064 A 
ATOM     82  C   UNL A   1      45.805  28.443  34.742  1.00  0.00     0.173 A 
ATOM     83  C   UNL A   1      44.504  26.548  35.446  1.00  0.00     0.173 A 
ATOM     84  F   UNL A   1      45.972  29.538  33.985  1.00  0.00    -0.203 F 
ATOM     85  C   UNL A   1      46.834  28.051  35.594  1.00  0.00     0.198 A 
ATOM     86  C   UNL A   1      45.525  26.171  36.315  1.00  0.00     0.198 A 
ATOM     87  F   UNL A   1      43.392  25.799  35.393  1.00  0.00    -0.203 F 
ATOM     88  F   UNL A   1      47.969  28.762  35.643  1.00  0.00    -0.200 F 
ATOM     89  C   UNL A   1      46.690  26.920  36.384  1.00  0.00     0.200 A 
ATOM     90  F   UNL A   1      45.381  25.083  37.084  1.00  0.00    -0.200 F 
ATOM     91  F   UNL A   1      47.679  26.547  37.209  1.00  0.00    -0.200 F 
ENDBRANCH  58  81
ENDBRANCH  32  33
ENDBRANCH  25  27
ENDBRANCH  24  25
ENDBRANCH  23  24
ENDBRANCH  22  23
ENDBRANCH   1  22
TORSDOF 16
ENDMDL
MODEL 3
REMARK VINA RESULT:     -10.8      0.485      7.358
REMARK SMILES CC[N@@H+]1CCO[C@H](c2nc(C)c(C(=O)OCCOCCOC(=O)c3ccc(-c4c5nc(c(-c6c(F)c(F)c(F)c(F)c6F)c6ccc([nH]6)c(-c6c(F)c(F)c(F)c(F)c6F)c6nc(c(-c7c(F)c(F)c(F)c(F)c7F)c7ccc4[nH]7)C=C6)C=C5)cc3)s2)C1
REMARK SMILES IDX 18 1 17 2 16 3 15 4 13 5 14 6 12 7 8 8 9 9 87 10 10 11 11 12
REMARK SMILES IDX 7 13 3 14 4 15 88 16 5 18 6 19 2 20 1 21 19 22 20 23 21 24
REMARK SMILES IDX 22 25 23 26 24 27 25 28 86 29 26 30 85 31 27 32 28 33 29 34
REMARK SMILES IDX 79 35 30 36 84 37 78 38 80 39 31 40 83 41 77 42 76 43 32 45
REMARK SMILES IDX 64 46 44 47 63 48 45 49 48 50 62 51 81 52 46 53 47 54 61 56
REMARK SMILES IDX 82 57 49 58 33 59 34 60 42 61 35 62 36 63 40 64 43 65 37 66
REMARK SMILES IDX 38 67 41 68 39 69 65 70 66 71 74 72 67 73 68 74 72 75 75 76
REMARK SMILES IDX 69 77 70 78 73 79 71 80 50 81 51 82 59 83 52 84 53 85 57 86
REMARK SMILES IDX 60 87 54 88 55 89 58 90 56 91
REMARK H PARENT 3 17 80 44 48 55
REMARK Flexibility Score: inf
ROOT
ATOM      1  O   UNL A   1      37.607  21.201  25.344  1.00  0.00    -0.374 OA
ENDROOT
BRANCH   1   2
ATOM      2  C   UNL A   1      36.227  21.413  25.643  1.00  0.00     0.202 C 
BRANCH   2   3
ATOM      3  C   UNL A   1      35.225  20.788  24.669  1.00  0.00     0.261 C 
BRANCH   3   4
ATOM      4  O   UNL A   1      33.872  21.097  25.061  1.00  0.00    -0.459 OA
BRANCH   4   5
ATOM      5  C   UNL A   1      33.440  22.320  24.654  1.00  0.00     0.350 C 
ATOM      6  O   UNL A   1      33.803  22.882  23.627  1.00  0.00    -0.245 OA
BRANCH   5   7
ATOM      7  C   UNL A   1      32.417  22.833  25.519  1.00  0.00     0.135 A 
ATOM      8  C   UNL A   1      30.869  24.538  26.097  1.00  0.00     0.128 A 
ATOM      9  N   UNL A   1      31.405  24.043  27.204  1.00  0.00    -0.243 NA
ATOM     10  S   UNL A   1      30.974  23.425  24.794  1.00  0.00    -0.108 S 
ATOM     11  C   UNL A   1      32.285  23.003  26.883  1.00  0.00     0.063 A 
ATOM     12  C   UNL A   1      33.067  22.390  27.984  1.00  0.00     0.068 C 
BRANCH   8  13
ATOM     13  C   UNL A   1      30.232  25.903  25.929  1.00  0.00     0.232 C 
ATOM     14  N   UNL A   1      31.593  27.226  24.108  1.00  0.00    -0.331 N 
ATOM     15  C   UNL A   1      32.089  28.021  25.248  1.00  0.00     0.291 C 
ATOM     16  C   UNL A   1      30.320  26.564  24.516  1.00  0.00     0.302 C 
ATOM     17  H   UNL A   1      31.401  27.848  23.322  1.00  0.00     0.348 HD
ATOM     18  C   UNL A   1      32.091  27.262  26.584  1.00  0.00     0.222 C 
ATOM     19  O   UNL A   1      30.778  26.797  26.927  1.00  0.00    -0.359 OA
BRANCH  14  20
ATOM     20  C   UNL A   1      32.595  26.294  23.577  1.00  0.00     0.258 C 
ATOM     21  C   UNL A   1      32.961  26.538  22.118  1.00  0.00     0.071 C 
ENDBRANCH  14  20
ENDBRANCH   8  13
ENDBRANCH   5   7
ENDBRANCH   4   5
ENDBRANCH   3   4
ENDBRANCH   2   3
ENDBRANCH   1   2
BRANCH   1  22
ATOM     22  C   UNL A   1      38.009  19.882  24.980  1.00  0.00     0.202 C 
BRANCH  22  23
ATOM     23  C   UNL A   1      39.295  19.359  25.630  1.00  0.00     0.261 C 
BRANCH  23  24
ATOM     24  O   UNL A   1      40.235  20.422  25.861  1.00  0.00    -0.460 OA
BRANCH  24  25
ATOM     25  C   UNL A   1      40.714  20.481  27.127  1.00  0.00     0.338 C 
ATOM     26  O   UNL A   1      40.977  19.548  27.866  1.00  0.00    -0.246 OA
BRANCH  25  27
ATOM     27  C   UNL A   1      41.071  21.875  27.458  1.00  0.00     0.060 A 
ATOM     28  C   UNL A   1      40.600  22.875  26.596  1.00  0.00     0.016 A 
ATOM     29  C   UNL A   1      41.871  22.200  28.556  1.00  0.00     0.016 A 
ATOM     30  C   UNL A   1      40.967  24.201  26.803  1.00  0.00     0.010 A 
ATOM     31  C   UNL A   1      42.251  23.532  28.753  1.00  0.00     0.010 A 
ATOM     32  C   UNL A   1      41.826  24.531  27.860  1.00  0.00    -0.014 A 
BRANCH  32  33
ATOM     33  C   UNL A   1      42.381  25.901  27.938  1.00  0.00     0.031 A 
ATOM     34  C   UNL A   1      41.589  26.969  28.636  1.00  0.00     0.074 A 
ATOM     35  C   UNL A   1      43.592  26.180  27.429  1.00  0.00     0.049 A 
ATOM     36  N   UNL A   1      41.885  28.228  28.832  1.00  0.00    -0.248 NA
ATOM     37  C   UNL A   1      40.288  26.562  29.190  1.00  0.00     0.031 C 
ATOM     38  C   UNL A   1      44.466  25.219  26.758  1.00  0.00     0.029 A 
ATOM     39  N   UNL A   1      44.294  27.358  27.395  1.00  0.00    -0.354 N 
ATOM     40  C   UNL A   1      40.817  28.760  29.539  1.00  0.00     0.074 A 
ATOM     41  C   UNL A   1      39.849  27.698  29.710  1.00  0.00     0.031 C 
ATOM     42  C   UNL A   1      45.585  25.853  26.364  1.00  0.00     0.029 A 
ATOM     43  C   UNL A   1      45.495  27.263  26.739  1.00  0.00     0.049 A 
ATOM     44  H   UNL A   1      43.966  28.192  27.804  1.00  0.00     0.167 HD
ATOM     45  C   UNL A   1      40.661  30.019  30.013  1.00  0.00     0.037 A 
ATOM     46  C   UNL A   1      46.407  28.213  26.459  1.00  0.00     0.037 A 
ATOM     47  C   UNL A   1      41.617  31.078  29.834  1.00  0.00     0.049 A 
ATOM     48  C   UNL A   1      46.176  29.624  26.929  1.00  0.00     0.074 A 
ATOM     49  C   UNL A   1      41.562  32.381  30.298  1.00  0.00     0.029 A 
ATOM     50  N   UNL A   1      42.801  30.957  29.122  1.00  0.00    -0.354 N 
ATOM     51  N   UNL A   1      45.179  30.111  27.626  1.00  0.00    -0.248 NA
ATOM     52  C   UNL A   1      47.199  30.618  26.571  1.00  0.00     0.031 C 
ATOM     53  C   UNL A   1      42.693  33.059  29.831  1.00  0.00     0.029 A 
ATOM     54  C   UNL A   1      43.471  32.169  29.107  1.00  0.00     0.049 A 
ATOM     55  H   UNL A   1      43.119  30.131  28.690  1.00  0.00     0.167 HD
ATOM     56  C   UNL A   1      45.457  31.460  27.802  1.00  0.00     0.074 A 
ATOM     57  C   UNL A   1      46.727  31.713  27.152  1.00  0.00     0.031 C 
ATOM     58  C   UNL A   1      44.727  32.405  28.444  1.00  0.00     0.037 A 
BRANCH  45  59
ATOM     59  C   UNL A   1      39.397  30.320  30.759  1.00  0.00     0.064 A 
ATOM     60  C   UNL A   1      39.292  30.099  32.139  1.00  0.00     0.173 A 
ATOM     61  C   UNL A   1      38.287  30.855  30.090  1.00  0.00     0.173 A 
ATOM     62  F   UNL A   1      40.323  29.573  32.819  1.00  0.00    -0.203 F 
ATOM     63  C   UNL A   1      38.112  30.383  32.821  1.00  0.00     0.198 A 
ATOM     64  C   UNL A   1      37.115  31.158  30.778  1.00  0.00     0.198 A 
ATOM     65  F   UNL A   1      38.339  31.083  28.769  1.00  0.00    -0.203 F 
ATOM     66  F   UNL A   1      38.020  30.129  34.134  1.00  0.00    -0.200 F 
ATOM     67  C   UNL A   1      37.028  30.918  32.142  1.00  0.00     0.200 A 
ATOM     68  F   UNL A   1      36.070  31.679  30.121  1.00  0.00    -0.200 F 
ATOM     69  F   UNL A   1      35.893  31.192  32.800  1.00  0.00    -0.200 F 
ENDBRANCH  45  59
BRANCH  46  70
ATOM     70  C   UNL A   1      47.618  27.861  25.676  1.00  0.00     0.064 A 
ATOM     71  C   UNL A   1      47.578  27.775  24.278  1.00  0.00     0.173 A 
ATOM     72  C   UNL A   1      48.839  27.602  26.315  1.00  0.00     0.173 A 
ATOM     73  F   UNL A   1      46.426  27.990  23.628  1.00  0.00    -0.203 F 
ATOM     74  C   UNL A   1      48.714  27.434  23.548  1.00  0.00     0.198 A 
ATOM     75  C   UNL A   1      49.980  27.283  25.582  1.00  0.00     0.198 A 
ATOM     76  F   UNL A   1      48.926  27.670  27.651  1.00  0.00    -0.203 F 
ATOM     77  F   UNL A   1      48.643  27.325  22.215  1.00  0.00    -0.200 F 
ATOM     78  C   UNL A   1      49.915  27.194  24.200  1.00  0.00     0.200 A 
ATOM     79  F   UNL A   1      51.139  27.060  26.215  1.00  0.00    -0.200 F 
ATOM     80  F   UNL A   1      51.009  26.871  23.496  1.00  0.00    -0.200 F 
ENDBRANCH  46  70
BRANCH  58  81
ATOM     81  C   UNL A   1      45.283  33.797  28.476  1.00  0.00     0.064 A 
ATOM     82  C   UNL A   1      46.227  34.182  29.438  1.00  0.00     0.173 A 
ATOM     83  C   UNL A   1      44.899  34.741  27.513  1.00  0.00     0.173 A 
ATOM     84  F   UNL A   1      46.613  33.318  30.389  1.00  0.00    -0.203 F 
ATOM     85  C   UNL A   1      46.756  35.470  29.444  1.00  0.00     0.198 A 
ATOM     86  C   UNL A   1      45.448  36.021  27.508  1.00  0.00     0.198 A 
ATOM     87  F   UNL A   1      44.001  34.419  26.570  1.00  0.00    -0.203 F 
ATOM     88  F   UNL A   1      47.631  35.828  30.395  1.00  0.00    -0.200 F 
ATOM     89  C   UNL A   1      46.372  36.385  28.476  1.00  0.00     0.200 A 
ATOM     90  F   UNL A   1      45.081  36.902  26.567  1.00  0.00    -0.200 F 
ATOM     91  F   UNL A   1      46.886  37.623  28.480  1.00  0.00    -0.200 F 
ENDBRANCH  58  81
ENDBRANCH  32  33
ENDBRANCH  25  27
ENDBRANCH  24  25
ENDBRANCH  23  24
ENDBRANCH  22  23
ENDBRANCH   1  22
TORSDOF 16
ENDMDL
