MODEL 1
REMARK VINA RESULT:     -11.3      0.000      0.000
REMARK SMILES CCn1cc(C[N@@H+]2CCC[C@H]2C(=O)OCCOCCOC(=O)c2ccc(-c3c4nc(c(-c5c(F)c(F)c(F)c(F)c5F)c5ccc([nH]5)c(-c5c(F)c(F)c(F)c(F)c5F)c5nc(c(-c6c(F)c(F)c(F)c(F)c6F)c6ccc3[nH]6)C=C5)C=C4)cc2)c(C)n1
REMARK SMILES IDX 16 1 15 2 14 3 12 4 13 5 11 6 7 7 8 8 9 10 10 11 6 12 5 13
REMARK SMILES IDX 3 14 4 15 88 16 86 17 87 18 2 19 1 20 17 21 18 22 19 23
REMARK SMILES IDX 20 24 21 25 22 26 23 27 24 28 85 29 25 30 84 31 26 32 27 33
REMARK SMILES IDX 28 34 78 35 29 36 83 37 77 38 79 39 30 40 82 41 76 42 75 43
REMARK SMILES IDX 31 45 63 46 43 47 62 48 44 49 47 50 61 51 80 52 45 53 46 54
REMARK SMILES IDX 60 56 81 57 48 58 32 59 33 60 41 61 34 62 35 63 39 64 42 65
REMARK SMILES IDX 36 66 37 67 40 68 38 69 64 70 65 71 73 72 66 73 67 74 71 75
REMARK SMILES IDX 74 76 68 77 69 78 72 79 70 80 49 81 50 82 58 83 51 84 52 85
REMARK SMILES IDX 56 86 59 87 53 88 54 89 57 90 55 91
REMARK H PARENT 7 9 79 44 47 55
REMARK Flexibility Score: inf
ROOT
ATOM      1  C   UNL A   1      40.581  20.224  26.689  1.00  0.00     0.202 C 
ENDROOT
BRANCH   1   2
ATOM      2  C   UNL A   1      39.916  21.582  26.444  1.00  0.00     0.261 C 
BRANCH   2   3
ATOM      3  O   UNL A   1      38.711  21.406  25.675  1.00  0.00    -0.459 OA
BRANCH   3   4
ATOM      4  C   UNL A   1      37.884  22.481  25.553  1.00  0.00     0.365 C 
ATOM      5  O   UNL A   1      38.169  23.618  25.913  1.00  0.00    -0.245 OA
BRANCH   4   6
ATOM      6  C   UNL A   1      36.545  22.107  24.885  1.00  0.00     0.295 C 
ATOM      7  N   UNL A   1      35.420  22.634  25.702  1.00  0.00    -0.319 N 
ATOM      8  C   UNL A   1      34.630  23.553  24.893  1.00  0.00     0.263 C 
ATOM      9  H   UNL A   1      35.821  23.162  26.477  1.00  0.00     0.349 HD
ATOM     10  C   UNL A   1      34.878  23.147  23.458  1.00  0.00     0.068 C 
ATOM     11  C   UNL A   1      36.313  22.657  23.470  1.00  0.00     0.083 C 
BRANCH   7  12
ATOM     12  C   UNL A   1      34.648  21.630  26.444  1.00  0.00     0.303 C 
BRANCH  12  13
ATOM     13  C   UNL A   1      33.747  20.802  25.584  1.00  0.00     0.047 A 
ATOM     14  N   UNL A   1      32.994  19.224  24.243  1.00  0.00    -0.272 N 
ATOM     15  C   UNL A   1      34.086  19.622  24.948  1.00  0.00     0.118 A 
ATOM     16  N   UNL A   1      31.940  20.039  24.402  1.00  0.00    -0.178 NA
ATOM     17  C   UNL A   1      32.373  20.986  25.244  1.00  0.00     0.068 A 
ATOM     18  C   UNL A   1      31.436  22.060  25.660  1.00  0.00     0.069 C 
BRANCH  14  19
ATOM     19  C   UNL A   1      32.904  18.114  23.315  1.00  0.00     0.141 C 
ATOM     20  C   UNL A   1      34.101  17.178  23.352  1.00  0.00     0.029 C 
ENDBRANCH  14  19
ENDBRANCH  12  13
ENDBRANCH   7  12
ENDBRANCH   4   6
ENDBRANCH   3   4
ENDBRANCH   2   3
ENDBRANCH   1   2
BRANCH   1  21
ATOM     21  O   UNL A   1      42.009  20.257  26.713  1.00  0.00    -0.374 OA
BRANCH  21  22
ATOM     22  C   UNL A   1      42.686  19.008  26.800  1.00  0.00     0.202 C 
BRANCH  22  23
ATOM     23  C   UNL A   1      43.410  18.581  25.530  1.00  0.00     0.261 C 
BRANCH  23  24
ATOM     24  O   UNL A   1      44.668  19.245  25.385  1.00  0.00    -0.460 OA
BRANCH  24  25
ATOM     25  C   UNL A   1      44.764  20.047  24.299  1.00  0.00     0.338 C 
ATOM     26  O   UNL A   1      45.002  19.708  23.154  1.00  0.00    -0.246 OA
BRANCH  25  27
ATOM     27  C   UNL A   1      44.699  21.452  24.739  1.00  0.00     0.060 A 
ATOM     28  C   UNL A   1      45.370  21.767  25.921  1.00  0.00     0.016 A 
ATOM     29  C   UNL A   1      43.872  22.392  24.104  1.00  0.00     0.016 A 
ATOM     30  C   UNL A   1      45.121  22.982  26.529  1.00  0.00     0.010 A 
ATOM     31  C   UNL A   1      43.623  23.611  24.712  1.00  0.00     0.010 A 
ATOM     32  C   UNL A   1      44.213  23.877  25.945  1.00  0.00    -0.014 A 
BRANCH  32  33
ATOM     33  C   UNL A   1      43.991  25.131  26.645  1.00  0.00     0.031 A 
ATOM     34  C   UNL A   1      45.072  26.124  26.467  1.00  0.00     0.074 A 
ATOM     35  C   UNL A   1      42.901  25.405  27.383  1.00  0.00     0.049 A 
ATOM     36  N   UNL A   1      45.888  26.561  27.366  1.00  0.00    -0.248 NA
ATOM     37  C   UNL A   1      45.341  26.617  25.109  1.00  0.00     0.031 C 
ATOM     38  C   UNL A   1      41.641  24.661  27.419  1.00  0.00     0.029 A 
ATOM     39  N   UNL A   1      42.669  26.468  28.213  1.00  0.00    -0.354 N 
ATOM     40  C   UNL A   1      46.669  27.519  26.732  1.00  0.00     0.074 A 
ATOM     41  C   UNL A   1      46.384  27.421  25.324  1.00  0.00     0.031 C 
ATOM     42  C   UNL A   1      40.712  25.395  28.072  1.00  0.00     0.029 A 
ATOM     43  C   UNL A   1      41.351  26.581  28.623  1.00  0.00     0.049 A 
ATOM     44  H   UNL A   1      43.374  27.097  28.492  1.00  0.00     0.167 HD
ATOM     45  C   UNL A   1      47.298  28.484  27.452  1.00  0.00     0.037 A 
ATOM     46  C   UNL A   1      40.803  27.587  29.345  1.00  0.00     0.037 A 
ATOM     47  C   UNL A   1      47.348  28.165  28.853  1.00  0.00     0.049 A 
ATOM     48  C   UNL A   1      41.872  28.271  30.107  1.00  0.00     0.074 A 
ATOM     49  C   UNL A   1      48.159  27.444  29.699  1.00  0.00     0.029 A 
ATOM     50  N   UNL A   1      46.192  28.436  29.530  1.00  0.00    -0.354 N 
ATOM     51  N   UNL A   1      42.507  27.727  31.107  1.00  0.00    -0.248 NA
ATOM     52  C   UNL A   1      42.455  29.507  29.594  1.00  0.00     0.031 C 
ATOM     53  C   UNL A   1      47.397  27.195  30.881  1.00  0.00     0.029 A 
ATOM     54  C   UNL A   1      46.140  27.769  30.725  1.00  0.00     0.049 A 
ATOM     55  H   UNL A   1      45.485  29.036  29.200  1.00  0.00     0.167 HD
ATOM     56  C   UNL A   1      43.759  28.304  31.064  1.00  0.00     0.074 A 
ATOM     57  C   UNL A   1      43.613  29.505  30.258  1.00  0.00     0.031 C 
ATOM     58  C   UNL A   1      44.870  27.582  31.382  1.00  0.00     0.037 A 
BRANCH  45  59
ATOM     59  C   UNL A   1      47.462  29.912  26.993  1.00  0.00     0.064 A 
ATOM     60  C   UNL A   1      48.704  30.552  27.175  1.00  0.00     0.173 A 
ATOM     61  C   UNL A   1      46.374  30.761  26.700  1.00  0.00     0.173 A 
ATOM     62  F   UNL A   1      49.802  29.843  27.480  1.00  0.00    -0.203 F 
ATOM     63  C   UNL A   1      48.829  31.943  27.133  1.00  0.00     0.198 A 
ATOM     64  C   UNL A   1      46.512  32.144  26.605  1.00  0.00     0.198 A 
ATOM     65  F   UNL A   1      45.119  30.300  26.613  1.00  0.00    -0.203 F 
ATOM     66  F   UNL A   1      50.003  32.517  27.429  1.00  0.00    -0.200 F 
ATOM     67  C   UNL A   1      47.732  32.738  26.852  1.00  0.00     0.200 A 
ATOM     68  F   UNL A   1      45.433  32.898  26.355  1.00  0.00    -0.200 F 
ATOM     69  F   UNL A   1      47.836  34.074  26.866  1.00  0.00    -0.200 F 
ENDBRANCH  45  59
BRANCH  46  70
ATOM     70  C   UNL A   1      39.416  28.091  29.313  1.00  0.00     0.064 A 
ATOM     71  C   UNL A   1      38.642  28.177  30.480  1.00  0.00     0.173 A 
ATOM     72  C   UNL A   1      38.918  28.750  28.174  1.00  0.00     0.173 A 
ATOM     73  F   UNL A   1      39.068  27.608  31.617  1.00  0.00    -0.203 F 
ATOM     74  C   UNL A   1      37.450  28.906  30.514  1.00  0.00     0.198 A 
ATOM     75  C   UNL A   1      37.725  29.470  28.205  1.00  0.00     0.198 A 
ATOM     76  F   UNL A   1      39.627  28.786  27.037  1.00  0.00    -0.203 F 
ATOM     77  F   UNL A   1      36.770  29.020  31.662  1.00  0.00    -0.200 F 
ATOM     78  C   UNL A   1      37.000  29.561  29.380  1.00  0.00     0.200 A 
ATOM     79  F   UNL A   1      37.316  30.127  27.111  1.00  0.00    -0.200 F 
ATOM     80  F   UNL A   1      35.890  30.312  29.428  1.00  0.00    -0.200 F 
ENDBRANCH  46  70
BRANCH  58  81
ATOM     81  C   UNL A   1      44.684  26.422  32.302  1.00  0.00     0.064 A 
ATOM     82  C   UNL A   1      44.509  25.098  31.870  1.00  0.00     0.173 A 
ATOM     83  C   UNL A   1      44.709  26.662  33.682  1.00  0.00     0.173 A 
ATOM     84  F   UNL A   1      44.550  24.788  30.567  1.00  0.00    -0.203 F 
ATOM     85  C   UNL A   1      44.311  24.067  32.786  1.00  0.00     0.198 A 
ATOM     86  C   UNL A   1      44.547  25.626  34.595  1.00  0.00     0.198 A 
ATOM     87  F   UNL A   1      44.913  27.905  34.145  1.00  0.00    -0.203 F 
ATOM     88  F   UNL A   1      44.112  22.813  32.355  1.00  0.00    -0.200 F 
ATOM     89  C   UNL A   1      44.333  24.332  34.147  1.00  0.00     0.200 A 
ATOM     90  F   UNL A   1      44.605  25.881  35.910  1.00  0.00    -0.200 F 
ATOM     91  F   UNL A   1      44.163  23.337  35.029  1.00  0.00    -0.200 F 
ENDBRANCH  58  81
ENDBRANCH  32  33
ENDBRANCH  25  27
ENDBRANCH  24  25
ENDBRANCH  23  24
ENDBRANCH  22  23
ENDBRANCH  21  22
ENDBRANCH   1  21
TORSDOF 17
ENDMDL
MODEL 2
REMARK VINA RESULT:     -11.1      3.116      4.705
REMARK SMILES CCn1cc(C[N@@H+]2CCC[C@H]2C(=O)OCCOCCOC(=O)c2ccc(-c3c4nc(c(-c5c(F)c(F)c(F)c(F)c5F)c5ccc([nH]5)c(-c5c(F)c(F)c(F)c(F)c5F)c5nc(c(-c6c(F)c(F)c(F)c(F)c6F)c6ccc3[nH]6)C=C5)C=C4)cc2)c(C)n1
REMARK SMILES IDX 16 1 15 2 14 3 12 4 13 5 11 6 7 7 8 8 9 10 10 11 6 12 5 13
REMARK SMILES IDX 3 14 4 15 88 16 86 17 87 18 2 19 1 20 17 21 18 22 19 23
REMARK SMILES IDX 20 24 21 25 22 26 23 27 24 28 85 29 25 30 84 31 26 32 27 33
REMARK SMILES IDX 28 34 78 35 29 36 83 37 77 38 79 39 30 40 82 41 76 42 75 43
REMARK SMILES IDX 31 45 63 46 43 47 62 48 44 49 47 50 61 51 80 52 45 53 46 54
REMARK SMILES IDX 60 56 81 57 48 58 32 59 33 60 41 61 34 62 35 63 39 64 42 65
REMARK SMILES IDX 36 66 37 67 40 68 38 69 64 70 65 71 73 72 66 73 67 74 71 75
REMARK SMILES IDX 74 76 68 77 69 78 72 79 70 80 49 81 50 82 58 83 51 84 52 85
REMARK SMILES IDX 56 86 59 87 53 88 54 89 57 90 55 91
REMARK H PARENT 7 9 79 44 47 55
REMARK Flexibility Score: inf
ROOT
ATOM      1  C   UNL A   1      36.478  21.793  24.260  1.00  0.00     0.202 C 
ENDROOT
BRANCH   1   2
ATOM      2  C   UNL A   1      36.651  22.951  23.274  1.00  0.00     0.261 C 
BRANCH   2   3
ATOM      3  O   UNL A   1      35.372  23.324  22.728  1.00  0.00    -0.459 OA
BRANCH   3   4
ATOM      4  C   UNL A   1      34.554  24.083  23.509  1.00  0.00     0.365 C 
ATOM      5  O   UNL A   1      34.922  24.693  24.507  1.00  0.00    -0.245 OA
BRANCH   4   6
ATOM      6  C   UNL A   1      33.106  24.107  22.980  1.00  0.00     0.295 C 
ATOM      7  N   UNL A   1      32.168  24.329  24.112  1.00  0.00    -0.319 N 
ATOM      8  C   UNL A   1      31.409  25.549  23.872  1.00  0.00     0.263 C 
ATOM      9  H   UNL A   1      32.727  24.466  24.954  1.00  0.00     0.349 HD
ATOM     10  C   UNL A   1      31.423  25.749  22.374  1.00  0.00     0.068 C 
ATOM     11  C   UNL A   1      32.774  25.200  21.955  1.00  0.00     0.083 C 
BRANCH   7  12
ATOM     12  C   UNL A   1      31.371  23.165  24.515  1.00  0.00     0.303 C 
BRANCH  12  13
ATOM     13  C   UNL A   1      32.190  21.988  24.943  1.00  0.00     0.047 A 
ATOM     14  N   UNL A   1      33.119  19.991  25.010  1.00  0.00    -0.272 N 
ATOM     15  C   UNL A   1      32.327  20.797  24.254  1.00  0.00     0.118 A 
ATOM     16  N   UNL A   1      33.551  20.583  26.134  1.00  0.00    -0.178 NA
ATOM     17  C   UNL A   1      33.022  21.813  26.090  1.00  0.00     0.068 A 
ATOM     18  C   UNL A   1      33.320  22.762  27.191  1.00  0.00     0.069 C 
BRANCH  14  19
ATOM     19  C   UNL A   1      33.441  18.598  24.768  1.00  0.00     0.141 C 
ATOM     20  C   UNL A   1      32.661  17.623  25.634  1.00  0.00     0.029 C 
ENDBRANCH  14  19
ENDBRANCH  12  13
ENDBRANCH   7  12
ENDBRANCH   4   6
ENDBRANCH   3   4
ENDBRANCH   2   3
ENDBRANCH   1   2
BRANCH   1  21
ATOM     21  O   UNL A   1      37.701  21.199  24.701  1.00  0.00    -0.374 OA
BRANCH  21  22
ATOM     22  C   UNL A   1      38.396  21.852  25.758  1.00  0.00     0.202 C 
BRANCH  22  23
ATOM     23  C   UNL A   1      39.725  21.215  26.141  1.00  0.00     0.261 C 
BRANCH  23  24
ATOM     24  O   UNL A   1      40.452  22.019  27.073  1.00  0.00    -0.460 OA
BRANCH  24  25
ATOM     25  C   UNL A   1      41.264  22.944  26.512  1.00  0.00     0.338 C 
ATOM     26  O   UNL A   1      42.136  22.752  25.685  1.00  0.00    -0.246 OA
BRANCH  25  27
ATOM     27  C   UNL A   1      41.048  24.236  27.185  1.00  0.00     0.060 A 
ATOM     28  C   UNL A   1      40.212  25.146  26.536  1.00  0.00     0.016 A 
ATOM     29  C   UNL A   1      41.770  24.609  28.331  1.00  0.00     0.016 A 
ATOM     30  C   UNL A   1      40.190  26.459  26.963  1.00  0.00     0.010 A 
ATOM     31  C   UNL A   1      41.747  25.925  28.761  1.00  0.00     0.010 A 
ATOM     32  C   UNL A   1      40.994  26.850  28.044  1.00  0.00    -0.014 A 
BRANCH  32  33
ATOM     33  C   UNL A   1      40.929  28.250  28.432  1.00  0.00     0.031 A 
ATOM     34  C   UNL A   1      42.067  29.064  27.956  1.00  0.00     0.074 A 
ATOM     35  C   UNL A   1      39.926  28.792  29.146  1.00  0.00     0.049 A 
ATOM     36  N   UNL A   1      42.984  29.621  28.673  1.00  0.00    -0.248 NA
ATOM     37  C   UNL A   1      42.263  29.196  26.506  1.00  0.00     0.031 C 
ATOM     38  C   UNL A   1      38.619  28.201  29.435  1.00  0.00     0.029 A 
ATOM     39  N   UNL A   1      39.846  30.038  29.707  1.00  0.00    -0.354 N 
ATOM     40  C   UNL A   1      43.784  30.323  27.782  1.00  0.00     0.074 A 
ATOM     41  C   UNL A   1      43.380  29.925  26.458  1.00  0.00     0.031 C 
ATOM     42  C   UNL A   1      37.806  29.154  29.945  1.00  0.00     0.029 A 
ATOM     43  C   UNL A   1      38.579  30.370  30.155  1.00  0.00     0.049 A 
ATOM     44  H   UNL A   1      40.619  30.644  29.784  1.00  0.00     0.167 HD
ATOM     45  C   UNL A   1      44.544  31.366  28.209  1.00  0.00     0.037 A 
ATOM     46  C   UNL A   1      38.171  31.564  30.644  1.00  0.00     0.037 A 
ATOM     47  C   UNL A   1      44.680  31.382  29.640  1.00  0.00     0.049 A 
ATOM     48  C   UNL A   1      39.348  32.303  31.154  1.00  0.00     0.074 A 
ATOM     49  C   UNL A   1      45.497  30.806  30.585  1.00  0.00     0.029 A 
ATOM     50  N   UNL A   1      43.608  31.914  30.299  1.00  0.00    -0.354 N 
ATOM     51  N   UNL A   1      40.017  31.951  32.216  1.00  0.00    -0.248 NA
ATOM     52  C   UNL A   1      39.984  33.322  30.324  1.00  0.00     0.031 C 
ATOM     53  C   UNL A   1      44.816  30.916  31.836  1.00  0.00     0.029 A 
ATOM     54  C   UNL A   1      43.600  31.554  31.620  1.00  0.00     0.049 A 
ATOM     55  H   UNL A   1      42.926  32.484  29.876  1.00  0.00     0.167 HD
ATOM     56  C   UNL A   1      41.303  32.379  31.961  1.00  0.00     0.074 A 
ATOM     57  C   UNL A   1      41.188  33.366  30.899  1.00  0.00     0.031 C 
ATOM     58  C   UNL A   1      42.376  31.650  32.377  1.00  0.00     0.037 A 
BRANCH  45  59
ATOM     59  C   UNL A   1      44.782  32.624  27.410  1.00  0.00     0.064 A 
ATOM     60  C   UNL A   1      46.005  32.780  26.728  1.00  0.00     0.173 A 
ATOM     61  C   UNL A   1      44.013  33.796  27.564  1.00  0.00     0.173 A 
ATOM     62  F   UNL A   1      46.826  31.734  26.546  1.00  0.00    -0.203 F 
ATOM     63  C   UNL A   1      46.452  34.032  26.294  1.00  0.00     0.198 A 
ATOM     64  C   UNL A   1      44.436  35.034  27.082  1.00  0.00     0.198 A 
ATOM     65  F   UNL A   1      42.885  33.815  28.287  1.00  0.00    -0.203 F 
ATOM     66  F   UNL A   1      47.673  34.155  25.756  1.00  0.00    -0.200 F 
ATOM     67  C   UNL A   1      45.668  35.157  26.475  1.00  0.00     0.200 A 
ATOM     68  F   UNL A   1      43.674  36.117  27.289  1.00  0.00    -0.200 F 
ATOM     69  F   UNL A   1      46.117  36.366  26.112  1.00  0.00    -0.200 F 
ENDBRANCH  45  59
BRANCH  46  70
ATOM     70  C   UNL A   1      36.831  32.177  30.574  1.00  0.00     0.064 A 
ATOM     71  C   UNL A   1      35.956  32.151  31.671  1.00  0.00     0.173 A 
ATOM     72  C   UNL A   1      36.488  33.036  29.512  1.00  0.00     0.173 A 
ATOM     73  F   UNL A   1      36.232  31.388  32.738  1.00  0.00    -0.203 F 
ATOM     74  C   UNL A   1      34.817  32.960  31.716  1.00  0.00     0.198 A 
ATOM     75  C   UNL A   1      35.348  33.836  29.554  1.00  0.00     0.198 A 
ATOM     76  F   UNL A   1      37.304  33.181  28.458  1.00  0.00    -0.203 F 
ATOM     77  F   UNL A   1      34.039  32.958  32.807  1.00  0.00    -0.200 F 
ATOM     78  C   UNL A   1      34.521  33.810  30.663  1.00  0.00     0.200 A 
ATOM     79  F   UNL A   1      35.090  34.678  28.543  1.00  0.00    -0.200 F 
ATOM     80  F   UNL A   1      33.465  34.632  30.733  1.00  0.00    -0.200 F 
ENDBRANCH  46  70
BRANCH  58  81
ATOM     81  C   UNL A   1      42.174  30.761  33.559  1.00  0.00     0.064 A 
ATOM     82  C   UNL A   1      42.319  31.181  34.891  1.00  0.00     0.173 A 
ATOM     83  C   UNL A   1      41.794  29.432  33.331  1.00  0.00     0.173 A 
ATOM     84  F   UNL A   1      42.608  32.457  35.181  1.00  0.00    -0.203 F 
ATOM     85  C   UNL A   1      42.144  30.288  35.945  1.00  0.00     0.198 A 
ATOM     86  C   UNL A   1      41.586  28.552  34.386  1.00  0.00     0.198 A 
ATOM     87  F   UNL A   1      41.605  28.993  32.076  1.00  0.00    -0.203 F 
ATOM     88  F   UNL A   1      42.320  30.698  37.210  1.00  0.00    -0.200 F 
ATOM     89  C   UNL A   1      41.775  28.976  35.692  1.00  0.00     0.200 A 
ATOM     90  F   UNL A   1      41.194  27.294  34.138  1.00  0.00    -0.200 F 
ATOM     91  F   UNL A   1      41.587  28.122  36.708  1.00  0.00    -0.200 F 
ENDBRANCH  58  81
ENDBRANCH  32  33
ENDBRANCH  25  27
ENDBRANCH  24  25
ENDBRANCH  23  24
ENDBRANCH  22  23
ENDBRANCH  21  22
ENDBRANCH   1  21
TORSDOF 17
ENDMDL
MODEL 3
REMARK VINA RESULT:     -11.0      4.655      9.741
REMARK SMILES CCn1cc(C[N@@H+]2CCC[C@H]2C(=O)OCCOCCOC(=O)c2ccc(-c3c4nc(c(-c5c(F)c(F)c(F)c(F)c5F)c5ccc([nH]5)c(-c5c(F)c(F)c(F)c(F)c5F)c5nc(c(-c6c(F)c(F)c(F)c(F)c6F)c6ccc3[nH]6)C=C5)C=C4)cc2)c(C)n1
REMARK SMILES IDX 16 1 15 2 14 3 12 4 13 5 11 6 7 7 8 8 9 10 10 11 6 12 5 13
REMARK SMILES IDX 3 14 4 15 88 16 86 17 87 18 2 19 1 20 17 21 18 22 19 23
REMARK SMILES IDX 20 24 21 25 22 26 23 27 24 28 85 29 25 30 84 31 26 32 27 33
REMARK SMILES IDX 28 34 78 35 29 36 83 37 77 38 79 39 30 40 82 41 76 42 75 43
REMARK SMILES IDX 31 45 63 46 43 47 62 48 44 49 47 50 61 51 80 52 45 53 46 54
REMARK SMILES IDX 60 56 81 57 48 58 32 59 33 60 41 61 34 62 35 63 39 64 42 65
REMARK SMILES IDX 36 66 37 67 40 68 38 69 64 70 65 71 73 72 66 73 67 74 71 75
REMARK SMILES IDX 74 76 68 77 69 78 72 79 70 80 49 81 50 82 58 83 51 84 52 85
REMARK SMILES IDX 56 86 59 87 53 88 54 89 57 90 55 91
REMARK H PARENT 7 9 79 44 47 55
REMARK Flexibility Score: inf
ROOT
ATOM      1  C   UNL A   1      32.454  29.147  27.283  1.00  0.00     0.202 C 
ENDROOT
BRANCH   1   2
ATOM      2  C   UNL A   1      31.442  27.999  27.328  1.00  0.00     0.261 C 
BRANCH   2   3
ATOM      3  O   UNL A   1      31.929  26.886  26.554  1.00  0.00    -0.459 OA
BRANCH   3   4
ATOM      4  C   UNL A   1      31.098  26.373  25.604  1.00  0.00     0.365 C 
ATOM      5  O   UNL A   1      30.040  25.803  25.845  1.00  0.00    -0.245 OA
BRANCH   4   6
ATOM      6  C   UNL A   1      31.633  26.613  24.177  1.00  0.00     0.295 C 
ATOM      7  N   UNL A   1      31.119  27.912  23.667  1.00  0.00    -0.319 N 
ATOM      8  C   UNL A   1      32.245  28.783  23.356  1.00  0.00     0.263 C 
ATOM      9  H   UNL A   1      30.581  28.347  24.417  1.00  0.00     0.349 HD
ATOM     10  C   UNL A   1      33.412  27.860  23.094  1.00  0.00     0.068 C 
ATOM     11  C   UNL A   1      33.159  26.692  24.027  1.00  0.00     0.083 C 
BRANCH   7  12
ATOM     12  C   UNL A   1      30.089  27.823  22.626  1.00  0.00     0.303 C 
BRANCH  12  13
ATOM     13  C   UNL A   1      29.219  29.036  22.527  1.00  0.00     0.047 A 
ATOM     14  N   UNL A   1      28.517  31.089  22.143  1.00  0.00    -0.272 N 
ATOM     15  C   UNL A   1      29.585  30.260  22.000  1.00  0.00     0.118 A 
ATOM     16  N   UNL A   1      27.452  30.483  22.691  1.00  0.00    -0.178 NA
ATOM     17  C   UNL A   1      27.853  29.222  22.899  1.00  0.00     0.068 A 
ATOM     18  C   UNL A   1      26.896  28.252  23.487  1.00  0.00     0.069 C 
BRANCH  14  19
ATOM     19  C   UNL A   1      28.462  32.509  21.858  1.00  0.00     0.141 C 
ATOM     20  C   UNL A   1      28.873  33.391  23.026  1.00  0.00     0.029 C 
ENDBRANCH  14  19
ENDBRANCH  12  13
ENDBRANCH   7  12
ENDBRANCH   4   6
ENDBRANCH   3   4
ENDBRANCH   2   3
ENDBRANCH   1   2
BRANCH   1  21
ATOM     21  O   UNL A   1      32.077  30.239  26.443  1.00  0.00    -0.374 OA
BRANCH  21  22
ATOM     22  C   UNL A   1      32.441  31.546  26.875  1.00  0.00     0.202 C 
BRANCH  22  23
ATOM     23  C   UNL A   1      33.560  31.593  27.906  1.00  0.00     0.261 C 
BRANCH  23  24
ATOM     24  O   UNL A   1      34.844  31.730  27.292  1.00  0.00    -0.460 OA
BRANCH  24  25
ATOM     25  C   UNL A   1      35.768  32.368  28.046  1.00  0.00     0.338 C 
ATOM     26  O   UNL A   1      35.864  33.568  28.232  1.00  0.00    -0.246 OA
BRANCH  25  27
ATOM     27  C   UNL A   1      36.775  31.390  28.493  1.00  0.00     0.060 A 
ATOM     28  C   UNL A   1      37.903  31.903  29.135  1.00  0.00     0.016 A 
ATOM     29  C   UNL A   1      36.696  30.030  28.148  1.00  0.00     0.016 A 
ATOM     30  C   UNL A   1      38.997  31.083  29.326  1.00  0.00     0.010 A 
ATOM     31  C   UNL A   1      37.792  29.207  28.341  1.00  0.00     0.010 A 
ATOM     32  C   UNL A   1      38.952  29.753  28.885  1.00  0.00    -0.014 A 
BRANCH  32  33
ATOM     33  C   UNL A   1      40.143  28.950  29.109  1.00  0.00     0.031 A 
ATOM     34  C   UNL A   1      40.507  28.790  30.533  1.00  0.00     0.074 A 
ATOM     35  C   UNL A   1      40.864  28.374  28.130  1.00  0.00     0.049 A 
ATOM     36  N   UNL A   1      41.549  29.261  31.131  1.00  0.00    -0.248 NA
ATOM     37  C   UNL A   1      39.553  28.108  31.417  1.00  0.00     0.031 C 
ATOM     38  C   UNL A   1      40.481  28.198  26.729  1.00  0.00     0.029 A 
ATOM     39  N   UNL A   1      42.080  27.752  28.211  1.00  0.00    -0.354 N 
ATOM     40  C   UNL A   1      41.478  28.791  32.436  1.00  0.00     0.074 A 
ATOM     41  C   UNL A   1      40.173  28.201  32.595  1.00  0.00     0.031 C 
ATOM     42  C   UNL A   1      41.350  27.349  26.136  1.00  0.00     0.029 A 
ATOM     43  C   UNL A   1      42.425  27.046  27.070  1.00  0.00     0.049 A 
ATOM     44  H   UNL A   1      42.658  27.800  29.007  1.00  0.00     0.167 HD
ATOM     45  C   UNL A   1      42.598  28.704  33.201  1.00  0.00     0.037 A 
ATOM     46  C   UNL A   1      43.501  26.243  26.899  1.00  0.00     0.037 A 
ATOM     47  C   UNL A   1      43.689  29.459  32.647  1.00  0.00     0.049 A 
ATOM     48  C   UNL A   1      44.550  26.633  27.868  1.00  0.00     0.074 A 
ATOM     49  C   UNL A   1      44.142  30.757  32.685  1.00  0.00     0.029 A 
ATOM     50  N   UNL A   1      44.350  28.825  31.634  1.00  0.00    -0.354 N 
ATOM     51  N   UNL A   1      45.214  27.753  27.803  1.00  0.00    -0.248 NA
ATOM     52  C   UNL A   1      44.706  25.886  29.113  1.00  0.00     0.031 C 
ATOM     53  C   UNL A   1      45.029  30.912  31.576  1.00  0.00     0.029 A 
ATOM     54  C   UNL A   1      45.091  29.704  30.889  1.00  0.00     0.049 A 
ATOM     55  H   UNL A   1      44.301  27.858  31.460  1.00  0.00     0.167 HD
ATOM     56  C   UNL A   1      45.512  28.045  29.117  1.00  0.00     0.074 A 
ATOM     57  C   UNL A   1      45.354  26.796  29.845  1.00  0.00     0.031 C 
ATOM     58  C   UNL A   1      45.516  29.332  29.562  1.00  0.00     0.037 A 
BRANCH  45  59
ATOM     59  C   UNL A   1      42.867  27.591  34.184  1.00  0.00     0.064 A 
ATOM     60  C   UNL A   1      43.283  26.335  33.700  1.00  0.00     0.173 A 
ATOM     61  C   UNL A   1      42.413  27.612  35.520  1.00  0.00     0.173 A 
ATOM     62  F   UNL A   1      43.711  26.197  32.435  1.00  0.00    -0.203 F 
ATOM     63  C   UNL A   1      43.188  25.177  34.476  1.00  0.00     0.198 A 
ATOM     64  C   UNL A   1      42.370  26.464  36.310  1.00  0.00     0.198 A 
ATOM     65  F   UNL A   1      41.885  28.712  36.072  1.00  0.00    -0.203 F 
ATOM     66  F   UNL A   1      43.483  23.986  33.938  1.00  0.00    -0.200 F 
ATOM     67  C   UNL A   1      42.728  25.243  35.779  1.00  0.00     0.200 A 
ATOM     68  F   UNL A   1      41.899  26.544  37.562  1.00  0.00    -0.200 F 
ATOM     69  F   UNL A   1      42.582  24.128  36.508  1.00  0.00    -0.200 F 
ENDBRANCH  45  59
BRANCH  46  70
ATOM     70  C   UNL A   1      43.634  25.055  26.035  1.00  0.00     0.064 A 
ATOM     71  C   UNL A   1      44.740  24.887  25.187  1.00  0.00     0.173 A 
ATOM     72  C   UNL A   1      42.806  23.933  26.224  1.00  0.00     0.173 A 
ATOM     73  F   UNL A   1      45.597  25.898  24.986  1.00  0.00    -0.203 F 
ATOM     74  C   UNL A   1      45.018  23.657  24.586  1.00  0.00     0.198 A 
ATOM     75  C   UNL A   1      43.080  22.708  25.618  1.00  0.00     0.198 A 
ATOM     76  F   UNL A   1      41.772  23.980  27.076  1.00  0.00    -0.203 F 
ATOM     77  F   UNL A   1      46.119  23.514  23.834  1.00  0.00    -0.200 F 
ATOM     78  C   UNL A   1      44.195  22.566  24.811  1.00  0.00     0.200 A 
ATOM     79  F   UNL A   1      42.294  21.652  25.870  1.00  0.00    -0.200 F 
ATOM     80  F   UNL A   1      44.496  21.370  24.286  1.00  0.00    -0.200 F 
ENDBRANCH  46  70
BRANCH  58  81
ATOM     81  C   UNL A   1      45.777  30.398  28.551  1.00  0.00     0.064 A 
ATOM     82  C   UNL A   1      47.060  30.819  28.167  1.00  0.00     0.173 A 
ATOM     83  C   UNL A   1      44.677  31.002  27.927  1.00  0.00     0.173 A 
ATOM     84  F   UNL A   1      48.155  30.231  28.669  1.00  0.00    -0.203 F 
ATOM     85  C   UNL A   1      47.228  31.842  27.236  1.00  0.00     0.198 A 
ATOM     86  C   UNL A   1      44.849  31.999  26.973  1.00  0.00     0.198 A 
ATOM     87  F   UNL A   1      43.430  30.608  28.232  1.00  0.00    -0.203 F 
ATOM     88  F   UNL A   1      48.461  32.254  26.906  1.00  0.00    -0.200 F 
ATOM     89  C   UNL A   1      46.123  32.429  26.639  1.00  0.00     0.200 A 
ATOM     90  F   UNL A   1      43.778  32.537  26.372  1.00  0.00    -0.200 F 
ATOM     91  F   UNL A   1      46.286  33.399  25.729  1.00  0.00    -0.200 F 
ENDBRANCH  58  81
ENDBRANCH  32  33
ENDBRANCH  25  27
ENDBRANCH  24  25
ENDBRANCH  23  24
ENDBRANCH  22  23
ENDBRANCH  21  22
ENDBRANCH   1  21
TORSDOF 17
ENDMDL
