MODEL 1
REMARK VINA RESULT:     -12.1      0.000      0.000
REMARK SMILES Cc1cc(Cl)c2c(c1)C=C(C(=O)OCCOCCOC(=O)c1ccc(-c3c4nc(c(-c5c(F)c(F)c(F)c(F)c5F)c5ccc([nH]5)c(-c5c(F)c(F)c(F)c(F)c5F)c5nc(c(-c6c(F)c(F)c(F)c(F)c6F)c6ccc3[nH]6)C=C5)C=C4)cc1)[C@@H](C(F)(F)F)O2
REMARK SMILES IDX 17 1 16 2 15 3 14 4 13 5 11 6 12 7 10 8 1 9 2 10 3 11 8 12
REMARK SMILES IDX 4 13 7 14 5 15 6 16 9 17 90 18 85 19 86 20 87 21 88 22 89 23
REMARK SMILES IDX 18 24 19 25 20 26 21 27 22 28 23 29 84 30 24 31 83 32 25 33
REMARK SMILES IDX 26 34 27 35 77 36 28 37 82 38 76 39 78 40 29 41 81 42 75 43
REMARK SMILES IDX 74 44 30 46 62 47 42 48 61 49 43 50 46 51 60 52 79 53 44 54
REMARK SMILES IDX 45 55 59 57 80 58 47 59 31 60 32 61 40 62 33 63 34 64 38 65
REMARK SMILES IDX 41 66 35 67 36 68 39 69 37 70 63 71 64 72 72 73 65 74 66 75
REMARK SMILES IDX 70 76 73 77 67 78 68 79 71 80 69 81 48 82 49 83 57 84 50 85
REMARK SMILES IDX 51 86 55 87 58 88 52 89 53 90 56 91 54 92
REMARK H PARENT 78 45 46 56
REMARK Flexibility Score: inf
ROOT
ATOM      1  C   UNL A   1      31.652  30.960  26.140  1.00  0.00     0.202 C 
ENDROOT
BRANCH   1   2
ATOM      2  O   UNL A   1      32.470  29.897  26.634  1.00  0.00    -0.374 OA
BRANCH   2   3
ATOM      3  C   UNL A   1      33.602  29.517  25.856  1.00  0.00     0.202 C 
BRANCH   3   4
ATOM      4  C   UNL A   1      33.735  28.025  25.542  1.00  0.00     0.261 C 
BRANCH   4   5
ATOM      5  O   UNL A   1      33.690  27.783  24.126  1.00  0.00    -0.460 OA
BRANCH   5   6
ATOM      6  C   UNL A   1      32.946  26.714  23.760  1.00  0.00     0.338 C 
ATOM      7  O   UNL A   1      33.312  25.550  23.709  1.00  0.00    -0.246 OA
BRANCH   6   8
ATOM      8  C   UNL A   1      31.548  27.129  23.536  1.00  0.00     0.087 C 
ATOM      9  C   UNL A   1      28.377  31.866  21.209  1.00  0.00     0.044 C 
ATOM     10  C   UNL A   1      28.573  30.534  21.871  1.00  0.00    -0.049 A 
ATOM     11  C   UNL A   1      27.489  29.864  22.449  1.00  0.00     0.028 A 
ATOM     12  C   UNL A   1      29.848  29.972  21.976  1.00  0.00     0.015 A 
ATOM     13  C   UNL A   1      27.678  28.636  23.094  1.00  0.00     0.084 A 
ATOM     14  C   UNL A   1      30.043  28.755  22.643  1.00  0.00     0.019 A 
ATOM     15  Cl  UNL A   1      26.300  27.858  23.787  1.00  0.00    -0.080 Cl
ATOM     16  C   UNL A   1      28.956  28.071  23.193  1.00  0.00     0.146 A 
ATOM     17  C   UNL A   1      31.388  28.238  22.806  1.00  0.00     0.027 C 
ATOM     18  O   UNL A   1      29.086  26.860  23.819  1.00  0.00    -0.474 OA
ATOM     19  C   UNL A   1      30.410  26.347  24.129  1.00  0.00     0.316 C 
BRANCH  19  20
ATOM     20  C   UNL A   1      30.532  26.195  25.653  1.00  0.00     0.430 C 
ATOM     21  F   UNL A   1      30.792  27.383  26.249  1.00  0.00    -0.167 F 
ATOM     22  F   UNL A   1      29.384  25.733  26.202  1.00  0.00    -0.167 F 
ATOM     23  F   UNL A   1      31.519  25.339  26.001  1.00  0.00    -0.167 F 
ENDBRANCH  19  20
ENDBRANCH   6   8
ENDBRANCH   5   6
ENDBRANCH   4   5
ENDBRANCH   3   4
ENDBRANCH   2   3
ENDBRANCH   1   2
BRANCH   1  24
ATOM     24  C   UNL A   1      31.638  32.254  26.963  1.00  0.00     0.261 C 
BRANCH  24  25
ATOM     25  O   UNL A   1      32.842  33.021  26.776  1.00  0.00    -0.460 OA
BRANCH  25  26
ATOM     26  C   UNL A   1      33.370  33.538  27.911  1.00  0.00     0.338 C 
ATOM     27  O   UNL A   1      32.857  34.349  28.666  1.00  0.00    -0.246 OA
BRANCH  26  28
ATOM     28  C   UNL A   1      34.626  32.844  28.243  1.00  0.00     0.060 A 
ATOM     29  C   UNL A   1      34.535  31.522  28.697  1.00  0.00     0.016 A 
ATOM     30  C   UNL A   1      35.857  33.501  28.206  1.00  0.00     0.016 A 
ATOM     31  C   UNL A   1      35.673  30.865  29.160  1.00  0.00     0.010 A 
ATOM     32  C   UNL A   1      36.996  32.845  28.685  1.00  0.00     0.010 A 
ATOM     33  C   UNL A   1      36.901  31.538  29.197  1.00  0.00    -0.014 A 
BRANCH  33  34
ATOM     34  C   UNL A   1      38.041  30.924  29.917  1.00  0.00     0.031 A 
ATOM     35  C   UNL A   1      38.269  31.284  31.360  1.00  0.00     0.074 A 
ATOM     36  C   UNL A   1      38.830  30.017  29.314  1.00  0.00     0.049 A 
ATOM     37  N   UNL A   1      39.202  30.875  32.181  1.00  0.00    -0.248 NA
ATOM     38  C   UNL A   1      37.310  32.227  31.960  1.00  0.00     0.031 C 
ATOM     39  C   UNL A   1      38.673  29.547  27.940  1.00  0.00     0.029 A 
ATOM     40  N   UNL A   1      39.917  29.327  29.786  1.00  0.00    -0.354 N 
ATOM     41  C   UNL A   1      38.938  31.500  33.392  1.00  0.00     0.074 A 
ATOM     42  C   UNL A   1      37.780  32.344  33.193  1.00  0.00     0.031 C 
ATOM     43  C   UNL A   1      39.630  28.640  27.678  1.00  0.00     0.029 A 
ATOM     44  C   UNL A   1      40.484  28.491  28.856  1.00  0.00     0.049 A 
ATOM     45  H   UNL A   1      40.258  29.421  30.705  1.00  0.00     0.167 HD
ATOM     46  C   UNL A   1      39.597  31.371  34.567  1.00  0.00     0.037 A 
ATOM     47  C   UNL A   1      41.577  27.707  28.945  1.00  0.00     0.037 A 
ATOM     48  C   UNL A   1      40.751  30.535  34.764  1.00  0.00     0.049 A 
ATOM     49  C   UNL A   1      42.349  27.659  30.237  1.00  0.00     0.074 A 
ATOM     50  C   UNL A   1      41.491  30.344  35.917  1.00  0.00     0.029 A 
ATOM     51  N   UNL A   1      41.335  29.754  33.778  1.00  0.00    -0.354 N 
ATOM     52  N   UNL A   1      42.093  28.251  31.378  1.00  0.00    -0.248 NA
ATOM     53  C   UNL A   1      43.568  26.835  30.252  1.00  0.00     0.031 C 
ATOM     54  C   UNL A   1      42.548  29.479  35.620  1.00  0.00     0.029 A 
ATOM     55  C   UNL A   1      42.440  29.095  34.293  1.00  0.00     0.049 A 
ATOM     56  H   UNL A   1      41.013  29.679  32.851  1.00  0.00     0.167 HD
ATOM     57  C   UNL A   1      43.099  27.855  32.251  1.00  0.00     0.074 A 
ATOM     58  C   UNL A   1      43.966  26.961  31.511  1.00  0.00     0.031 C 
ATOM     59  C   UNL A   1      43.288  28.203  33.547  1.00  0.00     0.037 A 
BRANCH  46  60
ATOM     60  C   UNL A   1      39.090  32.154  35.741  1.00  0.00     0.064 A 
ATOM     61  C   UNL A   1      38.246  31.571  36.698  1.00  0.00     0.173 A 
ATOM     62  C   UNL A   1      39.508  33.476  35.949  1.00  0.00     0.173 A 
ATOM     63  F   UNL A   1      37.808  30.313  36.534  1.00  0.00    -0.203 F 
ATOM     64  C   UNL A   1      37.832  32.287  37.817  1.00  0.00     0.198 A 
ATOM     65  C   UNL A   1      39.112  34.182  37.082  1.00  0.00     0.198 A 
ATOM     66  F   UNL A   1      40.319  34.076  35.065  1.00  0.00    -0.203 F 
ATOM     67  F   UNL A   1      37.005  31.720  38.706  1.00  0.00    -0.200 F 
ATOM     68  C   UNL A   1      38.273  33.588  38.013  1.00  0.00     0.200 A 
ATOM     69  F   UNL A   1      39.547  35.434  37.276  1.00  0.00    -0.200 F 
ATOM     70  F   UNL A   1      37.888  34.270  39.100  1.00  0.00    -0.200 F 
ENDBRANCH  46  60
BRANCH  47  71
ATOM     71  C   UNL A   1      42.009  26.902  27.774  1.00  0.00     0.064 A 
ATOM     72  C   UNL A   1      42.962  27.393  26.872  1.00  0.00     0.173 A 
ATOM     73  C   UNL A   1      41.470  25.630  27.526  1.00  0.00     0.173 A 
ATOM     74  F   UNL A   1      43.484  28.616  27.052  1.00  0.00    -0.203 F 
ATOM     75  C   UNL A   1      43.353  26.649  25.761  1.00  0.00     0.198 A 
ATOM     76  C   UNL A   1      41.881  24.876  26.429  1.00  0.00     0.198 A 
ATOM     77  F   UNL A   1      40.551  25.117  28.355  1.00  0.00    -0.203 F 
ATOM     78  F   UNL A   1      44.237  27.160  24.893  1.00  0.00    -0.200 F 
ATOM     79  C   UNL A   1      42.818  25.389  25.544  1.00  0.00     0.200 A 
ATOM     80  F   UNL A   1      41.368  23.655  26.227  1.00  0.00    -0.200 F 
ATOM     81  F   UNL A   1      43.198  24.671  24.477  1.00  0.00    -0.200 F 
ENDBRANCH  47  71
BRANCH  59  82
ATOM     82  C   UNL A   1      44.461  27.604  34.266  1.00  0.00     0.064 A 
ATOM     83  C   UNL A   1      45.683  28.284  34.362  1.00  0.00     0.173 A 
ATOM     84  C   UNL A   1      44.335  26.377  34.933  1.00  0.00     0.173 A 
ATOM     85  F   UNL A   1      45.856  29.455  33.731  1.00  0.00    -0.203 F 
ATOM     86  C   UNL A   1      46.742  27.750  35.092  1.00  0.00     0.198 A 
ATOM     87  C   UNL A   1      45.386  25.860  35.685  1.00  0.00     0.198 A 
ATOM     88  F   UNL A   1      43.182  25.693  34.881  1.00  0.00    -0.203 F 
ATOM     89  F   UNL A   1      47.912  28.403  35.146  1.00  0.00    -0.200 F 
ATOM     90  C   UNL A   1      46.589  26.544  35.761  1.00  0.00     0.200 A 
ATOM     91  F   UNL A   1      45.233  24.702  36.343  1.00  0.00    -0.200 F 
ATOM     92  F   UNL A   1      47.604  26.042  36.477  1.00  0.00    -0.200 F 
ENDBRANCH  59  82
ENDBRANCH  33  34
ENDBRANCH  26  28
ENDBRANCH  25  26
ENDBRANCH  24  25
ENDBRANCH   1  24
TORSDOF 15
ENDMDL
MODEL 2
REMARK VINA RESULT:     -12.0      2.421      8.131
REMARK SMILES Cc1cc(Cl)c2c(c1)C=C(C(=O)OCCOCCOC(=O)c1ccc(-c3c4nc(c(-c5c(F)c(F)c(F)c(F)c5F)c5ccc([nH]5)c(-c5c(F)c(F)c(F)c(F)c5F)c5nc(c(-c6c(F)c(F)c(F)c(F)c6F)c6ccc3[nH]6)C=C5)C=C4)cc1)[C@@H](C(F)(F)F)O2
REMARK SMILES IDX 17 1 16 2 15 3 14 4 13 5 11 6 12 7 10 8 1 9 2 10 3 11 8 12
REMARK SMILES IDX 4 13 7 14 5 15 6 16 9 17 90 18 85 19 86 20 87 21 88 22 89 23
REMARK SMILES IDX 18 24 19 25 20 26 21 27 22 28 23 29 84 30 24 31 83 32 25 33
REMARK SMILES IDX 26 34 27 35 77 36 28 37 82 38 76 39 78 40 29 41 81 42 75 43
REMARK SMILES IDX 74 44 30 46 62 47 42 48 61 49 43 50 46 51 60 52 79 53 44 54
REMARK SMILES IDX 45 55 59 57 80 58 47 59 31 60 32 61 40 62 33 63 34 64 38 65
REMARK SMILES IDX 41 66 35 67 36 68 39 69 37 70 63 71 64 72 72 73 65 74 66 75
REMARK SMILES IDX 70 76 73 77 67 78 68 79 71 80 69 81 48 82 49 83 57 84 50 85
REMARK SMILES IDX 51 86 55 87 58 88 52 89 53 90 56 91 54 92
REMARK H PARENT 78 45 46 56
REMARK Flexibility Score: inf
ROOT
ATOM      1  C   UNL A   1      31.917  29.429  25.018  1.00  0.00     0.202 C 
ENDROOT
BRANCH   1   2
ATOM      2  O   UNL A   1      30.960  29.158  23.992  1.00  0.00    -0.374 OA
BRANCH   2   3
ATOM      3  C   UNL A   1      30.657  27.793  23.711  1.00  0.00     0.202 C 
BRANCH   3   4
ATOM      4  C   UNL A   1      31.088  27.275  22.338  1.00  0.00     0.261 C 
BRANCH   4   5
ATOM      5  O   UNL A   1      31.396  25.872  22.381  1.00  0.00    -0.460 OA
BRANCH   5   6
ATOM      6  C   UNL A   1      32.603  25.544  21.865  1.00  0.00     0.338 C 
ATOM      7  O   UNL A   1      33.194  26.118  20.963  1.00  0.00    -0.246 OA
BRANCH   6   8
ATOM      8  C   UNL A   1      33.195  24.436  22.637  1.00  0.00     0.087 C 
ATOM      9  C   UNL A   1      32.154  18.492  23.857  1.00  0.00     0.044 C 
ATOM     10  C   UNL A   1      32.866  19.810  23.943  1.00  0.00    -0.049 A 
ATOM     11  C   UNL A   1      33.875  20.010  24.891  1.00  0.00     0.028 A 
ATOM     12  C   UNL A   1      32.490  20.875  23.121  1.00  0.00     0.015 A 
ATOM     13  C   UNL A   1      34.517  21.249  24.992  1.00  0.00     0.084 A 
ATOM     14  C   UNL A   1      33.114  22.125  23.237  1.00  0.00     0.019 A 
ATOM     15  Cl  UNL A   1      35.755  21.434  26.182  1.00  0.00    -0.080 Cl
ATOM     16  C   UNL A   1      34.143  22.315  24.163  1.00  0.00     0.146 A 
ATOM     17  C   UNL A   1      32.647  23.234  22.427  1.00  0.00     0.027 C 
ATOM     18  O   UNL A   1      34.812  23.503  24.288  1.00  0.00    -0.474 OA
ATOM     19  C   UNL A   1      34.317  24.686  23.604  1.00  0.00     0.316 C 
BRANCH  19  20
ATOM     20  C   UNL A   1      33.960  25.748  24.656  1.00  0.00     0.430 C 
ATOM     21  F   UNL A   1      32.705  25.570  25.131  1.00  0.00    -0.167 F 
ATOM     22  F   UNL A   1      34.788  25.687  25.727  1.00  0.00    -0.167 F 
ATOM     23  F   UNL A   1      34.036  27.002  24.158  1.00  0.00    -0.167 F 
ENDBRANCH  19  20
ENDBRANCH   6   8
ENDBRANCH   5   6
ENDBRANCH   4   5
ENDBRANCH   3   4
ENDBRANCH   2   3
ENDBRANCH   1   2
BRANCH   1  24
ATOM     24  C   UNL A   1      31.638  30.640  25.915  1.00  0.00     0.261 C 
BRANCH  24  25
ATOM     25  O   UNL A   1      32.451  30.627  27.103  1.00  0.00    -0.460 OA
BRANCH  25  26
ATOM     26  C   UNL A   1      33.211  31.732  27.286  1.00  0.00     0.338 C 
ATOM     27  O   UNL A   1      32.856  32.898  27.209  1.00  0.00    -0.246 OA
BRANCH  26  28
ATOM     28  C   UNL A   1      34.542  31.351  27.787  1.00  0.00     0.060 A 
ATOM     29  C   UNL A   1      34.757  30.001  28.095  1.00  0.00     0.016 A 
ATOM     30  C   UNL A   1      35.529  32.305  28.043  1.00  0.00     0.016 A 
ATOM     31  C   UNL A   1      35.945  29.606  28.705  1.00  0.00     0.010 A 
ATOM     32  C   UNL A   1      36.716  31.908  28.669  1.00  0.00     0.010 A 
ATOM     33  C   UNL A   1      36.913  30.564  29.034  1.00  0.00    -0.014 A 
BRANCH  33  34
ATOM     34  C   UNL A   1      38.051  30.175  29.899  1.00  0.00     0.031 A 
ATOM     35  C   UNL A   1      39.090  29.234  29.353  1.00  0.00     0.074 A 
ATOM     36  C   UNL A   1      38.188  30.693  31.132  1.00  0.00     0.049 A 
ATOM     37  N   UNL A   1      40.163  28.756  29.931  1.00  0.00    -0.248 NA
ATOM     38  C   UNL A   1      38.899  28.776  27.967  1.00  0.00     0.031 C 
ATOM     39  C   UNL A   1      37.278  31.657  31.746  1.00  0.00     0.029 A 
ATOM     40  N   UNL A   1      39.154  30.484  32.085  1.00  0.00    -0.354 N 
ATOM     41  C   UNL A   1      40.777  27.953  28.980  1.00  0.00     0.074 A 
ATOM     42  C   UNL A   1      39.942  27.976  27.799  1.00  0.00     0.031 C 
ATOM     43  C   UNL A   1      37.729  31.959  32.976  1.00  0.00     0.029 A 
ATOM     44  C   UNL A   1      38.942  31.187  33.245  1.00  0.00     0.049 A 
ATOM     45  H   UNL A   1      39.924  29.888  31.948  1.00  0.00     0.167 HD
ATOM     46  C   UNL A   1      41.939  27.267  29.080  1.00  0.00     0.037 A 
ATOM     47  C   UNL A   1      39.641  31.192  34.397  1.00  0.00     0.037 A 
ATOM     48  C   UNL A   1      42.767  27.239  30.256  1.00  0.00     0.049 A 
ATOM     49  C   UNL A   1      40.879  30.341  34.514  1.00  0.00     0.074 A 
ATOM     50  C   UNL A   1      43.960  26.568  30.455  1.00  0.00     0.029 A 
ATOM     51  N   UNL A   1      42.484  27.912  31.435  1.00  0.00    -0.354 N 
ATOM     52  N   UNL A   1      41.453  29.586  33.611  1.00  0.00    -0.248 NA
ATOM     53  C   UNL A   1      41.563  30.341  35.816  1.00  0.00     0.031 C 
ATOM     54  C   UNL A   1      44.378  26.800  31.768  1.00  0.00     0.029 A 
ATOM     55  C   UNL A   1      43.470  27.654  32.373  1.00  0.00     0.049 A 
ATOM     56  H   UNL A   1      41.699  28.487  31.583  1.00  0.00     0.167 HD
ATOM     57  C   UNL A   1      42.575  29.042  34.222  1.00  0.00     0.074 A 
ATOM     58  C   UNL A   1      42.609  29.561  35.573  1.00  0.00     0.031 C 
ATOM     59  C   UNL A   1      43.493  28.185  33.711  1.00  0.00     0.037 A 
BRANCH  46  60
ATOM     60  C   UNL A   1      42.391  26.481  27.886  1.00  0.00     0.064 A 
ATOM     61  C   UNL A   1      41.893  25.195  27.628  1.00  0.00     0.173 A 
ATOM     62  C   UNL A   1      43.272  27.046  26.953  1.00  0.00     0.173 A 
ATOM     63  F   UNL A   1      41.058  24.608  28.499  1.00  0.00    -0.203 F 
ATOM     64  C   UNL A   1      42.270  24.499  26.483  1.00  0.00     0.198 A 
ATOM     65  C   UNL A   1      43.628  26.357  25.797  1.00  0.00     0.198 A 
ATOM     66  F   UNL A   1      43.772  28.275  27.153  1.00  0.00    -0.203 F 
ATOM     67  F   UNL A   1      41.804  23.261  26.269  1.00  0.00    -0.200 F 
ATOM     68  C   UNL A   1      43.129  25.085  25.564  1.00  0.00     0.200 A 
ATOM     69  F   UNL A   1      44.449  26.927  24.904  1.00  0.00    -0.200 F 
ATOM     70  F   UNL A   1      43.477  24.420  24.453  1.00  0.00    -0.200 F 
ENDBRANCH  46  60
BRANCH  47  71
ATOM     71  C   UNL A   1      39.189  32.032  35.535  1.00  0.00     0.064 A 
ATOM     72  C   UNL A   1      39.582  33.373  35.643  1.00  0.00     0.173 A 
ATOM     73  C   UNL A   1      38.364  31.510  36.543  1.00  0.00     0.173 A 
ATOM     74  F   UNL A   1      40.393  33.908  34.719  1.00  0.00    -0.203 F 
ATOM     75  C   UNL A   1      39.176  34.158  36.721  1.00  0.00     0.198 A 
ATOM     76  C   UNL A   1      37.938  32.303  37.606  1.00  0.00     0.198 A 
ATOM     77  F   UNL A   1      37.965  30.232  36.489  1.00  0.00    -0.203 F 
ATOM     78  F   UNL A   1      39.599  35.425  36.820  1.00  0.00    -0.200 F 
ATOM     79  C   UNL A   1      38.349  33.625  37.698  1.00  0.00     0.200 A 
ATOM     80  F   UNL A   1      37.132  31.787  38.544  1.00  0.00    -0.200 F 
ATOM     81  F   UNL A   1      37.956  34.381  38.732  1.00  0.00    -0.200 F 
ENDBRANCH  47  71
BRANCH  59  82
ATOM     82  C   UNL A   1      44.629  27.768  34.599  1.00  0.00     0.064 A 
ATOM     83  C   UNL A   1      44.560  26.600  35.371  1.00  0.00     0.173 A 
ATOM     84  C   UNL A   1      45.826  28.499  34.613  1.00  0.00     0.173 A 
ATOM     85  F   UNL A   1      43.433  25.875  35.400  1.00  0.00    -0.203 F 
ATOM     86  C   UNL A   1      45.647  26.185  36.137  1.00  0.00     0.198 A 
ATOM     87  C   UNL A   1      46.920  28.066  35.357  1.00  0.00     0.198 A 
ATOM     88  F   UNL A   1      45.945  29.617  33.882  1.00  0.00    -0.203 F 
ATOM     89  F   UNL A   1      45.551  25.082  36.891  1.00  0.00    -0.200 F 
ATOM     90  C   UNL A   1      46.828  26.913  36.121  1.00  0.00     0.200 A 
ATOM     91  F   UNL A   1      48.065  28.762  35.329  1.00  0.00    -0.200 F 
ATOM     92  F   UNL A   1      47.879  26.502  36.845  1.00  0.00    -0.200 F 
ENDBRANCH  59  82
ENDBRANCH  33  34
ENDBRANCH  26  28
ENDBRANCH  25  26
ENDBRANCH  24  25
ENDBRANCH   1  24
TORSDOF 15
ENDMDL
MODEL 3
REMARK VINA RESULT:     -12.0      2.485      4.022
REMARK SMILES Cc1cc(Cl)c2c(c1)C=C(C(=O)OCCOCCOC(=O)c1ccc(-c3c4nc(c(-c5c(F)c(F)c(F)c(F)c5F)c5ccc([nH]5)c(-c5c(F)c(F)c(F)c(F)c5F)c5nc(c(-c6c(F)c(F)c(F)c(F)c6F)c6ccc3[nH]6)C=C5)C=C4)cc1)[C@@H](C(F)(F)F)O2
REMARK SMILES IDX 17 1 16 2 15 3 14 4 13 5 11 6 12 7 10 8 1 9 2 10 3 11 8 12
REMARK SMILES IDX 4 13 7 14 5 15 6 16 9 17 90 18 85 19 86 20 87 21 88 22 89 23
REMARK SMILES IDX 18 24 19 25 20 26 21 27 22 28 23 29 84 30 24 31 83 32 25 33
REMARK SMILES IDX 26 34 27 35 77 36 28 37 82 38 76 39 78 40 29 41 81 42 75 43
REMARK SMILES IDX 74 44 30 46 62 47 42 48 61 49 43 50 46 51 60 52 79 53 44 54
REMARK SMILES IDX 45 55 59 57 80 58 47 59 31 60 32 61 40 62 33 63 34 64 38 65
REMARK SMILES IDX 41 66 35 67 36 68 39 69 37 70 63 71 64 72 72 73 65 74 66 75
REMARK SMILES IDX 70 76 73 77 67 78 68 79 71 80 69 81 48 82 49 83 57 84 50 85
REMARK SMILES IDX 51 86 55 87 58 88 52 89 53 90 56 91 54 92
REMARK H PARENT 78 45 46 56
REMARK Flexibility Score: inf
ROOT
ATOM      1  C   UNL A   1      31.995  29.464  25.063  1.00  0.00     0.202 C 
ENDROOT
BRANCH   1   2
ATOM      2  O   UNL A   1      30.966  29.220  24.101  1.00  0.00    -0.374 OA
BRANCH   2   3
ATOM      3  C   UNL A   1      30.695  27.864  23.752  1.00  0.00     0.202 C 
BRANCH   3   4
ATOM      4  C   UNL A   1      31.227  27.398  22.395  1.00  0.00     0.261 C 
BRANCH   4   5
ATOM      5  O   UNL A   1      31.469  25.982  22.387  1.00  0.00    -0.460 OA
BRANCH   5   6
ATOM      6  C   UNL A   1      32.657  25.617  21.851  1.00  0.00     0.338 C 
ATOM      7  O   UNL A   1      33.246  26.168  20.933  1.00  0.00    -0.246 OA
BRANCH   6   8
ATOM      8  C   UNL A   1      33.233  24.499  22.621  1.00  0.00     0.087 C 
ATOM      9  C   UNL A   1      32.153  18.547  23.767  1.00  0.00     0.044 C 
ATOM     10  C   UNL A   1      32.868  19.861  23.876  1.00  0.00    -0.049 A 
ATOM     11  C   UNL A   1      33.863  20.049  24.842  1.00  0.00     0.028 A 
ATOM     12  C   UNL A   1      32.508  20.937  23.059  1.00  0.00     0.015 A 
ATOM     13  C   UNL A   1      34.508  21.285  24.964  1.00  0.00     0.084 A 
ATOM     14  C   UNL A   1      33.135  22.183  23.197  1.00  0.00     0.019 A 
ATOM     15  Cl  UNL A   1      35.729  21.453  26.175  1.00  0.00    -0.080 Cl
ATOM     16  C   UNL A   1      34.150  22.360  24.140  1.00  0.00     0.146 A 
ATOM     17  C   UNL A   1      32.684  23.301  22.391  1.00  0.00     0.027 C 
ATOM     18  O   UNL A   1      34.822  23.544  24.287  1.00  0.00    -0.474 OA
ATOM     19  C   UNL A   1      34.341  24.736  23.607  1.00  0.00     0.316 C 
BRANCH  19  20
ATOM     20  C   UNL A   1      33.973  25.788  24.664  1.00  0.00     0.430 C 
ATOM     21  F   UNL A   1      32.707  25.615  25.113  1.00  0.00    -0.167 F 
ATOM     22  F   UNL A   1      34.779  25.709  25.750  1.00  0.00    -0.167 F 
ATOM     23  F   UNL A   1      34.067  27.047  24.182  1.00  0.00    -0.167 F 
ENDBRANCH  19  20
ENDBRANCH   6   8
ENDBRANCH   5   6
ENDBRANCH   4   5
ENDBRANCH   3   4
ENDBRANCH   2   3
ENDBRANCH   1   2
BRANCH   1  24
ATOM     24  C   UNL A   1      31.761  30.623  26.038  1.00  0.00     0.261 C 
BRANCH  24  25
ATOM     25  O   UNL A   1      32.618  30.536  27.192  1.00  0.00    -0.460 OA
BRANCH  25  26
ATOM     26  C   UNL A   1      33.394  31.623  27.409  1.00  0.00     0.338 C 
ATOM     27  O   UNL A   1      33.043  32.793  27.439  1.00  0.00    -0.246 OA
BRANCH  26  28
ATOM     28  C   UNL A   1      34.750  31.204  27.800  1.00  0.00     0.060 A 
ATOM     29  C   UNL A   1      34.956  29.844  28.069  1.00  0.00     0.016 A 
ATOM     30  C   UNL A   1      35.776  32.131  27.996  1.00  0.00     0.016 A 
ATOM     31  C   UNL A   1      36.178  29.412  28.580  1.00  0.00     0.010 A 
ATOM     32  C   UNL A   1      36.998  31.697  28.522  1.00  0.00     0.010 A 
ATOM     33  C   UNL A   1      37.190  30.342  28.849  1.00  0.00    -0.014 A 
BRANCH  33  34
ATOM     34  C   UNL A   1      38.382  29.913  29.618  1.00  0.00     0.031 A 
ATOM     35  C   UNL A   1      38.586  30.456  31.006  1.00  0.00     0.074 A 
ATOM     36  C   UNL A   1      39.240  29.011  29.112  1.00  0.00     0.049 A 
ATOM     37  N   UNL A   1      39.554  30.224  31.855  1.00  0.00    -0.248 NA
ATOM     38  C   UNL A   1      37.555  31.380  31.508  1.00  0.00     0.031 C 
ATOM     39  C   UNL A   1      39.117  28.372  27.804  1.00  0.00     0.029 A 
ATOM     40  N   UNL A   1      40.385  28.472  29.645  1.00  0.00    -0.354 N 
ATOM     41  C   UNL A   1      39.246  30.962  32.989  1.00  0.00     0.074 A 
ATOM     42  C   UNL A   1      38.019  31.678  32.712  1.00  0.00     0.031 C 
ATOM     43  C   UNL A   1      40.145  27.524  27.634  1.00  0.00     0.029 A 
ATOM     44  C   UNL A   1      41.015  27.584  28.809  1.00  0.00     0.049 A 
ATOM     45  H   UNL A   1      40.721  28.701  30.541  1.00  0.00     0.167 HD
ATOM     46  C   UNL A   1      39.919  31.025  34.162  1.00  0.00     0.037 A 
ATOM     47  C   UNL A   1      42.170  26.909  28.971  1.00  0.00     0.037 A 
ATOM     48  C   UNL A   1      41.140  30.317  34.436  1.00  0.00     0.049 A 
ATOM     49  C   UNL A   1      42.951  27.076  30.249  1.00  0.00     0.074 A 
ATOM     50  C   UNL A   1      41.899  30.323  35.593  1.00  0.00     0.029 A 
ATOM     51  N   UNL A   1      41.783  29.477  33.539  1.00  0.00    -0.354 N 
ATOM     52  N   UNL A   1      42.652  27.773  31.317  1.00  0.00    -0.248 NA
ATOM     53  C   UNL A   1      44.234  26.363  30.340  1.00  0.00     0.031 C 
ATOM     54  C   UNL A   1      43.023  29.520  35.382  1.00  0.00     0.029 A 
ATOM     55  C   UNL A   1      42.941  28.977  34.109  1.00  0.00     0.049 A 
ATOM     56  H   UNL A   1      41.463  29.268  32.632  1.00  0.00     0.167 HD
ATOM     57  C   UNL A   1      43.691  27.566  32.214  1.00  0.00     0.074 A 
ATOM     58  C   UNL A   1      44.626  26.668  31.570  1.00  0.00     0.031 C 
ATOM     59  C   UNL A   1      43.857  28.077  33.459  1.00  0.00     0.037 A 
BRANCH  46  60
ATOM     60  C   UNL A   1      39.354  31.895  35.244  1.00  0.00     0.064 A 
ATOM     61  C   UNL A   1      38.526  31.367  36.247  1.00  0.00     0.173 A 
ATOM     62  C   UNL A   1      39.701  33.251  35.323  1.00  0.00     0.173 A 
ATOM     63  F   UNL A   1      38.155  30.078  36.206  1.00  0.00    -0.203 F 
ATOM     64  C   UNL A   1      38.058  32.170  37.283  1.00  0.00     0.198 A 
ATOM     65  C   UNL A   1      39.251  34.045  36.374  1.00  0.00     0.198 A 
ATOM     66  F   UNL A   1      40.494  33.800  34.391  1.00  0.00    -0.203 F 
ATOM     67  F   UNL A   1      37.247  31.653  38.215  1.00  0.00    -0.200 F 
ATOM     68  C   UNL A   1      38.429  33.505  37.351  1.00  0.00     0.200 A 
ATOM     69  F   UNL A   1      39.619  35.332  36.445  1.00  0.00    -0.200 F 
ATOM     70  F   UNL A   1      37.992  34.272  38.359  1.00  0.00    -0.200 F 
ENDBRANCH  46  60
BRANCH  47  71
ATOM     71  C   UNL A   1      42.662  26.012  27.894  1.00  0.00     0.064 A 
ATOM     72  C   UNL A   1      42.250  24.674  27.826  1.00  0.00     0.173 A 
ATOM     73  C   UNL A   1      43.561  26.469  26.919  1.00  0.00     0.173 A 
ATOM     74  F   UNL A   1      41.414  24.184  28.753  1.00  0.00    -0.203 F 
ATOM     75  C   UNL A   1      42.726  23.824  26.829  1.00  0.00     0.198 A 
ATOM     76  C   UNL A   1      44.016  25.625  25.908  1.00  0.00     0.198 A 
ATOM     77  F   UNL A   1      43.990  27.738  26.943  1.00  0.00    -0.203 F 
ATOM     78  F   UNL A   1      42.346  22.539  26.811  1.00  0.00    -0.200 F 
ATOM     79  C   UNL A   1      43.602  24.302  25.867  1.00  0.00     0.200 A 
ATOM     80  F   UNL A   1      44.857  26.092  24.975  1.00  0.00    -0.200 F 
ATOM     81  F   UNL A   1      44.057  23.485  24.907  1.00  0.00    -0.200 F 
ENDBRANCH  47  71
BRANCH  59  82
ATOM     82  C   UNL A   1      45.081  27.665  34.224  1.00  0.00     0.064 A 
ATOM     83  C   UNL A   1      45.093  26.508  35.014  1.00  0.00     0.173 A 
ATOM     84  C   UNL A   1      46.274  28.392  34.100  1.00  0.00     0.173 A 
ATOM     85  F   UNL A   1      43.973  25.787  35.173  1.00  0.00    -0.203 F 
ATOM     86  C   UNL A   1      46.255  26.097  35.663  1.00  0.00     0.198 A 
ATOM     87  C   UNL A   1      47.442  27.963  34.727  1.00  0.00     0.198 A 
ATOM     88  F   UNL A   1      46.317  29.501  33.347  1.00  0.00    -0.203 F 
ATOM     89  F   UNL A   1      46.237  25.004  36.437  1.00  0.00    -0.200 F 
ATOM     90  C   UNL A   1      47.430  26.820  35.511  1.00  0.00     0.200 A 
ATOM     91  F   UNL A   1      48.579  28.653  34.567  1.00  0.00    -0.200 F 
ATOM     92  F   UNL A   1      48.551  26.413  36.122  1.00  0.00    -0.200 F 
ENDBRANCH  59  82
ENDBRANCH  33  34
ENDBRANCH  26  28
ENDBRANCH  25  26
ENDBRANCH  24  25
ENDBRANCH   1  24
TORSDOF 15
ENDMDL
