MODEL 1
REMARK VINA RESULT:     -11.0      0.000      0.000
REMARK SMILES C[C@@H]1SC[C@H](C(=O)OCCOCCOC(=O)c2ccc(-c3c4nc(c(-c5c(F)c(F)c(F)c(F)c5F)c5ccc([nH]5)c(-c5c(F)c(F)c(F)c(F)c5F)c5nc(c(-c6c(F)c(F)c(F)c(F)c6F)c6ccc3[nH]6)C=C5)C=C4)cc2)N1C(=O)N(C)[C@@H](C)Cc1cccs1
REMARK SMILES IDX 9 1 8 2 6 3 7 4 5 5 1 6 2 7 3 8 80 9 4 10 81 11 82 12 83 13
REMARK SMILES IDX 84 14 85 15 86 16 87 17 88 18 89 19 92 20 90 21 91 22 10 23
REMARK SMILES IDX 11 24 12 25 13 26 14 27 15 28 16 29 17 30 18 31 79 32 19 33
REMARK SMILES IDX 78 34 20 35 21 36 22 37 72 38 23 39 77 40 71 41 73 42 24 43
REMARK SMILES IDX 76 44 70 45 69 46 25 48 57 49 37 50 56 51 38 52 41 53 55 54
REMARK SMILES IDX 74 55 39 56 40 57 54 59 75 60 42 61 26 62 27 63 35 64 28 65
REMARK SMILES IDX 29 66 33 67 36 68 30 69 31 70 34 71 32 72 58 73 59 74 67 75
REMARK SMILES IDX 60 76 61 77 65 78 68 79 62 80 63 81 66 82 64 83 43 84 44 85
REMARK SMILES IDX 52 86 45 87 46 88 50 89 53 90 47 91 48 92 51 93 49 94
REMARK H PARENT 73 47 41 58
REMARK Flexibility Score: inf
ROOT
ATOM      1  C   UNL A   1      33.451  28.713  25.967  1.00  0.00     0.261 C 
ENDROOT
BRANCH   1   2
ATOM      2  O   UNL A   1      33.514  27.398  25.385  1.00  0.00    -0.462 OA
BRANCH   2   3
ATOM      3  C   UNL A   1      33.732  27.383  24.039  1.00  0.00     0.329 C 
ATOM      4  O   UNL A   1      34.065  28.361  23.374  1.00  0.00    -0.250 OA
BRANCH   3   5
ATOM      5  C   UNL A   1      33.629  25.982  23.414  1.00  0.00     0.208 C 
ATOM      6  C   UNL A   1      31.460  23.015  23.368  1.00  0.00     0.043 C 
ATOM      7  C   UNL A   1      32.505  23.930  22.749  1.00  0.00     0.143 C 
ATOM      8  S   UNL A   1      34.118  23.430  23.477  1.00  0.00    -0.134 SA
ATOM      9  N   UNL A   1      32.339  25.361  23.017  1.00  0.00    -0.298 N 
ATOM     10  C   UNL A   1      34.345  24.997  24.326  1.00  0.00     0.109 C 
BRANCH   9  11
ATOM     11  C   UNL A   1      31.322  26.229  22.719  1.00  0.00     0.321 C 
ATOM     12  O   UNL A   1      31.250  26.644  21.556  1.00  0.00    -0.248 OA
BRANCH  11  13
ATOM     13  N   UNL A   1      30.373  26.657  23.615  1.00  0.00    -0.325 N 
ATOM     14  C   UNL A   1      29.898  26.010  24.830  1.00  0.00     0.149 C 
BRANCH  13  15
ATOM     15  C   UNL A   1      29.553  27.846  23.220  1.00  0.00     0.088 C 
ATOM     16  C   UNL A   1      28.053  27.664  23.503  1.00  0.00     0.031 C 
BRANCH  15  17
ATOM     17  C   UNL A   1      30.076  29.183  23.819  1.00  0.00     0.071 C 
BRANCH  17  18
ATOM     18  C   UNL A   1      29.390  30.389  23.231  1.00  0.00     0.007 A 
ATOM     19  C   UNL A   1      28.999  31.550  23.874  1.00  0.00     0.015 A 
ATOM     20  S   UNL A   1      28.995  30.436  21.565  1.00  0.00    -0.149 S 
ATOM     21  C   UNL A   1      28.419  32.497  22.985  1.00  0.00     0.012 A 
ATOM     22  C   UNL A   1      28.339  32.009  21.700  1.00  0.00     0.065 A 
ENDBRANCH  17  18
ENDBRANCH  15  17
ENDBRANCH  13  15
ENDBRANCH  11  13
ENDBRANCH   9  11
ENDBRANCH   3   5
ENDBRANCH   2   3
ENDBRANCH   1   2
BRANCH   1  23
ATOM     23  C   UNL A   1      32.534  28.774  27.193  1.00  0.00     0.202 C 
BRANCH  23  24
ATOM     24  O   UNL A   1      31.576  29.829  27.233  1.00  0.00    -0.374 OA
BRANCH  24  25
ATOM     25  C   UNL A   1      31.816  30.969  26.413  1.00  0.00     0.202 C 
BRANCH  25  26
ATOM     26  C   UNL A   1      31.738  32.335  27.104  1.00  0.00     0.261 C 
BRANCH  26  27
ATOM     27  O   UNL A   1      32.947  33.096  26.941  1.00  0.00    -0.460 OA
BRANCH  27  28
ATOM     28  C   UNL A   1      33.491  33.528  28.105  1.00  0.00     0.338 C 
ATOM     29  O   UNL A   1      32.981  34.265  28.931  1.00  0.00    -0.246 OA
BRANCH  28  30
ATOM     30  C   UNL A   1      34.782  32.861  28.357  1.00  0.00     0.060 A 
ATOM     31  C   UNL A   1      34.734  31.522  28.764  1.00  0.00     0.016 A 
ATOM     32  C   UNL A   1      36.000  33.546  28.313  1.00  0.00     0.016 A 
ATOM     33  C   UNL A   1      35.891  30.884  29.199  1.00  0.00     0.010 A 
ATOM     34  C   UNL A   1      37.163  32.903  28.756  1.00  0.00     0.010 A 
ATOM     35  C   UNL A   1      37.104  31.585  29.244  1.00  0.00    -0.014 A 
BRANCH  35  36
ATOM     36  C   UNL A   1      38.252  30.970  29.955  1.00  0.00     0.031 A 
ATOM     37  C   UNL A   1      38.482  31.308  31.403  1.00  0.00     0.074 A 
ATOM     38  C   UNL A   1      39.025  30.055  29.347  1.00  0.00     0.049 A 
ATOM     39  N   UNL A   1      39.364  30.823  32.241  1.00  0.00    -0.248 NA
ATOM     40  C   UNL A   1      37.598  32.329  31.987  1.00  0.00     0.031 C 
ATOM     41  C   UNL A   1      38.885  29.621  27.959  1.00  0.00     0.029 A 
ATOM     42  N   UNL A   1      40.077  29.316  29.828  1.00  0.00    -0.354 N 
ATOM     43  C   UNL A   1      39.135  31.471  33.448  1.00  0.00     0.074 A 
ATOM     44  C   UNL A   1      38.059  32.412  33.226  1.00  0.00     0.031 C 
ATOM     45  C   UNL A   1      39.813  28.684  27.699  1.00  0.00     0.029 A 
ATOM     46  C   UNL A   1      40.621  28.464  28.899  1.00  0.00     0.049 A 
ATOM     47  H   UNL A   1      40.410  29.389  30.751  1.00  0.00     0.167 HD
ATOM     48  C   UNL A   1      39.755  31.287  34.639  1.00  0.00     0.037 A 
ATOM     49  C   UNL A   1      41.652  27.605  29.006  1.00  0.00     0.037 A 
ATOM     50  C   UNL A   1      40.824  30.350  34.863  1.00  0.00     0.049 A 
ATOM     51  C   UNL A   1      42.358  27.456  30.329  1.00  0.00     0.074 A 
ATOM     52  C   UNL A   1      41.501  30.077  36.039  1.00  0.00     0.029 A 
ATOM     53  N   UNL A   1      41.375  29.535  33.885  1.00  0.00    -0.354 N 
ATOM     54  N   UNL A   1      42.109  28.044  31.473  1.00  0.00    -0.248 NA
ATOM     55  C   UNL A   1      43.484  26.512  30.374  1.00  0.00     0.031 C 
ATOM     56  C   UNL A   1      42.493  29.129  35.762  1.00  0.00     0.029 A 
ATOM     57  C   UNL A   1      42.402  28.777  34.426  1.00  0.00     0.049 A 
ATOM     58  H   UNL A   1      41.081  29.500  32.947  1.00  0.00     0.167 HD
ATOM     59  C   UNL A   1      43.027  27.526  32.378  1.00  0.00     0.074 A 
ATOM     60  C   UNL A   1      43.828  26.563  31.653  1.00  0.00     0.031 C 
ATOM     61  C   UNL A   1      43.191  27.822  33.692  1.00  0.00     0.037 A 
BRANCH  48  62
ATOM     62  C   UNL A   1      39.300  32.132  35.792  1.00  0.00     0.064 A 
ATOM     63  C   UNL A   1      38.358  31.665  36.719  1.00  0.00     0.173 A 
ATOM     64  C   UNL A   1      39.839  33.413  35.989  1.00  0.00     0.173 A 
ATOM     65  F   UNL A   1      37.804  30.452  36.566  1.00  0.00    -0.203 F 
ATOM     66  C   UNL A   1      37.955  32.457  37.791  1.00  0.00     0.198 A 
ATOM     67  C   UNL A   1      39.452  34.192  37.076  1.00  0.00     0.198 A 
ATOM     68  F   UNL A   1      40.745  33.905  35.133  1.00  0.00    -0.203 F 
ATOM     69  F   UNL A   1      37.023  32.007  38.643  1.00  0.00    -0.200 F 
ATOM     70  C   UNL A   1      38.507  33.716  37.973  1.00  0.00     0.200 A 
ATOM     71  F   UNL A   1      39.994  35.405  37.256  1.00  0.00    -0.200 F 
ATOM     72  F   UNL A   1      38.123  34.475  39.008  1.00  0.00    -0.200 F 
ENDBRANCH  48  62
BRANCH  49  73
ATOM     73  C   UNL A   1      42.078  26.808  27.828  1.00  0.00     0.064 A 
ATOM     74  C   UNL A   1      43.052  27.287  26.942  1.00  0.00     0.173 A 
ATOM     75  C   UNL A   1      41.502  25.558  27.554  1.00  0.00     0.173 A 
ATOM     76  F   UNL A   1      43.611  28.488  27.147  1.00  0.00    -0.203 F 
ATOM     77  C   UNL A   1      43.424  26.552  25.817  1.00  0.00     0.198 A 
ATOM     78  C   UNL A   1      41.894  24.814  26.444  1.00  0.00     0.198 A 
ATOM     79  F   UNL A   1      40.563  25.059  28.370  1.00  0.00    -0.203 F 
ATOM     80  F   UNL A   1      44.326  27.053  24.961  1.00  0.00    -0.200 F 
ATOM     81  C   UNL A   1      42.849  25.314  25.573  1.00  0.00     0.200 A 
ATOM     82  F   UNL A   1      41.341  23.614  26.216  1.00  0.00    -0.200 F 
ATOM     83  F   UNL A   1      43.207  24.609  24.492  1.00  0.00    -0.200 F 
ENDBRANCH  49  73
BRANCH  61  84
ATOM     84  C   UNL A   1      44.262  27.077  34.434  1.00  0.00     0.064 A 
ATOM     85  C   UNL A   1      45.562  27.589  34.556  1.00  0.00     0.173 A 
ATOM     86  C   UNL A   1      43.978  25.849  35.051  1.00  0.00     0.173 A 
ATOM     87  F   UNL A   1      45.887  28.752  33.973  1.00  0.00    -0.203 F 
ATOM     88  C   UNL A   1      46.547  26.884  35.244  1.00  0.00     0.198 A 
ATOM     89  C   UNL A   1      44.957  25.161  35.762  1.00  0.00     0.198 A 
ATOM     90  F   UNL A   1      42.748  25.319  34.969  1.00  0.00    -0.203 F 
ATOM     91  F   UNL A   1      47.796  27.368  35.305  1.00  0.00    -0.200 F 
ATOM     92  C   UNL A   1      46.242  25.674  35.850  1.00  0.00     0.200 A 
ATOM     93  F   UNL A   1      44.659  23.998  36.357  1.00  0.00    -0.200 F 
ATOM     94  F   UNL A   1      47.192  24.998  36.513  1.00  0.00    -0.200 F 
ENDBRANCH  61  84
ENDBRANCH  35  36
ENDBRANCH  28  30
ENDBRANCH  27  28
ENDBRANCH  26  27
ENDBRANCH  25  26
ENDBRANCH  24  25
ENDBRANCH  23  24
ENDBRANCH   1  23
TORSDOF 19
ENDMDL
MODEL 2
REMARK VINA RESULT:     -10.6      1.445      4.029
REMARK SMILES C[C@@H]1SC[C@H](C(=O)OCCOCCOC(=O)c2ccc(-c3c4nc(c(-c5c(F)c(F)c(F)c(F)c5F)c5ccc([nH]5)c(-c5c(F)c(F)c(F)c(F)c5F)c5nc(c(-c6c(F)c(F)c(F)c(F)c6F)c6ccc3[nH]6)C=C5)C=C4)cc2)N1C(=O)N(C)[C@@H](C)Cc1cccs1
REMARK SMILES IDX 9 1 8 2 6 3 7 4 5 5 1 6 2 7 3 8 80 9 4 10 81 11 82 12 83 13
REMARK SMILES IDX 84 14 85 15 86 16 87 17 88 18 89 19 92 20 90 21 91 22 10 23
REMARK SMILES IDX 11 24 12 25 13 26 14 27 15 28 16 29 17 30 18 31 79 32 19 33
REMARK SMILES IDX 78 34 20 35 21 36 22 37 72 38 23 39 77 40 71 41 73 42 24 43
REMARK SMILES IDX 76 44 70 45 69 46 25 48 57 49 37 50 56 51 38 52 41 53 55 54
REMARK SMILES IDX 74 55 39 56 40 57 54 59 75 60 42 61 26 62 27 63 35 64 28 65
REMARK SMILES IDX 29 66 33 67 36 68 30 69 31 70 34 71 32 72 58 73 59 74 67 75
REMARK SMILES IDX 60 76 61 77 65 78 68 79 62 80 63 81 66 82 64 83 43 84 44 85
REMARK SMILES IDX 52 86 45 87 46 88 50 89 53 90 47 91 48 92 51 93 49 94
REMARK H PARENT 73 47 41 58
REMARK Flexibility Score: inf
ROOT
ATOM      1  C   UNL A   1      32.202  27.396  27.261  1.00  0.00     0.261 C 
ENDROOT
BRANCH   1   2
ATOM      2  O   UNL A   1      30.873  27.174  26.754  1.00  0.00    -0.462 OA
BRANCH   2   3
ATOM      3  C   UNL A   1      30.716  26.010  26.062  1.00  0.00     0.329 C 
ATOM      4  O   UNL A   1      30.372  24.941  26.561  1.00  0.00    -0.250 OA
BRANCH   3   5
ATOM      5  C   UNL A   1      30.910  26.165  24.545  1.00  0.00     0.208 C 
ATOM      6  C   UNL A   1      33.424  27.176  22.062  1.00  0.00     0.043 C 
ATOM      7  C   UNL A   1      32.183  26.407  22.486  1.00  0.00     0.143 C 
ATOM      8  S   UNL A   1      30.783  27.595  22.378  1.00  0.00    -0.134 SA
ATOM      9  N   UNL A   1      32.194  25.882  23.854  1.00  0.00    -0.298 N 
ATOM     10  C   UNL A   1      30.481  27.570  24.148  1.00  0.00     0.109 C 
BRANCH   9  11
ATOM     11  C   UNL A   1      33.027  24.991  24.479  1.00  0.00     0.321 C 
ATOM     12  O   UNL A   1      33.891  25.452  25.234  1.00  0.00    -0.248 OA
BRANCH  11  13
ATOM     13  N   UNL A   1      32.958  23.627  24.337  1.00  0.00    -0.325 N 
ATOM     14  C   UNL A   1      32.168  22.838  23.402  1.00  0.00     0.149 C 
BRANCH  13  15
ATOM     15  C   UNL A   1      33.617  22.800  25.397  1.00  0.00     0.088 C 
ATOM     16  C   UNL A   1      32.651  22.371  26.513  1.00  0.00     0.031 C 
BRANCH  15  17
ATOM     17  C   UNL A   1      34.396  21.577  24.832  1.00  0.00     0.071 C 
BRANCH  17  18
ATOM     18  C   UNL A   1      35.873  21.645  25.123  1.00  0.00     0.007 A 
ATOM     19  C   UNL A   1      36.821  20.650  24.972  1.00  0.00     0.015 A 
ATOM     20  S   UNL A   1      36.573  23.089  25.722  1.00  0.00    -0.149 S 
ATOM     21  C   UNL A   1      38.132  21.093  25.303  1.00  0.00     0.012 A 
ATOM     22  C   UNL A   1      38.136  22.397  25.744  1.00  0.00     0.065 A 
ENDBRANCH  17  18
ENDBRANCH  15  17
ENDBRANCH  13  15
ENDBRANCH  11  13
ENDBRANCH   9  11
ENDBRANCH   3   5
ENDBRANCH   2   3
ENDBRANCH   1   2
BRANCH   1  23
ATOM     23  C   UNL A   1      32.691  28.829  27.031  1.00  0.00     0.202 C 
BRANCH  23  24
ATOM     24  O   UNL A   1      31.758  29.879  27.277  1.00  0.00    -0.374 OA
BRANCH  24  25
ATOM     25  C   UNL A   1      31.786  31.004  26.403  1.00  0.00     0.202 C 
BRANCH  25  26
ATOM     26  C   UNL A   1      31.704  32.384  27.065  1.00  0.00     0.261 C 
BRANCH  26  27
ATOM     27  O   UNL A   1      32.932  33.123  26.933  1.00  0.00    -0.460 OA
BRANCH  27  28
ATOM     28  C   UNL A   1      33.460  33.533  28.112  1.00  0.00     0.338 C 
ATOM     29  O   UNL A   1      32.931  34.239  28.954  1.00  0.00    -0.246 OA
BRANCH  28  30
ATOM     30  C   UNL A   1      34.761  32.883  28.356  1.00  0.00     0.060 A 
ATOM     31  C   UNL A   1      34.733  31.536  28.739  1.00  0.00     0.016 A 
ATOM     32  C   UNL A   1      35.967  33.587  28.327  1.00  0.00     0.016 A 
ATOM     33  C   UNL A   1      35.899  30.909  29.166  1.00  0.00     0.010 A 
ATOM     34  C   UNL A   1      37.139  32.955  28.762  1.00  0.00     0.010 A 
ATOM     35  C   UNL A   1      37.101  31.629  29.227  1.00  0.00    -0.014 A 
BRANCH  35  36
ATOM     36  C   UNL A   1      38.257  31.019  29.930  1.00  0.00     0.031 A 
ATOM     37  C   UNL A   1      38.496  31.360  31.376  1.00  0.00     0.074 A 
ATOM     38  C   UNL A   1      39.029  30.107  29.318  1.00  0.00     0.049 A 
ATOM     39  N   UNL A   1      39.386  30.880  32.208  1.00  0.00    -0.248 NA
ATOM     40  C   UNL A   1      37.611  32.378  31.966  1.00  0.00     0.031 C 
ATOM     41  C   UNL A   1      38.880  29.671  27.931  1.00  0.00     0.029 A 
ATOM     42  N   UNL A   1      40.088  29.373  29.792  1.00  0.00    -0.354 N 
ATOM     43  C   UNL A   1      39.163  31.529  33.416  1.00  0.00     0.074 A 
ATOM     44  C   UNL A   1      38.081  32.465  33.201  1.00  0.00     0.031 C 
ATOM     45  C   UNL A   1      39.811  28.737  27.666  1.00  0.00     0.029 A 
ATOM     46  C   UNL A   1      40.629  28.523  28.859  1.00  0.00     0.049 A 
ATOM     47  H   UNL A   1      40.427  29.449  30.713  1.00  0.00     0.167 HD
ATOM     48  C   UNL A   1      39.793  31.349  34.602  1.00  0.00     0.037 A 
ATOM     49  C   UNL A   1      41.664  27.669  28.961  1.00  0.00     0.037 A 
ATOM     50  C   UNL A   1      40.867  30.417  34.820  1.00  0.00     0.049 A 
ATOM     51  C   UNL A   1      42.380  27.524  30.278  1.00  0.00     0.074 A 
ATOM     52  C   UNL A   1      41.555  30.149  35.991  1.00  0.00     0.029 A 
ATOM     53  N   UNL A   1      41.415  29.604  33.839  1.00  0.00    -0.354 N 
ATOM     54  N   UNL A   1      42.137  28.113  31.423  1.00  0.00    -0.248 NA
ATOM     55  C   UNL A   1      43.511  26.585  30.317  1.00  0.00     0.031 C 
ATOM     56  C   UNL A   1      42.549  29.204  35.708  1.00  0.00     0.029 A 
ATOM     57  C   UNL A   1      42.449  28.850  34.373  1.00  0.00     0.049 A 
ATOM     58  H   UNL A   1      41.114  29.566  32.903  1.00  0.00     0.167 HD
ATOM     59  C   UNL A   1      43.064  27.599  32.322  1.00  0.00     0.074 A 
ATOM     60  C   UNL A   1      43.864  26.640  31.593  1.00  0.00     0.031 C 
ATOM     61  C   UNL A   1      43.237  27.898  33.634  1.00  0.00     0.037 A 
BRANCH  48  62
ATOM     62  C   UNL A   1      39.343  32.194  35.757  1.00  0.00     0.064 A 
ATOM     63  C   UNL A   1      39.835  33.492  35.954  1.00  0.00     0.173 A 
ATOM     64  C   UNL A   1      38.383  31.710  36.660  1.00  0.00     0.173 A 
ATOM     65  F   UNL A   1      40.764  33.995  35.126  1.00  0.00    -0.203 F 
ATOM     66  C   UNL A   1      39.399  34.269  37.024  1.00  0.00     0.198 A 
ATOM     67  C   UNL A   1      37.931  32.499  37.714  1.00  0.00     0.198 A 
ATOM     68  F   UNL A   1      37.879  30.477  36.514  1.00  0.00    -0.203 F 
ATOM     69  F   UNL A   1      39.912  35.492  37.217  1.00  0.00    -0.200 F 
ATOM     70  C   UNL A   1      38.443  33.775  37.899  1.00  0.00     0.200 A 
ATOM     71  F   UNL A   1      36.999  32.024  38.553  1.00  0.00    -0.200 F 
ATOM     72  F   UNL A   1      38.019  34.525  38.925  1.00  0.00    -0.200 F 
ENDBRANCH  48  62
BRANCH  49  73
ATOM     73  C   UNL A   1      42.085  26.871  27.780  1.00  0.00     0.064 A 
ATOM     74  C   UNL A   1      43.055  27.350  26.890  1.00  0.00     0.173 A 
ATOM     75  C   UNL A   1      41.508  25.622  27.508  1.00  0.00     0.173 A 
ATOM     76  F   UNL A   1      43.615  28.551  27.093  1.00  0.00    -0.203 F 
ATOM     77  C   UNL A   1      43.422  26.616  25.764  1.00  0.00     0.198 A 
ATOM     78  C   UNL A   1      41.894  24.877  26.396  1.00  0.00     0.198 A 
ATOM     79  F   UNL A   1      40.571  25.122  28.328  1.00  0.00    -0.203 F 
ATOM     80  F   UNL A   1      44.320  27.117  24.904  1.00  0.00    -0.200 F 
ATOM     81  C   UNL A   1      42.845  25.378  25.521  1.00  0.00     0.200 A 
ATOM     82  F   UNL A   1      41.341  23.678  26.170  1.00  0.00    -0.200 F 
ATOM     83  F   UNL A   1      43.199  24.674  24.438  1.00  0.00    -0.200 F 
ENDBRANCH  49  73
BRANCH  61  84
ATOM     84  C   UNL A   1      44.317  27.158  34.370  1.00  0.00     0.064 A 
ATOM     85  C   UNL A   1      44.075  25.915  34.972  1.00  0.00     0.173 A 
ATOM     86  C   UNL A   1      45.613  27.688  34.450  1.00  0.00     0.173 A 
ATOM     87  F   UNL A   1      42.848  25.374  34.935  1.00  0.00    -0.203 F 
ATOM     88  C   UNL A   1      45.086  25.243  35.655  1.00  0.00     0.198 A 
ATOM     89  C   UNL A   1      46.628  27.000  35.109  1.00  0.00     0.198 A 
ATOM     90  F   UNL A   1      45.898  28.871  33.884  1.00  0.00    -0.203 F 
ATOM     91  F   UNL A   1      44.820  24.080  36.267  1.00  0.00    -0.200 F 
ATOM     92  C   UNL A   1      46.362  25.783  35.718  1.00  0.00     0.200 A 
ATOM     93  F   UNL A   1      47.864  27.517  35.159  1.00  0.00    -0.200 F 
ATOM     94  F   UNL A   1      47.334  25.133  36.375  1.00  0.00    -0.200 F 
ENDBRANCH  61  84
ENDBRANCH  35  36
ENDBRANCH  28  30
ENDBRANCH  27  28
ENDBRANCH  26  27
ENDBRANCH  25  26
ENDBRANCH  24  25
ENDBRANCH  23  24
ENDBRANCH   1  23
TORSDOF 19
ENDMDL
MODEL 3
REMARK VINA RESULT:     -10.4      4.374      9.720
REMARK SMILES C[C@@H]1SC[C@H](C(=O)OCCOCCOC(=O)c2ccc(-c3c4nc(c(-c5c(F)c(F)c(F)c(F)c5F)c5ccc([nH]5)c(-c5c(F)c(F)c(F)c(F)c5F)c5nc(c(-c6c(F)c(F)c(F)c(F)c6F)c6ccc3[nH]6)C=C5)C=C4)cc2)N1C(=O)N(C)[C@@H](C)Cc1cccs1
REMARK SMILES IDX 9 1 8 2 6 3 7 4 5 5 1 6 2 7 3 8 80 9 4 10 81 11 82 12 83 13
REMARK SMILES IDX 84 14 85 15 86 16 87 17 88 18 89 19 92 20 90 21 91 22 10 23
REMARK SMILES IDX 11 24 12 25 13 26 14 27 15 28 16 29 17 30 18 31 79 32 19 33
REMARK SMILES IDX 78 34 20 35 21 36 22 37 72 38 23 39 77 40 71 41 73 42 24 43
REMARK SMILES IDX 76 44 70 45 69 46 25 48 57 49 37 50 56 51 38 52 41 53 55 54
REMARK SMILES IDX 74 55 39 56 40 57 54 59 75 60 42 61 26 62 27 63 35 64 28 65
REMARK SMILES IDX 29 66 33 67 36 68 30 69 31 70 34 71 32 72 58 73 59 74 67 75
REMARK SMILES IDX 60 76 61 77 65 78 68 79 62 80 63 81 66 82 64 83 43 84 44 85
REMARK SMILES IDX 52 86 45 87 46 88 50 89 53 90 47 91 48 92 51 93 49 94
REMARK H PARENT 73 47 41 58
REMARK Flexibility Score: inf
ROOT
ATOM      1  C   UNL A   1      34.863  22.488  24.068  1.00  0.00     0.261 C 
ENDROOT
BRANCH   1   2
ATOM      2  O   UNL A   1      33.888  23.495  23.740  1.00  0.00    -0.462 OA
BRANCH   2   3
ATOM      3  C   UNL A   1      32.661  23.007  23.404  1.00  0.00     0.329 C 
ATOM      4  O   UNL A   1      32.461  22.126  22.571  1.00  0.00    -0.250 OA
BRANCH   3   5
ATOM      5  C   UNL A   1      31.515  23.591  24.247  1.00  0.00     0.208 C 
ATOM      6  C   UNL A   1      30.709  26.464  26.393  1.00  0.00     0.043 C 
ATOM      7  C   UNL A   1      30.319  25.326  25.464  1.00  0.00     0.143 C 
ATOM      8  S   UNL A   1      30.249  23.813  26.507  1.00  0.00    -0.134 SA
ATOM      9  N   UNL A   1      31.254  25.048  24.369  1.00  0.00    -0.298 N 
ATOM     10  C   UNL A   1      31.626  23.031  25.658  1.00  0.00     0.109 C 
BRANCH   9  11
ATOM     11  C   UNL A   1      31.689  25.824  23.327  1.00  0.00     0.321 C 
ATOM     12  O   UNL A   1      31.270  25.548  22.197  1.00  0.00    -0.248 OA
BRANCH  11  13
ATOM     13  N   UNL A   1      32.543  26.892  23.454  1.00  0.00    -0.325 N 
ATOM     14  C   UNL A   1      33.998  26.905  23.515  1.00  0.00     0.149 C 
BRANCH  13  15
ATOM     15  C   UNL A   1      31.928  28.219  23.773  1.00  0.00     0.088 C 
ATOM     16  C   UNL A   1      32.847  29.124  24.609  1.00  0.00     0.031 C 
BRANCH  15  17
ATOM     17  C   UNL A   1      31.394  28.971  22.520  1.00  0.00     0.071 C 
BRANCH  17  18
ATOM     18  C   UNL A   1      29.897  29.145  22.541  1.00  0.00     0.007 A 
ATOM     19  C   UNL A   1      28.949  28.324  23.125  1.00  0.00     0.015 A 
ATOM     20  S   UNL A   1      29.169  30.492  21.775  1.00  0.00    -0.149 S 
ATOM     21  C   UNL A   1      27.628  28.832  22.983  1.00  0.00     0.012 A 
ATOM     22  C   UNL A   1      27.604  29.998  22.252  1.00  0.00     0.065 A 
ENDBRANCH  17  18
ENDBRANCH  15  17
ENDBRANCH  13  15
ENDBRANCH  11  13
ENDBRANCH   9  11
ENDBRANCH   3   5
ENDBRANCH   2   3
ENDBRANCH   1   2
BRANCH   1  23
ATOM     23  C   UNL A   1      34.955  22.221  25.573  1.00  0.00     0.202 C 
BRANCH  23  24
ATOM     24  O   UNL A   1      35.850  21.194  25.995  1.00  0.00    -0.374 OA
BRANCH  24  25
ATOM     25  C   UNL A   1      36.338  20.296  25.002  1.00  0.00     0.202 C 
BRANCH  25  26
ATOM     26  C   UNL A   1      37.852  20.058  24.983  1.00  0.00     0.261 C 
BRANCH  26  27
ATOM     27  O   UNL A   1      38.593  21.240  25.337  1.00  0.00    -0.460 OA
BRANCH  27  28
ATOM     28  C   UNL A   1      39.635  21.010  26.173  1.00  0.00     0.338 C 
ATOM     29  O   UNL A   1      40.295  19.990  26.270  1.00  0.00    -0.246 OA
BRANCH  28  30
ATOM     30  C   UNL A   1      40.007  22.242  26.895  1.00  0.00     0.060 A 
ATOM     31  C   UNL A   1      39.341  23.417  26.524  1.00  0.00     0.016 A 
ATOM     32  C   UNL A   1      41.050  22.279  27.823  1.00  0.00     0.016 A 
ATOM     33  C   UNL A   1      39.766  24.644  27.024  1.00  0.00     0.010 A 
ATOM     34  C   UNL A   1      41.479  23.516  28.321  1.00  0.00     0.010 A 
ATOM     35  C   UNL A   1      40.868  24.707  27.888  1.00  0.00    -0.014 A 
BRANCH  35  36
ATOM     36  C   UNL A   1      41.458  26.035  28.189  1.00  0.00     0.031 A 
ATOM     37  C   UNL A   1      42.843  26.350  27.692  1.00  0.00     0.074 A 
ATOM     38  C   UNL A   1      40.737  26.979  28.817  1.00  0.00     0.049 A 
ATOM     39  N   UNL A   1      43.516  27.471  27.762  1.00  0.00    -0.248 NA
ATOM     40  C   UNL A   1      43.566  25.256  27.026  1.00  0.00     0.031 C 
ATOM     41  C   UNL A   1      39.376  26.805  29.319  1.00  0.00     0.029 A 
ATOM     42  N   UNL A   1      41.050  28.279  29.128  1.00  0.00    -0.354 N 
ATOM     43  C   UNL A   1      44.734  27.219  27.142  1.00  0.00     0.074 A 
ATOM     44  C   UNL A   1      44.725  25.831  26.738  1.00  0.00     0.031 C 
ATOM     45  C   UNL A   1      38.965  27.960  29.871  1.00  0.00     0.029 A 
ATOM     46  C   UNL A   1      40.040  28.948  29.774  1.00  0.00     0.049 A 
ATOM     47  H   UNL A   1      41.916  28.692  28.909  1.00  0.00     0.167 HD
ATOM     48  C   UNL A   1      45.761  28.074  26.916  1.00  0.00     0.037 A 
ATOM     49  C   UNL A   1      39.990  30.213  30.232  1.00  0.00     0.037 A 
ATOM     50  C   UNL A   1      45.773  29.456  27.314  1.00  0.00     0.049 A 
ATOM     51  C   UNL A   1      41.166  31.128  30.012  1.00  0.00     0.074 A 
ATOM     52  C   UNL A   1      46.759  30.406  27.112  1.00  0.00     0.029 A 
ATOM     53  N   UNL A   1      44.747  30.085  28.004  1.00  0.00    -0.354 N 
ATOM     54  N   UNL A   1      42.296  30.892  29.392  1.00  0.00    -0.248 NA
ATOM     55  C   UNL A   1      41.053  32.491  30.550  1.00  0.00     0.031 C 
ATOM     56  C   UNL A   1      46.349  31.599  27.719  1.00  0.00     0.029 A 
ATOM     57  C   UNL A   1      45.088  31.405  28.257  1.00  0.00     0.049 A 
ATOM     58  H   UNL A   1      43.902  29.658  28.274  1.00  0.00     0.167 HD
ATOM     59  C   UNL A   1      43.016  32.079  29.441  1.00  0.00     0.074 A 
ATOM     60  C   UNL A   1      42.188  33.039  30.139  1.00  0.00     0.031 C 
ATOM     61  C   UNL A   1      44.252  32.349  28.953  1.00  0.00     0.037 A 
BRANCH  48  62
ATOM     62  C   UNL A   1      46.971  27.528  26.216  1.00  0.00     0.064 A 
ATOM     63  C   UNL A   1      47.068  27.517  24.817  1.00  0.00     0.173 A 
ATOM     64  C   UNL A   1      48.059  27.041  26.955  1.00  0.00     0.173 A 
ATOM     65  F   UNL A   1      46.048  27.960  24.066  1.00  0.00    -0.203 F 
ATOM     66  C   UNL A   1      48.203  27.018  24.182  1.00  0.00     0.198 A 
ATOM     67  C   UNL A   1      49.203  26.567  26.317  1.00  0.00     0.198 A 
ATOM     68  F   UNL A   1      48.018  27.033  28.295  1.00  0.00    -0.203 F 
ATOM     69  F   UNL A   1      48.258  26.980  22.843  1.00  0.00    -0.200 F 
ATOM     70  C   UNL A   1      49.271  26.550  24.932  1.00  0.00     0.200 A 
ATOM     71  F   UNL A   1      50.239  26.123  27.044  1.00  0.00    -0.200 F 
ATOM     72  F   UNL A   1      50.365  26.076  24.320  1.00  0.00    -0.200 F 
ENDBRANCH  48  62
BRANCH  49  73
ATOM     73  C   UNL A   1      38.777  30.697  30.939  1.00  0.00     0.064 A 
ATOM     74  C   UNL A   1      38.667  30.609  32.333  1.00  0.00     0.173 A 
ATOM     75  C   UNL A   1      37.695  31.240  30.230  1.00  0.00     0.173 A 
ATOM     76  F   UNL A   1      39.664  30.072  33.051  1.00  0.00    -0.203 F 
ATOM     77  C   UNL A   1      37.513  31.031  32.990  1.00  0.00     0.198 A 
ATOM     78  C   UNL A   1      36.553  31.685  30.891  1.00  0.00     0.198 A 
ATOM     79  F   UNL A   1      37.751  31.341  28.894  1.00  0.00    -0.203 F 
ATOM     80  F   UNL A   1      37.415  30.895  34.321  1.00  0.00    -0.200 F 
ATOM     81  C   UNL A   1      36.460  31.574  32.270  1.00  0.00     0.200 A 
ATOM     82  F   UNL A   1      35.541  32.217  30.192  1.00  0.00    -0.200 F 
ATOM     83  F   UNL A   1      35.351  31.980  32.903  1.00  0.00    -0.200 F 
ENDBRANCH  49  73
BRANCH  61  84
ATOM     84  C   UNL A   1      44.772  33.746  29.136  1.00  0.00     0.064 A 
ATOM     85  C   UNL A   1      45.541  34.103  30.253  1.00  0.00     0.173 A 
ATOM     86  C   UNL A   1      44.518  34.731  28.169  1.00  0.00     0.173 A 
ATOM     87  F   UNL A   1      45.798  33.201  31.211  1.00  0.00    -0.203 F 
ATOM     88  C   UNL A   1      46.012  35.404  30.411  1.00  0.00     0.198 A 
ATOM     89  C   UNL A   1      45.015  36.023  28.316  1.00  0.00     0.198 A 
ATOM     90  F   UNL A   1      43.794  34.439  27.078  1.00  0.00    -0.203 F 
ATOM     91  F   UNL A   1      46.701  35.736  31.511  1.00  0.00    -0.200 F 
ATOM     92  C   UNL A   1      45.753  36.361  29.440  1.00  0.00     0.200 A 
ATOM     93  F   UNL A   1      44.775  36.944  27.372  1.00  0.00    -0.200 F 
ATOM     94  F   UNL A   1      46.209  37.613  29.594  1.00  0.00    -0.200 F 
ENDBRANCH  61  84
ENDBRANCH  35  36
ENDBRANCH  28  30
ENDBRANCH  27  28
ENDBRANCH  26  27
ENDBRANCH  25  26
ENDBRANCH  24  25
ENDBRANCH  23  24
ENDBRANCH   1  23
TORSDOF 19
ENDMDL
