MODEL 1
REMARK VINA RESULT:     -10.2      0.000      0.000
REMARK SMILES O=C(OCCOCCOC(=O)c1cccc(N2CCCCC2)n1)c1ccc(-c2c3nc(c(-c4c(F)c(F)c(F)c(F)c4F)c4ccc([nH]4)c(-c4c(F)c(F)c(F)c(F)c4F)c4nc(c(-c5c(F)c(F)c(F)c(F)c5F)c5ccc2[nH]5)C=C4)C=C3)cc1
REMARK SMILES IDX 5 1 4 2 3 3 2 4 1 5 24 6 25 7 86 8 26 9 85 10 27 11 28 12
REMARK SMILES IDX 29 13 79 14 30 15 84 16 78 17 80 18 31 19 83 20 77 21 76 22
REMARK SMILES IDX 32 24 64 25 44 26 63 27 45 28 48 29 62 30 81 31 46 32 47 33
REMARK SMILES IDX 61 35 82 36 49 37 33 38 34 39 42 40 35 41 36 42 40 43 43 44
REMARK SMILES IDX 37 45 38 46 41 47 39 48 65 49 66 50 74 51 67 52 68 53 72 54
REMARK SMILES IDX 75 55 69 56 70 57 73 58 71 59 50 60 51 61 59 62 52 63 53 64
REMARK SMILES IDX 57 65 60 66 54 67 55 68 58 69 56 70 6 71 7 72 8 73 9 74
REMARK SMILES IDX 10 75 11 76 12 77 13 78 23 79 14 80 16 81 15 82 17 83 18 84
REMARK SMILES IDX 22 85 19 86 21 87 20 88
REMARK H PARENT 80 23 48 34
REMARK Flexibility Score: inf
ROOT
ATOM      1  C   UNL A   1      33.298  34.109  28.256  1.00  0.00     0.202 C 
ENDROOT
BRANCH   1   2
ATOM      2  C   UNL A   1      34.220  32.905  28.468  1.00  0.00     0.261 C 
BRANCH   2   3
ATOM      3  O   UNL A   1      33.762  31.777  27.701  1.00  0.00    -0.460 OA
BRANCH   3   4
ATOM      4  C   UNL A   1      34.393  30.604  27.460  1.00  0.00     0.338 C 
ATOM      5  O   UNL A   1      33.898  29.836  26.636  1.00  0.00    -0.246 OA
BRANCH   4   6
ATOM      6  C   UNL A   1      35.673  30.182  28.111  1.00  0.00     0.060 A 
ATOM      7  C   UNL A   1      35.787  29.615  29.381  1.00  0.00     0.016 A 
ATOM      8  C   UNL A   1      36.842  30.285  27.336  1.00  0.00     0.016 A 
ATOM      9  C   UNL A   1      37.014  29.208  29.890  1.00  0.00     0.010 A 
ATOM     10  C   UNL A   1      38.078  29.845  27.823  1.00  0.00     0.010 A 
ATOM     11  C   UNL A   1      38.164  29.315  29.112  1.00  0.00    -0.014 A 
BRANCH  11  12
ATOM     12  C   UNL A   1      39.448  28.923  29.718  1.00  0.00     0.031 A 
ATOM     13  C   UNL A   1      39.870  29.579  30.994  1.00  0.00     0.074 A 
ATOM     14  C   UNL A   1      40.142  27.901  29.190  1.00  0.00     0.049 A 
ATOM     15  N   UNL A   1      40.945  29.387  31.709  1.00  0.00    -0.248 NA
ATOM     16  C   UNL A   1      38.942  30.577  31.554  1.00  0.00     0.031 C 
ATOM     17  C   UNL A   1      39.738  27.133  28.010  1.00  0.00     0.029 A 
ATOM     18  N   UNL A   1      41.308  27.307  29.593  1.00  0.00    -0.354 N 
ATOM     19  C   UNL A   1      40.831  30.244  32.794  1.00  0.00     0.074 A 
ATOM     20  C   UNL A   1      39.588  30.966  32.642  1.00  0.00     0.031 C 
ATOM     21  C   UNL A   1      40.629  26.150  27.801  1.00  0.00     0.029 A 
ATOM     22  C   UNL A   1      41.691  26.256  28.795  1.00  0.00     0.049 A 
ATOM     23  H   UNL A   1      41.822  27.603  30.379  1.00  0.00     0.167 HD
ATOM     24  C   UNL A   1      41.696  30.408  33.821  1.00  0.00     0.037 A 
ATOM     25  C   UNL A   1      42.793  25.485  28.860  1.00  0.00     0.037 A 
ATOM     26  C   UNL A   1      42.933  29.686  33.940  1.00  0.00     0.049 A 
ATOM     27  C   UNL A   1      43.786  25.758  29.958  1.00  0.00     0.074 A 
ATOM     28  C   UNL A   1      43.931  29.822  34.885  1.00  0.00     0.029 A 
ATOM     29  N   UNL A   1      43.336  28.681  33.068  1.00  0.00    -0.354 N 
ATOM     30  N   UNL A   1      43.711  26.619  30.945  1.00  0.00    -0.248 NA
ATOM     31  C   UNL A   1      45.024  24.968  29.942  1.00  0.00     0.031 C 
ATOM     32  C   UNL A   1      44.956  28.924  34.565  1.00  0.00     0.029 A 
ATOM     33  C   UNL A   1      44.577  28.198  33.445  1.00  0.00     0.049 A 
ATOM     34  H   UNL A   1      42.817  28.361  32.296  1.00  0.00     0.167 HD
ATOM     35  C   UNL A   1      44.879  26.469  31.675  1.00  0.00     0.074 A 
ATOM     36  C   UNL A   1      45.639  25.418  31.027  1.00  0.00     0.031 C 
ATOM     37  C   UNL A   1      45.297  27.144  32.775  1.00  0.00     0.037 A 
BRANCH  24  38
ATOM     38  C   UNL A   1      41.349  31.452  34.839  1.00  0.00     0.064 A 
ATOM     39  C   UNL A   1      40.366  31.233  35.817  1.00  0.00     0.173 A 
ATOM     40  C   UNL A   1      41.985  32.702  34.813  1.00  0.00     0.173 A 
ATOM     41  F   UNL A   1      39.710  30.064  35.865  1.00  0.00    -0.203 F 
ATOM     42  C   UNL A   1      40.011  32.241  36.711  1.00  0.00     0.198 A 
ATOM     43  C   UNL A   1      41.643  33.699  35.724  1.00  0.00     0.198 A 
ATOM     44  F   UNL A   1      42.925  32.964  33.894  1.00  0.00    -0.203 F 
ATOM     45  F   UNL A   1      39.028  32.032  37.599  1.00  0.00    -0.200 F 
ATOM     46  C   UNL A   1      40.652  33.471  36.665  1.00  0.00     0.200 A 
ATOM     47  F   UNL A   1      42.263  34.886  35.679  1.00  0.00    -0.200 F 
ATOM     48  F   UNL A   1      40.300  34.443  37.518  1.00  0.00    -0.200 F 
ENDBRANCH  24  38
BRANCH  25  49
ATOM     49  C   UNL A   1      43.025  24.422  27.845  1.00  0.00     0.064 A 
ATOM     50  C   UNL A   1      43.630  24.711  26.614  1.00  0.00     0.173 A 
ATOM     51  C   UNL A   1      42.640  23.094  28.084  1.00  0.00     0.173 A 
ATOM     52  F   UNL A   1      43.993  25.969  26.324  1.00  0.00    -0.203 F 
ATOM     53  C   UNL A   1      43.830  23.715  25.658  1.00  0.00     0.198 A 
ATOM     54  C   UNL A   1      42.867  22.094  27.139  1.00  0.00     0.198 A 
ATOM     55  F   UNL A   1      42.051  22.762  29.241  1.00  0.00    -0.203 F 
ATOM     56  F   UNL A   1      44.370  24.027  24.472  1.00  0.00    -0.200 F 
ATOM     57  C   UNL A   1      43.455  22.407  25.924  1.00  0.00     0.200 A 
ATOM     58  F   UNL A   1      42.512  20.830  27.407  1.00  0.00    -0.200 F 
ATOM     59  F   UNL A   1      43.651  21.450  25.006  1.00  0.00    -0.200 F 
ENDBRANCH  25  49
BRANCH  37  60
ATOM     60  C   UNL A   1      46.621  26.748  33.349  1.00  0.00     0.064 A 
ATOM     61  C   UNL A   1      47.806  27.389  32.963  1.00  0.00     0.173 A 
ATOM     62  C   UNL A   1      46.697  25.752  34.334  1.00  0.00     0.173 A 
ATOM     63  F   UNL A   1      47.783  28.337  32.012  1.00  0.00    -0.203 F 
ATOM     64  C   UNL A   1      49.026  27.035  33.530  1.00  0.00     0.198 A 
ATOM     65  C   UNL A   1      47.915  25.418  34.918  1.00  0.00     0.198 A 
ATOM     66  F   UNL A   1      45.588  25.116  34.739  1.00  0.00    -0.203 F 
ATOM     67  F   UNL A   1      50.153  27.634  33.120  1.00  0.00    -0.200 F 
ATOM     68  C   UNL A   1      49.078  26.056  34.511  1.00  0.00     0.200 A 
ATOM     69  F   UNL A   1      47.963  24.481  35.874  1.00  0.00    -0.200 F 
ATOM     70  F   UNL A   1      50.253  25.723  35.064  1.00  0.00    -0.200 F 
ENDBRANCH  37  60
ENDBRANCH  11  12
ENDBRANCH   4   6
ENDBRANCH   3   4
ENDBRANCH   2   3
ENDBRANCH   1   2
BRANCH   1  71
ATOM     71  O   UNL A   1      32.797  34.653  29.479  1.00  0.00    -0.374 OA
BRANCH  71  72
ATOM     72  C   UNL A   1      32.927  36.071  29.623  1.00  0.00     0.202 C 
BRANCH  72  73
ATOM     73  C   UNL A   1      33.055  36.426  31.106  1.00  0.00     0.261 C 
BRANCH  73  74
ATOM     74  O   UNL A   1      34.073  35.593  31.686  1.00  0.00    -0.459 OA
BRANCH  74  75
ATOM     75  C   UNL A   1      34.347  35.858  32.995  1.00  0.00     0.357 C 
ATOM     76  O   UNL A   1      33.696  36.562  33.748  1.00  0.00    -0.244 OA
BRANCH  75  77
ATOM     77  C   UNL A   1      35.485  34.981  33.389  1.00  0.00     0.150 A 
ATOM     78  C   UNL A   1      35.533  34.400  34.647  1.00  0.00     0.036 A 
ATOM     79  N   UNL A   1      36.494  34.904  32.485  1.00  0.00    -0.224 NA
ATOM     80  C   UNL A   1      36.685  33.705  34.990  1.00  0.00     0.006 A 
ATOM     81  C   UNL A   1      37.610  34.244  32.831  1.00  0.00     0.129 A 
ATOM     82  C   UNL A   1      37.735  33.632  34.075  1.00  0.00     0.047 A 
BRANCH  81  83
ATOM     83  N   UNL A   1      38.629  34.233  31.903  1.00  0.00    -0.357 N 
ATOM     84  C   UNL A   1      38.293  34.588  30.533  1.00  0.00     0.118 C 
ATOM     85  C   UNL A   1      39.960  34.571  32.382  1.00  0.00     0.118 C 
ATOM     86  C   UNL A   1      39.313  33.957  29.585  1.00  0.00     0.022 C 
ATOM     87  C   UNL A   1      40.998  33.930  31.461  1.00  0.00     0.022 C 
ATOM     88  C   UNL A   1      40.748  34.290  29.997  1.00  0.00     0.004 C 
ENDBRANCH  81  83
ENDBRANCH  75  77
ENDBRANCH  74  75
ENDBRANCH  73  74
ENDBRANCH  72  73
ENDBRANCH  71  72
ENDBRANCH   1  71
TORSDOF 15
ENDMDL
MODEL 2
REMARK VINA RESULT:     -10.2      4.805     11.865
REMARK SMILES O=C(OCCOCCOC(=O)c1cccc(N2CCCCC2)n1)c1ccc(-c2c3nc(c(-c4c(F)c(F)c(F)c(F)c4F)c4ccc([nH]4)c(-c4c(F)c(F)c(F)c(F)c4F)c4nc(c(-c5c(F)c(F)c(F)c(F)c5F)c5ccc2[nH]5)C=C4)C=C3)cc1
REMARK SMILES IDX 5 1 4 2 3 3 2 4 1 5 24 6 25 7 86 8 26 9 85 10 27 11 28 12
REMARK SMILES IDX 29 13 79 14 30 15 84 16 78 17 80 18 31 19 83 20 77 21 76 22
REMARK SMILES IDX 32 24 64 25 44 26 63 27 45 28 48 29 62 30 81 31 46 32 47 33
REMARK SMILES IDX 61 35 82 36 49 37 33 38 34 39 42 40 35 41 36 42 40 43 43 44
REMARK SMILES IDX 37 45 38 46 41 47 39 48 65 49 66 50 74 51 67 52 68 53 72 54
REMARK SMILES IDX 75 55 69 56 70 57 73 58 71 59 50 60 51 61 59 62 52 63 53 64
REMARK SMILES IDX 57 65 60 66 54 67 55 68 58 69 56 70 6 71 7 72 8 73 9 74
REMARK SMILES IDX 10 75 11 76 12 77 13 78 23 79 14 80 16 81 15 82 17 83 18 84
REMARK SMILES IDX 22 85 19 86 21 87 20 88
REMARK H PARENT 80 23 48 34
REMARK Flexibility Score: inf
ROOT
ATOM      1  C   UNL A   1      41.259  19.898  26.430  1.00  0.00     0.202 C 
ENDROOT
BRANCH   1   2
ATOM      2  C   UNL A   1      39.995  20.629  25.970  1.00  0.00     0.261 C 
BRANCH   2   3
ATOM      3  O   UNL A   1      39.723  21.754  26.824  1.00  0.00    -0.460 OA
BRANCH   3   4
ATOM      4  C   UNL A   1      39.120  22.926  26.517  1.00  0.00     0.338 C 
ATOM      5  O   UNL A   1      38.132  22.898  25.785  1.00  0.00    -0.246 OA
BRANCH   4   6
ATOM      6  C   UNL A   1      39.560  24.263  27.028  1.00  0.00     0.060 A 
ATOM      7  C   UNL A   1      40.163  25.264  26.265  1.00  0.00     0.016 A 
ATOM      8  C   UNL A   1      39.252  24.562  28.368  1.00  0.00     0.016 A 
ATOM      9  C   UNL A   1      40.496  26.497  26.811  1.00  0.00     0.010 A 
ATOM     10  C   UNL A   1      39.550  25.813  28.920  1.00  0.00     0.010 A 
ATOM     11  C   UNL A   1      40.186  26.780  28.139  1.00  0.00    -0.014 A 
BRANCH  11  12
ATOM     12  C   UNL A   1      40.611  28.079  28.687  1.00  0.00     0.031 A 
ATOM     13  C   UNL A   1      42.074  28.346  28.847  1.00  0.00     0.074 A 
ATOM     14  C   UNL A   1      39.693  29.037  28.903  1.00  0.00     0.049 A 
ATOM     15  N   UNL A   1      42.677  29.415  29.295  1.00  0.00    -0.248 NA
ATOM     16  C   UNL A   1      42.985  27.269  28.427  1.00  0.00     0.031 C 
ATOM     17  C   UNL A   1      38.256  28.891  28.662  1.00  0.00     0.029 A 
ATOM     18  N   UNL A   1      39.831  30.328  29.337  1.00  0.00    -0.354 N 
ATOM     19  C   UNL A   1      44.034  29.135  29.221  1.00  0.00     0.074 A 
ATOM     20  C   UNL A   1      44.170  27.795  28.696  1.00  0.00     0.031 C 
ATOM     21  C   UNL A   1      37.648  30.059  28.925  1.00  0.00     0.029 A 
ATOM     22  C   UNL A   1      38.642  31.012  29.405  1.00  0.00     0.049 A 
ATOM     23  H   UNL A   1      40.698  30.728  29.575  1.00  0.00     0.167 HD
ATOM     24  C   UNL A   1      45.069  29.935  29.568  1.00  0.00     0.037 A 
ATOM     25  C   UNL A   1      38.394  32.265  29.831  1.00  0.00     0.037 A 
ATOM     26  C   UNL A   1      44.905  31.260  30.101  1.00  0.00     0.049 A 
ATOM     27  C   UNL A   1      39.557  33.096  30.303  1.00  0.00     0.074 A 
ATOM     28  C   UNL A   1      45.868  32.134  30.566  1.00  0.00     0.029 A 
ATOM     29  N   UNL A   1      43.678  31.899  30.237  1.00  0.00    -0.354 N 
ATOM     30  N   UNL A   1      40.836  32.805  30.300  1.00  0.00    -0.248 NA
ATOM     31  C   UNL A   1      39.244  34.420  30.855  1.00  0.00     0.031 C 
ATOM     32  C   UNL A   1      45.220  33.290  31.018  1.00  0.00     0.029 A 
ATOM     33  C   UNL A   1      43.858  33.152  30.794  1.00  0.00     0.049 A 
ATOM     34  H   UNL A   1      42.810  31.516  29.977  1.00  0.00     0.167 HD
ATOM     35  C   UNL A   1      41.483  33.908  30.835  1.00  0.00     0.074 A 
ATOM     36  C   UNL A   1      40.454  34.885  31.133  1.00  0.00     0.031 C 
ATOM     37  C   UNL A   1      42.805  34.098  31.070  1.00  0.00     0.037 A 
BRANCH  24  38
ATOM     38  C   UNL A   1      46.446  29.357  29.437  1.00  0.00     0.064 A 
ATOM     39  C   UNL A   1      47.190  29.478  28.253  1.00  0.00     0.173 A 
ATOM     40  C   UNL A   1      47.013  28.639  30.500  1.00  0.00     0.173 A 
ATOM     41  F   UNL A   1      46.679  30.130  27.198  1.00  0.00    -0.203 F 
ATOM     42  C   UNL A   1      48.439  28.874  28.129  1.00  0.00     0.198 A 
ATOM     43  C   UNL A   1      48.273  28.057  30.381  1.00  0.00     0.198 A 
ATOM     44  F   UNL A   1      46.340  28.487  31.650  1.00  0.00    -0.203 F 
ATOM     45  F   UNL A   1      49.108  28.953  26.970  1.00  0.00    -0.200 F 
ATOM     46  C   UNL A   1      48.981  28.168  29.193  1.00  0.00     0.200 A 
ATOM     47  F   UNL A   1      48.795  27.375  31.409  1.00  0.00    -0.200 F 
ATOM     48  F   UNL A   1      50.177  27.578  29.068  1.00  0.00    -0.200 F 
ENDBRANCH  24  38
BRANCH  25  49
ATOM     49  C   UNL A   1      37.001  32.785  29.863  1.00  0.00     0.064 A 
ATOM     50  C   UNL A   1      36.210  32.677  31.015  1.00  0.00     0.173 A 
ATOM     51  C   UNL A   1      36.428  33.395  28.736  1.00  0.00     0.173 A 
ATOM     52  F   UNL A   1      36.699  32.079  32.110  1.00  0.00    -0.203 F 
ATOM     53  C   UNL A   1      34.897  33.150  31.034  1.00  0.00     0.198 A 
ATOM     54  C   UNL A   1      35.127  33.894  28.767  1.00  0.00     0.198 A 
ATOM     55  F   UNL A   1      37.136  33.518  27.605  1.00  0.00    -0.203 F 
ATOM     56  F   UNL A   1      34.149  32.996  32.135  1.00  0.00    -0.200 F 
ATOM     57  C   UNL A   1      34.360  33.764  29.913  1.00  0.00     0.200 A 
ATOM     58  F   UNL A   1      34.616  34.496  27.683  1.00  0.00    -0.200 F 
ATOM     59  F   UNL A   1      33.100  34.221  29.935  1.00  0.00    -0.200 F 
ENDBRANCH  25  49
BRANCH  37  60
ATOM     60  C   UNL A   1      43.205  35.415  31.659  1.00  0.00     0.064 A 
ATOM     61  C   UNL A   1      43.180  35.634  33.043  1.00  0.00     0.173 A 
ATOM     62  C   UNL A   1      43.667  36.449  30.832  1.00  0.00     0.173 A 
ATOM     63  F   UNL A   1      42.729  34.677  33.870  1.00  0.00    -0.203 F 
ATOM     64  C   UNL A   1      43.587  36.851  33.580  1.00  0.00     0.198 A 
ATOM     65  C   UNL A   1      44.098  37.656  31.374  1.00  0.00     0.198 A 
ATOM     66  F   UNL A   1      43.714  36.283  29.502  1.00  0.00    -0.203 F 
ATOM     67  F   UNL A   1      43.520  37.054  34.903  1.00  0.00    -0.200 F 
ATOM     68  C   UNL A   1      44.053  37.857  32.746  1.00  0.00     0.200 A 
ATOM     69  F   UNL A   1      44.559  38.623  30.570  1.00  0.00    -0.200 F 
ATOM     70  F   UNL A   1      44.454  39.026  33.266  1.00  0.00    -0.200 F 
ENDBRANCH  37  60
ENDBRANCH  11  12
ENDBRANCH   4   6
ENDBRANCH   3   4
ENDBRANCH   2   3
ENDBRANCH   1   2
BRANCH   1  71
ATOM     71  O   UNL A   1      42.090  19.479  25.345  1.00  0.00    -0.374 OA
BRANCH  71  72
ATOM     72  C   UNL A   1      43.383  18.988  25.711  1.00  0.00     0.202 C 
BRANCH  72  73
ATOM     73  C   UNL A   1      44.239  18.812  24.455  1.00  0.00     0.261 C 
BRANCH  73  74
ATOM     74  O   UNL A   1      44.693  20.108  24.029  1.00  0.00    -0.459 OA
BRANCH  74  75
ATOM     75  C   UNL A   1      45.944  20.442  24.456  1.00  0.00     0.357 C 
ATOM     76  O   UNL A   1      46.950  19.759  24.368  1.00  0.00    -0.244 OA
BRANCH  75  77
ATOM     77  C   UNL A   1      45.894  21.868  24.881  1.00  0.00     0.150 A 
ATOM     78  C   UNL A   1      46.602  22.841  24.191  1.00  0.00     0.036 A 
ATOM     79  N   UNL A   1      45.218  22.104  26.033  1.00  0.00    -0.224 NA
ATOM     80  C   UNL A   1      46.615  24.124  24.722  1.00  0.00     0.006 A 
ATOM     81  C   UNL A   1      45.248  23.343  26.548  1.00  0.00     0.129 A 
ATOM     82  C   UNL A   1      45.937  24.375  25.914  1.00  0.00     0.047 A 
BRANCH  81  83
ATOM     83  N   UNL A   1      44.592  23.527  27.745  1.00  0.00    -0.357 N 
ATOM     84  C   UNL A   1      45.237  24.368  28.741  1.00  0.00     0.118 C 
ATOM     85  C   UNL A   1      43.138  23.516  27.709  1.00  0.00     0.118 C 
ATOM     86  C   UNL A   1      44.730  23.981  30.131  1.00  0.00     0.022 C 
ATOM     87  C   UNL A   1      42.609  23.108  29.084  1.00  0.00     0.022 C 
ATOM     88  C   UNL A   1      43.202  23.976  30.193  1.00  0.00     0.004 C 
ENDBRANCH  81  83
ENDBRANCH  75  77
ENDBRANCH  74  75
ENDBRANCH  73  74
ENDBRANCH  72  73
ENDBRANCH  71  72
ENDBRANCH   1  71
TORSDOF 15
ENDMDL
MODEL 3
REMARK VINA RESULT:     -10.2      0.891      2.237
REMARK SMILES O=C(OCCOCCOC(=O)c1cccc(N2CCCCC2)n1)c1ccc(-c2c3nc(c(-c4c(F)c(F)c(F)c(F)c4F)c4ccc([nH]4)c(-c4c(F)c(F)c(F)c(F)c4F)c4nc(c(-c5c(F)c(F)c(F)c(F)c5F)c5ccc2[nH]5)C=C4)C=C3)cc1
REMARK SMILES IDX 5 1 4 2 3 3 2 4 1 5 24 6 25 7 86 8 26 9 85 10 27 11 28 12
REMARK SMILES IDX 29 13 79 14 30 15 84 16 78 17 80 18 31 19 83 20 77 21 76 22
REMARK SMILES IDX 32 24 64 25 44 26 63 27 45 28 48 29 62 30 81 31 46 32 47 33
REMARK SMILES IDX 61 35 82 36 49 37 33 38 34 39 42 40 35 41 36 42 40 43 43 44
REMARK SMILES IDX 37 45 38 46 41 47 39 48 65 49 66 50 74 51 67 52 68 53 72 54
REMARK SMILES IDX 75 55 69 56 70 57 73 58 71 59 50 60 51 61 59 62 52 63 53 64
REMARK SMILES IDX 57 65 60 66 54 67 55 68 58 69 56 70 6 71 7 72 8 73 9 74
REMARK SMILES IDX 10 75 11 76 12 77 13 78 23 79 14 80 16 81 15 82 17 83 18 84
REMARK SMILES IDX 22 85 19 86 21 87 20 88
REMARK H PARENT 80 23 48 34
REMARK Flexibility Score: inf
ROOT
ATOM      1  C   UNL A   1      33.403  34.151  28.297  1.00  0.00     0.202 C 
ENDROOT
BRANCH   1   2
ATOM      2  C   UNL A   1      34.448  33.036  28.194  1.00  0.00     0.261 C 
BRANCH   2   3
ATOM      3  O   UNL A   1      33.820  31.785  27.865  1.00  0.00    -0.460 OA
BRANCH   3   4
ATOM      4  C   UNL A   1      34.397  30.586  27.620  1.00  0.00     0.338 C 
ATOM      5  O   UNL A   1      33.811  29.796  26.881  1.00  0.00    -0.246 OA
BRANCH   4   6
ATOM      6  C   UNL A   1      35.722  30.156  28.171  1.00  0.00     0.060 A 
ATOM      7  C   UNL A   1      35.943  29.665  29.458  1.00  0.00     0.016 A 
ATOM      8  C   UNL A   1      36.812  30.167  27.281  1.00  0.00     0.016 A 
ATOM      9  C   UNL A   1      37.201  29.243  29.872  1.00  0.00     0.010 A 
ATOM     10  C   UNL A   1      38.075  29.712  27.674  1.00  0.00     0.010 A 
ATOM     11  C   UNL A   1      38.271  29.258  28.981  1.00  0.00    -0.014 A 
BRANCH  11  12
ATOM     12  C   UNL A   1      39.596  28.857  29.484  1.00  0.00     0.031 A 
ATOM     13  C   UNL A   1      40.177  29.596  30.647  1.00  0.00     0.074 A 
ATOM     14  C   UNL A   1      40.188  27.761  28.980  1.00  0.00     0.049 A 
ATOM     15  N   UNL A   1      41.314  29.412  31.262  1.00  0.00    -0.248 NA
ATOM     16  C   UNL A   1      39.355  30.681  31.208  1.00  0.00     0.031 C 
ATOM     17  C   UNL A   1      39.631  26.918  27.920  1.00  0.00     0.029 A 
ATOM     18  N   UNL A   1      41.366  27.146  29.312  1.00  0.00    -0.354 N 
ATOM     19  C   UNL A   1      41.350  30.362  32.272  1.00  0.00     0.074 A 
ATOM     20  C   UNL A   1      40.128  31.128  32.185  1.00  0.00     0.031 C 
ATOM     21  C   UNL A   1      40.454  25.878  27.709  1.00  0.00     0.029 A 
ATOM     22  C   UNL A   1      41.620  26.014  28.576  1.00  0.00     0.049 A 
ATOM     23  H   UNL A   1      41.972  27.482  30.012  1.00  0.00     0.167 HD
ATOM     24  C   UNL A   1      42.326  30.568  33.187  1.00  0.00     0.037 A 
ATOM     25  C   UNL A   1      42.691  25.199  28.594  1.00  0.00     0.037 A 
ATOM     26  C   UNL A   1      43.538  29.799  33.241  1.00  0.00     0.049 A 
ATOM     27  C   UNL A   1      43.805  25.514  29.556  1.00  0.00     0.074 A 
ATOM     28  C   UNL A   1      44.636  29.965  34.064  1.00  0.00     0.029 A 
ATOM     29  N   UNL A   1      43.806  28.706  32.425  1.00  0.00    -0.354 N 
ATOM     30  N   UNL A   1      43.869  26.457  30.466  1.00  0.00    -0.248 NA
ATOM     31  C   UNL A   1      45.001  24.666  29.483  1.00  0.00     0.031 C 
ATOM     32  C   UNL A   1      45.584  28.994  33.721  1.00  0.00     0.029 A 
ATOM     33  C   UNL A   1      45.060  28.197  32.714  1.00  0.00     0.049 A 
ATOM     34  H   UNL A   1      43.195  28.348  31.742  1.00  0.00     0.167 HD
ATOM     35  C   UNL A   1      45.102  26.312  31.082  1.00  0.00     0.074 A 
ATOM     36  C   UNL A   1      45.747  25.175  30.455  1.00  0.00     0.031 C 
ATOM     37  C   UNL A   1      45.661  27.056  32.069  1.00  0.00     0.037 A 
BRANCH  24  38
ATOM     38  C   UNL A   1      42.131  31.710  34.139  1.00  0.00     0.064 A 
ATOM     39  C   UNL A   1      42.635  32.991  33.870  1.00  0.00     0.173 A 
ATOM     40  C   UNL A   1      41.462  31.508  35.355  1.00  0.00     0.173 A 
ATOM     41  F   UNL A   1      43.308  33.228  32.733  1.00  0.00    -0.203 F 
ATOM     42  C   UNL A   1      42.503  34.021  34.799  1.00  0.00     0.198 A 
ATOM     43  C   UNL A   1      41.311  32.546  36.271  1.00  0.00     0.198 A 
ATOM     44  F   UNL A   1      40.969  30.300  35.663  1.00  0.00    -0.203 F 
ATOM     45  F   UNL A   1      43.043  35.222  34.548  1.00  0.00    -0.200 F 
ATOM     46  C   UNL A   1      41.838  33.798  35.996  1.00  0.00     0.200 A 
ATOM     47  F   UNL A   1      40.669  32.329  37.426  1.00  0.00    -0.200 F 
ATOM     48  F   UNL A   1      41.722  34.787  36.893  1.00  0.00    -0.200 F 
ENDBRANCH  24  38
BRANCH  25  49
ATOM     49  C   UNL A   1      42.771  24.045  27.659  1.00  0.00     0.064 A 
ATOM     50  C   UNL A   1      42.362  22.762  28.050  1.00  0.00     0.173 A 
ATOM     51  C   UNL A   1      43.264  24.200  26.354  1.00  0.00     0.173 A 
ATOM     52  F   UNL A   1      41.909  22.553  29.294  1.00  0.00    -0.203 F 
ATOM     53  C   UNL A   1      42.455  21.679  27.175  1.00  0.00     0.198 A 
ATOM     54  C   UNL A   1      43.328  23.123  25.472  1.00  0.00     0.198 A 
ATOM     55  F   UNL A   1      43.675  25.404  25.930  1.00  0.00    -0.203 F 
ATOM     56  F   UNL A   1      42.099  20.455  27.589  1.00  0.00    -0.200 F 
ATOM     57  C   UNL A   1      42.931  21.862  25.885  1.00  0.00     0.200 A 
ATOM     58  F   UNL A   1      43.779  23.309  24.223  1.00  0.00    -0.200 F 
ATOM     59  F   UNL A   1      43.016  20.821  25.045  1.00  0.00    -0.200 F 
ENDBRANCH  25  49
BRANCH  37  60
ATOM     60  C   UNL A   1      47.023  26.645  32.537  1.00  0.00     0.064 A 
ATOM     61  C   UNL A   1      47.191  25.667  33.527  1.00  0.00     0.173 A 
ATOM     62  C   UNL A   1      48.170  27.200  31.951  1.00  0.00     0.173 A 
ATOM     63  F   UNL A   1      46.121  25.121  34.126  1.00  0.00    -0.203 F 
ATOM     64  C   UNL A   1      48.463  25.270  33.928  1.00  0.00     0.198 A 
ATOM     65  C   UNL A   1      49.440  26.782  32.336  1.00  0.00     0.198 A 
ATOM     66  F   UNL A   1      48.057  28.135  30.996  1.00  0.00    -0.203 F 
ATOM     67  F   UNL A   1      48.603  24.360  34.902  1.00  0.00    -0.200 F 
ATOM     68  C   UNL A   1      49.584  25.822  33.327  1.00  0.00     0.200 A 
ATOM     69  F   UNL A   1      50.523  27.307  31.748  1.00  0.00    -0.200 F 
ATOM     70  F   UNL A   1      50.809  25.431  33.708  1.00  0.00    -0.200 F 
ENDBRANCH  37  60
ENDBRANCH  11  12
ENDBRANCH   4   6
ENDBRANCH   3   4
ENDBRANCH   2   3
ENDBRANCH   1   2
BRANCH   1  71
ATOM     71  O   UNL A   1      33.182  34.590  29.639  1.00  0.00    -0.374 OA
BRANCH  71  72
ATOM     72  C   UNL A   1      32.902  35.985  29.794  1.00  0.00     0.202 C 
BRANCH  72  73
ATOM     73  C   UNL A   1      32.601  36.287  31.264  1.00  0.00     0.261 C 
BRANCH  73  74
ATOM     74  O   UNL A   1      33.766  36.888  31.853  1.00  0.00    -0.459 OA
BRANCH  74  75
ATOM     75  C   UNL A   1      33.903  36.673  33.192  1.00  0.00     0.357 C 
ATOM     76  O   UNL A   1      33.278  37.220  34.085  1.00  0.00    -0.244 OA
BRANCH  75  77
ATOM     77  C   UNL A   1      34.821  35.512  33.356  1.00  0.00     0.150 A 
ATOM     78  C   UNL A   1      34.875  34.812  34.552  1.00  0.00     0.036 A 
ATOM     79  N   UNL A   1      35.660  35.288  32.314  1.00  0.00    -0.224 NA
ATOM     80  C   UNL A   1      35.847  33.828  34.677  1.00  0.00     0.006 A 
ATOM     81  C   UNL A   1      36.607  34.346  32.449  1.00  0.00     0.129 A 
ATOM     82  C   UNL A   1      36.725  33.598  33.618  1.00  0.00     0.047 A 
BRANCH  81  83
ATOM     83  N   UNL A   1      37.469  34.185  31.386  1.00  0.00    -0.357 N 
ATOM     84  C   UNL A   1      38.858  34.569  31.585  1.00  0.00     0.118 C 
ATOM     85  C   UNL A   1      37.196  33.085  30.475  1.00  0.00     0.118 C 
ATOM     86  C   UNL A   1      39.486  34.904  30.232  1.00  0.00     0.022 C 
ATOM     87  C   UNL A   1      37.795  33.409  29.108  1.00  0.00     0.022 C 
ATOM     88  C   UNL A   1      39.274  33.780  29.217  1.00  0.00     0.004 C 
ENDBRANCH  81  83
ENDBRANCH  75  77
ENDBRANCH  74  75
ENDBRANCH  73  74
ENDBRANCH  72  73
ENDBRANCH  71  72
ENDBRANCH   1  71
TORSDOF 15
ENDMDL
