MODEL 1
REMARK VINA RESULT:     -11.1      0.000      0.000
REMARK SMILES CCc1nc(N2CC[N@H+](CC=C(C)C)[C@H](C(=O)OCCOCCOC(=O)c3ccc(-c4c5nc(c(-c6c(F)c(F)c(F)c(F)c6F)c6ccc([nH]6)c(-c6c(F)c(F)c(F)c(F)c6F)c6nc(c(-c7c(F)c(F)c(F)c(F)c7F)c7ccc4[nH]7)C=C6)C=C5)cc3)C2)no1
REMARK SMILES IDX 21 1 20 2 19 3 18 4 16 5 17 6 15 7 6 8 7 9 90 10 8 11 9 12
REMARK SMILES IDX 5 14 3 15 4 16 92 17 91 18 2 19 1 20 10 21 11 22 12 23 13 24
REMARK SMILES IDX 14 25 22 26 23 27 24 28 25 29 26 30 27 31 28 32 89 33 29 34
REMARK SMILES IDX 88 35 30 36 31 37 32 38 82 39 33 40 87 41 81 42 83 43 34 44
REMARK SMILES IDX 86 45 80 46 79 47 35 49 67 50 47 51 66 52 48 53 51 54 65 55
REMARK SMILES IDX 84 56 49 57 50 58 64 60 85 61 52 62 36 63 37 64 45 65 38 66
REMARK SMILES IDX 39 67 43 68 46 69 40 70 41 71 44 72 42 73 68 74 69 75 77 76
REMARK SMILES IDX 70 77 71 78 75 79 78 80 72 81 73 82 76 83 74 84 53 85 54 86
REMARK SMILES IDX 62 87 55 88 56 89 60 90 63 91 57 92 58 93 61 94 59 95
REMARK H PARENT 9 13 83 48 51 59
REMARK Flexibility Score: inf
ROOT
ATOM      1  O   UNL A   1      33.177  31.144  26.848  1.00  0.00    -0.374 OA
ENDROOT
BRANCH   1   2
ATOM      2  C   UNL A   1      32.973  29.791  27.265  1.00  0.00     0.202 C 
BRANCH   2   3
ATOM      3  C   UNL A   1      31.814  29.028  26.608  1.00  0.00     0.261 C 
BRANCH   3   4
ATOM      4  O   UNL A   1      31.593  29.422  25.230  1.00  0.00    -0.459 OA
BRANCH   4   5
ATOM      5  C   UNL A   1      32.295  28.722  24.289  1.00  0.00     0.366 C 
ATOM      6  O   UNL A   1      33.148  29.229  23.565  1.00  0.00    -0.245 OA
BRANCH   5   7
ATOM      7  C   UNL A   1      31.909  27.239  24.203  1.00  0.00     0.315 C 
ATOM      8  N   UNL A   1      32.375  24.946  23.367  1.00  0.00    -0.326 N 
ATOM      9  C   UNL A   1      30.945  24.625  23.382  1.00  0.00     0.181 C 
ATOM     10  C   UNL A   1      32.799  26.354  23.309  1.00  0.00     0.197 C 
ATOM     11  C   UNL A   1      30.141  25.603  24.264  1.00  0.00     0.285 C 
ATOM     12  N   UNL A   1      30.434  27.030  24.059  1.00  0.00    -0.317 N 
ATOM     13  H   UNL A   1      30.026  27.614  24.788  1.00  0.00     0.349 HD
BRANCH   8  14
ATOM     14  C   UNL A   1      33.265  23.933  23.312  1.00  0.00     0.266 A 
ATOM     15  C   UNL A   1      35.172  23.092  23.361  1.00  0.00     0.227 A 
ATOM     16  N   UNL A   1      34.575  24.224  23.066  1.00  0.00    -0.176 NA
ATOM     17  O   UNL A   1      34.306  22.082  23.647  1.00  0.00    -0.337 OA
ATOM     18  N   UNL A   1      33.037  22.647  23.618  1.00  0.00    -0.038 NA
BRANCH  15  19
ATOM     19  C   UNL A   1      36.610  22.809  23.548  1.00  0.00     0.097 C 
ATOM     20  C   UNL A   1      37.097  23.359  24.881  1.00  0.00     0.014 C 
ENDBRANCH  15  19
ENDBRANCH   8  14
BRANCH  12  21
ATOM     21  C   UNL A   1      29.741  27.591  22.900  1.00  0.00     0.291 C 
BRANCH  21  22
ATOM     22  C   UNL A   1      28.717  28.666  23.145  1.00  0.00     0.032 C 
ATOM     23  C   UNL A   1      28.692  29.912  22.625  1.00  0.00    -0.075 C 
ATOM     24  C   UNL A   1      27.653  30.911  23.063  1.00  0.00     0.039 C 
ATOM     25  C   UNL A   1      29.692  30.421  21.626  1.00  0.00     0.039 C 
ENDBRANCH  21  22
ENDBRANCH  12  21
ENDBRANCH   5   7
ENDBRANCH   4   5
ENDBRANCH   3   4
ENDBRANCH   2   3
ENDBRANCH   1   2
BRANCH   1  26
ATOM     26  C   UNL A   1      32.113  32.055  27.105  1.00  0.00     0.202 C 
BRANCH  26  27
ATOM     27  C   UNL A   1      32.513  33.516  27.329  1.00  0.00     0.261 C 
BRANCH  27  28
ATOM     28  O   UNL A   1      32.526  33.864  28.722  1.00  0.00    -0.460 OA
BRANCH  28  29
ATOM     29  C   UNL A   1      33.637  34.535  29.092  1.00  0.00     0.338 C 
ATOM     30  O   UNL A   1      33.709  35.699  29.477  1.00  0.00    -0.246 OA
BRANCH  29  31
ATOM     31  C   UNL A   1      34.808  33.649  29.128  1.00  0.00     0.060 A 
ATOM     32  C   UNL A   1      34.669  32.467  29.864  1.00  0.00     0.016 A 
ATOM     33  C   UNL A   1      36.043  34.009  28.578  1.00  0.00     0.016 A 
ATOM     34  C   UNL A   1      35.786  31.695  30.152  1.00  0.00     0.010 A 
ATOM     35  C   UNL A   1      37.168  33.227  28.867  1.00  0.00     0.010 A 
ATOM     36  C   UNL A   1      37.052  32.108  29.711  1.00  0.00    -0.014 A 
BRANCH  36  37
ATOM     37  C   UNL A   1      38.236  31.472  30.335  1.00  0.00     0.031 A 
ATOM     38  C   UNL A   1      38.545  31.780  31.776  1.00  0.00     0.074 A 
ATOM     39  C   UNL A   1      38.938  30.536  29.673  1.00  0.00     0.049 A 
ATOM     40  N   UNL A   1      39.434  31.240  32.572  1.00  0.00    -0.248 NA
ATOM     41  C   UNL A   1      37.737  32.834  32.410  1.00  0.00     0.031 C 
ATOM     42  C   UNL A   1      38.706  30.132  28.288  1.00  0.00     0.029 A 
ATOM     43  N   UNL A   1      39.974  29.740  30.090  1.00  0.00    -0.354 N 
ATOM     44  C   UNL A   1      39.286  31.882  33.795  1.00  0.00     0.074 A 
ATOM     45  C   UNL A   1      38.255  32.882  33.628  1.00  0.00     0.031 C 
ATOM     46  C   UNL A   1      39.565  29.149  27.972  1.00  0.00     0.029 A 
ATOM     47  C   UNL A   1      40.414  28.866  29.128  1.00  0.00     0.049 A 
ATOM     48  H   UNL A   1      40.363  29.790  30.992  1.00  0.00     0.167 HD
ATOM     49  C   UNL A   1      39.937  31.646  34.958  1.00  0.00     0.037 A 
ATOM     50  C   UNL A   1      41.387  27.936  29.182  1.00  0.00     0.037 A 
ATOM     51  C   UNL A   1      40.961  30.648  35.122  1.00  0.00     0.049 A 
ATOM     52  C   UNL A   1      42.122  27.718  30.479  1.00  0.00     0.074 A 
ATOM     53  C   UNL A   1      41.684  30.327  36.257  1.00  0.00     0.029 A 
ATOM     54  N   UNL A   1      41.405  29.806  34.113  1.00  0.00    -0.354 N 
ATOM     55  N   UNL A   1      41.956  28.310  31.637  1.00  0.00    -0.248 NA
ATOM     56  C   UNL A   1      43.169  26.687  30.478  1.00  0.00     0.031 C 
ATOM     57  C   UNL A   1      42.597  29.321  35.923  1.00  0.00     0.029 A 
ATOM     58  C   UNL A   1      42.405  28.978  34.594  1.00  0.00     0.049 A 
ATOM     59  H   UNL A   1      41.060  29.799  33.191  1.00  0.00     0.167 HD
ATOM     60  C   UNL A   1      42.852  27.705  32.509  1.00  0.00     0.074 A 
ATOM     61  C   UNL A   1      43.548  26.688  31.749  1.00  0.00     0.031 C 
ATOM     62  C   UNL A   1      43.080  27.967  33.821  1.00  0.00     0.037 A 
BRANCH  49  63
ATOM     63  C   UNL A   1      39.574  32.500  36.138  1.00  0.00     0.064 A 
ATOM     64  C   UNL A   1      40.281  33.673  36.445  1.00  0.00     0.173 A 
ATOM     65  C   UNL A   1      38.494  32.152  36.962  1.00  0.00     0.173 A 
ATOM     66  F   UNL A   1      41.333  34.042  35.698  1.00  0.00    -0.203 F 
ATOM     67  C   UNL A   1      39.936  34.450  37.549  1.00  0.00     0.198 A 
ATOM     68  C   UNL A   1      38.135  32.946  38.049  1.00  0.00     0.198 A 
ATOM     69  F   UNL A   1      37.784  31.042  36.713  1.00  0.00    -0.203 F 
ATOM     70  F   UNL A   1      40.657  35.540  37.852  1.00  0.00    -0.200 F 
ATOM     71  C   UNL A   1      38.861  34.089  38.346  1.00  0.00     0.200 A 
ATOM     72  F   UNL A   1      37.089  32.601  38.812  1.00  0.00    -0.200 F 
ATOM     73  F   UNL A   1      38.529  34.839  39.406  1.00  0.00    -0.200 F 
ENDBRANCH  49  63
BRANCH  50  74
ATOM     74  C   UNL A   1      41.709  27.128  27.977  1.00  0.00     0.064 A 
ATOM     75  C   UNL A   1      41.107  25.882  27.755  1.00  0.00     0.173 A 
ATOM     76  C   UNL A   1      42.638  27.584  27.029  1.00  0.00     0.173 A 
ATOM     77  F   UNL A   1      40.230  25.393  28.643  1.00  0.00    -0.203 F 
ATOM     78  C   UNL A   1      41.438  25.113  26.639  1.00  0.00     0.198 A 
ATOM     79  C   UNL A   1      42.946  26.826  25.902  1.00  0.00     0.198 A 
ATOM     80  F   UNL A   1      43.241  28.770  27.196  1.00  0.00    -0.203 F 
ATOM     81  F   UNL A   1      40.883  23.904  26.475  1.00  0.00    -0.200 F 
ATOM     82  C   UNL A   1      42.352  25.588  25.712  1.00  0.00     0.200 A 
ATOM     83  F   UNL A   1      43.820  27.296  25.001  1.00  0.00    -0.200 F 
ATOM     84  F   UNL A   1      42.666  24.850  24.639  1.00  0.00    -0.200 F 
ENDBRANCH  50  74
BRANCH  62  85
ATOM     85  C   UNL A   1      44.097  27.113  34.521  1.00  0.00     0.064 A 
ATOM     86  C   UNL A   1      43.751  25.890  35.116  1.00  0.00     0.173 A 
ATOM     87  C   UNL A   1      45.441  27.514  34.577  1.00  0.00     0.173 A 
ATOM     88  F   UNL A   1      42.478  25.469  35.100  1.00  0.00    -0.203 F 
ATOM     89  C   UNL A   1      44.706  25.121  35.776  1.00  0.00     0.198 A 
ATOM     90  C   UNL A   1      46.398  26.726  35.210  1.00  0.00     0.198 A 
ATOM     91  F   UNL A   1      45.827  28.669  34.014  1.00  0.00    -0.203 F 
ATOM     92  F   UNL A   1      44.340  23.986  36.388  1.00  0.00    -0.200 F 
ATOM     93  C   UNL A   1      46.028  25.536  35.818  1.00  0.00     0.200 A 
ATOM     94  F   UNL A   1      47.678  27.122  35.237  1.00  0.00    -0.200 F 
ATOM     95  F   UNL A   1      46.944  24.794  36.454  1.00  0.00    -0.200 F 
ENDBRANCH  62  85
ENDBRANCH  36  37
ENDBRANCH  29  31
ENDBRANCH  28  29
ENDBRANCH  27  28
ENDBRANCH  26  27
ENDBRANCH   1  26
TORSDOF 18
ENDMDL
MODEL 2
REMARK VINA RESULT:     -11.1      2.115      4.350
REMARK SMILES CCc1nc(N2CC[N@H+](CC=C(C)C)[C@H](C(=O)OCCOCCOC(=O)c3ccc(-c4c5nc(c(-c6c(F)c(F)c(F)c(F)c6F)c6ccc([nH]6)c(-c6c(F)c(F)c(F)c(F)c6F)c6nc(c(-c7c(F)c(F)c(F)c(F)c7F)c7ccc4[nH]7)C=C6)C=C5)cc3)C2)no1
REMARK SMILES IDX 21 1 20 2 19 3 18 4 16 5 17 6 15 7 6 8 7 9 90 10 8 11 9 12
REMARK SMILES IDX 5 14 3 15 4 16 92 17 91 18 2 19 1 20 10 21 11 22 12 23 13 24
REMARK SMILES IDX 14 25 22 26 23 27 24 28 25 29 26 30 27 31 28 32 89 33 29 34
REMARK SMILES IDX 88 35 30 36 31 37 32 38 82 39 33 40 87 41 81 42 83 43 34 44
REMARK SMILES IDX 86 45 80 46 79 47 35 49 67 50 47 51 66 52 48 53 51 54 65 55
REMARK SMILES IDX 84 56 49 57 50 58 64 60 85 61 52 62 36 63 37 64 45 65 38 66
REMARK SMILES IDX 39 67 43 68 46 69 40 70 41 71 44 72 42 73 68 74 69 75 77 76
REMARK SMILES IDX 70 77 71 78 75 79 78 80 72 81 73 82 76 83 74 84 53 85 54 86
REMARK SMILES IDX 62 87 55 88 56 89 60 90 63 91 57 92 58 93 61 94 59 95
REMARK H PARENT 9 13 83 48 51 59
REMARK Flexibility Score: inf
ROOT
ATOM      1  O   UNL A   1      31.978  28.607  24.468  1.00  0.00    -0.374 OA
ENDROOT
BRANCH   1   2
ATOM      2  C   UNL A   1      31.268  27.387  24.233  1.00  0.00     0.202 C 
BRANCH   2   3
ATOM      3  C   UNL A   1      31.401  26.291  25.299  1.00  0.00     0.261 C 
BRANCH   3   4
ATOM      4  O   UNL A   1      32.072  25.104  24.803  1.00  0.00    -0.459 OA
BRANCH   4   5
ATOM      5  C   UNL A   1      33.331  24.884  25.285  1.00  0.00     0.366 C 
ATOM      6  O   UNL A   1      33.912  25.660  26.040  1.00  0.00    -0.245 OA
BRANCH   5   7
ATOM      7  C   UNL A   1      33.968  23.580  24.785  1.00  0.00     0.315 C 
ATOM      8  N   UNL A   1      34.142  21.103  24.881  1.00  0.00    -0.326 N 
ATOM      9  C   UNL A   1      35.545  21.162  24.460  1.00  0.00     0.181 C 
ATOM     10  C   UNL A   1      33.521  22.287  25.496  1.00  0.00     0.197 C 
ATOM     11  C   UNL A   1      35.897  22.516  23.810  1.00  0.00     0.285 C 
ATOM     12  N   UNL A   1      35.438  23.709  24.539  1.00  0.00    -0.317 N 
ATOM     13  H   UNL A   1      35.525  24.557  23.979  1.00  0.00     0.349 HD
BRANCH   8  14
ATOM     14  C   UNL A   1      33.485  19.929  24.777  1.00  0.00     0.266 A 
ATOM     15  C   UNL A   1      33.329  17.851  24.734  1.00  0.00     0.227 A 
ATOM     16  N   UNL A   1      34.195  18.803  24.477  1.00  0.00    -0.176 NA
ATOM     17  O   UNL A   1      32.090  18.316  25.049  1.00  0.00    -0.337 OA
ATOM     18  N   UNL A   1      32.199  19.700  25.081  1.00  0.00    -0.038 NA
BRANCH  15  19
ATOM     19  C   UNL A   1      33.544  16.393  24.856  1.00  0.00     0.097 C 
ATOM     20  C   UNL A   1      32.500  15.770  25.771  1.00  0.00     0.014 C 
ENDBRANCH  15  19
ENDBRANCH   8  14
BRANCH  12  21
ATOM     21  C   UNL A   1      36.321  24.073  25.647  1.00  0.00     0.291 C 
BRANCH  21  22
ATOM     22  C   UNL A   1      37.488  23.169  25.942  1.00  0.00     0.032 C 
ATOM     23  C   UNL A   1      38.659  23.503  26.525  1.00  0.00    -0.075 C 
ATOM     24  C   UNL A   1      39.776  22.500  26.646  1.00  0.00     0.039 C 
ATOM     25  C   UNL A   1      38.969  24.877  27.051  1.00  0.00     0.039 C 
ENDBRANCH  21  22
ENDBRANCH  12  21
ENDBRANCH   5   7
ENDBRANCH   4   5
ENDBRANCH   3   4
ENDBRANCH   2   3
ENDBRANCH   1   2
BRANCH   1  26
ATOM     26  C   UNL A   1      32.024  29.067  25.814  1.00  0.00     0.202 C 
BRANCH  26  27
ATOM     27  C   UNL A   1      32.850  30.331  26.070  1.00  0.00     0.261 C 
BRANCH  27  28
ATOM     28  O   UNL A   1      32.877  30.685  27.461  1.00  0.00    -0.460 OA
BRANCH  28  29
ATOM     29  C   UNL A   1      33.623  31.781  27.715  1.00  0.00     0.338 C 
ATOM     30  O   UNL A   1      33.222  32.925  27.914  1.00  0.00    -0.246 OA
BRANCH  29  31
ATOM     31  C   UNL A   1      35.041  31.434  27.884  1.00  0.00     0.060 A 
ATOM     32  C   UNL A   1      35.329  30.078  28.078  1.00  0.00     0.016 A 
ATOM     33  C   UNL A   1      36.047  32.400  27.982  1.00  0.00     0.016 A 
ATOM     34  C   UNL A   1      36.598  29.691  28.483  1.00  0.00     0.010 A 
ATOM     35  C   UNL A   1      37.328  32.007  28.387  1.00  0.00     0.010 A 
ATOM     36  C   UNL A   1      37.586  30.661  28.704  1.00  0.00    -0.014 A 
BRANCH  36  37
ATOM     37  C   UNL A   1      38.787  30.254  29.471  1.00  0.00     0.031 A 
ATOM     38  C   UNL A   1      38.915  30.700  30.903  1.00  0.00     0.074 A 
ATOM     39  C   UNL A   1      39.675  29.394  28.944  1.00  0.00     0.049 A 
ATOM     40  N   UNL A   1      39.795  30.354  31.809  1.00  0.00    -0.248 NA
ATOM     41  C   UNL A   1      37.908  31.660  31.384  1.00  0.00     0.031 C 
ATOM     42  C   UNL A   1      39.632  28.868  27.581  1.00  0.00     0.029 A 
ATOM     43  N   UNL A   1      40.772  28.791  29.505  1.00  0.00    -0.354 N 
ATOM     44  C   UNL A   1      39.444  31.045  32.961  1.00  0.00     0.074 A 
ATOM     45  C   UNL A   1      38.299  31.865  32.633  1.00  0.00     0.031 C 
ATOM     46  C   UNL A   1      40.650  28.008  27.414  1.00  0.00     0.029 A 
ATOM     47  C   UNL A   1      41.421  27.932  28.654  1.00  0.00     0.049 A 
ATOM     48  H   UNL A   1      41.065  28.959  30.430  1.00  0.00     0.167 HD
ATOM     49  C   UNL A   1      40.012  30.988  34.189  1.00  0.00     0.037 A 
ATOM     50  C   UNL A   1      42.509  27.166  28.861  1.00  0.00     0.037 A 
ATOM     51  C   UNL A   1      41.149  30.169  34.513  1.00  0.00     0.049 A 
ATOM     52  C   UNL A   1      43.145  27.147  30.227  1.00  0.00     0.074 A 
ATOM     53  C   UNL A   1      41.804  30.037  35.725  1.00  0.00     0.029 A 
ATOM     54  N   UNL A   1      41.802  29.339  33.613  1.00  0.00    -0.354 N 
ATOM     55  N   UNL A   1      42.789  27.782  31.317  1.00  0.00    -0.248 NA
ATOM     56  C   UNL A   1      44.326  26.289  30.392  1.00  0.00     0.031 C 
ATOM     57  C   UNL A   1      42.880  29.159  35.547  1.00  0.00     0.029 A 
ATOM     58  C   UNL A   1      42.863  28.705  34.238  1.00  0.00     0.049 A 
ATOM     59  H   UNL A   1      41.548  29.219  32.670  1.00  0.00     0.167 HD
ATOM     60  C   UNL A   1      43.679  27.379  32.303  1.00  0.00     0.074 A 
ATOM     61  C   UNL A   1      44.582  26.430  31.686  1.00  0.00     0.031 C 
ATOM     62  C   UNL A   1      43.745  27.758  33.605  1.00  0.00     0.037 A 
BRANCH  49  63
ATOM     63  C   UNL A   1      39.422  31.854  35.264  1.00  0.00     0.064 A 
ATOM     64  C   UNL A   1      38.545  31.337  36.229  1.00  0.00     0.173 A 
ATOM     65  C   UNL A   1      39.753  33.215  35.340  1.00  0.00     0.173 A 
ATOM     66  F   UNL A   1      38.184  30.045  36.191  1.00  0.00    -0.203 F 
ATOM     67  C   UNL A   1      37.999  32.157  37.215  1.00  0.00     0.198 A 
ATOM     68  C   UNL A   1      39.226  34.026  36.344  1.00  0.00     0.198 A 
ATOM     69  F   UNL A   1      40.587  33.760  34.443  1.00  0.00    -0.203 F 
ATOM     70  F   UNL A   1      37.125  31.651  38.097  1.00  0.00    -0.200 F 
ATOM     71  C   UNL A   1      38.345  33.498  37.275  1.00  0.00     0.200 A 
ATOM     72  F   UNL A   1      39.570  35.320  36.406  1.00  0.00    -0.200 F 
ATOM     73  F   UNL A   1      37.822  34.285  38.225  1.00  0.00    -0.200 F 
ENDBRANCH  49  63
BRANCH  50  74
ATOM     74  C   UNL A   1      43.054  26.338  27.753  1.00  0.00     0.064 A 
ATOM     75  C   UNL A   1      43.881  26.894  26.767  1.00  0.00     0.173 A 
ATOM     76  C   UNL A   1      42.745  24.973  27.653  1.00  0.00     0.173 A 
ATOM     77  F   UNL A   1      44.186  28.199  26.807  1.00  0.00    -0.203 F 
ATOM     78  C   UNL A   1      44.362  26.120  25.712  1.00  0.00     0.198 A 
ATOM     79  C   UNL A   1      43.250  24.195  26.614  1.00  0.00     0.198 A 
ATOM     80  F   UNL A   1      41.959  24.393  28.572  1.00  0.00    -0.203 F 
ATOM     81  F   UNL A   1      45.112  26.687  24.758  1.00  0.00    -0.200 F 
ATOM     82  C   UNL A   1      44.051  24.771  25.640  1.00  0.00     0.200 A 
ATOM     83  F   UNL A   1      42.957  22.889  26.555  1.00  0.00    -0.200 F 
ATOM     84  F   UNL A   1      44.516  24.027  24.627  1.00  0.00    -0.200 F 
ENDBRANCH  50  74
BRANCH  62  85
ATOM     85  C   UNL A   1      44.806  27.115  34.451  1.00  0.00     0.064 A 
ATOM     86  C   UNL A   1      46.083  27.680  34.589  1.00  0.00     0.173 A 
ATOM     87  C   UNL A   1      44.533  25.929  35.149  1.00  0.00     0.173 A 
ATOM     88  F   UNL A   1      46.397  28.807  33.932  1.00  0.00    -0.203 F 
ATOM     89  C   UNL A   1      47.059  27.059  35.364  1.00  0.00     0.198 A 
ATOM     90  C   UNL A   1      45.502  25.328  35.948  1.00  0.00     0.198 A 
ATOM     91  F   UNL A   1      43.324  25.353  35.059  1.00  0.00    -0.203 F 
ATOM     92  F   UNL A   1      48.290  27.585  35.433  1.00  0.00    -0.200 F 
ATOM     93  C   UNL A   1      46.767  25.888  36.046  1.00  0.00     0.200 A 
ATOM     94  F   UNL A   1      45.213  24.204  36.617  1.00  0.00    -0.200 F 
ATOM     95  F   UNL A   1      47.708  25.292  36.790  1.00  0.00    -0.200 F 
ENDBRANCH  62  85
ENDBRANCH  36  37
ENDBRANCH  29  31
ENDBRANCH  28  29
ENDBRANCH  27  28
ENDBRANCH  26  27
ENDBRANCH   1  26
TORSDOF 18
ENDMDL
MODEL 3
REMARK VINA RESULT:     -11.1      1.230      1.944
REMARK SMILES CCc1nc(N2CC[N@H+](CC=C(C)C)[C@H](C(=O)OCCOCCOC(=O)c3ccc(-c4c5nc(c(-c6c(F)c(F)c(F)c(F)c6F)c6ccc([nH]6)c(-c6c(F)c(F)c(F)c(F)c6F)c6nc(c(-c7c(F)c(F)c(F)c(F)c7F)c7ccc4[nH]7)C=C6)C=C5)cc3)C2)no1
REMARK SMILES IDX 21 1 20 2 19 3 18 4 16 5 17 6 15 7 6 8 7 9 90 10 8 11 9 12
REMARK SMILES IDX 5 14 3 15 4 16 92 17 91 18 2 19 1 20 10 21 11 22 12 23 13 24
REMARK SMILES IDX 14 25 22 26 23 27 24 28 25 29 26 30 27 31 28 32 89 33 29 34
REMARK SMILES IDX 88 35 30 36 31 37 32 38 82 39 33 40 87 41 81 42 83 43 34 44
REMARK SMILES IDX 86 45 80 46 79 47 35 49 67 50 47 51 66 52 48 53 51 54 65 55
REMARK SMILES IDX 84 56 49 57 50 58 64 60 85 61 52 62 36 63 37 64 45 65 38 66
REMARK SMILES IDX 39 67 43 68 46 69 40 70 41 71 44 72 42 73 68 74 69 75 77 76
REMARK SMILES IDX 70 77 71 78 75 79 78 80 72 81 73 82 76 83 74 84 53 85 54 86
REMARK SMILES IDX 62 87 55 88 56 89 60 90 63 91 57 92 58 93 61 94 59 95
REMARK H PARENT 9 13 83 48 51 59
REMARK Flexibility Score: inf
ROOT
ATOM      1  O   UNL A   1      34.013  30.424  26.957  1.00  0.00    -0.374 OA
ENDROOT
BRANCH   1   2
ATOM      2  C   UNL A   1      33.314  29.212  27.254  1.00  0.00     0.202 C 
BRANCH   2   3
ATOM      3  C   UNL A   1      31.911  29.054  26.649  1.00  0.00     0.261 C 
BRANCH   3   4
ATOM      4  O   UNL A   1      31.814  29.595  25.307  1.00  0.00    -0.459 OA
BRANCH   4   5
ATOM      5  C   UNL A   1      32.467  28.894  24.332  1.00  0.00     0.366 C 
ATOM      6  O   UNL A   1      33.332  29.385  23.611  1.00  0.00    -0.245 OA
BRANCH   5   7
ATOM      7  C   UNL A   1      32.010  27.434  24.205  1.00  0.00     0.315 C 
ATOM      8  N   UNL A   1      32.422  25.120  23.400  1.00  0.00    -0.326 N 
ATOM      9  C   UNL A   1      30.981  24.877  23.291  1.00  0.00     0.181 C 
ATOM     10  C   UNL A   1      32.925  26.503  23.386  1.00  0.00     0.197 C 
ATOM     11  C   UNL A   1      30.159  25.896  24.107  1.00  0.00     0.285 C 
ATOM     12  N   UNL A   1      30.545  27.306  23.936  1.00  0.00    -0.317 N 
ATOM     13  H   UNL A   1      30.107  27.910  24.631  1.00  0.00     0.349 HD
BRANCH   8  14
ATOM     14  C   UNL A   1      33.257  24.060  23.415  1.00  0.00     0.266 A 
ATOM     15  C   UNL A   1      35.113  23.119  23.289  1.00  0.00     0.227 A 
ATOM     16  N   UNL A   1      34.495  24.193  22.856  1.00  0.00    -0.176 NA
ATOM     17  O   UNL A   1      34.301  22.265  23.971  1.00  0.00    -0.337 OA
ATOM     18  N   UNL A   1      33.068  22.898  24.056  1.00  0.00    -0.038 NA
BRANCH  15  19
ATOM     19  C   UNL A   1      36.552  22.784  23.254  1.00  0.00     0.097 C 
ATOM     20  C   UNL A   1      36.900  21.790  24.353  1.00  0.00     0.014 C 
ENDBRANCH  15  19
ENDBRANCH   8  14
BRANCH  12  21
ATOM     21  C   UNL A   1      29.984  27.905  22.725  1.00  0.00     0.291 C 
BRANCH  21  22
ATOM     22  C   UNL A   1      29.414  29.294  22.826  1.00  0.00     0.032 C 
ATOM     23  C   UNL A   1      28.123  29.641  23.017  1.00  0.00    -0.075 C 
ATOM     24  C   UNL A   1      27.697  31.085  22.980  1.00  0.00     0.039 C 
ATOM     25  C   UNL A   1      27.014  28.649  23.232  1.00  0.00     0.039 C 
ENDBRANCH  21  22
ENDBRANCH  12  21
ENDBRANCH   5   7
ENDBRANCH   4   5
ENDBRANCH   3   4
ENDBRANCH   2   3
ENDBRANCH   1   2
BRANCH   1  26
ATOM     26  C   UNL A   1      33.911  31.468  27.919  1.00  0.00     0.202 C 
BRANCH  26  27
ATOM     27  C   UNL A   1      33.267  32.771  27.437  1.00  0.00     0.261 C 
BRANCH  27  28
ATOM     28  O   UNL A   1      32.552  33.440  28.487  1.00  0.00    -0.460 OA
BRANCH  28  29
ATOM     29  C   UNL A   1      33.103  34.623  28.834  1.00  0.00     0.338 C 
ATOM     30  O   UNL A   1      32.652  35.745  28.620  1.00  0.00    -0.246 OA
BRANCH  29  31
ATOM     31  C   UNL A   1      34.297  34.431  29.668  1.00  0.00     0.060 A 
ATOM     32  C   UNL A   1      35.532  34.619  29.036  1.00  0.00     0.016 A 
ATOM     33  C   UNL A   1      34.231  33.957  30.982  1.00  0.00     0.016 A 
ATOM     34  C   UNL A   1      36.702  34.228  29.672  1.00  0.00     0.010 A 
ATOM     35  C   UNL A   1      35.413  33.566  31.624  1.00  0.00     0.010 A 
ATOM     36  C   UNL A   1      36.642  33.639  30.943  1.00  0.00    -0.014 A 
BRANCH  36  37
ATOM     37  C   UNL A   1      37.844  32.916  31.420  1.00  0.00     0.031 A 
ATOM     38  C   UNL A   1      38.399  33.254  32.778  1.00  0.00     0.074 A 
ATOM     39  C   UNL A   1      38.347  31.887  30.717  1.00  0.00     0.049 A 
ATOM     40  N   UNL A   1      39.346  32.663  33.463  1.00  0.00    -0.248 NA
ATOM     41  C   UNL A   1      37.799  34.411  33.463  1.00  0.00     0.031 C 
ATOM     42  C   UNL A   1      37.868  31.447  29.408  1.00  0.00     0.029 A 
ATOM     43  N   UNL A   1      39.356  31.009  31.021  1.00  0.00    -0.354 N 
ATOM     44  C   UNL A   1      39.448  33.370  34.655  1.00  0.00     0.074 A 
ATOM     45  C   UNL A   1      38.500  34.460  34.585  1.00  0.00     0.031 C 
ATOM     46  C   UNL A   1      38.574  30.371  29.025  1.00  0.00     0.029 A 
ATOM     47  C   UNL A   1      39.561  30.054  30.057  1.00  0.00     0.049 A 
ATOM     48  H   UNL A   1      39.883  31.060  31.851  1.00  0.00     0.167 HD
ATOM     49  C   UNL A   1      40.246  33.121  35.720  1.00  0.00     0.037 A 
ATOM     50  C   UNL A   1      40.441  29.036  30.020  1.00  0.00     0.037 A 
ATOM     51  C   UNL A   1      41.186  32.034  35.788  1.00  0.00     0.049 A 
ATOM     52  C   UNL A   1      41.344  28.802  31.203  1.00  0.00     0.074 A 
ATOM     53  C   UNL A   1      42.043  31.693  36.819  1.00  0.00     0.029 A 
ATOM     54  N   UNL A   1      41.390  31.108  34.775  1.00  0.00    -0.354 N 
ATOM     55  N   UNL A   1      41.413  29.458  32.336  1.00  0.00    -0.248 NA
ATOM     56  C   UNL A   1      42.279  27.673  31.107  1.00  0.00     0.031 C 
ATOM     57  C   UNL A   1      42.797  30.586  36.412  1.00  0.00     0.029 A 
ATOM     58  C   UNL A   1      42.372  30.207  35.149  1.00  0.00     0.049 A 
ATOM     59  H   UNL A   1      40.908  31.096  33.916  1.00  0.00     0.167 HD
ATOM     60  C   UNL A   1      42.373  28.806  33.098  1.00  0.00     0.074 A 
ATOM     61  C   UNL A   1      42.847  27.691  32.305  1.00  0.00     0.031 C 
ATOM     62  C   UNL A   1      42.823  29.100  34.345  1.00  0.00     0.037 A 
BRANCH  49  63
ATOM     63  C   UNL A   1      40.149  34.059  36.888  1.00  0.00     0.064 A 
ATOM     64  C   UNL A   1      40.922  35.228  36.963  1.00  0.00     0.173 A 
ATOM     65  C   UNL A   1      39.258  33.795  37.940  1.00  0.00     0.173 A 
ATOM     66  F   UNL A   1      41.801  35.519  35.991  1.00  0.00    -0.203 F 
ATOM     67  C   UNL A   1      40.826  36.083  38.059  1.00  0.00     0.198 A 
ATOM     68  C   UNL A   1      39.146  34.666  39.021  1.00  0.00     0.198 A 
ATOM     69  F   UNL A   1      38.495  32.692  37.918  1.00  0.00    -0.203 F 
ATOM     70  F   UNL A   1      41.610  37.168  38.131  1.00  0.00    -0.200 F 
ATOM     71  C   UNL A   1      39.934  35.804  39.083  1.00  0.00     0.200 A 
ATOM     72  F   UNL A   1      38.276  34.400  40.005  1.00  0.00    -0.200 F 
ATOM     73  F   UNL A   1      39.841  36.628  40.135  1.00  0.00    -0.200 F 
ENDBRANCH  49  63
BRANCH  50  74
ATOM     74  C   UNL A   1      40.498  28.147  28.829  1.00  0.00     0.064 A 
ATOM     75  C   UNL A   1      41.273  28.479  27.709  1.00  0.00     0.173 A 
ATOM     76  C   UNL A   1      39.764  26.952  28.785  1.00  0.00     0.173 A 
ATOM     77  F   UNL A   1      41.973  29.622  27.695  1.00  0.00    -0.203 F 
ATOM     78  C   UNL A   1      41.296  27.659  26.582  1.00  0.00     0.198 A 
ATOM     79  C   UNL A   1      39.811  26.120  27.669  1.00  0.00     0.198 A 
ATOM     80  F   UNL A   1      39.008  26.589  29.831  1.00  0.00    -0.203 F 
ATOM     81  F   UNL A   1      42.008  28.023  25.507  1.00  0.00    -0.200 F 
ATOM     82  C   UNL A   1      40.570  26.478  26.566  1.00  0.00     0.200 A 
ATOM     83  F   UNL A   1      39.117  24.973  27.663  1.00  0.00    -0.200 F 
ATOM     84  F   UNL A   1      40.596  25.689  25.483  1.00  0.00    -0.200 F 
ENDBRANCH  50  74
BRANCH  62  85
ATOM     85  C   UNL A   1      43.853  28.180  34.934  1.00  0.00     0.064 A 
ATOM     86  C   UNL A   1      43.491  27.040  35.667  1.00  0.00     0.173 A 
ATOM     87  C   UNL A   1      45.221  28.433  34.743  1.00  0.00     0.173 A 
ATOM     88  F   UNL A   1      42.197  26.762  35.887  1.00  0.00    -0.203 F 
ATOM     89  C   UNL A   1      44.461  26.208  36.220  1.00  0.00     0.198 A 
ATOM     90  C   UNL A   1      46.187  27.581  35.272  1.00  0.00     0.198 A 
ATOM     91  F   UNL A   1      45.620  29.503  34.041  1.00  0.00    -0.203 F 
ATOM     92  F   UNL A   1      44.092  25.158  36.967  1.00  0.00    -0.200 F 
ATOM     93  C   UNL A   1      45.807  26.476  36.019  1.00  0.00     0.200 A 
ATOM     94  F   UNL A   1      47.486  27.834  35.064  1.00  0.00    -0.200 F 
ATOM     95  F   UNL A   1      46.738  25.675  36.553  1.00  0.00    -0.200 F 
ENDBRANCH  62  85
ENDBRANCH  36  37
ENDBRANCH  29  31
ENDBRANCH  28  29
ENDBRANCH  27  28
ENDBRANCH  26  27
ENDBRANCH   1  26
TORSDOF 18
ENDMDL
