MODEL 1
REMARK VINA RESULT:     -10.0      0.000      0.000
REMARK SMILES C=CCN(CC(=O)OCCOCCOC(=O)c1ccc(-c2c3nc(c(-c4c(F)c(F)c(F)c(F)c4F)c4ccc([nH]4)c(-c4c(F)c(F)c(F)c(F)c4F)c4nc(c(-c5c(F)c(F)c(F)c(F)c5F)c5ccc2[nH]5)C=C4)C=C3)cc1)C(=O)N(C)[C@H]1CCC[N@H+](C)C1
REMARK SMILES IDX 10 1 9 2 8 3 6 4 7 5 5 6 4 7 3 8 2 9 1 10 80 11 81 12 82 13
REMARK SMILES IDX 83 14 84 15 85 16 90 17 86 18 88 19 87 20 89 21 11 23 12 24
REMARK SMILES IDX 13 25 14 26 15 27 16 28 17 29 18 30 79 31 19 32 78 33 20 34
REMARK SMILES IDX 21 35 22 36 72 37 23 38 77 39 71 40 73 41 24 42 76 43 70 44
REMARK SMILES IDX 69 45 25 47 57 48 37 49 56 50 38 51 41 52 55 53 74 54 39 55
REMARK SMILES IDX 40 56 54 58 75 59 42 60 26 61 27 62 35 63 28 64 29 65 33 66
REMARK SMILES IDX 36 67 30 68 31 69 34 70 32 71 58 72 59 73 67 74 60 75 61 76
REMARK SMILES IDX 65 77 68 78 62 79 63 80 66 81 64 82 43 83 44 84 52 85 45 86
REMARK SMILES IDX 46 87 50 88 53 89 47 90 48 91 51 92 49 93
REMARK H PARENT 88 22 73 46 41 57
REMARK Flexibility Score: inf
ROOT
ATOM      1  C   UNL A   1      33.420  30.169  26.543  1.00  0.00     0.202 C 
ENDROOT
BRANCH   1   2
ATOM      2  C   UNL A   1      33.481  28.760  27.148  1.00  0.00     0.261 C 
BRANCH   2   3
ATOM      3  O   UNL A   1      32.778  27.746  26.383  1.00  0.00    -0.462 OA
BRANCH   3   4
ATOM      4  C   UNL A   1      31.522  27.436  26.806  1.00  0.00     0.325 C 
ATOM      5  O   UNL A   1      31.058  27.804  27.883  1.00  0.00    -0.250 OA
BRANCH   4   6
ATOM      6  C   UNL A   1      30.725  26.478  25.894  1.00  0.00     0.244 C 
BRANCH   6   7
ATOM      7  N   UNL A   1      31.011  26.233  24.463  1.00  0.00    -0.310 N 
BRANCH   7   8
ATOM      8  C   UNL A   1      30.748  27.405  23.615  1.00  0.00     0.149 C 
BRANCH   8   9
ATOM      9  C   UNL A   1      29.263  27.589  23.431  1.00  0.00    -0.013 C 
ATOM     10  C   UNL A   1      28.703  28.738  23.024  1.00  0.00     0.006 C 
ENDBRANCH   8   9
ENDBRANCH   7   8
BRANCH   7  11
ATOM     11  C   UNL A   1      31.617  25.169  23.796  1.00  0.00     0.321 C 
ATOM     12  O   UNL A   1      31.073  24.060  23.863  1.00  0.00    -0.248 OA
BRANCH  11  13
ATOM     13  N   UNL A   1      32.839  25.264  23.122  1.00  0.00    -0.319 N 
ATOM     14  C   UNL A   1      32.950  25.411  21.679  1.00  0.00     0.149 C 
BRANCH  13  15
ATOM     15  C   UNL A   1      34.044  24.623  23.811  1.00  0.00     0.141 C 
ATOM     16  C   UNL A   1      34.262  24.958  25.320  1.00  0.00     0.037 C 
ATOM     17  C   UNL A   1      34.208  23.060  23.700  1.00  0.00     0.287 C 
ATOM     18  C   UNL A   1      33.479  24.076  26.302  1.00  0.00     0.064 C 
ATOM     19  N   UNL A   1      33.313  22.288  24.581  1.00  0.00    -0.336 N 
ATOM     20  C   UNL A   1      33.594  22.582  25.990  1.00  0.00     0.262 C 
ATOM     21  C   UNL A   1      33.449  20.854  24.319  1.00  0.00     0.332 C 
ATOM     22  H   UNL A   1      32.351  22.563  24.381  1.00  0.00     0.347 HD
ENDBRANCH  13  15
ENDBRANCH  11  13
ENDBRANCH   7  11
ENDBRANCH   6   7
ENDBRANCH   4   6
ENDBRANCH   3   4
ENDBRANCH   2   3
ENDBRANCH   1   2
BRANCH   1  23
ATOM     23  O   UNL A   1      32.142  30.693  26.218  1.00  0.00    -0.374 OA
BRANCH  23  24
ATOM     24  C   UNL A   1      31.688  31.860  26.882  1.00  0.00     0.202 C 
BRANCH  24  25
ATOM     25  C   UNL A   1      32.675  32.967  27.238  1.00  0.00     0.261 C 
BRANCH  25  26
ATOM     26  O   UNL A   1      32.460  33.712  28.413  1.00  0.00    -0.460 OA
BRANCH  26  27
ATOM     27  C   UNL A   1      33.344  34.695  28.651  1.00  0.00     0.338 C 
ATOM     28  O   UNL A   1      33.204  35.895  28.589  1.00  0.00    -0.246 OA
BRANCH  27  29
ATOM     29  C   UNL A   1      34.510  33.972  29.168  1.00  0.00     0.060 A 
ATOM     30  C   UNL A   1      34.279  32.875  29.995  1.00  0.00     0.016 A 
ATOM     31  C   UNL A   1      35.798  34.317  28.737  1.00  0.00     0.016 A 
ATOM     32  C   UNL A   1      35.361  32.123  30.427  1.00  0.00     0.010 A 
ATOM     33  C   UNL A   1      36.879  33.561  29.166  1.00  0.00     0.010 A 
ATOM     34  C   UNL A   1      36.659  32.478  30.031  1.00  0.00    -0.014 A 
BRANCH  34  35
ATOM     35  C   UNL A   1      37.808  31.785  30.635  1.00  0.00     0.031 A 
ATOM     36  C   UNL A   1      38.190  32.136  32.038  1.00  0.00     0.074 A 
ATOM     37  C   UNL A   1      38.464  30.846  29.934  1.00  0.00     0.049 A 
ATOM     38  N   UNL A   1      39.142  31.646  32.786  1.00  0.00    -0.248 NA
ATOM     39  C   UNL A   1      37.390  33.188  32.686  1.00  0.00     0.031 C 
ATOM     40  C   UNL A   1      38.139  30.436  28.569  1.00  0.00     0.029 A 
ATOM     41  N   UNL A   1      39.537  30.069  30.276  1.00  0.00    -0.354 N 
ATOM     42  C   UNL A   1      39.055  32.328  33.990  1.00  0.00     0.074 A 
ATOM     43  C   UNL A   1      37.987  33.295  33.863  1.00  0.00     0.031 C 
ATOM     44  C   UNL A   1      38.990  29.468  28.191  1.00  0.00     0.029 A 
ATOM     45  C   UNL A   1      39.935  29.218  29.278  1.00  0.00     0.049 A 
ATOM     46  H   UNL A   1      39.979  30.117  31.154  1.00  0.00     0.167 HD
ATOM     47  C   UNL A   1      39.801  32.151  35.104  1.00  0.00     0.037 A 
ATOM     48  C   UNL A   1      40.955  28.341  29.255  1.00  0.00     0.037 A 
ATOM     49  C   UNL A   1      40.869  31.192  35.196  1.00  0.00     0.049 A 
ATOM     50  C   UNL A   1      41.809  28.203  30.486  1.00  0.00     0.074 A 
ATOM     51  C   UNL A   1      41.690  30.911  36.271  1.00  0.00     0.029 A 
ATOM     52  N   UNL A   1      41.269  30.365  34.154  1.00  0.00    -0.354 N 
ATOM     53  N   UNL A   1      41.704  28.821  31.640  1.00  0.00    -0.248 NA
ATOM     54  C   UNL A   1      42.921  27.247  30.418  1.00  0.00     0.031 C 
ATOM     55  C   UNL A   1      42.624  29.952  35.861  1.00  0.00     0.029 A 
ATOM     56  C   UNL A   1      42.346  29.590  34.551  1.00  0.00     0.049 A 
ATOM     57  H   UNL A   1      40.850  30.334  33.264  1.00  0.00     0.167 HD
ATOM     58  C   UNL A   1      42.708  28.306  32.445  1.00  0.00     0.074 A 
ATOM     59  C   UNL A   1      43.415  27.323  31.646  1.00  0.00     0.031 C 
ATOM     60  C   UNL A   1      43.015  28.610  33.732  1.00  0.00     0.037 A 
BRANCH  47  61
ATOM     61  C   UNL A   1      39.507  33.043  36.276  1.00  0.00     0.064 A 
ATOM     62  C   UNL A   1      38.553  32.700  37.248  1.00  0.00     0.173 A 
ATOM     63  C   UNL A   1      40.169  34.272  36.414  1.00  0.00     0.173 A 
ATOM     64  F   UNL A   1      37.877  31.545  37.153  1.00  0.00    -0.203 F 
ATOM     65  C   UNL A   1      38.243  33.573  38.289  1.00  0.00     0.198 A 
ATOM     66  C   UNL A   1      39.880  35.127  37.474  1.00  0.00     0.198 A 
ATOM     67  F   UNL A   1      41.088  34.650  35.515  1.00  0.00    -0.203 F 
ATOM     68  F   UNL A   1      37.281  33.254  39.165  1.00  0.00    -0.200 F 
ATOM     69  C   UNL A   1      38.909  34.784  38.403  1.00  0.00     0.200 A 
ATOM     70  F   UNL A   1      40.532  36.293  37.588  1.00  0.00    -0.200 F 
ATOM     71  F   UNL A   1      38.606  35.625  39.400  1.00  0.00    -0.200 F 
ENDBRANCH  47  61
BRANCH  48  72
ATOM     72  C   UNL A   1      41.191  27.519  28.041  1.00  0.00     0.064 A 
ATOM     73  C   UNL A   1      42.013  27.983  27.005  1.00  0.00     0.173 A 
ATOM     74  C   UNL A   1      40.634  26.238  27.908  1.00  0.00     0.173 A 
ATOM     75  F   UNL A   1      42.557  29.207  27.079  1.00  0.00    -0.203 F 
ATOM     76  C   UNL A   1      42.266  27.199  25.881  1.00  0.00     0.198 A 
ATOM     77  C   UNL A   1      40.907  25.446  26.795  1.00  0.00     0.198 A 
ATOM     78  F   UNL A   1      39.845  25.746  28.874  1.00  0.00    -0.203 F 
ATOM     79  F   UNL A   1      43.035  27.676  24.894  1.00  0.00    -0.200 F 
ATOM     80  C   UNL A   1      41.720  25.928  25.780  1.00  0.00     0.200 A 
ATOM     81  F   UNL A   1      40.390  24.213  26.710  1.00  0.00    -0.200 F 
ATOM     82  F   UNL A   1      41.976  25.169  24.706  1.00  0.00    -0.200 F 
ENDBRANCH  48  72
BRANCH  60  83
ATOM     83  C   UNL A   1      44.129  27.836  34.372  1.00  0.00     0.064 A 
ATOM     84  C   UNL A   1      45.446  28.316  34.393  1.00  0.00     0.173 A 
ATOM     85  C   UNL A   1      43.854  26.631  35.035  1.00  0.00     0.173 A 
ATOM     86  F   UNL A   1      45.759  29.457  33.760  1.00  0.00    -0.203 F 
ATOM     87  C   UNL A   1      46.452  27.608  35.045  1.00  0.00     0.198 A 
ATOM     88  C   UNL A   1      44.856  25.941  35.710  1.00  0.00     0.198 A 
ATOM     89  F   UNL A   1      42.608  26.134  35.049  1.00  0.00    -0.203 F 
ATOM     90  F   UNL A   1      47.711  28.066  35.023  1.00  0.00    -0.200 F 
ATOM     91  C   UNL A   1      46.154  26.427  35.710  1.00  0.00     0.200 A 
ATOM     92  F   UNL A   1      44.563  24.810  36.366  1.00  0.00    -0.200 F 
ATOM     93  F   UNL A   1      47.121  25.757  36.351  1.00  0.00    -0.200 F 
ENDBRANCH  60  83
ENDBRANCH  34  35
ENDBRANCH  27  29
ENDBRANCH  26  27
ENDBRANCH  25  26
ENDBRANCH  24  25
ENDBRANCH  23  24
ENDBRANCH   1  23
TORSDOF 20
ENDMDL
MODEL 2
REMARK VINA RESULT:     -10.0      5.375      9.478
REMARK SMILES C=CCN(CC(=O)OCCOCCOC(=O)c1ccc(-c2c3nc(c(-c4c(F)c(F)c(F)c(F)c4F)c4ccc([nH]4)c(-c4c(F)c(F)c(F)c(F)c4F)c4nc(c(-c5c(F)c(F)c(F)c(F)c5F)c5ccc2[nH]5)C=C4)C=C3)cc1)C(=O)N(C)[C@H]1CCC[N@H+](C)C1
REMARK SMILES IDX 10 1 9 2 8 3 6 4 7 5 5 6 4 7 3 8 2 9 1 10 80 11 81 12 82 13
REMARK SMILES IDX 83 14 84 15 85 16 90 17 86 18 88 19 87 20 89 21 11 23 12 24
REMARK SMILES IDX 13 25 14 26 15 27 16 28 17 29 18 30 79 31 19 32 78 33 20 34
REMARK SMILES IDX 21 35 22 36 72 37 23 38 77 39 71 40 73 41 24 42 76 43 70 44
REMARK SMILES IDX 69 45 25 47 57 48 37 49 56 50 38 51 41 52 55 53 74 54 39 55
REMARK SMILES IDX 40 56 54 58 75 59 42 60 26 61 27 62 35 63 28 64 29 65 33 66
REMARK SMILES IDX 36 67 30 68 31 69 34 70 32 71 58 72 59 73 67 74 60 75 61 76
REMARK SMILES IDX 65 77 68 78 62 79 63 80 66 81 64 82 43 83 44 84 52 85 45 86
REMARK SMILES IDX 46 87 50 88 53 89 47 90 48 91 51 92 49 93
REMARK H PARENT 88 22 73 46 41 57
REMARK Flexibility Score: inf
ROOT
ATOM      1  C   UNL A   1      38.610  22.525  26.013  1.00  0.00     0.202 C 
ENDROOT
BRANCH   1   2
ATOM      2  C   UNL A   1      37.627  23.697  26.138  1.00  0.00     0.261 C 
BRANCH   2   3
ATOM      3  O   UNL A   1      36.529  23.665  25.190  1.00  0.00    -0.462 OA
BRANCH   3   4
ATOM      4  C   UNL A   1      35.391  23.044  25.607  1.00  0.00     0.325 C 
ATOM      5  O   UNL A   1      34.854  23.268  26.689  1.00  0.00    -0.250 OA
BRANCH   4   6
ATOM      6  C   UNL A   1      34.856  21.931  24.680  1.00  0.00     0.244 C 
BRANCH   6   7
ATOM      7  N   UNL A   1      33.477  21.857  24.150  1.00  0.00    -0.310 N 
BRANCH   7   8
ATOM      8  C   UNL A   1      32.685  20.776  24.754  1.00  0.00     0.149 C 
BRANCH   8   9
ATOM      9  C   UNL A   1      33.177  19.437  24.262  1.00  0.00    -0.013 C 
ATOM     10  C   UNL A   1      32.423  18.587  23.548  1.00  0.00     0.006 C 
ENDBRANCH   8   9
ENDBRANCH   7   8
BRANCH   7  11
ATOM     11  C   UNL A   1      32.746  22.700  23.312  1.00  0.00     0.321 C 
ATOM     12  O   UNL A   1      32.902  22.577  22.091  1.00  0.00    -0.248 OA
BRANCH  11  13
ATOM     13  N   UNL A   1      31.910  23.724  23.770  1.00  0.00    -0.319 N 
ATOM     14  C   UNL A   1      30.551  23.921  23.292  1.00  0.00     0.149 C 
BRANCH  13  15
ATOM     15  C   UNL A   1      32.603  24.973  24.312  1.00  0.00     0.141 C 
ATOM     16  C   UNL A   1      33.807  25.533  23.490  1.00  0.00     0.037 C 
ATOM     17  C   UNL A   1      31.707  26.224  24.647  1.00  0.00     0.287 C 
ATOM     18  C   UNL A   1      33.427  26.480  22.344  1.00  0.00     0.064 C 
ATOM     19  N   UNL A   1      31.270  26.996  23.470  1.00  0.00    -0.336 N 
ATOM     20  C   UNL A   1      32.425  27.559  22.764  1.00  0.00     0.262 C 
ATOM     21  C   UNL A   1      30.345  28.059  23.869  1.00  0.00     0.332 C 
ATOM     22  H   UNL A   1      30.781  26.365  22.836  1.00  0.00     0.347 HD
ENDBRANCH  13  15
ENDBRANCH  11  13
ENDBRANCH   7  11
ENDBRANCH   6   7
ENDBRANCH   4   6
ENDBRANCH   3   4
ENDBRANCH   2   3
ENDBRANCH   1   2
BRANCH   1  23
ATOM     23  O   UNL A   1      38.366  21.564  24.999  1.00  0.00    -0.374 OA
BRANCH  23  24
ATOM     24  C   UNL A   1      38.137  20.215  25.370  1.00  0.00     0.202 C 
BRANCH  24  25
ATOM     25  C   UNL A   1      39.319  19.285  25.627  1.00  0.00     0.261 C 
BRANCH  25  26
ATOM     26  O   UNL A   1      40.270  19.654  26.597  1.00  0.00    -0.460 OA
BRANCH  26  27
ATOM     27  C   UNL A   1      41.557  19.524  26.233  1.00  0.00     0.338 C 
ATOM     28  O   UNL A   1      42.134  18.575  25.754  1.00  0.00    -0.246 OA
BRANCH  27  29
ATOM     29  C   UNL A   1      42.088  20.878  26.410  1.00  0.00     0.060 A 
ATOM     30  C   UNL A   1      42.412  21.285  27.702  1.00  0.00     0.016 A 
ATOM     31  C   UNL A   1      42.364  21.676  25.290  1.00  0.00     0.016 A 
ATOM     32  C   UNL A   1      42.996  22.529  27.885  1.00  0.00     0.010 A 
ATOM     33  C   UNL A   1      42.953  22.918  25.475  1.00  0.00     0.010 A 
ATOM     34  C   UNL A   1      43.245  23.352  26.777  1.00  0.00    -0.014 A 
BRANCH  34  35
ATOM     35  C   UNL A   1      43.700  24.734  26.997  1.00  0.00     0.031 A 
ATOM     36  C   UNL A   1      42.717  25.725  27.538  1.00  0.00     0.074 A 
ATOM     37  C   UNL A   1      44.974  25.067  26.737  1.00  0.00     0.049 A 
ATOM     38  N   UNL A   1      42.889  26.985  27.837  1.00  0.00    -0.248 NA
ATOM     39  C   UNL A   1      41.352  25.226  27.770  1.00  0.00     0.031 C 
ATOM     40  C   UNL A   1      45.994  24.153  26.227  1.00  0.00     0.029 A 
ATOM     41  N   UNL A   1      45.625  26.263  26.870  1.00  0.00    -0.354 N 
ATOM     42  C   UNL A   1      41.656  27.428  28.292  1.00  0.00     0.074 A 
ATOM     43  C   UNL A   1      40.735  26.319  28.192  1.00  0.00     0.031 C 
ATOM     44  C   UNL A   1      47.153  24.821  26.101  1.00  0.00     0.029 A 
ATOM     45  C   UNL A   1      46.942  26.213  26.493  1.00  0.00     0.049 A 
ATOM     46  H   UNL A   1      45.190  27.081  27.205  1.00  0.00     0.167 HD
ATOM     47  C   UNL A   1      41.333  28.656  28.759  1.00  0.00     0.037 A 
ATOM     48  C   UNL A   1      47.864  27.193  26.466  1.00  0.00     0.037 A 
ATOM     49  C   UNL A   1      42.268  29.746  28.831  1.00  0.00     0.049 A 
ATOM     50  C   UNL A   1      47.465  28.566  26.934  1.00  0.00     0.074 A 
ATOM     51  C   UNL A   1      42.065  31.032  29.293  1.00  0.00     0.029 A 
ATOM     52  N   UNL A   1      43.590  29.671  28.409  1.00  0.00    -0.354 N 
ATOM     53  N   UNL A   1      46.309  28.977  27.401  1.00  0.00    -0.248 NA
ATOM     54  C   UNL A   1      48.495  29.611  26.876  1.00  0.00     0.031 C 
ATOM     55  C   UNL A   1      43.250  31.752  29.100  1.00  0.00     0.029 A 
ATOM     56  C   UNL A   1      44.209  30.899  28.575  1.00  0.00     0.049 A 
ATOM     57  H   UNL A   1      44.022  28.866  28.045  1.00  0.00     0.167 HD
ATOM     58  C   UNL A   1      46.479  30.314  27.726  1.00  0.00     0.074 A 
ATOM     59  C   UNL A   1      47.854  30.646  27.401  1.00  0.00     0.031 C 
ATOM     60  C   UNL A   1      45.585  31.188  28.254  1.00  0.00     0.037 A 
BRANCH  47  61
ATOM     61  C   UNL A   1      39.907  28.876  29.177  1.00  0.00     0.064 A 
ATOM     62  C   UNL A   1      39.480  28.660  30.497  1.00  0.00     0.173 A 
ATOM     63  C   UNL A   1      38.949  29.285  28.238  1.00  0.00     0.173 A 
ATOM     64  F   UNL A   1      40.351  28.251  31.431  1.00  0.00    -0.203 F 
ATOM     65  C   UNL A   1      38.139  28.802  30.849  1.00  0.00     0.198 A 
ATOM     66  C   UNL A   1      37.616  29.458  28.601  1.00  0.00     0.198 A 
ATOM     67  F   UNL A   1      39.302  29.505  26.963  1.00  0.00    -0.203 F 
ATOM     68  F   UNL A   1      37.743  28.524  32.099  1.00  0.00    -0.200 F 
ATOM     69  C   UNL A   1      37.209  29.204  29.902  1.00  0.00     0.200 A 
ATOM     70  F   UNL A   1      36.721  29.855  27.686  1.00  0.00    -0.200 F 
ATOM     71  F   UNL A   1      35.920  29.334  30.240  1.00  0.00    -0.200 F 
ENDBRANCH  47  61
BRANCH  48  72
ATOM     72  C   UNL A   1      49.245  26.890  26.010  1.00  0.00     0.064 A 
ATOM     73  C   UNL A   1      50.212  26.415  26.906  1.00  0.00     0.173 A 
ATOM     74  C   UNL A   1      49.616  27.031  24.664  1.00  0.00     0.173 A 
ATOM     75  F   UNL A   1      49.910  26.278  28.206  1.00  0.00    -0.203 F 
ATOM     76  C   UNL A   1      51.499  26.096  26.475  1.00  0.00     0.198 A 
ATOM     77  C   UNL A   1      50.894  26.688  24.230  1.00  0.00     0.198 A 
ATOM     78  F   UNL A   1      48.726  27.476  23.766  1.00  0.00    -0.203 F 
ATOM     79  F   UNL A   1      52.411  25.668  27.357  1.00  0.00    -0.200 F 
ATOM     80  C   UNL A   1      51.837  26.225  25.136  1.00  0.00     0.200 A 
ATOM     81  F   UNL A   1      51.212  26.799  22.933  1.00  0.00    -0.200 F 
ATOM     82  F   UNL A   1      53.069  25.904  24.720  1.00  0.00    -0.200 F 
ENDBRANCH  48  72
BRANCH  60  83
ATOM     83  C   UNL A   1      46.078  32.571  28.562  1.00  0.00     0.064 A 
ATOM     84  C   UNL A   1      46.682  32.883  29.787  1.00  0.00     0.173 A 
ATOM     85  C   UNL A   1      46.006  33.575  27.585  1.00  0.00     0.173 A 
ATOM     86  F   UNL A   1      46.761  31.960  30.757  1.00  0.00    -0.203 F 
ATOM     87  C   UNL A   1      47.185  34.159  30.028  1.00  0.00     0.198 A 
ATOM     88  C   UNL A   1      46.536  34.839  27.818  1.00  0.00     0.198 A 
ATOM     89  F   UNL A   1      45.443  33.322  26.394  1.00  0.00    -0.203 F 
ATOM     90  F   UNL A   1      47.727  34.448  31.220  1.00  0.00    -0.200 F 
ATOM     91  C   UNL A   1      47.120  35.132  29.041  1.00  0.00     0.200 A 
ATOM     92  F   UNL A   1      46.487  35.773  26.858  1.00  0.00    -0.200 F 
ATOM     93  F   UNL A   1      47.620  36.354  29.270  1.00  0.00    -0.200 F 
ENDBRANCH  60  83
ENDBRANCH  34  35
ENDBRANCH  27  29
ENDBRANCH  26  27
ENDBRANCH  25  26
ENDBRANCH  24  25
ENDBRANCH  23  24
ENDBRANCH   1  23
TORSDOF 20
ENDMDL
MODEL 3
REMARK VINA RESULT:      -9.9      4.552     10.080
REMARK SMILES C=CCN(CC(=O)OCCOCCOC(=O)c1ccc(-c2c3nc(c(-c4c(F)c(F)c(F)c(F)c4F)c4ccc([nH]4)c(-c4c(F)c(F)c(F)c(F)c4F)c4nc(c(-c5c(F)c(F)c(F)c(F)c5F)c5ccc2[nH]5)C=C4)C=C3)cc1)C(=O)N(C)[C@H]1CCC[N@H+](C)C1
REMARK SMILES IDX 10 1 9 2 8 3 6 4 7 5 5 6 4 7 3 8 2 9 1 10 80 11 81 12 82 13
REMARK SMILES IDX 83 14 84 15 85 16 90 17 86 18 88 19 87 20 89 21 11 23 12 24
REMARK SMILES IDX 13 25 14 26 15 27 16 28 17 29 18 30 79 31 19 32 78 33 20 34
REMARK SMILES IDX 21 35 22 36 72 37 23 38 77 39 71 40 73 41 24 42 76 43 70 44
REMARK SMILES IDX 69 45 25 47 57 48 37 49 56 50 38 51 41 52 55 53 74 54 39 55
REMARK SMILES IDX 40 56 54 58 75 59 42 60 26 61 27 62 35 63 28 64 29 65 33 66
REMARK SMILES IDX 36 67 30 68 31 69 34 70 32 71 58 72 59 73 67 74 60 75 61 76
REMARK SMILES IDX 65 77 68 78 62 79 63 80 66 81 64 82 43 83 44 84 52 85 45 86
REMARK SMILES IDX 46 87 50 88 53 89 47 90 48 91 51 92 49 93
REMARK H PARENT 88 22 73 46 41 57
REMARK Flexibility Score: inf
ROOT
ATOM      1  C   UNL A   1      34.192  20.761  24.578  1.00  0.00     0.202 C 
ENDROOT
BRANCH   1   2
ATOM      2  C   UNL A   1      33.394  21.887  23.908  1.00  0.00     0.261 C 
BRANCH   2   3
ATOM      3  O   UNL A   1      34.191  22.789  23.098  1.00  0.00    -0.462 OA
BRANCH   3   4
ATOM      4  C   UNL A   1      33.923  24.117  23.235  1.00  0.00     0.325 C 
ATOM      5  O   UNL A   1      34.303  24.972  22.438  1.00  0.00    -0.250 OA
BRANCH   4   6
ATOM      6  C   UNL A   1      33.198  24.524  24.537  1.00  0.00     0.244 C 
BRANCH   6   7
ATOM      7  N   UNL A   1      31.794  24.984  24.618  1.00  0.00    -0.310 N 
BRANCH   7   8
ATOM      8  C   UNL A   1      31.213  24.824  25.958  1.00  0.00     0.149 C 
BRANCH   8   9
ATOM      9  C   UNL A   1      30.912  23.370  26.222  1.00  0.00    -0.013 C 
ATOM     10  C   UNL A   1      29.842  22.948  26.914  1.00  0.00     0.006 C 
ENDBRANCH   8   9
ENDBRANCH   7   8
BRANCH   7  11
ATOM     11  C   UNL A   1      30.978  25.672  23.720  1.00  0.00     0.321 C 
ATOM     12  O   UNL A   1      31.063  25.378  22.521  1.00  0.00    -0.248 OA
BRANCH  11  13
ATOM     13  N   UNL A   1      30.129  26.723  24.082  1.00  0.00    -0.319 N 
ATOM     14  C   UNL A   1      28.689  26.696  23.878  1.00  0.00     0.149 C 
BRANCH  13  15
ATOM     15  C   UNL A   1      30.759  28.114  24.138  1.00  0.00     0.141 C 
ATOM     16  C   UNL A   1      31.423  28.541  25.485  1.00  0.00     0.037 C 
ATOM     17  C   UNL A   1      31.799  28.496  23.018  1.00  0.00     0.287 C 
ATOM     18  C   UNL A   1      32.878  28.090  25.664  1.00  0.00     0.064 C 
ATOM     19  N   UNL A   1      33.135  27.900  23.197  1.00  0.00    -0.336 N 
ATOM     20  C   UNL A   1      33.752  28.378  24.439  1.00  0.00     0.262 C 
ATOM     21  C   UNL A   1      33.991  28.208  22.049  1.00  0.00     0.332 C 
ATOM     22  H   UNL A   1      33.030  26.888  23.259  1.00  0.00     0.347 HD
ENDBRANCH  13  15
ENDBRANCH  11  13
ENDBRANCH   7  11
ENDBRANCH   6   7
ENDBRANCH   4   6
ENDBRANCH   3   4
ENDBRANCH   2   3
ENDBRANCH   1   2
BRANCH   1  23
ATOM     23  O   UNL A   1      35.445  21.091  25.154  1.00  0.00    -0.374 OA
BRANCH  23  24
ATOM     24  C   UNL A   1      36.531  20.194  25.002  1.00  0.00     0.202 C 
BRANCH  24  25
ATOM     25  C   UNL A   1      37.961  20.726  24.974  1.00  0.00     0.261 C 
BRANCH  25  26
ATOM     26  O   UNL A   1      38.404  21.527  26.044  1.00  0.00    -0.460 OA
BRANCH  26  27
ATOM     27  C   UNL A   1      39.639  21.260  26.501  1.00  0.00     0.338 C 
ATOM     28  O   UNL A   1      40.257  20.220  26.501  1.00  0.00    -0.246 OA
BRANCH  27  29
ATOM     29  C   UNL A   1      40.146  22.584  26.872  1.00  0.00     0.060 A 
ATOM     30  C   UNL A   1      39.560  23.696  26.272  1.00  0.00     0.016 A 
ATOM     31  C   UNL A   1      41.107  22.709  27.885  1.00  0.00     0.016 A 
ATOM     32  C   UNL A   1      39.963  24.962  26.669  1.00  0.00     0.010 A 
ATOM     33  C   UNL A   1      41.505  23.976  28.286  1.00  0.00     0.010 A 
ATOM     34  C   UNL A   1      40.948  25.101  27.658  1.00  0.00    -0.014 A 
BRANCH  34  35
ATOM     35  C   UNL A   1      41.492  26.437  27.945  1.00  0.00     0.031 A 
ATOM     36  C   UNL A   1      42.869  26.762  27.456  1.00  0.00     0.074 A 
ATOM     37  C   UNL A   1      40.745  27.334  28.607  1.00  0.00     0.049 A 
ATOM     38  N   UNL A   1      43.547  27.873  27.563  1.00  0.00    -0.248 NA
ATOM     39  C   UNL A   1      43.580  25.683  26.750  1.00  0.00     0.031 C 
ATOM     40  C   UNL A   1      39.389  27.098  29.099  1.00  0.00     0.029 A 
ATOM     41  N   UNL A   1      41.021  28.622  28.977  1.00  0.00    -0.354 N 
ATOM     42  C   UNL A   1      44.761  27.626  26.941  1.00  0.00     0.074 A 
ATOM     43  C   UNL A   1      44.747  26.252  26.493  1.00  0.00     0.031 C 
ATOM     44  C   UNL A   1      38.943  28.215  29.698  1.00  0.00     0.029 A 
ATOM     45  C   UNL A   1      39.996  29.227  29.656  1.00  0.00     0.049 A 
ATOM     46  H   UNL A   1      41.874  29.071  28.774  1.00  0.00     0.167 HD
ATOM     47  C   UNL A   1      45.792  28.483  26.755  1.00  0.00     0.037 A 
ATOM     48  C   UNL A   1      39.929  30.463  30.185  1.00  0.00     0.037 A 
ATOM     49  C   UNL A   1      45.784  29.842  27.226  1.00  0.00     0.049 A 
ATOM     50  C   UNL A   1      41.111  31.379  30.018  1.00  0.00     0.074 A 
ATOM     51  C   UNL A   1      46.761  30.810  27.092  1.00  0.00     0.029 A 
ATOM     52  N   UNL A   1      44.740  30.416  27.941  1.00  0.00    -0.354 N 
ATOM     53  N   UNL A   1      42.246  31.160  29.396  1.00  0.00    -0.248 NA
ATOM     54  C   UNL A   1      41.006  32.713  30.622  1.00  0.00     0.031 C 
ATOM     55  C   UNL A   1      46.330  31.955  27.774  1.00  0.00     0.029 A 
ATOM     56  C   UNL A   1      45.060  31.720  28.279  1.00  0.00     0.049 A 
ATOM     57  H   UNL A   1      43.898  29.964  28.173  1.00  0.00     0.167 HD
ATOM     58  C   UNL A   1      42.974  32.335  29.499  1.00  0.00     0.074 A 
ATOM     59  C   UNL A   1      42.152  33.266  30.248  1.00  0.00     0.031 C 
ATOM     60  C   UNL A   1      44.208  32.624  29.014  1.00  0.00     0.037 A 
BRANCH  47  61
ATOM     61  C   UNL A   1      47.009  27.950  26.056  1.00  0.00     0.064 A 
ATOM     62  C   UNL A   1      47.077  27.851  24.657  1.00  0.00     0.173 A 
ATOM     63  C   UNL A   1      48.115  27.508  26.798  1.00  0.00     0.173 A 
ATOM     64  F   UNL A   1      46.041  28.242  23.901  1.00  0.00    -0.203 F 
ATOM     65  C   UNL A   1      48.188  27.288  24.031  1.00  0.00     0.198 A 
ATOM     66  C   UNL A   1      49.236  26.976  26.166  1.00  0.00     0.198 A 
ATOM     67  F   UNL A   1      48.103  27.579  28.137  1.00  0.00    -0.203 F 
ATOM     68  F   UNL A   1      48.200  27.140  22.699  1.00  0.00    -0.200 F 
ATOM     69  C   UNL A   1      49.267  26.855  24.785  1.00  0.00     0.200 A 
ATOM     70  F   UNL A   1      50.282  26.567  26.898  1.00  0.00    -0.200 F 
ATOM     71  F   UNL A   1      50.331  26.308  24.183  1.00  0.00    -0.200 F 
ENDBRANCH  47  61
BRANCH  48  72
ATOM     72  C   UNL A   1      38.693  30.897  30.886  1.00  0.00     0.064 A 
ATOM     73  C   UNL A   1      38.608  30.861  32.284  1.00  0.00     0.173 A 
ATOM     74  C   UNL A   1      37.589  31.394  30.177  1.00  0.00     0.173 A 
ATOM     75  F   UNL A   1      39.632  30.380  33.005  1.00  0.00    -0.203 F 
ATOM     76  C   UNL A   1      37.463  31.302  32.947  1.00  0.00     0.198 A 
ATOM     77  C   UNL A   1      36.456  31.856  30.842  1.00  0.00     0.198 A 
ATOM     78  F   UNL A   1      37.623  31.454  28.838  1.00  0.00    -0.203 F 
ATOM     79  F   UNL A   1      37.398  31.233  34.283  1.00  0.00    -0.200 F 
ATOM     80  C   UNL A   1      36.392  31.807  32.226  1.00  0.00     0.200 A 
ATOM     81  F   UNL A   1      35.429  32.358  30.142  1.00  0.00    -0.200 F 
ATOM     82  F   UNL A   1      35.298  32.244  32.865  1.00  0.00    -0.200 F 
ENDBRANCH  48  72
BRANCH  60  83
ATOM     83  C   UNL A   1      44.722  34.017  29.230  1.00  0.00     0.064 A 
ATOM     84  C   UNL A   1      44.429  35.058  28.338  1.00  0.00     0.173 A 
ATOM     85  C   UNL A   1      45.456  34.322  30.385  1.00  0.00     0.173 A 
ATOM     86  F   UNL A   1      43.741  34.811  27.213  1.00  0.00    -0.203 F 
ATOM     87  C   UNL A   1      44.866  36.355  28.590  1.00  0.00     0.198 A 
ATOM     88  C   UNL A   1      45.867  35.624  30.648  1.00  0.00     0.198 A 
ATOM     89  F   UNL A   1      45.755  33.360  31.271  1.00  0.00    -0.203 F 
ATOM     90  F   UNL A   1      44.607  37.330  27.708  1.00  0.00    -0.200 F 
ATOM     91  C   UNL A   1      45.576  36.639  29.749  1.00  0.00     0.200 A 
ATOM     92  F   UNL A   1      46.538  35.899  31.775  1.00  0.00    -0.200 F 
ATOM     93  F   UNL A   1      45.982  37.891  29.997  1.00  0.00    -0.200 F 
ENDBRANCH  60  83
ENDBRANCH  34  35
ENDBRANCH  27  29
ENDBRANCH  26  27
ENDBRANCH  25  26
ENDBRANCH  24  25
ENDBRANCH  23  24
ENDBRANCH   1  23
TORSDOF 20
ENDMDL
