MODEL 1
REMARK VINA RESULT:     -12.7      0.000      0.000
REMARK SMILES COc1cccc(-c2c([C@H]3c4ccccc4C(=O)N3CC(=O)OCCOCCOC(=O)c3ccc(-c4c5nc(c(-c6c(F)c(F)c(F)c(F)c6F)c6ccc([nH]6)c(-c6c(F)c(F)c(F)c(F)c6F)c6nc(c(-c7c(F)c(F)c(F)c(F)c7F)c7ccc4[nH]7)C=C6)C=C5)cc3)c3ccccc3n2C)c1
REMARK SMILES IDX 25 1 24 2 23 3 21 4 22 5 20 6 19 7 10 8 11 9 12 10 16 11
REMARK SMILES IDX 17 12 13 13 15 14 18 15 14 16 9 17 8 18 101 19 95 20 100 21
REMARK SMILES IDX 102 22 96 23 99 24 97 25 98 26 7 27 3 28 4 29 103 30 5 31
REMARK SMILES IDX 6 32 2 33 1 34 26 35 27 36 28 37 29 38 30 39 31 40 32 41
REMARK SMILES IDX 33 42 94 43 34 44 93 45 35 46 36 47 37 48 87 49 38 50 92 51
REMARK SMILES IDX 86 52 88 53 39 54 91 55 85 56 84 57 40 59 72 60 52 61 71 62
REMARK SMILES IDX 53 63 56 64 70 65 89 66 54 67 55 68 69 70 90 71 57 72 41 73
REMARK SMILES IDX 42 74 50 75 43 76 44 77 48 78 51 79 45 80 46 81 49 82 47 83
REMARK SMILES IDX 73 84 74 85 82 86 75 87 76 88 80 89 83 90 77 91 78 92 81 93
REMARK SMILES IDX 79 94 58 95 59 96 67 97 60 98 61 99 65 100 68 101 62 102
REMARK SMILES IDX 63 103 66 104 64 105
REMARK H PARENT 88 58 56 69
REMARK Flexibility Score: inf
ROOT
ATOM      1  C   UNL A   1      36.500  21.196  25.185  1.00  0.00     0.202 C 
ENDROOT
BRANCH   1   2
ATOM      2  C   UNL A   1      36.650  22.663  25.600  1.00  0.00     0.261 C 
BRANCH   2   3
ATOM      3  O   UNL A   1      35.752  23.513  24.873  1.00  0.00    -0.462 OA
BRANCH   3   4
ATOM      4  C   UNL A   1      34.851  24.173  25.636  1.00  0.00     0.325 C 
ATOM      5  O   UNL A   1      34.203  23.670  26.551  1.00  0.00    -0.250 OA
BRANCH   4   6
ATOM      6  C   UNL A   1      34.870  25.682  25.439  1.00  0.00     0.243 C 
BRANCH   6   7
ATOM      7  N   UNL A   1      33.814  26.483  24.794  1.00  0.00    -0.316 N 
ATOM      8  C   UNL A   1      32.787  26.948  25.732  1.00  0.00     0.150 C 
ATOM      9  C   UNL A   1      31.785  25.831  25.625  1.00  0.00    -0.008 A 
ATOM     10  C   UNL A   1      31.074  25.203  26.635  1.00  0.00     0.007 A 
ATOM     11  C   UNL A   1      31.939  25.204  24.386  1.00  0.00     0.045 A 
ATOM     12  C   UNL A   1      33.172  25.738  23.778  1.00  0.00     0.255 C 
ATOM     13  C   UNL A   1      30.517  23.947  26.367  1.00  0.00     0.000 A 
ATOM     14  C   UNL A   1      31.365  23.983  24.084  1.00  0.00     0.014 A 
ATOM     15  O   UNL A   1      33.649  25.359  22.729  1.00  0.00    -0.269 OA
ATOM     16  C   UNL A   1      30.647  23.349  25.099  1.00  0.00     0.001 A 
BRANCH   8  17
ATOM     17  C   UNL A   1      32.046  28.238  25.402  1.00  0.00     0.013 A 
ATOM     18  C   UNL A   1      32.346  29.485  25.978  1.00  0.00     0.055 A 
ATOM     19  N   UNL A   1      31.354  30.373  25.613  1.00  0.00    -0.343 N 
ATOM     20  C   UNL A   1      31.053  28.532  24.400  1.00  0.00     0.006 A 
ATOM     21  C   UNL A   1      30.649  29.863  24.546  1.00  0.00     0.049 A 
ATOM     22  C   UNL A   1      31.122  31.678  26.196  1.00  0.00     0.150 C 
ATOM     23  C   UNL A   1      30.482  27.805  23.343  1.00  0.00     0.011 A 
ATOM     24  C   UNL A   1      29.698  30.464  23.697  1.00  0.00     0.027 A 
ATOM     25  C   UNL A   1      29.554  28.394  22.474  1.00  0.00     0.001 A 
ATOM     26  C   UNL A   1      29.163  29.710  22.654  1.00  0.00     0.002 A 
BRANCH  18  27
ATOM     27  C   UNL A   1      33.543  29.826  26.753  1.00  0.00     0.002 A 
ATOM     28  C   UNL A   1      34.844  31.621  27.757  1.00  0.00     0.119 A 
ATOM     29  C   UNL A   1      35.895  30.728  27.951  1.00  0.00     0.046 A 
ATOM     30  C   UNL A   1      33.650  31.146  27.225  1.00  0.00     0.056 A 
ATOM     31  C   UNL A   1      35.771  29.391  27.566  1.00  0.00     0.005 A 
ATOM     32  C   UNL A   1      34.605  28.944  26.943  1.00  0.00     0.010 A 
BRANCH  28  33
ATOM     33  O   UNL A   1      35.094  32.924  28.091  1.00  0.00    -0.497 OA
ATOM     34  C   UNL A   1      33.963  33.788  28.172  1.00  0.00     0.278 C 
ENDBRANCH  28  33
ENDBRANCH  18  27
ENDBRANCH   8  17
ENDBRANCH   6   7
ENDBRANCH   4   6
ENDBRANCH   3   4
ENDBRANCH   2   3
ENDBRANCH   1   2
BRANCH   1  35
ATOM     35  O   UNL A   1      37.615  20.606  24.518  1.00  0.00    -0.374 OA
BRANCH  35  36
ATOM     36  C   UNL A   1      38.109  19.355  25.002  1.00  0.00     0.202 C 
BRANCH  36  37
ATOM     37  C   UNL A   1      39.471  19.356  25.705  1.00  0.00     0.261 C 
BRANCH  37  38
ATOM     38  O   UNL A   1      39.913  20.690  26.028  1.00  0.00    -0.460 OA
BRANCH  38  39
ATOM     39  C   UNL A   1      40.781  20.774  27.059  1.00  0.00     0.338 C 
ATOM     40  O   UNL A   1      41.484  19.877  27.500  1.00  0.00    -0.246 OA
BRANCH  39  41
ATOM     41  C   UNL A   1      40.901  22.158  27.561  1.00  0.00     0.060 A 
ATOM     42  C   UNL A   1      40.217  23.160  26.866  1.00  0.00     0.016 A 
ATOM     43  C   UNL A   1      41.798  22.502  28.572  1.00  0.00     0.016 A 
ATOM     44  C   UNL A   1      40.499  24.501  27.119  1.00  0.00     0.010 A 
ATOM     45  C   UNL A   1      42.108  23.837  28.807  1.00  0.00     0.010 A 
ATOM     46  C   UNL A   1      41.493  24.836  28.047  1.00  0.00    -0.014 A 
BRANCH  46  47
ATOM     47  C   UNL A   1      41.986  26.220  28.155  1.00  0.00     0.031 A 
ATOM     48  C   UNL A   1      43.338  26.559  27.602  1.00  0.00     0.074 A 
ATOM     49  C   UNL A   1      41.257  27.130  28.818  1.00  0.00     0.049 A 
ATOM     50  N   UNL A   1      43.948  27.715  27.556  1.00  0.00    -0.248 NA
ATOM     51  C   UNL A   1      44.117  25.444  27.037  1.00  0.00     0.031 C 
ATOM     52  C   UNL A   1      39.965  26.871  29.451  1.00  0.00     0.029 A 
ATOM     53  N   UNL A   1      41.516  28.444  29.094  1.00  0.00    -0.354 N 
ATOM     54  C   UNL A   1      45.164  27.474  26.931  1.00  0.00     0.074 A 
ATOM     55  C   UNL A   1      45.230  26.055  26.658  1.00  0.00     0.031 C 
ATOM     56  C   UNL A   1      39.554  27.989  30.071  1.00  0.00     0.029 A 
ATOM     57  C   UNL A   1      40.553  29.036  29.869  1.00  0.00     0.049 A 
ATOM     58  H   UNL A   1      42.316  28.918  28.770  1.00  0.00     0.167 HD
ATOM     59  C   UNL A   1      46.127  28.369  26.603  1.00  0.00     0.037 A 
ATOM     60  C   UNL A   1      40.493  30.288  30.357  1.00  0.00     0.037 A 
ATOM     61  C   UNL A   1      46.057  29.770  26.923  1.00  0.00     0.049 A 
ATOM     62  C   UNL A   1      41.579  31.261  29.992  1.00  0.00     0.074 A 
ATOM     63  C   UNL A   1      46.941  30.781  26.591  1.00  0.00     0.029 A 
ATOM     64  N   UNL A   1      45.048  30.351  27.680  1.00  0.00    -0.354 N 
ATOM     65  N   UNL A   1      42.664  31.062  29.283  1.00  0.00    -0.248 NA
ATOM     66  C   UNL A   1      41.418  32.639  30.471  1.00  0.00     0.031 C 
ATOM     67  C   UNL A   1      46.490  31.966  27.185  1.00  0.00     0.029 A 
ATOM     68  C   UNL A   1      45.301  31.702  27.847  1.00  0.00     0.049 A 
ATOM     69  H   UNL A   1      44.267  29.873  28.041  1.00  0.00     0.167 HD
ATOM     70  C   UNL A   1      43.301  32.291  29.204  1.00  0.00     0.074 A 
ATOM     71  C   UNL A   1      42.474  33.234  29.933  1.00  0.00     0.031 C 
ATOM     72  C   UNL A   1      44.459  32.616  28.578  1.00  0.00     0.037 A 
BRANCH  59  73
ATOM     73  C   UNL A   1      47.327  27.860  25.862  1.00  0.00     0.064 A 
ATOM     74  C   UNL A   1      47.329  27.759  24.461  1.00  0.00     0.173 A 
ATOM     75  C   UNL A   1      48.504  27.518  26.544  1.00  0.00     0.173 A 
ATOM     76  F   UNL A   1      46.228  28.067  23.759  1.00  0.00    -0.203 F 
ATOM     77  C   UNL A   1      48.458  27.316  23.775  1.00  0.00     0.198 A 
ATOM     78  C   UNL A   1      49.637  27.096  25.853  1.00  0.00     0.198 A 
ATOM     79  F   UNL A   1      48.557  27.599  27.882  1.00  0.00    -0.203 F 
ATOM     80  F   UNL A   1      48.425  27.195  22.440  1.00  0.00    -0.200 F 
ATOM     81  C   UNL A   1      49.613  26.991  24.470  1.00  0.00     0.200 A 
ATOM     82  F   UNL A   1      50.757  26.793  26.526  1.00  0.00    -0.200 F 
ATOM     83  F   UNL A   1      50.701  26.574  23.808  1.00  0.00    -0.200 F 
ENDBRANCH  59  73
BRANCH  60  84
ATOM     84  C   UNL A   1      39.335  30.690  31.190  1.00  0.00     0.064 A 
ATOM     85  C   UNL A   1      39.280  30.360  32.550  1.00  0.00     0.173 A 
ATOM     86  C   UNL A   1      38.281  31.443  30.654  1.00  0.00     0.173 A 
ATOM     87  F   UNL A   1      40.261  29.629  33.101  1.00  0.00    -0.203 F 
ATOM     88  C   UNL A   1      38.206  30.757  33.343  1.00  0.00     0.198 A 
ATOM     89  C   UNL A   1      37.217  31.857  31.452  1.00  0.00     0.198 A 
ATOM     90  F   UNL A   1      38.293  31.789  29.358  1.00  0.00    -0.203 F 
ATOM     91  F   UNL A   1      38.163  30.403  34.634  1.00  0.00    -0.200 F 
ATOM     92  C   UNL A   1      37.179  31.510  32.794  1.00  0.00     0.200 A 
ATOM     93  F   UNL A   1      36.232  32.596  30.923  1.00  0.00    -0.200 F 
ATOM     94  F   UNL A   1      36.149  31.900  33.560  1.00  0.00    -0.200 F 
ENDBRANCH  60  84
BRANCH  72  95
ATOM     95  C   UNL A   1      44.883  34.053  28.636  1.00  0.00     0.064 A 
ATOM     96  C   UNL A   1      45.688  34.540  29.674  1.00  0.00     0.173 A 
ATOM     97  C   UNL A   1      44.503  34.943  27.621  1.00  0.00     0.173 A 
ATOM     98  F   UNL A   1      46.063  33.729  30.676  1.00  0.00    -0.203 F 
ATOM     99  C   UNL A   1      46.078  35.876  29.708  1.00  0.00     0.198 A 
ATOM    100  C   UNL A   1      44.917  36.271  27.643  1.00  0.00     0.198 A 
ATOM    101  F   UNL A   1      43.738  34.522  26.602  1.00  0.00    -0.203 F 
ATOM    102  F   UNL A   1      46.810  36.332  30.733  1.00  0.00    -0.200 F 
ATOM    103  C   UNL A   1      45.698  36.738  28.690  1.00  0.00     0.200 A 
ATOM    104  F   UNL A   1      44.557  37.101  26.654  1.00  0.00    -0.200 F 
ATOM    105  F   UNL A   1      46.077  38.022  28.722  1.00  0.00    -0.200 F 
ENDBRANCH  72  95
ENDBRANCH  46  47
ENDBRANCH  39  41
ENDBRANCH  38  39
ENDBRANCH  37  38
ENDBRANCH  36  37
ENDBRANCH  35  36
ENDBRANCH   1  35
TORSDOF 18
ENDMDL
MODEL 2
REMARK VINA RESULT:     -11.7      5.318     10.487
REMARK SMILES COc1cccc(-c2c([C@H]3c4ccccc4C(=O)N3CC(=O)OCCOCCOC(=O)c3ccc(-c4c5nc(c(-c6c(F)c(F)c(F)c(F)c6F)c6ccc([nH]6)c(-c6c(F)c(F)c(F)c(F)c6F)c6nc(c(-c7c(F)c(F)c(F)c(F)c7F)c7ccc4[nH]7)C=C6)C=C5)cc3)c3ccccc3n2C)c1
REMARK SMILES IDX 25 1 24 2 23 3 21 4 22 5 20 6 19 7 10 8 11 9 12 10 16 11
REMARK SMILES IDX 17 12 13 13 15 14 18 15 14 16 9 17 8 18 101 19 95 20 100 21
REMARK SMILES IDX 102 22 96 23 99 24 97 25 98 26 7 27 3 28 4 29 103 30 5 31
REMARK SMILES IDX 6 32 2 33 1 34 26 35 27 36 28 37 29 38 30 39 31 40 32 41
REMARK SMILES IDX 33 42 94 43 34 44 93 45 35 46 36 47 37 48 87 49 38 50 92 51
REMARK SMILES IDX 86 52 88 53 39 54 91 55 85 56 84 57 40 59 72 60 52 61 71 62
REMARK SMILES IDX 53 63 56 64 70 65 89 66 54 67 55 68 69 70 90 71 57 72 41 73
REMARK SMILES IDX 42 74 50 75 43 76 44 77 48 78 51 79 45 80 46 81 49 82 47 83
REMARK SMILES IDX 73 84 74 85 82 86 75 87 76 88 80 89 83 90 77 91 78 92 81 93
REMARK SMILES IDX 79 94 58 95 59 96 67 97 60 98 61 99 65 100 68 101 62 102
REMARK SMILES IDX 63 103 66 104 64 105
REMARK H PARENT 88 58 56 69
REMARK Flexibility Score: inf
ROOT
ATOM      1  C   UNL A   1      38.240  33.229  37.024  1.00  0.00     0.202 C 
ENDROOT
BRANCH   1   2
ATOM      2  C   UNL A   1      37.173  33.812  36.092  1.00  0.00     0.261 C 
BRANCH   2   3
ATOM      3  O   UNL A   1      37.718  34.152  34.810  1.00  0.00    -0.462 OA
BRANCH   3   4
ATOM      4  C   UNL A   1      36.821  34.641  33.923  1.00  0.00     0.325 C 
ATOM      5  O   UNL A   1      35.682  35.008  34.205  1.00  0.00    -0.250 OA
BRANCH   4   6
ATOM      6  C   UNL A   1      37.414  34.941  32.554  1.00  0.00     0.243 C 
BRANCH   6   7
ATOM      7  N   UNL A   1      37.515  33.994  31.429  1.00  0.00    -0.316 N 
ATOM      8  C   UNL A   1      36.589  32.863  31.542  1.00  0.00     0.150 C 
ATOM      9  C   UNL A   1      37.458  31.862  32.255  1.00  0.00    -0.008 A 
ATOM     10  C   UNL A   1      37.127  31.013  33.300  1.00  0.00     0.007 A 
ATOM     11  C   UNL A   1      38.798  32.165  32.001  1.00  0.00     0.045 A 
ATOM     12  C   UNL A   1      38.827  33.477  31.327  1.00  0.00     0.255 C 
ATOM     13  C   UNL A   1      38.165  30.473  34.065  1.00  0.00     0.000 A 
ATOM     14  C   UNL A   1      39.844  31.612  32.717  1.00  0.00     0.014 A 
ATOM     15  O   UNL A   1      39.835  34.080  31.026  1.00  0.00    -0.269 OA
ATOM     16  C   UNL A   1      39.512  30.756  33.768  1.00  0.00     0.001 A 
BRANCH   8  17
ATOM     17  C   UNL A   1      36.112  32.195  30.258  1.00  0.00     0.013 A 
ATOM     18  C   UNL A   1      35.123  32.732  29.415  1.00  0.00     0.055 A 
ATOM     19  N   UNL A   1      34.799  31.775  28.475  1.00  0.00    -0.343 N 
ATOM     20  C   UNL A   1      36.604  31.042  29.549  1.00  0.00     0.006 A 
ATOM     21  C   UNL A   1      35.780  30.808  28.444  1.00  0.00     0.049 A 
ATOM     22  C   UNL A   1      33.651  31.801  27.592  1.00  0.00     0.150 C 
ATOM     23  C   UNL A   1      37.706  30.187  29.713  1.00  0.00     0.011 A 
ATOM     24  C   UNL A   1      36.011  29.758  27.532  1.00  0.00     0.027 A 
ATOM     25  C   UNL A   1      37.966  29.154  28.802  1.00  0.00     0.001 A 
ATOM     26  C   UNL A   1      37.122  28.939  27.726  1.00  0.00     0.002 A 
BRANCH  18  27
ATOM     27  C   UNL A   1      34.587  34.096  29.453  1.00  0.00     0.002 A 
ATOM     28  C   UNL A   1      33.129  35.651  30.628  1.00  0.00     0.119 A 
ATOM     29  C   UNL A   1      33.224  36.528  29.550  1.00  0.00     0.046 A 
ATOM     30  C   UNL A   1      33.869  34.474  30.602  1.00  0.00     0.056 A 
ATOM     31  C   UNL A   1      34.005  36.204  28.438  1.00  0.00     0.005 A 
ATOM     32  C   UNL A   1      34.666  34.977  28.376  1.00  0.00     0.010 A 
BRANCH  28  33
ATOM     33  O   UNL A   1      32.276  36.023  31.630  1.00  0.00    -0.497 OA
ATOM     34  C   UNL A   1      32.864  36.659  32.763  1.00  0.00     0.278 C 
ENDBRANCH  28  33
ENDBRANCH  18  27
ENDBRANCH   8  17
ENDBRANCH   6   7
ENDBRANCH   4   6
ENDBRANCH   3   4
ENDBRANCH   2   3
ENDBRANCH   1   2
BRANCH   1  35
ATOM     35  O   UNL A   1      38.161  33.609  38.398  1.00  0.00    -0.374 OA
BRANCH  35  36
ATOM     36  C   UNL A   1      39.369  33.637  39.162  1.00  0.00     0.202 C 
BRANCH  36  37
ATOM     37  C   UNL A   1      39.744  34.958  39.843  1.00  0.00     0.261 C 
BRANCH  37  38
ATOM     38  O   UNL A   1      39.990  36.009  38.887  1.00  0.00    -0.460 OA
BRANCH  38  39
ATOM     39  C   UNL A   1      41.288  36.341  38.717  1.00  0.00     0.338 C 
ATOM     40  O   UNL A   1      42.032  36.839  39.549  1.00  0.00    -0.246 OA
BRANCH  39  41
ATOM     41  C   UNL A   1      41.793  35.916  37.395  1.00  0.00     0.060 A 
ATOM     42  C   UNL A   1      40.853  35.713  36.380  1.00  0.00     0.016 A 
ATOM     43  C   UNL A   1      43.123  35.549  37.197  1.00  0.00     0.016 A 
ATOM     44  C   UNL A   1      41.227  35.061  35.205  1.00  0.00     0.010 A 
ATOM     45  C   UNL A   1      43.495  34.869  36.042  1.00  0.00     0.010 A 
ATOM     46  C   UNL A   1      42.536  34.583  35.066  1.00  0.00    -0.014 A 
BRANCH  46  47
ATOM     47  C   UNL A   1      42.893  33.681  33.957  1.00  0.00     0.031 A 
ATOM     48  C   UNL A   1      43.069  34.249  32.580  1.00  0.00     0.074 A 
ATOM     49  C   UNL A   1      42.973  32.361  34.181  1.00  0.00     0.049 A 
ATOM     50  N   UNL A   1      43.418  33.645  31.474  1.00  0.00    -0.248 NA
ATOM     51  C   UNL A   1      42.801  35.688  32.423  1.00  0.00     0.031 C 
ATOM     52  C   UNL A   1      42.746  31.714  35.472  1.00  0.00     0.029 A 
ATOM     53  N   UNL A   1      43.234  31.329  33.322  1.00  0.00    -0.354 N 
ATOM     54  C   UNL A   1      43.443  34.633  30.499  1.00  0.00     0.074 A 
ATOM     55  C   UNL A   1      43.028  35.866  31.129  1.00  0.00     0.031 C 
ATOM     56  C   UNL A   1      42.849  30.384  35.314  1.00  0.00     0.029 A 
ATOM     57  C   UNL A   1      43.156  30.096  33.914  1.00  0.00     0.049 A 
ATOM     58  H   UNL A   1      43.456  31.459  32.371  1.00  0.00     0.167 HD
ATOM     59  C   UNL A   1      43.799  34.513  29.197  1.00  0.00     0.037 A 
ATOM     60  C   UNL A   1      43.316  28.874  33.378  1.00  0.00     0.037 A 
ATOM     61  C   UNL A   1      44.169  33.265  28.582  1.00  0.00     0.049 A 
ATOM     62  C   UNL A   1      43.698  28.763  31.928  1.00  0.00     0.074 A 
ATOM     63  C   UNL A   1      44.606  33.031  27.291  1.00  0.00     0.029 A 
ATOM     64  N   UNL A   1      44.116  32.033  29.218  1.00  0.00    -0.354 N 
ATOM     65  N   UNL A   1      43.854  29.714  31.039  1.00  0.00    -0.248 NA
ATOM     66  C   UNL A   1      43.953  27.411  31.414  1.00  0.00     0.031 C 
ATOM     67  C   UNL A   1      44.774  31.650  27.132  1.00  0.00     0.029 A 
ATOM     68  C   UNL A   1      44.487  31.030  28.338  1.00  0.00     0.049 A 
ATOM     69  H   UNL A   1      43.855  31.893  30.157  1.00  0.00     0.167 HD
ATOM     70  C   UNL A   1      44.255  29.084  29.870  1.00  0.00     0.074 A 
ATOM     71  C   UNL A   1      44.325  27.666  30.167  1.00  0.00     0.031 C 
ATOM     72  C   UNL A   1      44.547  29.627  28.663  1.00  0.00     0.037 A 
BRANCH  59  73
ATOM     73  C   UNL A   1      43.810  35.758  28.361  1.00  0.00     0.064 A 
ATOM     74  C   UNL A   1      42.627  36.272  27.805  1.00  0.00     0.173 A 
ATOM     75  C   UNL A   1      44.997  36.476  28.153  1.00  0.00     0.173 A 
ATOM     76  F   UNL A   1      41.465  35.622  27.967  1.00  0.00    -0.203 F 
ATOM     77  C   UNL A   1      42.638  37.446  27.055  1.00  0.00     0.198 A 
ATOM     78  C   UNL A   1      44.999  37.661  27.421  1.00  0.00     0.198 A 
ATOM     79  F   UNL A   1      46.154  36.031  28.665  1.00  0.00    -0.203 F 
ATOM     80  F   UNL A   1      41.502  37.899  26.505  1.00  0.00    -0.200 F 
ATOM     81  C   UNL A   1      43.822  38.143  26.869  1.00  0.00     0.200 A 
ATOM     82  F   UNL A   1      46.143  38.340  27.252  1.00  0.00    -0.200 F 
ATOM     83  F   UNL A   1      43.828  39.278  26.156  1.00  0.00    -0.200 F 
ENDBRANCH  59  73
BRANCH  60  84
ATOM     84  C   UNL A   1      43.168  27.676  34.238  1.00  0.00     0.064 A 
ATOM     85  C   UNL A   1      41.912  27.095  34.450  1.00  0.00     0.173 A 
ATOM     86  C   UNL A   1      44.282  27.066  34.832  1.00  0.00     0.173 A 
ATOM     87  F   UNL A   1      40.817  27.653  33.911  1.00  0.00    -0.203 F 
ATOM     88  C   UNL A   1      41.771  25.954  35.237  1.00  0.00     0.198 A 
ATOM     89  C   UNL A   1      44.143  25.914  35.602  1.00  0.00     0.198 A 
ATOM     90  F   UNL A   1      45.507  27.582  34.651  1.00  0.00    -0.203 F 
ATOM     91  F   UNL A   1      40.554  25.435  35.448  1.00  0.00    -0.200 F 
ATOM     92  C   UNL A   1      42.888  25.361  35.807  1.00  0.00     0.200 A 
ATOM     93  F   UNL A   1      45.226  25.335  36.141  1.00  0.00    -0.200 F 
ATOM     94  F   UNL A   1      42.753  24.258  36.557  1.00  0.00    -0.200 F 
ENDBRANCH  60  84
BRANCH  72  95
ATOM     95  C   UNL A   1      44.993  28.686  27.585  1.00  0.00     0.064 A 
ATOM     96  C   UNL A   1      46.345  28.361  27.407  1.00  0.00     0.173 A 
ATOM     97  C   UNL A   1      44.051  28.078  26.741  1.00  0.00     0.173 A 
ATOM     98  F   UNL A   1      47.284  28.930  28.180  1.00  0.00    -0.203 F 
ATOM     99  C   UNL A   1      46.742  27.479  26.406  1.00  0.00     0.198 A 
ATOM    100  C   UNL A   1      44.448  27.177  25.759  1.00  0.00     0.198 A 
ATOM    101  F   UNL A   1      42.745  28.352  26.876  1.00  0.00    -0.203 F 
ATOM    102  F   UNL A   1      48.043  27.217  26.223  1.00  0.00    -0.200 F 
ATOM    103  C   UNL A   1      45.793  26.884  25.587  1.00  0.00     0.200 A 
ATOM    104  F   UNL A   1      43.530  26.594  24.976  1.00  0.00    -0.200 F 
ATOM    105  F   UNL A   1      46.176  26.032  24.627  1.00  0.00    -0.200 F 
ENDBRANCH  72  95
ENDBRANCH  46  47
ENDBRANCH  39  41
ENDBRANCH  38  39
ENDBRANCH  37  38
ENDBRANCH  36  37
ENDBRANCH  35  36
ENDBRANCH   1  35
TORSDOF 18
ENDMDL
MODEL 3
REMARK VINA RESULT:     -11.7      5.715     11.785
REMARK SMILES COc1cccc(-c2c([C@H]3c4ccccc4C(=O)N3CC(=O)OCCOCCOC(=O)c3ccc(-c4c5nc(c(-c6c(F)c(F)c(F)c(F)c6F)c6ccc([nH]6)c(-c6c(F)c(F)c(F)c(F)c6F)c6nc(c(-c7c(F)c(F)c(F)c(F)c7F)c7ccc4[nH]7)C=C6)C=C5)cc3)c3ccccc3n2C)c1
REMARK SMILES IDX 25 1 24 2 23 3 21 4 22 5 20 6 19 7 10 8 11 9 12 10 16 11
REMARK SMILES IDX 17 12 13 13 15 14 18 15 14 16 9 17 8 18 101 19 95 20 100 21
REMARK SMILES IDX 102 22 96 23 99 24 97 25 98 26 7 27 3 28 4 29 103 30 5 31
REMARK SMILES IDX 6 32 2 33 1 34 26 35 27 36 28 37 29 38 30 39 31 40 32 41
REMARK SMILES IDX 33 42 94 43 34 44 93 45 35 46 36 47 37 48 87 49 38 50 92 51
REMARK SMILES IDX 86 52 88 53 39 54 91 55 85 56 84 57 40 59 72 60 52 61 71 62
REMARK SMILES IDX 53 63 56 64 70 65 89 66 54 67 55 68 69 70 90 71 57 72 41 73
REMARK SMILES IDX 42 74 50 75 43 76 44 77 48 78 51 79 45 80 46 81 49 82 47 83
REMARK SMILES IDX 73 84 74 85 82 86 75 87 76 88 80 89 83 90 77 91 78 92 81 93
REMARK SMILES IDX 79 94 58 95 59 96 67 97 60 98 61 99 65 100 68 101 62 102
REMARK SMILES IDX 63 103 66 104 64 105
REMARK H PARENT 88 58 56 69
REMARK Flexibility Score: inf
ROOT
ATOM      1  C   UNL A   1      50.683  29.002  33.982  1.00  0.00     0.202 C 
ENDROOT
BRANCH   1   2
ATOM      2  C   UNL A   1      49.768  29.129  32.759  1.00  0.00     0.261 C 
BRANCH   2   3
ATOM      3  O   UNL A   1      50.521  29.298  31.550  1.00  0.00    -0.462 OA
BRANCH   3   4
ATOM      4  C   UNL A   1      50.449  28.259  30.686  1.00  0.00     0.325 C 
ATOM      5  O   UNL A   1      50.946  27.151  30.876  1.00  0.00    -0.250 OA
BRANCH   4   6
ATOM      6  C   UNL A   1      49.478  28.485  29.536  1.00  0.00     0.243 C 
BRANCH   6   7
ATOM      7  N   UNL A   1      48.356  27.603  29.166  1.00  0.00    -0.316 N 
ATOM      8  C   UNL A   1      48.115  27.551  27.721  1.00  0.00     0.150 C 
ATOM      9  C   UNL A   1      47.095  28.647  27.569  1.00  0.00    -0.008 A 
ATOM     10  C   UNL A   1      47.010  29.624  26.589  1.00  0.00     0.007 A 
ATOM     11  C   UNL A   1      46.436  28.823  28.788  1.00  0.00     0.045 A 
ATOM     12  C   UNL A   1      47.162  28.025  29.794  1.00  0.00     0.255 C 
ATOM     13  C   UNL A   1      46.245  30.763  26.859  1.00  0.00     0.000 A 
ATOM     14  C   UNL A   1      45.641  29.920  29.063  1.00  0.00     0.014 A 
ATOM     15  O   UNL A   1      46.905  28.003  30.980  1.00  0.00    -0.269 OA
ATOM     16  C   UNL A   1      45.553  30.904  28.077  1.00  0.00     0.001 A 
BRANCH   8  17
ATOM     17  C   UNL A   1      47.490  26.286  27.143  1.00  0.00     0.013 A 
ATOM     18  C   UNL A   1      47.866  25.717  25.914  1.00  0.00     0.055 A 
ATOM     19  N   UNL A   1      46.962  24.718  25.613  1.00  0.00    -0.343 N 
ATOM     20  C   UNL A   1      46.563  25.342  27.711  1.00  0.00     0.006 A 
ATOM     21  C   UNL A   1      46.259  24.375  26.747  1.00  0.00     0.049 A 
ATOM     22  C   UNL A   1      46.812  24.063  24.331  1.00  0.00     0.150 C 
ATOM     23  C   UNL A   1      45.975  25.184  28.977  1.00  0.00     0.011 A 
ATOM     24  C   UNL A   1      45.391  23.295  27.003  1.00  0.00     0.027 A 
ATOM     25  C   UNL A   1      45.130  24.101  29.256  1.00  0.00     0.001 A 
ATOM     26  C   UNL A   1      44.838  23.170  28.275  1.00  0.00     0.002 A 
BRANCH  18  27
ATOM     27  C   UNL A   1      49.057  26.046  25.124  1.00  0.00     0.002 A 
ATOM     28  C   UNL A   1      51.489  26.132  25.095  1.00  0.00     0.119 A 
ATOM     29  C   UNL A   1      51.432  26.881  23.922  1.00  0.00     0.046 A 
ATOM     30  C   UNL A   1      50.304  25.660  25.648  1.00  0.00     0.056 A 
ATOM     31  C   UNL A   1      50.201  27.198  23.342  1.00  0.00     0.005 A 
ATOM     32  C   UNL A   1      49.011  26.803  23.956  1.00  0.00     0.010 A 
BRANCH  28  33
ATOM     33  O   UNL A   1      52.735  25.946  25.627  1.00  0.00    -0.497 OA
ATOM     34  C   UNL A   1      53.316  24.656  25.448  1.00  0.00     0.278 C 
ENDBRANCH  28  33
ENDBRANCH  18  27
ENDBRANCH   8  17
ENDBRANCH   6   7
ENDBRANCH   4   6
ENDBRANCH   3   4
ENDBRANCH   2   3
ENDBRANCH   1   2
BRANCH   1  35
ATOM     35  O   UNL A   1      50.729  27.722  34.612  1.00  0.00    -0.374 OA
BRANCH  35  36
ATOM     36  C   UNL A   1      49.871  26.692  34.113  1.00  0.00     0.202 C 
BRANCH  36  37
ATOM     37  C   UNL A   1      49.547  25.525  35.051  1.00  0.00     0.261 C 
BRANCH  37  38
ATOM     38  O   UNL A   1      48.415  25.808  35.898  1.00  0.00    -0.460 OA
BRANCH  38  39
ATOM     39  C   UNL A   1      47.304  25.086  35.635  1.00  0.00     0.338 C 
ATOM     40  O   UNL A   1      47.194  23.870  35.679  1.00  0.00    -0.246 OA
BRANCH  39  41
ATOM     41  C   UNL A   1      46.133  25.953  35.390  1.00  0.00     0.060 A 
ATOM     42  C   UNL A   1      44.872  25.349  35.385  1.00  0.00     0.016 A 
ATOM     43  C   UNL A   1      46.269  27.284  34.998  1.00  0.00     0.016 A 
ATOM     44  C   UNL A   1      43.767  26.048  34.901  1.00  0.00     0.010 A 
ATOM     45  C   UNL A   1      45.178  27.975  34.482  1.00  0.00     0.010 A 
ATOM     46  C   UNL A   1      43.936  27.341  34.390  1.00  0.00    -0.014 A 
BRANCH  46  47
ATOM     47  C   UNL A   1      42.849  28.005  33.649  1.00  0.00     0.031 A 
ATOM     48  C   UNL A   1      42.730  27.780  32.171  1.00  0.00     0.074 A 
ATOM     49  C   UNL A   1      42.040  28.860  34.291  1.00  0.00     0.049 A 
ATOM     50  N   UNL A   1      41.833  28.233  31.334  1.00  0.00    -0.248 NA
ATOM     51  C   UNL A   1      43.770  26.946  31.545  1.00  0.00     0.031 C 
ATOM     52  C   UNL A   1      42.129  29.194  35.711  1.00  0.00     0.029 A 
ATOM     53  N   UNL A   1      41.008  29.626  33.822  1.00  0.00    -0.354 N 
ATOM     54  C   UNL A   1      42.179  27.714  30.094  1.00  0.00     0.074 A 
ATOM     55  C   UNL A   1      43.395  26.953  30.274  1.00  0.00     0.031 C 
ATOM     56  C   UNL A   1      41.204  30.125  35.995  1.00  0.00     0.029 A 
ATOM     57  C   UNL A   1      40.460  30.441  34.778  1.00  0.00     0.049 A 
ATOM     58  H   UNL A   1      40.690  29.596  32.891  1.00  0.00     0.167 HD
ATOM     59  C   UNL A   1      41.523  27.854  28.917  1.00  0.00     0.037 A 
ATOM     60  C   UNL A   1      39.466  31.340  34.673  1.00  0.00     0.037 A 
ATOM     61  C   UNL A   1      40.336  28.653  28.754  1.00  0.00     0.049 A 
ATOM     62  C   UNL A   1      38.761  31.490  33.353  1.00  0.00     0.074 A 
ATOM     63  C   UNL A   1      39.552  28.820  27.627  1.00  0.00     0.029 A 
ATOM     64  N   UNL A   1      39.780  29.441  29.752  1.00  0.00    -0.354 N 
ATOM     65  N   UNL A   1      39.007  30.893  32.212  1.00  0.00    -0.248 NA
ATOM     66  C   UNL A   1      37.622  32.415  33.315  1.00  0.00     0.031 C 
ATOM     67  C   UNL A   1      38.547  29.746  27.930  1.00  0.00     0.029 A 
ATOM     68  C   UNL A   1      38.678  30.119  29.259  1.00  0.00     0.049 A 
ATOM     69  H   UNL A   1      40.119  29.506  30.674  1.00  0.00     0.167 HD
ATOM     70  C   UNL A   1      38.039  31.345  31.327  1.00  0.00     0.074 A 
ATOM     71  C   UNL A   1      37.195  32.262  32.069  1.00  0.00     0.031 C 
ATOM     72  C   UNL A   1      37.857  31.025  30.022  1.00  0.00     0.037 A 
BRANCH  59  73
ATOM     73  C   UNL A   1      42.071  27.128  27.724  1.00  0.00     0.064 A 
ATOM     74  C   UNL A   1      43.021  27.727  26.880  1.00  0.00     0.173 A 
ATOM     75  C   UNL A   1      41.688  25.808  27.446  1.00  0.00     0.173 A 
ATOM     76  F   UNL A   1      43.417  28.990  27.096  1.00  0.00    -0.203 F 
ATOM     77  C   UNL A   1      43.550  27.036  25.792  1.00  0.00     0.198 A 
ATOM     78  C   UNL A   1      42.236  25.114  26.370  1.00  0.00     0.198 A 
ATOM     79  F   UNL A   1      40.787  25.188  28.223  1.00  0.00    -0.203 F 
ATOM     80  F   UNL A   1      44.429  27.640  24.980  1.00  0.00    -0.200 F 
ATOM     81  C   UNL A   1      43.162  25.729  25.541  1.00  0.00     0.200 A 
ATOM     82  F   UNL A   1      41.869  23.846  26.136  1.00  0.00    -0.200 F 
ATOM     83  F   UNL A   1      43.679  25.063  24.499  1.00  0.00    -0.200 F 
ENDBRANCH  59  73
BRANCH  60  84
ATOM     84  C   UNL A   1      39.057  32.117  35.867  1.00  0.00     0.064 A 
ATOM     85  C   UNL A   1      39.488  33.437  36.048  1.00  0.00     0.173 A 
ATOM     86  C   UNL A   1      38.196  31.569  36.829  1.00  0.00     0.173 A 
ATOM     87  F   UNL A   1      40.323  33.996  35.159  1.00  0.00    -0.203 F 
ATOM     88  C   UNL A   1      39.086  34.178  37.156  1.00  0.00     0.198 A 
ATOM     89  C   UNL A   1      37.778  32.319  37.926  1.00  0.00     0.198 A 
ATOM     90  F   UNL A   1      37.751  30.312  36.695  1.00  0.00    -0.203 F 
ATOM     91  F   UNL A   1      39.536  35.429  37.321  1.00  0.00    -0.200 F 
ATOM     92  C   UNL A   1      38.226  33.621  38.091  1.00  0.00     0.200 A 
ATOM     93  F   UNL A   1      36.937  31.781  38.821  1.00  0.00    -0.200 F 
ATOM     94  F   UNL A   1      37.832  34.338  39.152  1.00  0.00    -0.200 F 
ENDBRANCH  60  84
BRANCH  72  95
ATOM     95  C   UNL A   1      36.687  31.653  29.326  1.00  0.00     0.064 A 
ATOM     96  C   UNL A   1      35.556  30.905  28.971  1.00  0.00     0.173 A 
ATOM     97  C   UNL A   1      36.688  33.026  29.039  1.00  0.00     0.173 A 
ATOM     98  F   UNL A   1      35.517  29.585  29.212  1.00  0.00    -0.203 F 
ATOM     99  C   UNL A   1      34.475  31.505  28.332  1.00  0.00     0.198 A 
ATOM    100  C   UNL A   1      35.595  33.629  28.424  1.00  0.00     0.198 A 
ATOM    101  F   UNL A   1      37.745  33.786  29.364  1.00  0.00    -0.203 F 
ATOM    102  F   UNL A   1      33.422  30.764  27.961  1.00  0.00    -0.200 F 
ATOM    103  C   UNL A   1      34.493  32.866  28.064  1.00  0.00     0.200 A 
ATOM    104  F   UNL A   1      35.609  34.945  28.175  1.00  0.00    -0.200 F 
ATOM    105  F   UNL A   1      33.450  33.443  27.452  1.00  0.00    -0.200 F 
ENDBRANCH  72  95
ENDBRANCH  46  47
ENDBRANCH  39  41
ENDBRANCH  38  39
ENDBRANCH  37  38
ENDBRANCH  36  37
ENDBRANCH  35  36
ENDBRANCH   1  35
TORSDOF 18
ENDMDL
