MODEL 1
REMARK VINA RESULT:     -14.3      0.000      0.000
REMARK SMILES Cc1ccc(CCC(=O)N2CCC3(CC2)[C@H](C(=O)OCCOCCOC(=O)c2ccc(-c4c5nc(c(-c6c(F)c(F)c(F)c(F)c6F)c6ccc([nH]6)c(-c6c(F)c(F)c(F)c(F)c6F)c6nc(c(-c7c(F)c(F)c(F)c(F)c7F)c7ccc4[nH]7)C=C6)C=C5)cc2)CC(=O)N3C)cc1
REMARK SMILES IDX 21 1 20 2 19 3 17 4 18 5 16 6 8 7 9 8 10 9 11 10 15 11 12 12
REMARK SMILES IDX 14 13 13 14 94 15 91 16 92 17 95 18 93 19 7 20 6 21 5 22
REMARK SMILES IDX 1 23 2 24 3 25 97 26 4 27 96 28 22 29 23 30 24 31 25 32
REMARK SMILES IDX 26 33 27 34 28 35 29 36 90 37 30 38 89 39 31 40 32 41 33 42
REMARK SMILES IDX 83 43 34 44 88 45 82 46 84 47 35 48 87 49 81 50 80 51 36 53
REMARK SMILES IDX 68 54 48 55 67 56 49 57 52 58 66 59 85 60 50 61 51 62 65 64
REMARK SMILES IDX 86 65 53 66 37 67 38 68 46 69 39 70 40 71 44 72 47 73 41 74
REMARK SMILES IDX 42 75 45 76 43 77 69 78 70 79 78 80 71 81 72 82 76 83 79 84
REMARK SMILES IDX 73 85 74 86 77 87 75 88 54 89 55 90 63 91 56 92 57 93 61 94
REMARK SMILES IDX 64 95 58 96 59 97 62 98 60 99
REMARK H PARENT 84 52 52 63
REMARK Flexibility Score: inf
ROOT
ATOM      1  C   UNL A   1      31.505  28.200  27.501  1.00  0.00     0.202 C 
ENDROOT
BRANCH   1   2
ATOM      2  C   UNL A   1      31.030  26.661  26.408  1.00  0.00     0.261 C 
BRANCH   2   3
ATOM      3  O   UNL A   1      31.255  24.775  27.186  1.00  0.00    -0.463 OA
BRANCH   3   4
ATOM      4  C   UNL A   1      31.827  23.346  26.934  1.00  0.00     0.311 C 
ATOM      5  O   UNL A   1      31.980  22.568  27.894  1.00  0.00    -0.252 OA
BRANCH   4   6
ATOM      6  C   UNL A   1      32.111  22.685  25.572  1.00  0.00     0.134 C 
ATOM      7  C   UNL A   1      32.983  27.166  23.202  1.00  0.00     0.222 C 
ATOM      8  O   UNL A   1      33.341  28.136  23.882  1.00  0.00    -0.275 OA
ATOM      9  N   UNL A   1      33.626  25.948  23.338  1.00  0.00    -0.343 N 
ATOM     10  C   UNL A   1      34.491  25.676  24.451  1.00  0.00     0.122 C 
ATOM     11  C   UNL A   1      33.429  24.762  22.559  1.00  0.00     0.122 C 
ATOM     12  C   UNL A   1      33.883  24.524  25.239  1.00  0.00     0.051 C 
ATOM     13  C   UNL A   1      32.519  23.789  23.292  1.00  0.00     0.051 C 
ATOM     14  C   UNL A   1      33.178  23.314  24.613  1.00  0.00     0.060 C 
ATOM     15  N   UNL A   1      34.020  22.129  24.387  1.00  0.00    -0.339 N 
ATOM     16  C   UNL A   1      32.064  21.198  25.277  1.00  0.00     0.118 C 
ATOM     17  C   UNL A   1      33.407  20.920  24.698  1.00  0.00     0.223 C 
ATOM     18  C   UNL A   1      35.416  22.144  24.023  1.00  0.00     0.147 C 
ATOM     19  O   UNL A   1      33.866  19.802  24.538  1.00  0.00    -0.275 OA
BRANCH   7  20
ATOM     20  C   UNL A   1      31.693  27.306  22.368  1.00  0.00     0.105 C 
BRANCH  20  21
ATOM     21  C   UNL A   1      30.292  27.022  22.957  1.00  0.00     0.045 C 
BRANCH  21  22
ATOM     22  C   UNL A   1      29.500  28.264  23.355  1.00  0.00    -0.047 A 
ATOM     23  C   UNL A   1      27.883  32.186  22.803  1.00  0.00     0.044 C 
ATOM     24  C   UNL A   1      28.359  30.823  23.220  1.00  0.00    -0.051 A 
ATOM     25  C   UNL A   1      29.613  30.647  23.813  1.00  0.00     0.004 A 
ATOM     26  C   UNL A   1      27.596  29.693  22.902  1.00  0.00     0.004 A 
ATOM     27  C   UNL A   1      30.156  29.362  23.940  1.00  0.00     0.004 A 
ATOM     28  C   UNL A   1      28.166  28.419  22.960  1.00  0.00     0.004 A 
ENDBRANCH  21  22
ENDBRANCH  20  21
ENDBRANCH   7  20
ENDBRANCH   4   6
ENDBRANCH   3   4
ENDBRANCH   2   3
ENDBRANCH   1   2
BRANCH   1  29
ATOM     29  O   UNL A   1      31.998  29.691  27.199  1.00  0.00    -0.374 OA
BRANCH  29  30
ATOM     30  C   UNL A   1      33.349  30.316  27.104  1.00  0.00     0.202 C 
BRANCH  30  31
ATOM     31  C   UNL A   1      34.626  29.445  26.972  1.00  0.00     0.261 C 
BRANCH  31  32
ATOM     32  O   UNL A   1      35.952  30.019  27.019  1.00  0.00    -0.460 OA
BRANCH  32  33
ATOM     33  C   UNL A   1      36.653  30.127  28.167  1.00  0.00     0.338 C 
ATOM     34  O   UNL A   1      36.257  30.770  29.126  1.00  0.00    -0.246 OA
BRANCH  33  35
ATOM     35  C   UNL A   1      37.891  29.303  28.216  1.00  0.00     0.060 A 
ATOM     36  C   UNL A   1      38.128  28.551  29.375  1.00  0.00     0.016 A 
ATOM     37  C   UNL A   1      38.888  29.415  27.239  1.00  0.00     0.016 A 
ATOM     38  C   UNL A   1      39.421  28.098  29.640  1.00  0.00     0.010 A 
ATOM     39  C   UNL A   1      40.184  29.010  27.528  1.00  0.00     0.010 A 
ATOM     40  C   UNL A   1      40.472  28.414  28.757  1.00  0.00    -0.014 A 
BRANCH  40  41
ATOM     41  C   UNL A   1      41.827  27.867  28.924  1.00  0.00     0.031 A 
ATOM     42  C   UNL A   1      41.859  26.427  28.727  1.00  0.00     0.074 A 
ATOM     43  C   UNL A   1      42.937  28.539  29.318  1.00  0.00     0.049 A 
ATOM     44  N   UNL A   1      42.533  25.602  29.448  1.00  0.00    -0.248 NA
ATOM     45  C   UNL A   1      40.934  25.768  27.792  1.00  0.00     0.031 C 
ATOM     46  C   UNL A   1      44.338  28.203  29.449  1.00  0.00     0.029 A 
ATOM     47  N   UNL A   1      42.906  29.745  29.966  1.00  0.00    -0.354 N 
ATOM     48  C   UNL A   1      42.570  24.487  28.653  1.00  0.00     0.074 A 
ATOM     49  C   UNL A   1      41.303  24.504  27.986  1.00  0.00     0.031 C 
ATOM     50  C   UNL A   1      44.887  28.970  30.422  1.00  0.00     0.029 A 
ATOM     51  C   UNL A   1      43.809  29.763  31.025  1.00  0.00     0.049 A 
ATOM     52  H   UNL A   1      42.323  30.497  29.717  1.00  0.00     0.167 HD
ATOM     53  C   UNL A   1      43.807  24.025  28.299  1.00  0.00     0.037 A 
ATOM     54  C   UNL A   1      43.531  29.978  32.363  1.00  0.00     0.037 A 
ATOM     55  C   UNL A   1      44.860  24.597  29.184  1.00  0.00     0.049 A 
ATOM     56  C   UNL A   1      43.960  28.692  33.080  1.00  0.00     0.074 A 
ATOM     57  C   UNL A   1      46.056  25.281  29.021  1.00  0.00     0.029 A 
ATOM     58  N   UNL A   1      44.574  24.725  30.545  1.00  0.00    -0.354 N 
ATOM     59  N   UNL A   1      44.217  27.596  32.410  1.00  0.00    -0.248 NA
ATOM     60  C   UNL A   1      44.137  28.481  34.515  1.00  0.00     0.031 C 
ATOM     61  C   UNL A   1      46.475  25.789  30.300  1.00  0.00     0.029 A 
ATOM     62  C   UNL A   1      45.530  25.427  31.243  1.00  0.00     0.049 A 
ATOM     63  H   UNL A   1      43.767  24.349  30.965  1.00  0.00     0.167 HD
ATOM     64  C   UNL A   1      44.773  26.653  33.213  1.00  0.00     0.074 A 
ATOM     65  C   UNL A   1      44.566  27.199  34.547  1.00  0.00     0.031 C 
ATOM     66  C   UNL A   1      45.382  25.541  32.693  1.00  0.00     0.037 A 
BRANCH  53  67
ATOM     67  C   UNL A   1      44.069  23.260  26.998  1.00  0.00     0.064 A 
ATOM     68  C   UNL A   1      43.489  21.992  26.799  1.00  0.00     0.173 A 
ATOM     69  C   UNL A   1      44.896  23.674  25.919  1.00  0.00     0.173 A 
ATOM     70  F   UNL A   1      42.667  21.451  27.707  1.00  0.00    -0.203 F 
ATOM     71  C   UNL A   1      43.719  21.220  25.652  1.00  0.00     0.198 A 
ATOM     72  C   UNL A   1      45.104  22.916  24.764  1.00  0.00     0.198 A 
ATOM     73  F   UNL A   1      45.574  24.820  25.899  1.00  0.00    -0.203 F 
ATOM     74  F   UNL A   1      43.155  20.010  25.547  1.00  0.00    -0.200 F 
ATOM     75  C   UNL A   1      44.516  21.686  24.629  1.00  0.00     0.200 A 
ATOM     76  F   UNL A   1      45.890  23.402  23.791  1.00  0.00    -0.200 F 
ATOM     77  F   UNL A   1      44.716  20.959  23.523  1.00  0.00    -0.200 F 
ENDBRANCH  53  67
BRANCH  54  78
ATOM     78  C   UNL A   1      42.279  30.857  32.710  1.00  0.00     0.064 A 
ATOM     79  C   UNL A   1      40.749  30.093  33.125  1.00  0.00     0.173 A 
ATOM     80  C   UNL A   1      42.871  32.102  33.718  1.00  0.00     0.173 A 
ATOM     81  F   UNL A   1      40.261  29.142  32.314  1.00  0.00    -0.203 F 
ATOM     82  C   UNL A   1      39.872  30.415  34.632  1.00  0.00     0.198 A 
ATOM     83  C   UNL A   1      42.169  32.454  35.305  1.00  0.00     0.198 A 
ATOM     84  F   UNL A   1      43.851  32.870  33.229  1.00  0.00    -0.203 F 
ATOM     85  F   UNL A   1      38.614  29.974  34.779  1.00  0.00    -0.200 F 
ATOM     86  C   UNL A   1      40.577  31.575  35.826  1.00  0.00     0.200 A 
ATOM     87  F   UNL A   1      42.630  33.624  35.728  1.00  0.00    -0.200 F 
ATOM     88  F   UNL A   1      39.730  31.917  36.806  1.00  0.00    -0.200 F 
ENDBRANCH  54  78
BRANCH  66  89
ATOM     89  C   UNL A   1      45.848  24.382  33.522  1.00  0.00     0.064 A 
ATOM     90  C   UNL A   1      47.154  24.244  33.994  1.00  0.00     0.173 A 
ATOM     91  C   UNL A   1      44.948  23.345  33.873  1.00  0.00     0.173 A 
ATOM     92  F   UNL A   1      48.130  25.060  33.574  1.00  0.00    -0.203 F 
ATOM     93  C   UNL A   1      47.490  23.241  34.904  1.00  0.00     0.198 A 
ATOM     94  C   UNL A   1      45.299  22.317  34.734  1.00  0.00     0.198 A 
ATOM     95  F   UNL A   1      43.688  23.302  33.424  1.00  0.00    -0.203 F 
ATOM     96  F   UNL A   1      48.724  23.209  35.425  1.00  0.00    -0.200 F 
ATOM     97  C   UNL A   1      46.558  22.292  35.288  1.00  0.00     0.200 A 
ATOM     98  F   UNL A   1      44.395  21.378  35.044  1.00  0.00    -0.200 F 
ATOM     99  F   UNL A   1      46.872  21.353  36.189  1.00  0.00    -0.200 F 
ENDBRANCH  66  89
ENDBRANCH  40  41
ENDBRANCH  33  35
ENDBRANCH  32  33
ENDBRANCH  31  32
ENDBRANCH  30  31
ENDBRANCH  29  30
ENDBRANCH   1  29
TORSDOF 17
ENDMDL
MODEL 2
REMARK VINA RESULT:     -14.3      4.174      9.854
REMARK SMILES Cc1ccc(CCC(=O)N2CCC3(CC2)[C@H](C(=O)OCCOCCOC(=O)c2ccc(-c4c5nc(c(-c6c(F)c(F)c(F)c(F)c6F)c6ccc([nH]6)c(-c6c(F)c(F)c(F)c(F)c6F)c6nc(c(-c7c(F)c(F)c(F)c(F)c7F)c7ccc4[nH]7)C=C6)C=C5)cc2)CC(=O)N3C)cc1
REMARK SMILES IDX 21 1 20 2 19 3 17 4 18 5 16 6 8 7 9 8 10 9 11 10 15 11 12 12
REMARK SMILES IDX 14 13 13 14 94 15 91 16 92 17 95 18 93 19 7 20 6 21 5 22
REMARK SMILES IDX 1 23 2 24 3 25 97 26 4 27 96 28 22 29 23 30 24 31 25 32
REMARK SMILES IDX 26 33 27 34 28 35 29 36 90 37 30 38 89 39 31 40 32 41 33 42
REMARK SMILES IDX 83 43 34 44 88 45 82 46 84 47 35 48 87 49 81 50 80 51 36 53
REMARK SMILES IDX 68 54 48 55 67 56 49 57 52 58 66 59 85 60 50 61 51 62 65 64
REMARK SMILES IDX 86 65 53 66 37 67 38 68 46 69 39 70 40 71 44 72 47 73 41 74
REMARK SMILES IDX 42 75 45 76 43 77 69 78 70 79 78 80 71 81 72 82 76 83 79 84
REMARK SMILES IDX 73 85 74 86 77 87 75 88 54 89 55 90 63 91 56 92 57 93 61 94
REMARK SMILES IDX 64 95 58 96 59 97 62 98 60 99
REMARK H PARENT 84 52 52 63
REMARK Flexibility Score: inf
ROOT
ATOM      1  C   UNL A   1      39.495  20.798  25.794  1.00  0.00     0.202 C 
ENDROOT
BRANCH   1   2
ATOM      2  C   UNL A   1      37.748  20.482  24.999  1.00  0.00     0.261 C 
BRANCH   2   3
ATOM      3  O   UNL A   1      36.334  21.968  25.071  1.00  0.00    -0.463 OA
BRANCH   3   4
ATOM      4  C   UNL A   1      35.041  22.472  25.784  1.00  0.00     0.311 C 
ATOM      5  O   UNL A   1      35.087  23.502  26.480  1.00  0.00    -0.252 OA
BRANCH   4   6
ATOM      6  C   UNL A   1      33.613  21.918  25.619  1.00  0.00     0.134 C 
ATOM      7  C   UNL A   1      31.841  26.210  23.406  1.00  0.00     0.222 C 
ATOM      8  O   UNL A   1      32.646  26.955  22.832  1.00  0.00    -0.275 OA
ATOM      9  N   UNL A   1      31.838  24.853  23.135  1.00  0.00    -0.343 N 
ATOM     10  C   UNL A   1      32.927  24.223  22.444  1.00  0.00     0.122 C 
ATOM     11  C   UNL A   1      30.913  23.867  23.611  1.00  0.00     0.122 C 
ATOM     12  C   UNL A   1      33.551  23.208  23.391  1.00  0.00     0.051 C 
ATOM     13  C   UNL A   1      31.498  23.114  24.793  1.00  0.00     0.051 C 
ATOM     14  C   UNL A   1      32.763  22.326  24.368  1.00  0.00     0.060 C 
ATOM     15  N   UNL A   1      32.409  20.984  23.876  1.00  0.00    -0.339 N 
ATOM     16  C   UNL A   1      33.134  20.549  26.060  1.00  0.00     0.118 C 
ATOM     17  C   UNL A   1      32.553  19.970  24.817  1.00  0.00     0.223 C 
ATOM     18  C   UNL A   1      32.080  20.646  22.513  1.00  0.00     0.147 C 
ATOM     19  O   UNL A   1      32.264  18.794  24.679  1.00  0.00    -0.275 OA
BRANCH   7  20
ATOM     20  C   UNL A   1      31.004  26.803  24.558  1.00  0.00     0.105 C 
BRANCH  20  21
ATOM     21  C   UNL A   1      31.594  27.058  25.965  1.00  0.00     0.045 C 
BRANCH  21  22
ATOM     22  C   UNL A   1      32.392  28.351  26.100  1.00  0.00    -0.047 A 
ATOM     23  C   UNL A   1      33.940  31.766  28.160  1.00  0.00     0.044 C 
ATOM     24  C   UNL A   1      33.499  30.662  27.240  1.00  0.00    -0.051 A 
ATOM     25  C   UNL A   1      32.278  30.733  26.562  1.00  0.00     0.004 A 
ATOM     26  C   UNL A   1      34.257  29.489  27.149  1.00  0.00     0.004 A 
ATOM     27  C   UNL A   1      31.754  29.594  25.937  1.00  0.00     0.004 A 
ATOM     28  C   UNL A   1      33.703  28.334  26.591  1.00  0.00     0.004 A 
ENDBRANCH  21  22
ENDBRANCH  20  21
ENDBRANCH   7  20
ENDBRANCH   4   6
ENDBRANCH   3   4
ENDBRANCH   2   3
ENDBRANCH   1   2
BRANCH   1  29
ATOM     29  O   UNL A   1      40.014  21.252  27.237  1.00  0.00    -0.374 OA
BRANCH  29  30
ATOM     30  C   UNL A   1      41.000  22.278  27.687  1.00  0.00     0.202 C 
BRANCH  30  31
ATOM     31  C   UNL A   1      41.406  23.456  26.764  1.00  0.00     0.261 C 
BRANCH  31  32
ATOM     32  O   UNL A   1      40.421  24.274  26.089  1.00  0.00    -0.460 OA
BRANCH  32  33
ATOM     33  C   UNL A   1      39.437  24.917  26.752  1.00  0.00     0.338 C 
ATOM     34  O   UNL A   1      38.270  24.561  26.711  1.00  0.00    -0.246 OA
BRANCH  33  35
ATOM     35  C   UNL A   1      39.903  26.022  27.633  1.00  0.00     0.060 A 
ATOM     36  C   UNL A   1      39.480  26.013  28.969  1.00  0.00     0.016 A 
ATOM     37  C   UNL A   1      40.574  27.138  27.119  1.00  0.00     0.016 A 
ATOM     38  C   UNL A   1      39.544  27.193  29.711  1.00  0.00     0.010 A 
ATOM     39  C   UNL A   1      40.588  28.325  27.840  1.00  0.00     0.010 A 
ATOM     40  C   UNL A   1      40.011  28.377  29.110  1.00  0.00    -0.014 A 
BRANCH  40  41
ATOM     41  C   UNL A   1      40.209  29.618  29.873  1.00  0.00     0.031 A 
ATOM     42  C   UNL A   1      39.214  30.626  29.542  1.00  0.00     0.074 A 
ATOM     43  C   UNL A   1      41.231  29.904  30.719  1.00  0.00     0.049 A 
ATOM     44  N   UNL A   1      39.461  31.878  29.386  1.00  0.00    -0.248 NA
ATOM     45  C   UNL A   1      37.850  30.242  29.145  1.00  0.00     0.031 C 
ATOM     46  C   UNL A   1      41.541  31.003  31.606  1.00  0.00     0.029 A 
ATOM     47  N   UNL A   1      42.424  29.232  30.723  1.00  0.00    -0.354 N 
ATOM     48  C   UNL A   1      38.213  32.433  29.498  1.00  0.00     0.074 A 
ATOM     49  C   UNL A   1      37.351  31.454  28.909  1.00  0.00     0.031 C 
ATOM     50  C   UNL A   1      42.888  31.103  31.729  1.00  0.00     0.029 A 
ATOM     51  C   UNL A   1      43.493  30.118  30.827  1.00  0.00     0.049 A 
ATOM     52  H   UNL A   1      42.513  28.254  30.660  1.00  0.00     0.167 HD
ATOM     53  C   UNL A   1      38.038  33.358  30.490  1.00  0.00     0.037 A 
ATOM     54  C   UNL A   1      44.538  30.280  29.936  1.00  0.00     0.037 A 
ATOM     55  C   UNL A   1      39.351  33.860  30.985  1.00  0.00     0.049 A 
ATOM     56  C   UNL A   1      44.435  31.729  29.446  1.00  0.00     0.074 A 
ATOM     57  C   UNL A   1      39.989  33.986  32.210  1.00  0.00     0.029 A 
ATOM     58  N   UNL A   1      40.360  34.090  30.048  1.00  0.00    -0.354 N 
ATOM     59  N   UNL A   1      43.358  32.443  29.662  1.00  0.00    -0.248 NA
ATOM     60  C   UNL A   1      45.434  32.502  28.711  1.00  0.00     0.031 C 
ATOM     61  C   UNL A   1      41.371  34.312  31.981  1.00  0.00     0.029 A 
ATOM     62  C   UNL A   1      41.581  34.373  30.614  1.00  0.00     0.049 A 
ATOM     63  H   UNL A   1      40.212  34.053  29.075  1.00  0.00     0.167 HD
ATOM     64  C   UNL A   1      43.560  33.744  29.332  1.00  0.00     0.074 A 
ATOM     65  C   UNL A   1      44.822  33.703  28.606  1.00  0.00     0.031 C 
ATOM     66  C   UNL A   1      42.689  34.725  29.728  1.00  0.00     0.037 A 
BRANCH  53  67
ATOM     67  C   UNL A   1      36.688  33.603  31.170  1.00  0.00     0.064 A 
ATOM     68  C   UNL A   1      35.622  34.161  30.436  1.00  0.00     0.173 A 
ATOM     69  C   UNL A   1      36.363  33.360  32.532  1.00  0.00     0.173 A 
ATOM     70  F   UNL A   1      35.745  34.440  29.133  1.00  0.00    -0.203 F 
ATOM     71  C   UNL A   1      34.374  34.450  31.004  1.00  0.00     0.198 A 
ATOM     72  C   UNL A   1      35.110  33.624  33.091  1.00  0.00     0.198 A 
ATOM     73  F   UNL A   1      37.221  32.869  33.425  1.00  0.00    -0.203 F 
ATOM     74  F   UNL A   1      33.418  35.006  30.249  1.00  0.00    -0.200 F 
ATOM     75  C   UNL A   1      34.114  34.171  32.328  1.00  0.00     0.200 A 
ATOM     76  F   UNL A   1      34.896  33.341  34.386  1.00  0.00    -0.200 F 
ATOM     77  F   UNL A   1      32.913  34.424  32.865  1.00  0.00    -0.200 F 
ENDBRANCH  53  67
BRANCH  54  78
ATOM     78  C   UNL A   1      44.952  29.038  29.071  1.00  0.00     0.064 A 
ATOM     79  C   UNL A   1      44.876  29.119  27.315  1.00  0.00     0.173 A 
ATOM     80  C   UNL A   1      46.374  28.437  29.801  1.00  0.00     0.173 A 
ATOM     81  F   UNL A   1      43.746  29.554  26.736  1.00  0.00    -0.203 F 
ATOM     82  C   UNL A   1      46.260  28.782  26.259  1.00  0.00     0.198 A 
ATOM     83  C   UNL A   1      47.868  28.170  28.890  1.00  0.00     0.198 A 
ATOM     84  F   UNL A   1      46.301  28.095  31.092  1.00  0.00    -0.203 F 
ATOM     85  F   UNL A   1      46.073  28.642  24.938  1.00  0.00    -0.200 F 
ATOM     86  C   UNL A   1      47.847  28.346  27.007  1.00  0.00     0.200 A 
ATOM     87  F   UNL A   1      48.700  27.447  29.632  1.00  0.00    -0.200 F 
ATOM     88  F   UNL A   1      48.748  27.889  26.126  1.00  0.00    -0.200 F 
ENDBRANCH  54  78
BRANCH  66  89
ATOM     89  C   UNL A   1      42.756  36.143  29.245  1.00  0.00     0.064 A 
ATOM     90  C   UNL A   1      43.491  37.144  29.883  1.00  0.00     0.173 A 
ATOM     91  C   UNL A   1      42.053  36.537  28.080  1.00  0.00     0.173 A 
ATOM     92  F   UNL A   1      44.042  36.935  31.087  1.00  0.00    -0.203 F 
ATOM     93  C   UNL A   1      43.661  38.398  29.297  1.00  0.00     0.198 A 
ATOM     94  C   UNL A   1      42.178  37.801  27.528  1.00  0.00     0.198 A 
ATOM     95  F   UNL A   1      41.243  35.706  27.412  1.00  0.00    -0.203 F 
ATOM     96  F   UNL A   1      44.467  39.295  29.880  1.00  0.00    -0.200 F 
ATOM     97  C   UNL A   1      43.022  38.719  28.111  1.00  0.00     0.200 A 
ATOM     98  F   UNL A   1      41.503  38.105  26.412  1.00  0.00    -0.200 F 
ATOM     99  F   UNL A   1      43.216  39.910  27.532  1.00  0.00    -0.200 F 
ENDBRANCH  66  89
ENDBRANCH  40  41
ENDBRANCH  33  35
ENDBRANCH  32  33
ENDBRANCH  31  32
ENDBRANCH  30  31
ENDBRANCH  29  30
ENDBRANCH   1  29
TORSDOF 17
ENDMDL
MODEL 3
REMARK VINA RESULT:     -14.3      2.998      6.118
REMARK SMILES Cc1ccc(CCC(=O)N2CCC3(CC2)[C@H](C(=O)OCCOCCOC(=O)c2ccc(-c4c5nc(c(-c6c(F)c(F)c(F)c(F)c6F)c6ccc([nH]6)c(-c6c(F)c(F)c(F)c(F)c6F)c6nc(c(-c7c(F)c(F)c(F)c(F)c7F)c7ccc4[nH]7)C=C6)C=C5)cc2)CC(=O)N3C)cc1
REMARK SMILES IDX 21 1 20 2 19 3 17 4 18 5 16 6 8 7 9 8 10 9 11 10 15 11 12 12
REMARK SMILES IDX 14 13 13 14 94 15 91 16 92 17 95 18 93 19 7 20 6 21 5 22
REMARK SMILES IDX 1 23 2 24 3 25 97 26 4 27 96 28 22 29 23 30 24 31 25 32
REMARK SMILES IDX 26 33 27 34 28 35 29 36 90 37 30 38 89 39 31 40 32 41 33 42
REMARK SMILES IDX 83 43 34 44 88 45 82 46 84 47 35 48 87 49 81 50 80 51 36 53
REMARK SMILES IDX 68 54 48 55 67 56 49 57 52 58 66 59 85 60 50 61 51 62 65 64
REMARK SMILES IDX 86 65 53 66 37 67 38 68 46 69 39 70 40 71 44 72 47 73 41 74
REMARK SMILES IDX 42 75 45 76 43 77 69 78 70 79 78 80 71 81 72 82 76 83 79 84
REMARK SMILES IDX 73 85 74 86 77 87 75 88 54 89 55 90 63 91 56 92 57 93 61 94
REMARK SMILES IDX 64 95 58 96 59 97 62 98 60 99
REMARK H PARENT 84 52 52 63
REMARK Flexibility Score: inf
ROOT
ATOM      1  C   UNL A   1      34.924  31.259  28.091  1.00  0.00     0.202 C 
ENDROOT
BRANCH   1   2
ATOM      2  C   UNL A   1      35.132  29.488  27.314  1.00  0.00     0.261 C 
BRANCH   2   3
ATOM      3  O   UNL A   1      33.775  28.844  25.915  1.00  0.00    -0.463 OA
BRANCH   3   4
ATOM      4  C   UNL A   1      32.393  29.124  25.247  1.00  0.00     0.311 C 
ATOM      5  O   UNL A   1      31.687  30.057  25.669  1.00  0.00    -0.252 OA
BRANCH   4   6
ATOM      6  C   UNL A   1      31.820  28.457  23.982  1.00  0.00     0.134 C 
ATOM      7  C   UNL A   1      31.859  23.743  26.040  1.00  0.00     0.222 C 
ATOM      8  O   UNL A   1      31.823  23.636  27.273  1.00  0.00    -0.275 OA
ATOM      9  N   UNL A   1      30.950  24.558  25.389  1.00  0.00    -0.343 N 
ATOM     10  C   UNL A   1      30.160  25.522  26.103  1.00  0.00     0.122 C 
ATOM     11  C   UNL A   1      30.768  24.714  23.976  1.00  0.00     0.122 C 
ATOM     12  C   UNL A   1      30.538  26.904  25.587  1.00  0.00     0.051 C 
ATOM     13  C   UNL A   1      31.474  25.965  23.482  1.00  0.00     0.051 C 
ATOM     14  C   UNL A   1      30.853  27.233  24.122  1.00  0.00     0.060 C 
ATOM     15  N   UNL A   1      29.724  27.731  23.320  1.00  0.00    -0.339 N 
ATOM     16  C   UNL A   1      31.466  29.163  22.688  1.00  0.00     0.118 C 
ATOM     17  C   UNL A   1      30.045  28.778  22.464  1.00  0.00     0.223 C 
ATOM     18  C   UNL A   1      28.347  27.325  23.461  1.00  0.00     0.147 C 
ATOM     19  O   UNL A   1      29.309  29.316  21.654  1.00  0.00    -0.275 OA
BRANCH   7  20
ATOM     20  C   UNL A   1      33.054  23.114  25.295  1.00  0.00     0.105 C 
BRANCH  20  21
ATOM     21  C   UNL A   1      33.828  21.896  25.851  1.00  0.00     0.045 C 
BRANCH  21  22
ATOM     22  C   UNL A   1      33.882  20.691  24.918  1.00  0.00    -0.047 A 
ATOM     23  C   UNL A   1      33.377  16.581  23.843  1.00  0.00     0.044 C 
ATOM     24  C   UNL A   1      33.652  18.050  24.001  1.00  0.00    -0.051 A 
ATOM     25  C   UNL A   1      34.865  18.505  24.528  1.00  0.00     0.004 A 
ATOM     26  C   UNL A   1      32.639  18.979  23.735  1.00  0.00     0.004 A 
ATOM     27  C   UNL A   1      35.001  19.840  24.927  1.00  0.00     0.004 A 
ATOM     28  C   UNL A   1      32.748  20.292  24.199  1.00  0.00     0.004 A 
ENDBRANCH  21  22
ENDBRANCH  20  21
ENDBRANCH   7  20
ENDBRANCH   4   6
ENDBRANCH   3   4
ENDBRANCH   2   3
ENDBRANCH   1   2
BRANCH   1  29
ATOM     29  O   UNL A   1      33.740  32.333  28.154  1.00  0.00    -0.374 OA
BRANCH  29  30
ATOM     30  C   UNL A   1      33.694  33.810  27.947  1.00  0.00     0.202 C 
BRANCH  30  31
ATOM     31  C   UNL A   1      33.232  34.763  29.080  1.00  0.00     0.261 C 
BRANCH  31  32
ATOM     32  O   UNL A   1      33.305  34.385  30.474  1.00  0.00    -0.460 OA
BRANCH  32  33
ATOM     33  C   UNL A   1      34.385  34.647  31.240  1.00  0.00     0.338 C 
ATOM     34  O   UNL A   1      34.390  35.512  32.102  1.00  0.00    -0.246 OA
BRANCH  33  35
ATOM     35  C   UNL A   1      35.531  33.722  31.032  1.00  0.00     0.060 A 
ATOM     36  C   UNL A   1      35.678  32.655  31.930  1.00  0.00     0.016 A 
ATOM     37  C   UNL A   1      36.542  34.000  30.104  1.00  0.00     0.016 A 
ATOM     38  C   UNL A   1      36.914  32.017  32.031  1.00  0.00     0.010 A 
ATOM     39  C   UNL A   1      37.787  33.400  30.242  1.00  0.00     0.010 A 
ATOM     40  C   UNL A   1      38.000  32.458  31.251  1.00  0.00    -0.014 A 
BRANCH  40  41
ATOM     41  C   UNL A   1      39.290  31.751  31.230  1.00  0.00     0.031 A 
ATOM     42  C   UNL A   1      39.142  30.363  30.824  1.00  0.00     0.074 A 
ATOM     43  C   UNL A   1      40.493  32.233  31.630  1.00  0.00     0.049 A 
ATOM     44  N   UNL A   1      39.757  29.371  31.364  1.00  0.00    -0.248 NA
ATOM     45  C   UNL A   1      38.090  29.957  29.878  1.00  0.00     0.031 C 
ATOM     46  C   UNL A   1      41.850  31.734  31.601  1.00  0.00     0.029 A 
ATOM     47  N   UNL A   1      40.642  33.323  32.447  1.00  0.00    -0.354 N 
ATOM     48  C   UNL A   1      39.615  28.393  30.415  1.00  0.00     0.074 A 
ATOM     49  C   UNL A   1      38.321  28.646  29.858  1.00  0.00     0.031 C 
ATOM     50  C   UNL A   1      42.543  32.281  32.630  1.00  0.00     0.029 A 
ATOM     51  C   UNL A   1      41.605  33.083  33.423  1.00  0.00     0.049 A 
ATOM     52  H   UNL A   1      40.136  34.161  32.355  1.00  0.00     0.167 HD
ATOM     53  C   UNL A   1      40.766  27.861  29.903  1.00  0.00     0.037 A 
ATOM     54  C   UNL A   1      41.436  33.118  34.796  1.00  0.00     0.037 A 
ATOM     55  C   UNL A   1      41.931  28.176  30.777  1.00  0.00     0.049 A 
ATOM     56  C   UNL A   1      41.754  31.700  35.283  1.00  0.00     0.074 A 
ATOM     57  C   UNL A   1      43.186  28.746  30.622  1.00  0.00     0.029 A 
ATOM     58  N   UNL A   1      41.746  28.125  32.159  1.00  0.00    -0.354 N 
ATOM     59  N   UNL A   1      41.840  30.698  34.444  1.00  0.00    -0.248 NA
ATOM     60  C   UNL A   1      41.993  31.255  36.654  1.00  0.00     0.031 C 
ATOM     61  C   UNL A   1      43.739  29.006  31.924  1.00  0.00     0.029 A 
ATOM     62  C   UNL A   1      42.817  28.606  32.876  1.00  0.00     0.049 A 
ATOM     63  H   UNL A   1      40.927  27.777  32.582  1.00  0.00     0.167 HD
ATOM     64  C   UNL A   1      42.330  29.590  35.055  1.00  0.00     0.074 A 
ATOM     65  C   UNL A   1      42.271  29.944  36.466  1.00  0.00     0.031 C 
ATOM     66  C   UNL A   1      42.772  28.512  34.333  1.00  0.00     0.037 A 
BRANCH  53  67
ATOM     67  C   UNL A   1      40.857  27.281  28.488  1.00  0.00     0.064 A 
ATOM     68  C   UNL A   1      40.248  26.045  28.194  1.00  0.00     0.173 A 
ATOM     69  C   UNL A   1      41.545  27.844  27.379  1.00  0.00     0.173 A 
ATOM     70  F   UNL A   1      39.543  25.379  29.117  1.00  0.00    -0.203 F 
ATOM     71  C   UNL A   1      40.326  25.437  26.934  1.00  0.00     0.198 A 
ATOM     72  C   UNL A   1      41.601  27.250  26.116  1.00  0.00     0.198 A 
ATOM     73  F   UNL A   1      42.223  28.990  27.429  1.00  0.00    -0.203 F 
ATOM     74  F   UNL A   1      39.745  24.246  26.739  1.00  0.00    -0.200 F 
ATOM     75  C   UNL A   1      40.992  26.044  25.892  1.00  0.00     0.200 A 
ATOM     76  F   UNL A   1      42.261  27.871  25.126  1.00  0.00    -0.200 F 
ATOM     77  F   UNL A   1      41.047  25.475  24.681  1.00  0.00    -0.200 F 
ENDBRANCH  53  67
BRANCH  54  78
ATOM     78  C   UNL A   1      40.318  34.063  35.363  1.00  0.00     0.064 A 
ATOM     79  C   UNL A   1      38.768  33.397  35.865  1.00  0.00     0.173 A 
ATOM     80  C   UNL A   1      41.129  35.133  36.418  1.00  0.00     0.173 A 
ATOM     81  F   UNL A   1      38.110  32.587  35.022  1.00  0.00    -0.203 F 
ATOM     82  C   UNL A   1      38.082  33.629  37.483  1.00  0.00     0.198 A 
ATOM     83  C   UNL A   1      40.626  35.370  38.099  1.00  0.00     0.198 A 
ATOM     84  F   UNL A   1      42.127  35.859  35.904  1.00  0.00    -0.203 F 
ATOM     85  F   UNL A   1      36.807  33.288  37.722  1.00  0.00    -0.200 F 
ATOM     86  C   UNL A   1      39.014  34.585  38.702  1.00  0.00     0.200 A 
ATOM     87  F   UNL A   1      41.242  36.442  38.584  1.00  0.00    -0.200 F 
ATOM     88  F   UNL A   1      38.307  34.892  39.798  1.00  0.00    -0.200 F 
ENDBRANCH  54  78
BRANCH  66  89
ATOM     89  C   UNL A   1      43.150  27.197  34.947  1.00  0.00     0.064 A 
ATOM     90  C   UNL A   1      42.274  26.116  35.060  1.00  0.00     0.173 A 
ATOM     91  C   UNL A   1      44.457  26.992  35.453  1.00  0.00     0.173 A 
ATOM     92  F   UNL A   1      40.969  26.253  34.788  1.00  0.00    -0.203 F 
ATOM     93  C   UNL A   1      42.724  24.863  35.477  1.00  0.00     0.198 A 
ATOM     94  C   UNL A   1      44.888  25.760  35.919  1.00  0.00     0.198 A 
ATOM     95  F   UNL A   1      45.378  27.963  35.487  1.00  0.00    -0.203 F 
ATOM     96  F   UNL A   1      41.883  23.821  35.463  1.00  0.00    -0.200 F 
ATOM     97  C   UNL A   1      44.035  24.682  35.887  1.00  0.00     0.200 A 
ATOM     98  F   UNL A   1      46.145  25.626  36.364  1.00  0.00    -0.200 F 
ATOM     99  F   UNL A   1      44.474  23.471  36.251  1.00  0.00    -0.200 F 
ENDBRANCH  66  89
ENDBRANCH  40  41
ENDBRANCH  33  35
ENDBRANCH  32  33
ENDBRANCH  31  32
ENDBRANCH  30  31
ENDBRANCH  29  30
ENDBRANCH   1  29
TORSDOF 17
ENDMDL
