MODEL 1
REMARK VINA RESULT:     -10.6      0.000      0.000
REMARK SMILES COc1cc(C(=O)OCCOCCOC(=O)c2ccc(-c3c4nc(c(-c5c(F)c(F)c(F)c(F)c5F)c5ccc([nH]5)c(-c5c(F)c(F)c(F)c(F)c5F)c5nc(c(-c6c(F)c(F)c(F)c(F)c6F)c6ccc3[nH]6)C=C5)C=C4)cc2)c([N+](=O)[O-])cc1O[C@H](C)[C@@H](C)O
REMARK SMILES IDX 10 1 9 2 8 3 6 4 7 5 5 6 3 7 4 8 85 9 84 10 80 11 2 12 1 13
REMARK SMILES IDX 86 14 87 15 88 16 89 17 90 18 91 19 81 21 82 22 83 23 11 24
REMARK SMILES IDX 12 25 13 26 14 27 15 28 16 29 17 30 18 31 79 32 19 33 78 34
REMARK SMILES IDX 20 35 21 36 22 37 72 38 23 39 77 40 71 41 73 42 24 43 76 44
REMARK SMILES IDX 70 45 69 46 25 48 57 49 37 50 56 51 38 52 41 53 55 54 74 55
REMARK SMILES IDX 39 56 40 57 54 59 75 60 42 61 26 62 27 63 35 64 28 65 29 66
REMARK SMILES IDX 33 67 36 68 30 69 31 70 34 71 32 72 58 73 59 74 67 75 60 76
REMARK SMILES IDX 61 77 65 78 68 79 62 80 63 81 66 82 64 83 43 84 44 85 52 86
REMARK SMILES IDX 45 87 46 88 50 89 53 90 47 91 48 92 51 93 49 94
REMARK H PARENT 91 20 73 47 41 58
REMARK Flexibility Score: inf
ROOT
ATOM      1  C   UNL A   1      33.269  29.516  25.823  1.00  0.00     0.202 C 
ENDROOT
BRANCH   1   2
ATOM      2  C   UNL A   1      32.326  29.278  24.643  1.00  0.00     0.261 C 
BRANCH   2   3
ATOM      3  O   UNL A   1      32.373  27.890  24.267  1.00  0.00    -0.459 OA
BRANCH   3   4
ATOM      4  C   UNL A   1      33.293  27.575  23.330  1.00  0.00     0.345 C 
ATOM      5  O   UNL A   1      33.997  28.339  22.692  1.00  0.00    -0.246 OA
BRANCH   4   6
ATOM      6  C   UNL A   1      33.512  26.116  23.364  1.00  0.00     0.141 A 
ATOM      7  C   UNL A   1      34.348  24.230  24.667  1.00  0.00     0.162 A 
ATOM      8  C   UNL A   1      34.107  25.603  24.520  1.00  0.00     0.073 A 
ATOM      9  C   UNL A   1      33.988  23.338  23.637  1.00  0.00     0.168 A 
ATOM     10  C   UNL A   1      33.286  23.838  22.536  1.00  0.00     0.137 A 
ATOM     11  C   UNL A   1      33.091  25.222  22.386  1.00  0.00     0.287 A 
BRANCH   7  12
ATOM     12  O   UNL A   1      34.889  23.940  25.891  1.00  0.00    -0.493 OA
ATOM     13  C   UNL A   1      34.063  23.348  26.882  1.00  0.00     0.278 C 
ENDBRANCH   7  12
BRANCH   9  14
ATOM     14  O   UNL A   1      34.278  22.023  23.799  1.00  0.00    -0.484 OA
BRANCH  14  15
ATOM     15  C   UNL A   1      33.336  20.987  24.153  1.00  0.00     0.198 C 
ATOM     16  C   UNL A   1      31.980  21.402  24.727  1.00  0.00     0.056 C 
BRANCH  15  17
ATOM     17  C   UNL A   1      34.092  19.911  24.971  1.00  0.00     0.151 C 
ATOM     18  C   UNL A   1      33.968  18.493  24.430  1.00  0.00     0.042 C 
BRANCH  17  19
ATOM     19  O   UNL A   1      35.490  20.236  25.013  1.00  0.00    -0.390 OA
ATOM     20  H   UNL A   1      35.939  19.830  24.254  1.00  0.00     0.211 HD
ENDBRANCH  17  19
ENDBRANCH  15  17
ENDBRANCH  14  15
ENDBRANCH   9  14
BRANCH  11  21
ATOM     21  N   UNL A   1      32.493  25.696  21.152  1.00  0.00     0.063 N 
ATOM     22  O   UNL A   1      33.158  25.574  20.116  1.00  0.00    -0.258 OA
ATOM     23  O   UNL A   1      31.335  26.131  21.216  1.00  0.00    -0.258 OA
ENDBRANCH  11  21
ENDBRANCH   4   6
ENDBRANCH   3   4
ENDBRANCH   2   3
ENDBRANCH   1   2
BRANCH   1  24
ATOM     24  O   UNL A   1      32.778  30.406  26.829  1.00  0.00    -0.374 OA
BRANCH  24  25
ATOM     25  C   UNL A   1      31.723  31.298  26.467  1.00  0.00     0.202 C 
BRANCH  25  26
ATOM     26  C   UNL A   1      31.781  32.701  27.084  1.00  0.00     0.261 C 
BRANCH  26  27
ATOM     27  O   UNL A   1      33.072  33.317  26.932  1.00  0.00    -0.460 OA
BRANCH  27  28
ATOM     28  C   UNL A   1      33.609  33.789  28.083  1.00  0.00     0.338 C 
ATOM     29  O   UNL A   1      33.142  34.633  28.829  1.00  0.00    -0.246 OA
BRANCH  28  30
ATOM     30  C   UNL A   1      34.820  33.023  28.433  1.00  0.00     0.060 A 
ATOM     31  C   UNL A   1      34.643  31.738  28.958  1.00  0.00     0.016 A 
ATOM     32  C   UNL A   1      36.094  33.589  28.352  1.00  0.00     0.016 A 
ATOM     33  C   UNL A   1      35.738  31.026  29.446  1.00  0.00     0.010 A 
ATOM     34  C   UNL A   1      37.191  32.878  28.852  1.00  0.00     0.010 A 
ATOM     35  C   UNL A   1      37.013  31.609  29.430  1.00  0.00    -0.014 A 
BRANCH  35  36
ATOM     36  C   UNL A   1      38.130  30.940  30.140  1.00  0.00     0.031 A 
ATOM     37  C   UNL A   1      38.379  31.262  31.587  1.00  0.00     0.074 A 
ATOM     38  C   UNL A   1      38.892  30.027  29.512  1.00  0.00     0.049 A 
ATOM     39  N   UNL A   1      39.308  30.812  32.393  1.00  0.00    -0.248 NA
ATOM     40  C   UNL A   1      37.452  32.218  32.213  1.00  0.00     0.031 C 
ATOM     41  C   UNL A   1      38.724  29.600  28.125  1.00  0.00     0.029 A 
ATOM     42  N   UNL A   1      39.963  29.298  29.963  1.00  0.00    -0.354 N 
ATOM     43  C   UNL A   1      39.080  31.429  33.615  1.00  0.00     0.074 A 
ATOM     44  C   UNL A   1      37.943  32.308  33.440  1.00  0.00     0.031 C 
ATOM     45  C   UNL A   1      39.663  28.683  27.836  1.00  0.00     0.029 A 
ATOM     46  C   UNL A   1      40.516  28.485  29.006  1.00  0.00     0.049 A 
ATOM     47  H   UNL A   1      40.303  29.353  30.886  1.00  0.00     0.167 HD
ATOM     48  C   UNL A   1      39.751  31.268  34.780  1.00  0.00     0.037 A 
ATOM     49  C   UNL A   1      41.598  27.685  29.066  1.00  0.00     0.037 A 
ATOM     50  C   UNL A   1      40.884  30.397  34.953  1.00  0.00     0.049 A 
ATOM     51  C   UNL A   1      42.374  27.584  30.353  1.00  0.00     0.074 A 
ATOM     52  C   UNL A   1      41.629  30.163  36.096  1.00  0.00     0.029 A 
ATOM     53  N   UNL A   1      41.440  29.618  33.949  1.00  0.00    -0.354 N 
ATOM     54  N   UNL A   1      42.145  28.159  31.508  1.00  0.00    -0.248 NA
ATOM     55  C   UNL A   1      43.563  26.717  30.342  1.00  0.00     0.031 C 
ATOM     56  C   UNL A   1      42.661  29.277  35.774  1.00  0.00     0.029 A 
ATOM     57  C   UNL A   1      42.531  28.920  34.442  1.00  0.00     0.049 A 
ATOM     58  H   UNL A   1      41.108  29.569  33.023  1.00  0.00     0.167 HD
ATOM     59  C   UNL A   1      43.137  27.706  32.366  1.00  0.00     0.074 A 
ATOM     60  C   UNL A   1      43.967  26.798  31.602  1.00  0.00     0.031 C 
ATOM     61  C   UNL A   1      43.342  28.013  33.671  1.00  0.00     0.037 A 
BRANCH  48  62
ATOM     62  C   UNL A   1      39.288  32.070  35.961  1.00  0.00     0.064 A 
ATOM     63  C   UNL A   1      39.745  33.377  36.185  1.00  0.00     0.173 A 
ATOM     64  C   UNL A   1      38.348  31.540  36.857  1.00  0.00     0.173 A 
ATOM     65  F   UNL A   1      40.654  33.924  35.365  1.00  0.00    -0.203 F 
ATOM     66  C   UNL A   1      39.295  34.116  37.276  1.00  0.00     0.198 A 
ATOM     67  C   UNL A   1      37.879  32.290  37.932  1.00  0.00     0.198 A 
ATOM     68  F   UNL A   1      37.876  30.296  36.684  1.00  0.00    -0.203 F 
ATOM     69  F   UNL A   1      39.775  35.347  37.494  1.00  0.00    -0.200 F 
ATOM     70  C   UNL A   1      38.357  33.574  38.145  1.00  0.00     0.200 A 
ATOM     71  F   UNL A   1      36.967  31.770  38.763  1.00  0.00    -0.200 F 
ATOM     72  F   UNL A   1      37.919  34.290  39.190  1.00  0.00    -0.200 F 
ENDBRANCH  48  62
BRANCH  49  73
ATOM     73  C   UNL A   1      42.018  26.917  27.866  1.00  0.00     0.064 A 
ATOM     74  C   UNL A   1      42.890  27.474  26.922  1.00  0.00     0.173 A 
ATOM     75  C   UNL A   1      41.545  25.618  27.632  1.00  0.00     0.173 A 
ATOM     76  F   UNL A   1      43.346  28.725  27.088  1.00  0.00    -0.203 F 
ATOM     77  C   UNL A   1      43.262  26.767  25.780  1.00  0.00     0.198 A 
ATOM     78  C   UNL A   1      41.938  24.901  26.504  1.00  0.00     0.198 A 
ATOM     79  F   UNL A   1      40.703  25.042  28.503  1.00  0.00    -0.203 F 
ATOM     80  F   UNL A   1      44.061  27.340  24.870  1.00  0.00    -0.200 F 
ATOM     81  C   UNL A   1      42.790  25.479  25.575  1.00  0.00     0.200 A 
ATOM     82  F   UNL A   1      41.485  23.654  26.313  1.00  0.00    -0.200 F 
ATOM     83  F   UNL A   1      43.148  24.799  24.478  1.00  0.00    -0.200 F 
ENDBRANCH  49  73
BRANCH  61  84
ATOM     84  C   UNL A   1      44.485  27.334  34.368  1.00  0.00     0.064 A 
ATOM     85  C   UNL A   1      45.753  27.927  34.451  1.00  0.00     0.173 A 
ATOM     86  C   UNL A   1      44.296  26.095  34.999  1.00  0.00     0.173 A 
ATOM     87  F   UNL A   1      45.989  29.105  33.852  1.00  0.00    -0.203 F 
ATOM     88  C   UNL A   1      46.797  27.293  35.119  1.00  0.00     0.198 A 
ATOM     89  C   UNL A   1      45.335  25.476  35.690  1.00  0.00     0.198 A 
ATOM     90  F   UNL A   1      43.101  25.489  34.956  1.00  0.00    -0.203 F 
ATOM     91  F   UNL A   1      48.013  27.856  35.148  1.00  0.00    -0.200 F 
ATOM     92  C   UNL A   1      46.585  26.072  35.744  1.00  0.00     0.200 A 
ATOM     93  F   UNL A   1      45.125  24.303  36.304  1.00  0.00    -0.200 F 
ATOM     94  F   UNL A   1      47.590  25.466  36.392  1.00  0.00    -0.200 F 
ENDBRANCH  61  84
ENDBRANCH  35  36
ENDBRANCH  28  30
ENDBRANCH  27  28
ENDBRANCH  26  27
ENDBRANCH  25  26
ENDBRANCH  24  25
ENDBRANCH   1  24
TORSDOF 20
ENDMDL
MODEL 2
REMARK VINA RESULT:     -10.3      2.706      3.953
REMARK SMILES COc1cc(C(=O)OCCOCCOC(=O)c2ccc(-c3c4nc(c(-c5c(F)c(F)c(F)c(F)c5F)c5ccc([nH]5)c(-c5c(F)c(F)c(F)c(F)c5F)c5nc(c(-c6c(F)c(F)c(F)c(F)c6F)c6ccc3[nH]6)C=C5)C=C4)cc2)c([N+](=O)[O-])cc1O[C@H](C)[C@@H](C)O
REMARK SMILES IDX 10 1 9 2 8 3 6 4 7 5 5 6 3 7 4 8 85 9 84 10 80 11 2 12 1 13
REMARK SMILES IDX 86 14 87 15 88 16 89 17 90 18 91 19 81 21 82 22 83 23 11 24
REMARK SMILES IDX 12 25 13 26 14 27 15 28 16 29 17 30 18 31 79 32 19 33 78 34
REMARK SMILES IDX 20 35 21 36 22 37 72 38 23 39 77 40 71 41 73 42 24 43 76 44
REMARK SMILES IDX 70 45 69 46 25 48 57 49 37 50 56 51 38 52 41 53 55 54 74 55
REMARK SMILES IDX 39 56 40 57 54 59 75 60 42 61 26 62 27 63 35 64 28 65 29 66
REMARK SMILES IDX 33 67 36 68 30 69 31 70 34 71 32 72 58 73 59 74 67 75 60 76
REMARK SMILES IDX 61 77 65 78 68 79 62 80 63 81 66 82 64 83 43 84 44 85 52 86
REMARK SMILES IDX 45 87 46 88 50 89 53 90 47 91 48 92 51 93 49 94
REMARK H PARENT 91 20 73 47 41 58
REMARK Flexibility Score: inf
ROOT
ATOM      1  C   UNL A   1      32.405  28.811  24.003  1.00  0.00     0.202 C 
ENDROOT
BRANCH   1   2
ATOM      2  C   UNL A   1      33.690  28.037  24.303  1.00  0.00     0.261 C 
BRANCH   2   3
ATOM      3  O   UNL A   1      33.395  26.631  24.371  1.00  0.00    -0.459 OA
BRANCH   3   4
ATOM      4  C   UNL A   1      33.186  26.141  25.611  1.00  0.00     0.345 C 
ATOM      5  O   UNL A   1      33.157  26.762  26.660  1.00  0.00    -0.246 OA
BRANCH   4   6
ATOM      6  C   UNL A   1      32.734  24.742  25.490  1.00  0.00     0.141 A 
ATOM      7  C   UNL A   1      33.277  22.401  25.913  1.00  0.00     0.162 A 
ATOM      8  C   UNL A   1      33.610  23.762  25.963  1.00  0.00     0.073 A 
ATOM      9  C   UNL A   1      32.037  22.000  25.376  1.00  0.00     0.168 A 
ATOM     10  C   UNL A   1      31.114  22.987  25.016  1.00  0.00     0.137 A 
ATOM     11  C   UNL A   1      31.482  24.344  25.034  1.00  0.00     0.287 A 
BRANCH   7  12
ATOM     12  O   UNL A   1      34.252  21.620  26.472  1.00  0.00    -0.493 OA
ATOM     13  C   UNL A   1      35.476  21.449  25.775  1.00  0.00     0.278 C 
ENDBRANCH   7  12
BRANCH   9  14
ATOM     14  O   UNL A   1      31.770  20.671  25.304  1.00  0.00    -0.484 OA
BRANCH  14  15
ATOM     15  C   UNL A   1      32.519  19.699  24.544  1.00  0.00     0.198 C 
ATOM     16  C   UNL A   1      32.154  19.487  23.073  1.00  0.00     0.056 C 
BRANCH  15  17
ATOM     17  C   UNL A   1      32.618  18.404  25.387  1.00  0.00     0.151 C 
ATOM     18  C   UNL A   1      33.680  17.418  24.922  1.00  0.00     0.042 C 
BRANCH  17  19
ATOM     19  O   UNL A   1      32.913  18.743  26.752  1.00  0.00    -0.390 OA
ATOM     20  H   UNL A   1      33.865  18.647  26.910  1.00  0.00     0.211 HD
ENDBRANCH  17  19
ENDBRANCH  15  17
ENDBRANCH  14  15
ENDBRANCH   9  14
BRANCH  11  21
ATOM     21  N   UNL A   1      30.541  25.313  24.503  1.00  0.00     0.063 N 
ATOM     22  O   UNL A   1      29.864  25.951  25.318  1.00  0.00    -0.258 OA
ATOM     23  O   UNL A   1      30.530  25.474  23.275  1.00  0.00    -0.258 OA
ENDBRANCH  11  21
ENDBRANCH   4   6
ENDBRANCH   3   4
ENDBRANCH   2   3
ENDBRANCH   1   2
BRANCH   1  24
ATOM     24  O   UNL A   1      31.637  29.190  25.149  1.00  0.00    -0.374 OA
BRANCH  24  25
ATOM     25  C   UNL A   1      31.815  30.512  25.658  1.00  0.00     0.202 C 
BRANCH  25  26
ATOM     26  C   UNL A   1      32.176  30.622  27.145  1.00  0.00     0.261 C 
BRANCH  26  27
ATOM     27  O   UNL A   1      33.449  30.024  27.448  1.00  0.00    -0.460 OA
BRANCH  27  28
ATOM     28  C   UNL A   1      34.362  30.879  27.970  1.00  0.00     0.338 C 
ATOM     29  O   UNL A   1      34.182  32.032  28.324  1.00  0.00    -0.246 OA
BRANCH  28  30
ATOM     30  C   UNL A   1      35.638  30.180  28.211  1.00  0.00     0.060 A 
ATOM     31  C   UNL A   1      35.859  29.663  29.493  1.00  0.00     0.016 A 
ATOM     32  C   UNL A   1      36.639  30.126  27.240  1.00  0.00     0.016 A 
ATOM     33  C   UNL A   1      37.102  29.127  29.824  1.00  0.00     0.010 A 
ATOM     34  C   UNL A   1      37.890  29.597  27.576  1.00  0.00     0.010 A 
ATOM     35  C   UNL A   1      38.137  29.125  28.878  1.00  0.00    -0.014 A 
BRANCH  35  36
ATOM     36  C   UNL A   1      39.509  28.753  29.298  1.00  0.00     0.031 A 
ATOM     37  C   UNL A   1      40.260  29.654  30.238  1.00  0.00     0.074 A 
ATOM     38  C   UNL A   1      40.067  27.604  28.875  1.00  0.00     0.049 A 
ATOM     39  N   UNL A   1      41.474  29.533  30.716  1.00  0.00    -0.248 NA
ATOM     40  C   UNL A   1      39.546  30.852  30.706  1.00  0.00     0.031 C 
ATOM     41  C   UNL A   1      39.424  26.629  27.997  1.00  0.00     0.029 A 
ATOM     42  N   UNL A   1      41.304  27.068  29.129  1.00  0.00    -0.354 N 
ATOM     43  C   UNL A   1      41.668  30.635  31.537  1.00  0.00     0.074 A 
ATOM     44  C   UNL A   1      40.461  31.431  31.470  1.00  0.00     0.031 C 
ATOM     45  C   UNL A   1      40.276  25.611  27.782  1.00  0.00     0.029 A 
ATOM     46  C   UNL A   1      41.532  25.881  28.479  1.00  0.00     0.049 A 
ATOM     47  H   UNL A   1      41.966  27.495  29.720  1.00  0.00     0.167 HD
ATOM     48  C   UNL A   1      42.752  30.950  32.286  1.00  0.00     0.037 A 
ATOM     49  C   UNL A   1      42.635  25.110  28.441  1.00  0.00     0.037 A 
ATOM     50  C   UNL A   1      43.953  30.161  32.349  1.00  0.00     0.049 A 
ATOM     51  C   UNL A   1      43.855  25.523  29.222  1.00  0.00     0.074 A 
ATOM     52  C   UNL A   1      45.104  30.395  33.083  1.00  0.00     0.029 A 
ATOM     53  N   UNL A   1      44.162  28.983  31.646  1.00  0.00    -0.354 N 
ATOM     54  N   UNL A   1      44.027  26.560  30.006  1.00  0.00    -0.248 NA
ATOM     55  C   UNL A   1      45.037  24.654  29.112  1.00  0.00     0.031 C 
ATOM     56  C   UNL A   1      46.024  29.383  32.790  1.00  0.00     0.029 A 
ATOM     57  C   UNL A   1      45.430  28.492  31.912  1.00  0.00     0.049 A 
ATOM     58  H   UNL A   1      43.505  28.561  31.046  1.00  0.00     0.167 HD
ATOM     59  C   UNL A   1      45.319  26.454  30.504  1.00  0.00     0.074 A 
ATOM     60  C   UNL A   1      45.886  25.245  29.942  1.00  0.00     0.031 C 
ATOM     61  C   UNL A   1      45.977  27.283  31.351  1.00  0.00     0.037 A 
BRANCH  48  62
ATOM     62  C   UNL A   1      42.694  32.218  33.087  1.00  0.00     0.064 A 
ATOM     63  C   UNL A   1      43.073  33.451  32.536  1.00  0.00     0.173 A 
ATOM     64  C   UNL A   1      42.218  32.205  34.406  1.00  0.00     0.173 A 
ATOM     65  F   UNL A   1      43.548  33.514  31.284  1.00  0.00    -0.203 F 
ATOM     66  C   UNL A   1      42.999  34.622  33.286  1.00  0.00     0.198 A 
ATOM     67  C   UNL A   1      42.120  33.382  35.144  1.00  0.00     0.198 A 
ATOM     68  F   UNL A   1      41.838  31.052  34.977  1.00  0.00    -0.203 F 
ATOM     69  F   UNL A   1      43.405  35.783  32.755  1.00  0.00    -0.200 F 
ATOM     70  C   UNL A   1      42.517  34.588  34.586  1.00  0.00     0.200 A 
ATOM     71  F   UNL A   1      41.644  33.349  36.396  1.00  0.00    -0.200 F 
ATOM     72  F   UNL A   1      42.439  35.717  35.304  1.00  0.00    -0.200 F 
ENDBRANCH  48  62
BRANCH  49  73
ATOM     73  C   UNL A   1      42.643  23.867  27.627  1.00  0.00     0.064 A 
ATOM     74  C   UNL A   1      42.280  22.636  28.188  1.00  0.00     0.173 A 
ATOM     75  C   UNL A   1      43.028  23.884  26.279  1.00  0.00     0.173 A 
ATOM     76  F   UNL A   1      41.933  22.566  29.482  1.00  0.00    -0.203 F 
ATOM     77  C   UNL A   1      42.316  21.464  27.435  1.00  0.00     0.198 A 
ATOM     78  C   UNL A   1      43.038  22.716  25.519  1.00  0.00     0.198 A 
ATOM     79  F   UNL A   1      43.390  25.037  25.698  1.00  0.00    -0.203 F 
ATOM     80  F   UNL A   1      42.008  20.292  28.008  1.00  0.00    -0.200 F 
ATOM     81  C   UNL A   1      42.689  21.506  26.100  1.00  0.00     0.200 A 
ATOM     82  F   UNL A   1      43.393  22.762  24.228  1.00  0.00    -0.200 F 
ATOM     83  F   UNL A   1      42.723  20.380  25.376  1.00  0.00    -0.200 F 
ENDBRANCH  49  73
BRANCH  61  84
ATOM     84  C   UNL A   1      47.369  26.894  31.755  1.00  0.00     0.064 A 
ATOM     85  C   UNL A   1      47.607  26.015  32.822  1.00  0.00     0.173 A 
ATOM     86  C   UNL A   1      48.476  27.374  31.038  1.00  0.00     0.173 A 
ATOM     87  F   UNL A   1      46.584  25.540  33.548  1.00  0.00    -0.203 F 
ATOM     88  C   UNL A   1      48.905  25.649  33.170  1.00  0.00     0.198 A 
ATOM     89  C   UNL A   1      49.770  26.984  31.372  1.00  0.00     0.198 A 
ATOM     90  F   UNL A   1      48.301  28.211  30.005  1.00  0.00    -0.203 F 
ATOM     91  F   UNL A   1      49.114  24.843  34.221  1.00  0.00    -0.200 F 
ATOM     92  C   UNL A   1      49.984  26.129  32.441  1.00  0.00     0.200 A 
ATOM     93  F   UNL A   1      50.810  27.438  30.659  1.00  0.00    -0.200 F 
ATOM     94  F   UNL A   1      51.232  25.770  32.775  1.00  0.00    -0.200 F 
ENDBRANCH  61  84
ENDBRANCH  35  36
ENDBRANCH  28  30
ENDBRANCH  27  28
ENDBRANCH  26  27
ENDBRANCH  25  26
ENDBRANCH  24  25
ENDBRANCH   1  24
TORSDOF 20
ENDMDL
MODEL 3
REMARK VINA RESULT:     -10.2      1.840      7.499
REMARK SMILES COc1cc(C(=O)OCCOCCOC(=O)c2ccc(-c3c4nc(c(-c5c(F)c(F)c(F)c(F)c5F)c5ccc([nH]5)c(-c5c(F)c(F)c(F)c(F)c5F)c5nc(c(-c6c(F)c(F)c(F)c(F)c6F)c6ccc3[nH]6)C=C5)C=C4)cc2)c([N+](=O)[O-])cc1O[C@H](C)[C@@H](C)O
REMARK SMILES IDX 10 1 9 2 8 3 6 4 7 5 5 6 3 7 4 8 85 9 84 10 80 11 2 12 1 13
REMARK SMILES IDX 86 14 87 15 88 16 89 17 90 18 91 19 81 21 82 22 83 23 11 24
REMARK SMILES IDX 12 25 13 26 14 27 15 28 16 29 17 30 18 31 79 32 19 33 78 34
REMARK SMILES IDX 20 35 21 36 22 37 72 38 23 39 77 40 71 41 73 42 24 43 76 44
REMARK SMILES IDX 70 45 69 46 25 48 57 49 37 50 56 51 38 52 41 53 55 54 74 55
REMARK SMILES IDX 39 56 40 57 54 59 75 60 42 61 26 62 27 63 35 64 28 65 29 66
REMARK SMILES IDX 33 67 36 68 30 69 31 70 34 71 32 72 58 73 59 74 67 75 60 76
REMARK SMILES IDX 61 77 65 78 68 79 62 80 63 81 66 82 64 83 43 84 44 85 52 86
REMARK SMILES IDX 45 87 46 88 50 89 53 90 47 91 48 92 51 93 49 94
REMARK H PARENT 91 20 73 47 41 58
REMARK Flexibility Score: inf
ROOT
ATOM      1  C   UNL A   1      33.955  29.347  26.908  1.00  0.00     0.202 C 
ENDROOT
BRANCH   1   2
ATOM      2  C   UNL A   1      33.314  27.961  26.827  1.00  0.00     0.261 C 
BRANCH   2   3
ATOM      3  O   UNL A   1      33.885  27.235  25.723  1.00  0.00    -0.459 OA
BRANCH   3   4
ATOM      4  C   UNL A   1      33.019  26.893  24.745  1.00  0.00     0.345 C 
ATOM      5  O   UNL A   1      32.424  27.639  23.985  1.00  0.00    -0.246 OA
BRANCH   4   6
ATOM      6  C   UNL A   1      33.088  25.432  24.552  1.00  0.00     0.141 A 
ATOM      7  C   UNL A   1      34.298  23.588  23.508  1.00  0.00     0.162 A 
ATOM      8  C   UNL A   1      34.128  24.959  23.748  1.00  0.00     0.073 A 
ATOM      9  C   UNL A   1      33.410  22.658  24.084  1.00  0.00     0.168 A 
ATOM     10  C   UNL A   1      32.445  23.124  24.983  1.00  0.00     0.137 A 
ATOM     11  C   UNL A   1      32.263  24.505  25.177  1.00  0.00     0.287 A 
BRANCH   7  12
ATOM     12  O   UNL A   1      35.404  23.342  22.739  1.00  0.00    -0.493 OA
ATOM     13  C   UNL A   1      36.627  23.017  23.382  1.00  0.00     0.278 C 
ENDBRANCH   7  12
BRANCH   9  14
ATOM     14  O   UNL A   1      33.581  21.344  23.793  1.00  0.00    -0.484 OA
BRANCH  14  15
ATOM     15  C   UNL A   1      33.912  20.305  24.740  1.00  0.00     0.198 C 
ATOM     16  C   UNL A   1      35.387  19.965  24.962  1.00  0.00     0.056 C 
BRANCH  15  17
ATOM     17  C   UNL A   1      32.994  19.090  24.458  1.00  0.00     0.151 C 
ATOM     18  C   UNL A   1      33.722  17.824  24.030  1.00  0.00     0.042 C 
BRANCH  17  19
ATOM     19  O   UNL A   1      32.240  18.775  25.639  1.00  0.00    -0.390 OA
ATOM     20  H   UNL A   1      32.849  18.599  26.374  1.00  0.00     0.211 HD
ENDBRANCH  17  19
ENDBRANCH  15  17
ENDBRANCH  14  15
ENDBRANCH   9  14
BRANCH  11  21
ATOM     21  N   UNL A   1      31.148  24.936  26.000  1.00  0.00     0.063 N 
ATOM     22  O   UNL A   1      30.128  25.323  25.417  1.00  0.00    -0.258 OA
ATOM     23  O   UNL A   1      31.276  24.823  27.227  1.00  0.00    -0.258 OA
ENDBRANCH  11  21
ENDBRANCH   4   6
ENDBRANCH   3   4
ENDBRANCH   2   3
ENDBRANCH   1   2
BRANCH   1  24
ATOM     24  O   UNL A   1      33.270  30.380  26.195  1.00  0.00    -0.374 OA
BRANCH  24  25
ATOM     25  C   UNL A   1      32.524  31.329  26.957  1.00  0.00     0.202 C 
BRANCH  25  26
ATOM     26  C   UNL A   1      33.320  32.498  27.550  1.00  0.00     0.261 C 
BRANCH  26  27
ATOM     27  O   UNL A   1      32.474  33.480  28.175  1.00  0.00    -0.460 OA
BRANCH  27  28
ATOM     28  C   UNL A   1      33.116  34.607  28.567  1.00  0.00     0.338 C 
ATOM     29  O   UNL A   1      32.779  35.762  28.366  1.00  0.00    -0.246 OA
BRANCH  28  30
ATOM     30  C   UNL A   1      34.257  34.269  29.439  1.00  0.00     0.060 A 
ATOM     31  C   UNL A   1      35.543  34.417  28.906  1.00  0.00     0.016 A 
ATOM     32  C   UNL A   1      34.071  33.719  30.708  1.00  0.00     0.016 A 
ATOM     33  C   UNL A   1      36.651  33.972  29.626  1.00  0.00     0.010 A 
ATOM     34  C   UNL A   1      35.184  33.264  31.425  1.00  0.00     0.010 A 
ATOM     35  C   UNL A   1      36.474  33.359  30.873  1.00  0.00    -0.014 A 
BRANCH  35  36
ATOM     36  C   UNL A   1      37.627  32.700  31.533  1.00  0.00     0.031 A 
ATOM     37  C   UNL A   1      38.274  31.516  30.872  1.00  0.00     0.074 A 
ATOM     38  C   UNL A   1      38.115  33.176  32.693  1.00  0.00     0.049 A 
ATOM     39  N   UNL A   1      39.277  30.778  31.281  1.00  0.00    -0.248 NA
ATOM     40  C   UNL A   1      37.719  31.109  29.572  1.00  0.00     0.031 C 
ATOM     41  C   UNL A   1      37.601  34.340  33.409  1.00  0.00     0.029 A 
ATOM     42  N   UNL A   1      39.155  32.731  33.471  1.00  0.00    -0.354 N 
ATOM     43  C   UNL A   1      39.471  29.823  30.293  1.00  0.00     0.074 A 
ATOM     44  C   UNL A   1      38.465  30.053  29.277  1.00  0.00     0.031 C 
ATOM     45  C   UNL A   1      38.326  34.518  34.527  1.00  0.00     0.029 A 
ATOM     46  C   UNL A   1      39.332  33.461  34.619  1.00  0.00     0.049 A 
ATOM     47  H   UNL A   1      39.719  31.961  33.228  1.00  0.00     0.167 HD
ATOM     48  C   UNL A   1      40.410  28.849  30.232  1.00  0.00     0.037 A 
ATOM     49  C   UNL A   1      40.198  33.284  35.635  1.00  0.00     0.037 A 
ATOM     50  C   UNL A   1      41.407  28.618  31.243  1.00  0.00     0.049 A 
ATOM     51  C   UNL A   1      41.182  32.144  35.580  1.00  0.00     0.074 A 
ATOM     52  C   UNL A   1      42.405  27.658  31.270  1.00  0.00     0.029 A 
ATOM     53  N   UNL A   1      41.531  29.354  32.412  1.00  0.00    -0.354 N 
ATOM     54  N   UNL A   1      41.368  31.253  34.637  1.00  0.00    -0.248 NA
ATOM     55  C   UNL A   1      42.078  31.988  36.736  1.00  0.00     0.031 C 
ATOM     56  C   UNL A   1      43.103  27.785  32.475  1.00  0.00     0.029 A 
ATOM     57  C   UNL A   1      42.574  28.856  33.177  1.00  0.00     0.049 A 
ATOM     58  H   UNL A   1      40.961  30.118  32.662  1.00  0.00     0.167 HD
ATOM     59  C   UNL A   1      42.416  30.452  35.068  1.00  0.00     0.074 A 
ATOM     60  C   UNL A   1      42.834  30.967  36.356  1.00  0.00     0.031 C 
ATOM     61  C   UNL A   1      42.983  29.385  34.453  1.00  0.00     0.037 A 
BRANCH  48  62
ATOM     62  C   UNL A   1      40.390  27.943  29.036  1.00  0.00     0.064 A 
ATOM     63  C   UNL A   1      39.615  26.774  29.014  1.00  0.00     0.173 A 
ATOM     64  C   UNL A   1      41.123  28.267  27.886  1.00  0.00     0.173 A 
ATOM     65  F   UNL A   1      38.907  26.413  30.095  1.00  0.00    -0.203 F 
ATOM     66  C   UNL A   1      39.594  25.950  27.892  1.00  0.00     0.198 A 
ATOM     67  C   UNL A   1      41.079  27.456  26.755  1.00  0.00     0.198 A 
ATOM     68  F   UNL A   1      41.876  29.377  27.854  1.00  0.00    -0.203 F 
ATOM     69  F   UNL A   1      38.880  24.817  27.907  1.00  0.00    -0.200 F 
ATOM     70  C   UNL A   1      40.320  26.295  26.761  1.00  0.00     0.200 A 
ATOM     71  F   UNL A   1      41.773  27.795  25.660  1.00  0.00    -0.200 F 
ATOM     72  F   UNL A   1      40.292  25.505  25.679  1.00  0.00    -0.200 F 
ENDBRANCH  48  62
BRANCH  49  73
ATOM     73  C   UNL A   1      40.172  34.206  36.800  1.00  0.00     0.064 A 
ATOM     74  C   UNL A   1      41.036  35.306  36.868  1.00  0.00     0.173 A 
ATOM     75  C   UNL A   1      39.295  33.995  37.874  1.00  0.00     0.173 A 
ATOM     76  F   UNL A   1      41.913  35.531  35.878  1.00  0.00    -0.203 F 
ATOM     77  C   UNL A   1      41.035  36.155  37.973  1.00  0.00     0.198 A 
ATOM     78  C   UNL A   1      39.276  34.859  38.967  1.00  0.00     0.198 A 
ATOM     79  F   UNL A   1      38.453  32.952  37.859  1.00  0.00    -0.203 F 
ATOM     80  F   UNL A   1      41.903  37.173  38.034  1.00  0.00    -0.200 F 
ATOM     81  C   UNL A   1      40.151  35.934  39.019  1.00  0.00     0.200 A 
ATOM     82  F   UNL A   1      38.415  34.646  39.972  1.00  0.00    -0.200 F 
ATOM     83  F   UNL A   1      40.149  36.750  40.081  1.00  0.00    -0.200 F 
ENDBRANCH  49  73
BRANCH  61  84
ATOM     84  C   UNL A   1      44.142  28.725  35.143  1.00  0.00     0.064 A 
ATOM     85  C   UNL A   1      45.462  29.144  34.927  1.00  0.00     0.173 A 
ATOM     86  C   UNL A   1      43.922  27.688  36.064  1.00  0.00     0.173 A 
ATOM     87  F   UNL A   1      45.726  30.121  34.047  1.00  0.00    -0.203 F 
ATOM     88  C   UNL A   1      46.524  28.534  35.591  1.00  0.00     0.198 A 
ATOM     89  C   UNL A   1      44.983  27.099  36.746  1.00  0.00     0.198 A 
ATOM     90  F   UNL A   1      42.677  27.255  36.311  1.00  0.00    -0.203 F 
ATOM     91  F   UNL A   1      47.782  28.920  35.337  1.00  0.00    -0.200 F 
ATOM     92  C   UNL A   1      46.282  27.517  36.504  1.00  0.00     0.200 A 
ATOM     93  F   UNL A   1      44.747  26.126  37.637  1.00  0.00    -0.200 F 
ATOM     94  F   UNL A   1      47.306  26.936  37.146  1.00  0.00    -0.200 F 
ENDBRANCH  61  84
ENDBRANCH  35  36
ENDBRANCH  28  30
ENDBRANCH  27  28
ENDBRANCH  26  27
ENDBRANCH  25  26
ENDBRANCH  24  25
ENDBRANCH   1  24
TORSDOF 20
ENDMDL
