MODEL 1
REMARK VINA RESULT:     -11.2      0.000      0.000
REMARK SMILES CC[C@@](O)(C(=O)OCCOCCOC(=O)c1ccc(-c2c3nc(c(-c4c(F)c(F)c(F)c(F)c4F)c4ccc([nH]4)c(-c4c(F)c(F)c(F)c(F)c4F)c4nc(c(-c5c(F)c(F)c(F)c(F)c5F)c5ccc2[nH]5)C=C4)C=C3)cc1)[C@H](C)c1cc(F)c(C)cc1F
REMARK SMILES IDX 10 1 9 2 8 3 7 4 5 5 6 6 3 7 2 8 1 9 4 10 79 12 80 13 81 14
REMARK SMILES IDX 82 15 88 16 83 17 87 18 89 19 84 20 85 21 86 22 11 23 12 24
REMARK SMILES IDX 13 25 14 26 15 27 16 28 17 29 78 30 18 31 77 32 19 33 20 34
REMARK SMILES IDX 21 35 71 36 22 37 76 38 70 39 72 40 23 41 75 42 69 43 68 44
REMARK SMILES IDX 24 46 56 47 36 48 55 49 37 50 40 51 54 52 73 53 38 54 39 55
REMARK SMILES IDX 53 57 74 58 41 59 25 60 26 61 34 62 27 63 28 64 32 65 35 66
REMARK SMILES IDX 29 67 30 68 33 69 31 70 57 71 58 72 66 73 59 74 60 75 64 76
REMARK SMILES IDX 67 77 61 78 62 79 65 80 63 81 42 82 43 83 51 84 44 85 45 86
REMARK SMILES IDX 49 87 52 88 46 89 47 90 50 91 48 92
REMARK H PARENT 4 11 72 45 40 56
REMARK Flexibility Score: inf
ROOT
ATOM      1  O   UNL A   1      31.777  30.550  26.709  1.00  0.00    -0.374 OA
ENDROOT
BRANCH   1   2
ATOM      2  C   UNL A   1      32.086  29.710  25.595  1.00  0.00     0.202 C 
BRANCH   2   3
ATOM      3  C   UNL A   1      31.041  29.658  24.476  1.00  0.00     0.261 C 
BRANCH   3   4
ATOM      4  O   UNL A   1      30.495  28.331  24.302  1.00  0.00    -0.461 OA
BRANCH   4   5
ATOM      5  C   UNL A   1      30.575  27.803  23.042  1.00  0.00     0.338 C 
ATOM      6  O   UNL A   1      30.102  28.349  22.052  1.00  0.00    -0.249 OA
BRANCH   5   7
ATOM      7  C   UNL A   1      31.302  26.422  23.019  1.00  0.00     0.168 C 
BRANCH   7   8
ATOM      8  C   UNL A   1      30.489  25.332  23.771  1.00  0.00     0.044 C 
ATOM      9  C   UNL A   1      30.646  23.907  23.262  1.00  0.00     0.007 C 
ENDBRANCH   7   8
BRANCH   7  10
ATOM     10  O   UNL A   1      31.300  26.056  21.610  1.00  0.00    -0.378 OA
ATOM     11  H   UNL A   1      30.417  26.210  21.237  1.00  0.00     0.212 HD
ENDBRANCH   7  10
BRANCH   7  12
ATOM     12  C   UNL A   1      32.821  26.643  23.414  1.00  0.00     0.062 C 
ATOM     13  C   UNL A   1      33.620  27.412  22.336  1.00  0.00     0.016 C 
BRANCH  12  14
ATOM     14  C   UNL A   1      33.684  25.505  23.972  1.00  0.00    -0.003 A 
ATOM     15  C   UNL A   1      34.389  24.578  23.203  1.00  0.00     0.046 A 
ATOM     16  C   UNL A   1      33.817  25.375  25.370  1.00  0.00     0.127 A 
ATOM     17  C   UNL A   1      35.145  23.561  23.800  1.00  0.00     0.126 A 
ATOM     18  C   UNL A   1      34.588  24.372  25.969  1.00  0.00     0.046 A 
ATOM     19  F   UNL A   1      33.192  26.242  26.180  1.00  0.00    -0.207 F 
ATOM     20  F   UNL A   1      35.765  22.675  23.007  1.00  0.00    -0.207 F 
ATOM     21  C   UNL A   1      35.262  23.442  25.180  1.00  0.00    -0.012 A 
ATOM     22  C   UNL A   1      36.040  22.311  25.775  1.00  0.00     0.047 C 
ENDBRANCH  12  14
ENDBRANCH   7  12
ENDBRANCH   5   7
ENDBRANCH   4   5
ENDBRANCH   3   4
ENDBRANCH   2   3
ENDBRANCH   1   2
BRANCH   1  23
ATOM     23  C   UNL A   1      31.218  31.826  26.411  1.00  0.00     0.202 C 
BRANCH  23  24
ATOM     24  C   UNL A   1      32.016  33.037  26.905  1.00  0.00     0.261 C 
BRANCH  24  25
ATOM     25  O   UNL A   1      32.989  32.668  27.889  1.00  0.00    -0.460 OA
BRANCH  25  26
ATOM     26  C   UNL A   1      33.987  33.565  28.025  1.00  0.00     0.338 C 
ATOM     27  O   UNL A   1      33.907  34.787  28.035  1.00  0.00    -0.246 OA
BRANCH  26  28
ATOM     28  C   UNL A   1      35.234  32.857  28.332  1.00  0.00     0.060 A 
ATOM     29  C   UNL A   1      35.128  31.496  28.639  1.00  0.00     0.016 A 
ATOM     30  C   UNL A   1      36.465  33.517  28.379  1.00  0.00     0.016 A 
ATOM     31  C   UNL A   1      36.248  30.802  29.073  1.00  0.00     0.010 A 
ATOM     32  C   UNL A   1      37.591  32.818  28.815  1.00  0.00     0.010 A 
ATOM     33  C   UNL A   1      37.470  31.474  29.209  1.00  0.00    -0.014 A 
BRANCH  33  34
ATOM     34  C   UNL A   1      38.566  30.805  29.938  1.00  0.00     0.031 A 
ATOM     35  C   UNL A   1      38.762  31.132  31.391  1.00  0.00     0.074 A 
ATOM     36  C   UNL A   1      39.318  29.877  29.325  1.00  0.00     0.049 A 
ATOM     37  N   UNL A   1      39.635  30.657  32.240  1.00  0.00    -0.248 NA
ATOM     38  C   UNL A   1      37.849  32.135  31.967  1.00  0.00     0.031 C 
ATOM     39  C   UNL A   1      39.174  29.465  27.930  1.00  0.00     0.029 A 
ATOM     40  N   UNL A   1      40.348  29.111  29.801  1.00  0.00    -0.354 N 
ATOM     41  C   UNL A   1      39.380  31.302  33.442  1.00  0.00     0.074 A 
ATOM     42  C   UNL A   1      38.296  32.228  33.210  1.00  0.00     0.031 C 
ATOM     43  C   UNL A   1      40.083  28.514  27.661  1.00  0.00     0.029 A 
ATOM     44  C   UNL A   1      40.890  28.275  28.856  1.00  0.00     0.049 A 
ATOM     45  H   UNL A   1      40.670  29.155  30.730  1.00  0.00     0.167 HD
ATOM     46  C   UNL A   1      39.994  31.124  34.636  1.00  0.00     0.037 A 
ATOM     47  C   UNL A   1      41.930  27.426  28.952  1.00  0.00     0.037 A 
ATOM     48  C   UNL A   1      41.067  30.192  34.850  1.00  0.00     0.049 A 
ATOM     49  C   UNL A   1      42.632  27.291  30.279  1.00  0.00     0.074 A 
ATOM     50  C   UNL A   1      41.751  29.912  36.019  1.00  0.00     0.029 A 
ATOM     51  N   UNL A   1      41.617  29.388  33.860  1.00  0.00    -0.354 N 
ATOM     52  N   UNL A   1      42.370  27.883  31.419  1.00  0.00    -0.248 NA
ATOM     53  C   UNL A   1      43.772  26.367  30.331  1.00  0.00     0.031 C 
ATOM     54  C   UNL A   1      42.750  28.979  35.725  1.00  0.00     0.029 A 
ATOM     55  C   UNL A   1      42.653  28.633  34.385  1.00  0.00     0.049 A 
ATOM     56  H   UNL A   1      41.317  29.359  32.923  1.00  0.00     0.167 HD
ATOM     57  C   UNL A   1      43.289  27.384  32.331  1.00  0.00     0.074 A 
ATOM     58  C   UNL A   1      44.109  26.430  31.612  1.00  0.00     0.031 C 
ATOM     59  C   UNL A   1      43.446  27.686  33.644  1.00  0.00     0.037 A 
BRANCH  46  60
ATOM     60  C   UNL A   1      39.540  31.975  35.786  1.00  0.00     0.064 A 
ATOM     61  C   UNL A   1      40.106  33.232  36.048  1.00  0.00     0.173 A 
ATOM     62  C   UNL A   1      38.505  31.535  36.626  1.00  0.00     0.173 A 
ATOM     63  F   UNL A   1      41.110  33.693  35.287  1.00  0.00    -0.203 F 
ATOM     64  C   UNL A   1      39.669  34.006  37.122  1.00  0.00     0.198 A 
ATOM     65  C   UNL A   1      38.052  32.323  37.681  1.00  0.00     0.198 A 
ATOM     66  F   UNL A   1      37.930  30.341  36.421  1.00  0.00    -0.203 F 
ATOM     67  F   UNL A   1      40.256  35.182  37.382  1.00  0.00    -0.200 F 
ATOM     68  C   UNL A   1      38.638  33.554  37.933  1.00  0.00     0.200 A 
ATOM     69  F   UNL A   1      37.049  31.888  38.456  1.00  0.00    -0.200 F 
ATOM     70  F   UNL A   1      38.215  34.301  38.961  1.00  0.00    -0.200 F 
ENDBRANCH  46  60
BRANCH  47  71
ATOM     71  C   UNL A   1      42.364  26.645  27.766  1.00  0.00     0.064 A 
ATOM     72  C   UNL A   1      41.826  25.379  27.494  1.00  0.00     0.173 A 
ATOM     73  C   UNL A   1      43.330  27.146  26.881  1.00  0.00     0.173 A 
ATOM     74  F   UNL A   1      40.914  24.848  28.321  1.00  0.00    -0.203 F 
ATOM     75  C   UNL A   1      42.251  24.639  26.392  1.00  0.00     0.198 A 
ATOM     76  C   UNL A   1      43.733  26.418  25.764  1.00  0.00     0.198 A 
ATOM     77  F   UNL A   1      43.876  28.353  27.094  1.00  0.00    -0.203 F 
ATOM     78  F   UNL A   1      41.752  23.414  26.178  1.00  0.00    -0.200 F 
ATOM     79  C   UNL A   1      43.198  25.161  25.524  1.00  0.00     0.200 A 
ATOM     80  F   UNL A   1      44.638  26.933  24.921  1.00  0.00    -0.200 F 
ATOM     81  F   UNL A   1      43.603  24.450  24.463  1.00  0.00    -0.200 F 
ENDBRANCH  47  71
BRANCH  59  82
ATOM     82  C   UNL A   1      44.520  26.950  34.391  1.00  0.00     0.064 A 
ATOM     83  C   UNL A   1      44.278  25.707  34.993  1.00  0.00     0.173 A 
ATOM     84  C   UNL A   1      45.818  27.480  34.469  1.00  0.00     0.173 A 
ATOM     85  F   UNL A   1      43.051  25.168  34.958  1.00  0.00    -0.203 F 
ATOM     86  C   UNL A   1      45.291  25.032  35.668  1.00  0.00     0.198 A 
ATOM     87  C   UNL A   1      46.835  26.787  35.117  1.00  0.00     0.198 A 
ATOM     88  F   UNL A   1      46.101  28.662  33.902  1.00  0.00    -0.203 F 
ATOM     89  F   UNL A   1      45.027  23.869  36.278  1.00  0.00    -0.200 F 
ATOM     90  C   UNL A   1      46.570  25.568  35.723  1.00  0.00     0.200 A 
ATOM     91  F   UNL A   1      48.073  27.299  35.155  1.00  0.00    -0.200 F 
ATOM     92  F   UNL A   1      47.544  24.914  36.367  1.00  0.00    -0.200 F 
ENDBRANCH  59  82
ENDBRANCH  33  34
ENDBRANCH  26  28
ENDBRANCH  25  26
ENDBRANCH  24  25
ENDBRANCH  23  24
ENDBRANCH   1  23
TORSDOF 18
ENDMDL
MODEL 2
REMARK VINA RESULT:     -11.0      4.406      9.941
REMARK SMILES CC[C@@](O)(C(=O)OCCOCCOC(=O)c1ccc(-c2c3nc(c(-c4c(F)c(F)c(F)c(F)c4F)c4ccc([nH]4)c(-c4c(F)c(F)c(F)c(F)c4F)c4nc(c(-c5c(F)c(F)c(F)c(F)c5F)c5ccc2[nH]5)C=C4)C=C3)cc1)[C@H](C)c1cc(F)c(C)cc1F
REMARK SMILES IDX 10 1 9 2 8 3 7 4 5 5 6 6 3 7 2 8 1 9 4 10 79 12 80 13 81 14
REMARK SMILES IDX 82 15 88 16 83 17 87 18 89 19 84 20 85 21 86 22 11 23 12 24
REMARK SMILES IDX 13 25 14 26 15 27 16 28 17 29 78 30 18 31 77 32 19 33 20 34
REMARK SMILES IDX 21 35 71 36 22 37 76 38 70 39 72 40 23 41 75 42 69 43 68 44
REMARK SMILES IDX 24 46 56 47 36 48 55 49 37 50 40 51 54 52 73 53 38 54 39 55
REMARK SMILES IDX 53 57 74 58 41 59 25 60 26 61 34 62 27 63 28 64 32 65 35 66
REMARK SMILES IDX 29 67 30 68 33 69 31 70 57 71 58 72 66 73 59 74 60 75 64 76
REMARK SMILES IDX 67 77 61 78 62 79 65 80 63 81 42 82 43 83 51 84 44 85 45 86
REMARK SMILES IDX 49 87 52 88 46 89 47 90 50 91 48 92
REMARK H PARENT 4 11 72 45 40 56
REMARK Flexibility Score: inf
ROOT
ATOM      1  O   UNL A   1      35.656  21.790  24.625  1.00  0.00    -0.374 OA
ENDROOT
BRANCH   1   2
ATOM      2  C   UNL A   1      34.641  22.384  25.438  1.00  0.00     0.202 C 
BRANCH   2   3
ATOM      3  C   UNL A   1      33.193  22.088  25.035  1.00  0.00     0.261 C 
BRANCH   3   4
ATOM      4  O   UNL A   1      32.371  23.276  25.051  1.00  0.00    -0.461 OA
BRANCH   4   5
ATOM      5  C   UNL A   1      32.185  23.902  23.849  1.00  0.00     0.338 C 
ATOM      6  O   UNL A   1      32.646  23.483  22.793  1.00  0.00    -0.249 OA
BRANCH   5   7
ATOM      7  C   UNL A   1      31.352  25.215  23.982  1.00  0.00     0.168 C 
BRANCH   7   8
ATOM      8  C   UNL A   1      31.770  26.271  22.922  1.00  0.00     0.044 C 
ATOM      9  C   UNL A   1      30.737  27.337  22.592  1.00  0.00     0.007 C 
ENDBRANCH   7   8
BRANCH   7  10
ATOM     10  O   UNL A   1      29.997  24.797  23.652  1.00  0.00    -0.378 OA
ATOM     11  H   UNL A   1      29.964  24.507  22.727  1.00  0.00     0.212 HD
ENDBRANCH   7  10
BRANCH   7  12
ATOM     12  C   UNL A   1      31.322  25.643  25.508  1.00  0.00     0.062 C 
ATOM     13  C   UNL A   1      29.906  25.576  26.126  1.00  0.00     0.016 C 
BRANCH  12  14
ATOM     14  C   UNL A   1      32.037  26.905  26.007  1.00  0.00    -0.003 A 
ATOM     15  C   UNL A   1      31.403  28.068  26.447  1.00  0.00     0.046 A 
ATOM     16  C   UNL A   1      33.446  26.911  26.064  1.00  0.00     0.127 A 
ATOM     17  C   UNL A   1      32.138  29.180  26.876  1.00  0.00     0.126 A 
ATOM     18  C   UNL A   1      34.183  28.014  26.512  1.00  0.00     0.046 A 
ATOM     19  F   UNL A   1      34.131  25.822  25.683  1.00  0.00    -0.207 F 
ATOM     20  F   UNL A   1      31.472  30.284  27.246  1.00  0.00    -0.207 F 
ATOM     21  C   UNL A   1      33.528  29.173  26.921  1.00  0.00    -0.012 A 
ATOM     22  C   UNL A   1      34.274  30.401  27.340  1.00  0.00     0.047 C 
ENDBRANCH  12  14
ENDBRANCH   7  12
ENDBRANCH   5   7
ENDBRANCH   4   5
ENDBRANCH   3   4
ENDBRANCH   2   3
ENDBRANCH   1   2
BRANCH   1  23
ATOM     23  C   UNL A   1      36.096  20.489  25.001  1.00  0.00     0.202 C 
BRANCH  23  24
ATOM     24  C   UNL A   1      37.613  20.269  25.002  1.00  0.00     0.261 C 
BRANCH  24  25
ATOM     25  O   UNL A   1      38.321  21.454  25.381  1.00  0.00    -0.460 OA
BRANCH  25  26
ATOM     26  C   UNL A   1      39.420  21.212  26.126  1.00  0.00     0.338 C 
ATOM     27  O   UNL A   1      40.088  20.186  26.173  1.00  0.00    -0.246 OA
BRANCH  26  28
ATOM     28  C   UNL A   1      39.832  22.449  26.796  1.00  0.00     0.060 A 
ATOM     29  C   UNL A   1      39.117  23.608  26.477  1.00  0.00     0.016 A 
ATOM     30  C   UNL A   1      40.925  22.488  27.666  1.00  0.00     0.016 A 
ATOM     31  C   UNL A   1      39.542  24.834  26.968  1.00  0.00     0.010 A 
ATOM     32  C   UNL A   1      41.351  23.721  28.161  1.00  0.00     0.010 A 
ATOM     33  C   UNL A   1      40.689  24.898  27.771  1.00  0.00    -0.014 A 
BRANCH  33  34
ATOM     34  C   UNL A   1      41.288  26.220  28.041  1.00  0.00     0.031 A 
ATOM     35  C   UNL A   1      42.677  26.493  27.536  1.00  0.00     0.074 A 
ATOM     36  C   UNL A   1      40.573  27.171  28.663  1.00  0.00     0.049 A 
ATOM     37  N   UNL A   1      43.396  27.580  27.628  1.00  0.00    -0.248 NA
ATOM     38  C   UNL A   1      43.347  25.387  26.829  1.00  0.00     0.031 C 
ATOM     39  C   UNL A   1      39.205  27.011  29.151  1.00  0.00     0.029 A 
ATOM     40  N   UNL A   1      40.900  28.462  28.984  1.00  0.00    -0.354 N 
ATOM     41  C   UNL A   1      44.599  27.289  26.999  1.00  0.00     0.074 A 
ATOM     42  C   UNL A   1      44.531  25.915  26.558  1.00  0.00     0.031 C 
ATOM     43  C   UNL A   1      38.805  28.165  29.710  1.00  0.00     0.029 A 
ATOM     44  C   UNL A   1      39.899  29.132  29.643  1.00  0.00     0.049 A 
ATOM     45  H   UNL A   1      41.768  28.871  28.763  1.00  0.00     0.167 HD
ATOM     46  C   UNL A   1      45.661  28.106  26.801  1.00  0.00     0.037 A 
ATOM     47  C   UNL A   1      39.884  30.380  30.145  1.00  0.00     0.037 A 
ATOM     48  C   UNL A   1      45.708  29.474  27.240  1.00  0.00     0.049 A 
ATOM     49  C   UNL A   1      41.102  31.249  29.960  1.00  0.00     0.074 A 
ATOM     50  C   UNL A   1      46.720  30.401  27.077  1.00  0.00     0.029 A 
ATOM     51  N   UNL A   1      44.690  30.109  27.940  1.00  0.00    -0.354 N 
ATOM     52  N   UNL A   1      42.226  30.978  29.340  1.00  0.00    -0.248 NA
ATOM     53  C   UNL A   1      41.046  32.596  30.540  1.00  0.00     0.031 C 
ATOM     54  C   UNL A   1      46.338  31.580  27.725  1.00  0.00     0.029 A 
ATOM     55  C   UNL A   1      45.063  31.408  28.242  1.00  0.00     0.049 A 
ATOM     56  H   UNL A   1      43.831  29.697  28.186  1.00  0.00     0.167 HD
ATOM     57  C   UNL A   1      42.999  32.126  29.429  1.00  0.00     0.074 A 
ATOM     58  C   UNL A   1      42.208  33.102  30.152  1.00  0.00     0.031 C 
ATOM     59  C   UNL A   1      44.250  32.358  28.958  1.00  0.00     0.037 A 
BRANCH  46  60
ATOM     60  C   UNL A   1      46.861  27.531  26.107  1.00  0.00     0.064 A 
ATOM     61  C   UNL A   1      47.028  27.619  24.716  1.00  0.00     0.173 A 
ATOM     62  C   UNL A   1      47.872  26.901  26.848  1.00  0.00     0.173 A 
ATOM     63  F   UNL A   1      46.083  28.196  23.958  1.00  0.00    -0.203 F 
ATOM     64  C   UNL A   1      48.150  27.078  24.092  1.00  0.00     0.198 A 
ATOM     65  C   UNL A   1      49.006  26.387  26.225  1.00  0.00     0.198 A 
ATOM     66  F   UNL A   1      47.763  26.788  28.181  1.00  0.00    -0.203 F 
ATOM     67  F   UNL A   1      48.266  27.133  22.758  1.00  0.00    -0.200 F 
ATOM     68  C   UNL A   1      49.141  26.469  24.848  1.00  0.00     0.200 A 
ATOM     69  F   UNL A   1      49.967  25.807  26.958  1.00  0.00    -0.200 F 
ATOM     70  F   UNL A   1      50.223  25.954  24.247  1.00  0.00    -0.200 F 
ENDBRANCH  46  60
BRANCH  47  71
ATOM     71  C   UNL A   1      38.683  30.878  30.864  1.00  0.00     0.064 A 
ATOM     72  C   UNL A   1      38.606  30.835  32.263  1.00  0.00     0.173 A 
ATOM     73  C   UNL A   1      37.586  31.404  30.166  1.00  0.00     0.173 A 
ATOM     74  F   UNL A   1      39.620  30.323  32.974  1.00  0.00    -0.203 F 
ATOM     75  C   UNL A   1      37.469  31.283  32.935  1.00  0.00     0.198 A 
ATOM     76  C   UNL A   1      36.463  31.878  30.840  1.00  0.00     0.198 A 
ATOM     77  F   UNL A   1      37.609  31.470  28.826  1.00  0.00    -0.203 F 
ATOM     78  F   UNL A   1      37.403  31.191  34.269  1.00  0.00    -0.200 F 
ATOM     79  C   UNL A   1      36.402  31.810  32.224  1.00  0.00     0.200 A 
ATOM     80  F   UNL A   1      35.440  32.400  30.149  1.00  0.00    -0.200 F 
ATOM     81  F   UNL A   1      35.312  32.244  32.870  1.00  0.00    -0.200 F 
ENDBRANCH  47  71
BRANCH  59  82
ATOM     82  C   UNL A   1      44.822  33.727  29.181  1.00  0.00     0.064 A 
ATOM     83  C   UNL A   1      44.600  34.773  28.274  1.00  0.00     0.173 A 
ATOM     84  C   UNL A   1      45.567  34.004  30.338  1.00  0.00     0.173 A 
ATOM     85  F   UNL A   1      43.907  34.554  27.147  1.00  0.00    -0.203 F 
ATOM     86  C   UNL A   1      45.126  36.041  28.505  1.00  0.00     0.198 A 
ATOM     87  C   UNL A   1      46.063  35.280  30.581  1.00  0.00     0.198 A 
ATOM     88  F   UNL A   1      45.799  33.038  31.240  1.00  0.00    -0.203 F 
ATOM     89  F   UNL A   1      44.944  37.014  27.602  1.00  0.00    -0.200 F 
ATOM     90  C   UNL A   1      45.850  36.296  29.661  1.00  0.00     0.200 A 
ATOM     91  F   UNL A   1      46.748  35.527  31.706  1.00  0.00    -0.200 F 
ATOM     92  F   UNL A   1      46.348  37.518  29.885  1.00  0.00    -0.200 F 
ENDBRANCH  59  82
ENDBRANCH  33  34
ENDBRANCH  26  28
ENDBRANCH  25  26
ENDBRANCH  24  25
ENDBRANCH  23  24
ENDBRANCH   1  23
TORSDOF 18
ENDMDL
MODEL 3
REMARK VINA RESULT:     -10.9      1.920      7.879
REMARK SMILES CC[C@@](O)(C(=O)OCCOCCOC(=O)c1ccc(-c2c3nc(c(-c4c(F)c(F)c(F)c(F)c4F)c4ccc([nH]4)c(-c4c(F)c(F)c(F)c(F)c4F)c4nc(c(-c5c(F)c(F)c(F)c(F)c5F)c5ccc2[nH]5)C=C4)C=C3)cc1)[C@H](C)c1cc(F)c(C)cc1F
REMARK SMILES IDX 10 1 9 2 8 3 7 4 5 5 6 6 3 7 2 8 1 9 4 10 79 12 80 13 81 14
REMARK SMILES IDX 82 15 88 16 83 17 87 18 89 19 84 20 85 21 86 22 11 23 12 24
REMARK SMILES IDX 13 25 14 26 15 27 16 28 17 29 78 30 18 31 77 32 19 33 20 34
REMARK SMILES IDX 21 35 71 36 22 37 76 38 70 39 72 40 23 41 75 42 69 43 68 44
REMARK SMILES IDX 24 46 56 47 36 48 55 49 37 50 40 51 54 52 73 53 38 54 39 55
REMARK SMILES IDX 53 57 74 58 41 59 25 60 26 61 34 62 27 63 28 64 32 65 35 66
REMARK SMILES IDX 29 67 30 68 33 69 31 70 57 71 58 72 66 73 59 74 60 75 64 76
REMARK SMILES IDX 67 77 61 78 62 79 65 80 63 81 42 82 43 83 51 84 44 85 45 86
REMARK SMILES IDX 49 87 52 88 46 89 47 90 50 91 48 92
REMARK H PARENT 4 11 72 45 40 56
REMARK Flexibility Score: inf
ROOT
ATOM      1  O   UNL A   1      31.888  27.723  26.339  1.00  0.00    -0.374 OA
ENDROOT
BRANCH   1   2
ATOM      2  C   UNL A   1      31.171  26.504  26.134  1.00  0.00     0.202 C 
BRANCH   2   3
ATOM      3  C   UNL A   1      31.460  25.762  24.825  1.00  0.00     0.261 C 
BRANCH   3   4
ATOM      4  O   UNL A   1      32.435  24.710  25.000  1.00  0.00    -0.461 OA
BRANCH   4   5
ATOM      5  C   UNL A   1      33.699  24.974  24.547  1.00  0.00     0.338 C 
ATOM      6  O   UNL A   1      34.032  26.051  24.066  1.00  0.00    -0.249 OA
BRANCH   5   7
ATOM      7  C   UNL A   1      34.651  23.744  24.685  1.00  0.00     0.168 C 
BRANCH   7   8
ATOM      8  C   UNL A   1      35.298  23.363  23.324  1.00  0.00     0.044 C 
ATOM      9  C   UNL A   1      36.751  22.917  23.373  1.00  0.00     0.007 C 
ENDBRANCH   7   8
BRANCH   7  10
ATOM     10  O   UNL A   1      35.722  24.232  25.541  1.00  0.00    -0.378 OA
ATOM     11  H   UNL A   1      35.346  24.569  26.370  1.00  0.00     0.212 HD
ENDBRANCH   7  10
BRANCH   7  12
ATOM     12  C   UNL A   1      33.905  22.616  25.512  1.00  0.00     0.062 C 
ATOM     13  C   UNL A   1      34.290  22.611  27.010  1.00  0.00     0.016 C 
BRANCH  12  14
ATOM     14  C   UNL A   1      33.810  21.172  25.005  1.00  0.00    -0.003 A 
ATOM     15  C   UNL A   1      34.841  20.233  25.053  1.00  0.00     0.046 A 
ATOM     16  C   UNL A   1      32.588  20.719  24.467  1.00  0.00     0.127 A 
ATOM     17  C   UNL A   1      34.670  18.936  24.554  1.00  0.00     0.126 A 
ATOM     18  C   UNL A   1      32.407  19.416  23.986  1.00  0.00     0.046 A 
ATOM     19  F   UNL A   1      31.538  21.552  24.408  1.00  0.00    -0.207 F 
ATOM     20  F   UNL A   1      35.712  18.092  24.590  1.00  0.00    -0.207 F 
ATOM     21  C   UNL A   1      33.460  18.505  24.022  1.00  0.00    -0.012 A 
ATOM     22  C   UNL A   1      33.335  17.125  23.455  1.00  0.00     0.047 C 
ENDBRANCH  12  14
ENDBRANCH   7  12
ENDBRANCH   5   7
ENDBRANCH   4   5
ENDBRANCH   3   4
ENDBRANCH   2   3
ENDBRANCH   1   2
BRANCH   1  23
ATOM     23  C   UNL A   1      31.746  28.725  25.337  1.00  0.00     0.202 C 
BRANCH  23  24
ATOM     24  C   UNL A   1      31.947  30.171  25.801  1.00  0.00     0.261 C 
BRANCH  24  25
ATOM     25  O   UNL A   1      32.587  30.234  27.080  1.00  0.00    -0.460 OA
BRANCH  25  26
ATOM     26  C   UNL A   1      33.270  31.379  27.287  1.00  0.00     0.338 C 
ATOM     27  O   UNL A   1      32.848  32.528  27.235  1.00  0.00    -0.246 OA
BRANCH  26  28
ATOM     28  C   UNL A   1      34.619  31.059  27.762  1.00  0.00     0.060 A 
ATOM     29  C   UNL A   1      34.901  29.709  28.001  1.00  0.00     0.016 A 
ATOM     30  C   UNL A   1      35.565  32.054  28.023  1.00  0.00     0.016 A 
ATOM     31  C   UNL A   1      36.110  29.353  28.581  1.00  0.00     0.010 A 
ATOM     32  C   UNL A   1      36.781  31.695  28.604  1.00  0.00     0.010 A 
ATOM     33  C   UNL A   1      37.031  30.350  28.929  1.00  0.00    -0.014 A 
BRANCH  33  34
ATOM     34  C   UNL A   1      38.169  29.986  29.797  1.00  0.00     0.031 A 
ATOM     35  C   UNL A   1      39.212  29.052  29.255  1.00  0.00     0.074 A 
ATOM     36  C   UNL A   1      38.292  30.538  31.015  1.00  0.00     0.049 A 
ATOM     37  N   UNL A   1      40.307  28.612  29.818  1.00  0.00    -0.248 NA
ATOM     38  C   UNL A   1      38.992  28.543  27.890  1.00  0.00     0.031 C 
ATOM     39  C   UNL A   1      37.351  31.486  31.608  1.00  0.00     0.029 A 
ATOM     40  N   UNL A   1      39.265  30.384  31.967  1.00  0.00    -0.354 N 
ATOM     41  C   UNL A   1      40.900  27.775  28.882  1.00  0.00     0.074 A 
ATOM     42  C   UNL A   1      40.031  27.738  27.728  1.00  0.00     0.031 C 
ATOM     43  C   UNL A   1      37.795  31.835  32.827  1.00  0.00     0.029 A 
ATOM     44  C   UNL A   1      39.033  31.111  33.108  1.00  0.00     0.049 A 
ATOM     45  H   UNL A   1      40.054  29.809  31.844  1.00  0.00     0.167 HD
ATOM     46  C   UNL A   1      42.073  27.106  28.980  1.00  0.00     0.037 A 
ATOM     47  C   UNL A   1      39.741  31.167  34.251  1.00  0.00     0.037 A 
ATOM     48  C   UNL A   1      42.929  27.161  30.134  1.00  0.00     0.049 A 
ATOM     49  C   UNL A   1      41.014  30.367  34.354  1.00  0.00     0.074 A 
ATOM     50  C   UNL A   1      44.149  26.542  30.337  1.00  0.00     0.029 A 
ATOM     51  N   UNL A   1      42.644  27.876  31.289  1.00  0.00    -0.354 N 
ATOM     52  N   UNL A   1      41.584  29.599  33.456  1.00  0.00    -0.248 NA
ATOM     53  C   UNL A   1      41.742  30.446  35.626  1.00  0.00     0.031 C 
ATOM     54  C   UNL A   1      44.576  26.841  31.634  1.00  0.00     0.029 A 
ATOM     55  C   UNL A   1      43.652  27.692  32.221  1.00  0.00     0.049 A 
ATOM     56  H   UNL A   1      41.844  28.433  31.426  1.00  0.00     0.167 HD
ATOM     57  C   UNL A   1      42.750  29.127  34.041  1.00  0.00     0.074 A 
ATOM     58  C   UNL A   1      42.812  29.706  35.368  1.00  0.00     0.031 C 
ATOM     59  C   UNL A   1      43.687  28.289  33.532  1.00  0.00     0.037 A 
BRANCH  46  60
ATOM     60  C   UNL A   1      42.479  26.240  27.823  1.00  0.00     0.064 A 
ATOM     61  C   UNL A   1      42.059  24.906  27.711  1.00  0.00     0.173 A 
ATOM     62  C   UNL A   1      43.284  26.760  26.798  1.00  0.00     0.173 A 
ATOM     63  F   UNL A   1      41.303  24.353  28.672  1.00  0.00    -0.203 F 
ATOM     64  C   UNL A   1      42.448  24.119  26.628  1.00  0.00     0.198 A 
ATOM     65  C   UNL A   1      43.648  25.980  25.703  1.00  0.00     0.198 A 
ATOM     66  F   UNL A   1      43.716  28.030  26.855  1.00  0.00    -0.203 F 
ATOM     67  F   UNL A   1      42.073  22.834  26.566  1.00  0.00    -0.200 F 
ATOM     68  C   UNL A   1      43.236  24.659  25.622  1.00  0.00     0.200 A 
ATOM     69  F   UNL A   1      44.401  26.507  24.728  1.00  0.00    -0.200 F 
ATOM     70  F   UNL A   1      43.604  23.903  24.579  1.00  0.00    -0.200 F 
ENDBRANCH  46  60
BRANCH  47  71
ATOM     71  C   UNL A   1      39.263  32.006  35.381  1.00  0.00     0.064 A 
ATOM     72  C   UNL A   1      38.476  31.464  36.406  1.00  0.00     0.173 A 
ATOM     73  C   UNL A   1      39.582  33.371  35.456  1.00  0.00     0.173 A 
ATOM     74  F   UNL A   1      38.128  30.169  36.368  1.00  0.00    -0.203 F 
ATOM     75  C   UNL A   1      38.012  32.257  37.453  1.00  0.00     0.198 A 
ATOM     76  C   UNL A   1      39.141  34.157  36.519  1.00  0.00     0.198 A 
ATOM     77  F   UNL A   1      40.334  33.940  34.502  1.00  0.00    -0.203 F 
ATOM     78  F   UNL A   1      37.225  31.724  38.397  1.00  0.00    -0.200 F 
ATOM     79  C   UNL A   1      38.350  33.601  37.513  1.00  0.00     0.200 A 
ATOM     80  F   UNL A   1      39.483  35.451  36.579  1.00  0.00    -0.200 F 
ATOM     81  F   UNL A   1      37.907  34.362  38.522  1.00  0.00    -0.200 F 
ENDBRANCH  47  71
BRANCH  59  82
ATOM     82  C   UNL A   1      44.872  27.979  34.399  1.00  0.00     0.064 A 
ATOM     83  C   UNL A   1      46.016  28.791  34.399  1.00  0.00     0.173 A 
ATOM     84  C   UNL A   1      44.843  26.880  35.271  1.00  0.00     0.173 A 
ATOM     85  F   UNL A   1      46.096  29.844  33.573  1.00  0.00    -0.203 F 
ATOM     86  C   UNL A   1      47.099  28.497  35.222  1.00  0.00     0.198 A 
ATOM     87  C   UNL A   1      45.915  26.609  36.115  1.00  0.00     0.198 A 
ATOM     88  F   UNL A   1      43.769  26.079  35.314  1.00  0.00    -0.203 F 
ATOM     89  F   UNL A   1      48.202  29.257  35.171  1.00  0.00    -0.200 F 
ATOM     90  C   UNL A   1      47.045  27.412  36.084  1.00  0.00     0.200 A 
ATOM     91  F   UNL A   1      45.854  25.569  36.959  1.00  0.00    -0.200 F 
ATOM     92  F   UNL A   1      48.086  27.136  36.881  1.00  0.00    -0.200 F 
ENDBRANCH  59  82
ENDBRANCH  33  34
ENDBRANCH  26  28
ENDBRANCH  25  26
ENDBRANCH  24  25
ENDBRANCH  23  24
ENDBRANCH   1  23
TORSDOF 18
ENDMDL
