MODEL 1
REMARK VINA RESULT:     -11.7      0.000      0.000
REMARK SMILES Nc1nn(-c2ccc(Cl)cc2)nc1C(=O)OCCOCCOC(=O)c1ccc(-c2c3nc(c(-c4c(F)c(F)c(F)c(F)c4F)c4ccc([nH]4)c(-c4c(F)c(F)c(F)c(F)c4F)c4nc(c(-c5c(F)c(F)c(F)c(F)c5F)c5ccc2[nH]5)C=C4)C=C3)cc1
REMARK SMILES IDX 20 1 19 2 18 3 17 4 16 5 14 6 15 7 13 8 2 9 3 10 4 11 12 12
REMARK SMILES IDX 1 13 5 16 6 17 11 18 7 19 10 20 8 21 9 22 21 23 22 24 23 25
REMARK SMILES IDX 24 26 25 27 26 28 87 29 27 30 86 31 28 32 29 33 30 34 80 35
REMARK SMILES IDX 31 36 85 37 79 38 81 39 32 40 84 41 78 42 77 43 33 45 65 46
REMARK SMILES IDX 45 47 64 48 46 49 49 50 63 51 82 52 47 53 48 54 62 56 83 57
REMARK SMILES IDX 50 58 34 59 35 60 43 61 36 62 37 63 41 64 44 65 38 66 39 67
REMARK SMILES IDX 42 68 40 69 66 70 67 71 75 72 68 73 69 74 73 75 76 76 70 77
REMARK SMILES IDX 71 78 74 79 72 80 51 81 52 82 60 83 53 84 54 85 58 86 61 87
REMARK SMILES IDX 55 88 56 89 59 90 57 91
REMARK H PARENT 1 14 1 15 81 44 49 55
REMARK Flexibility Score: inf
ROOT
ATOM      1  C   UNL A   1      42.148  19.953  27.100  1.00  0.00     0.202 C 
ENDROOT
BRANCH   1   2
ATOM      2  O   UNL A   1      41.191  20.997  26.959  1.00  0.00    -0.374 OA
BRANCH   2   3
ATOM      3  C   UNL A   1      40.040  20.825  26.135  1.00  0.00     0.202 C 
BRANCH   3   4
ATOM      4  C   UNL A   1      39.001  21.949  26.082  1.00  0.00     0.261 C 
BRANCH   4   5
ATOM      5  O   UNL A   1      38.093  21.801  24.978  1.00  0.00    -0.458 OA
BRANCH   5   6
ATOM      6  C   UNL A   1      36.994  22.617  25.045  1.00  0.00     0.362 C 
ATOM      7  O   UNL A   1      37.051  23.836  25.147  1.00  0.00    -0.244 OA
BRANCH   6   8
ATOM      8  C   UNL A   1      35.744  21.895  24.837  1.00  0.00     0.214 A 
ATOM      9  C   UNL A   1      34.489  22.332  24.345  1.00  0.00     0.181 A 
ATOM     10  N   UNL A   1      33.677  21.285  24.203  1.00  0.00    -0.130 NA
ATOM     11  N   UNL A   1      34.403  20.290  24.753  1.00  0.00    -0.149 N 
ATOM     12  N   UNL A   1      35.633  20.602  25.196  1.00  0.00    -0.139 NA
BRANCH   9  13
ATOM     13  N   UNL A   1      34.128  23.583  24.032  1.00  0.00    -0.380 N 
ATOM     14  H   UNL A   1      33.269  23.942  24.352  1.00  0.00     0.158 HD
ATOM     15  H   UNL A   1      34.722  24.143  23.482  1.00  0.00     0.158 HD
ENDBRANCH   9  13
BRANCH  11  16
ATOM     16  C   UNL A   1      33.971  18.954  24.791  1.00  0.00     0.086 A 
ATOM     17  C   UNL A   1      32.759  18.644  25.419  1.00  0.00     0.032 A 
ATOM     18  C   UNL A   1      34.830  17.950  24.334  1.00  0.00     0.032 A 
ATOM     19  C   UNL A   1      32.393  17.306  25.574  1.00  0.00     0.023 A 
ATOM     20  C   UNL A   1      34.481  16.614  24.543  1.00  0.00     0.023 A 
ATOM     21  C   UNL A   1      33.265  16.299  25.153  1.00  0.00     0.041 A 
ATOM     22  Cl  UNL A   1      32.846  14.650  25.415  1.00  0.00    -0.084 Cl
ENDBRANCH  11  16
ENDBRANCH   6   8
ENDBRANCH   5   6
ENDBRANCH   4   5
ENDBRANCH   3   4
ENDBRANCH   2   3
ENDBRANCH   1   2
BRANCH   1  23
ATOM     23  C   UNL A   1      42.682  19.273  25.850  1.00  0.00     0.261 C 
BRANCH  23  24
ATOM     24  O   UNL A   1      44.065  19.515  25.664  1.00  0.00    -0.460 OA
BRANCH  24  25
ATOM     25  C   UNL A   1      44.360  20.075  24.467  1.00  0.00     0.338 C 
ATOM     26  O   UNL A   1      44.500  19.515  23.399  1.00  0.00    -0.246 OA
BRANCH  25  27
ATOM     27  C   UNL A   1      44.658  21.492  24.693  1.00  0.00     0.060 A 
ATOM     28  C   UNL A   1      45.686  21.754  25.601  1.00  0.00     0.016 A 
ATOM     29  C   UNL A   1      43.719  22.461  24.314  1.00  0.00     0.016 A 
ATOM     30  C   UNL A   1      45.610  22.910  26.337  1.00  0.00     0.010 A 
ATOM     31  C   UNL A   1      43.631  23.603  25.063  1.00  0.00     0.010 A 
ATOM     32  C   UNL A   1      44.520  23.760  26.124  1.00  0.00    -0.014 A 
BRANCH  32  33
ATOM     33  C   UNL A   1      44.390  24.921  26.971  1.00  0.00     0.031 A 
ATOM     34  C   UNL A   1      45.517  25.860  26.778  1.00  0.00     0.074 A 
ATOM     35  C   UNL A   1      43.290  25.112  27.725  1.00  0.00     0.049 A 
ATOM     36  N   UNL A   1      46.402  26.221  27.643  1.00  0.00    -0.248 NA
ATOM     37  C   UNL A   1      45.822  26.281  25.397  1.00  0.00     0.031 C 
ATOM     38  C   UNL A   1      42.058  24.315  27.743  1.00  0.00     0.029 A 
ATOM     39  N   UNL A   1      42.996  26.139  28.567  1.00  0.00    -0.354 N 
ATOM     40  C   UNL A   1      47.245  27.094  26.962  1.00  0.00     0.074 A 
ATOM     41  C   UNL A   1      46.982  26.915  25.564  1.00  0.00     0.031 C 
ATOM     42  C   UNL A   1      41.081  25.013  28.364  1.00  0.00     0.029 A 
ATOM     43  C   UNL A   1      41.645  26.240  28.894  1.00  0.00     0.049 A 
ATOM     44  H   UNL A   1      43.679  26.758  28.916  1.00  0.00     0.167 HD
ATOM     45  C   UNL A   1      47.840  28.119  27.628  1.00  0.00     0.037 A 
ATOM     46  C   UNL A   1      41.053  27.317  29.470  1.00  0.00     0.037 A 
ATOM     47  C   UNL A   1      47.916  27.825  29.039  1.00  0.00     0.049 A 
ATOM     48  C   UNL A   1      42.135  28.132  30.086  1.00  0.00     0.074 A 
ATOM     49  C   UNL A   1      48.528  26.844  29.794  1.00  0.00     0.029 A 
ATOM     50  N   UNL A   1      46.969  28.393  29.853  1.00  0.00    -0.354 N 
ATOM     51  N   UNL A   1      42.843  27.737  31.108  1.00  0.00    -0.248 NA
ATOM     52  C   UNL A   1      42.750  29.159  29.258  1.00  0.00     0.031 C 
ATOM     53  C   UNL A   1      47.619  26.574  30.861  1.00  0.00     0.029 A 
ATOM     54  C   UNL A   1      46.538  27.448  30.744  1.00  0.00     0.049 A 
ATOM     55  H   UNL A   1      46.653  29.324  29.806  1.00  0.00     0.167 HD
ATOM     56  C   UNL A   1      44.140  28.130  30.810  1.00  0.00     0.074 A 
ATOM     57  C   UNL A   1      44.010  29.062  29.692  1.00  0.00     0.031 C 
ATOM     58  C   UNL A   1      45.207  27.436  31.303  1.00  0.00     0.037 A 
BRANCH  45  59
ATOM     59  C   UNL A   1      47.881  29.537  27.091  1.00  0.00     0.064 A 
ATOM     60  C   UNL A   1      49.085  30.258  27.220  1.00  0.00     0.173 A 
ATOM     61  C   UNL A   1      46.745  30.319  26.776  1.00  0.00     0.173 A 
ATOM     62  F   UNL A   1      50.233  29.624  27.502  1.00  0.00    -0.203 F 
ATOM     63  C   UNL A   1      49.120  31.654  27.176  1.00  0.00     0.198 A 
ATOM     64  C   UNL A   1      46.793  31.708  26.688  1.00  0.00     0.198 A 
ATOM     65  F   UNL A   1      45.519  29.805  26.638  1.00  0.00    -0.203 F 
ATOM     66  F   UNL A   1      50.261  32.297  27.455  1.00  0.00    -0.200 F 
ATOM     67  C   UNL A   1      47.970  32.378  26.929  1.00  0.00     0.200 A 
ATOM     68  F   UNL A   1      45.662  32.389  26.453  1.00  0.00    -0.200 F 
ATOM     69  F   UNL A   1      47.983  33.717  26.965  1.00  0.00    -0.200 F 
ENDBRANCH  45  59
BRANCH  46  70
ATOM     70  C   UNL A   1      39.706  27.875  29.196  1.00  0.00     0.064 A 
ATOM     71  C   UNL A   1      38.763  28.041  30.225  1.00  0.00     0.173 A 
ATOM     72  C   UNL A   1      39.414  28.518  27.976  1.00  0.00     0.173 A 
ATOM     73  F   UNL A   1      38.990  27.511  31.436  1.00  0.00    -0.203 F 
ATOM     74  C   UNL A   1      37.609  28.816  30.049  1.00  0.00     0.198 A 
ATOM     75  C   UNL A   1      38.260  29.284  27.800  1.00  0.00     0.198 A 
ATOM     76  F   UNL A   1      40.290  28.498  26.961  1.00  0.00    -0.203 F 
ATOM     77  F   UNL A   1      36.763  28.999  31.073  1.00  0.00    -0.200 F 
ATOM     78  C   UNL A   1      37.363  29.443  28.838  1.00  0.00     0.200 A 
ATOM     79  F   UNL A   1      38.057  29.920  26.636  1.00  0.00    -0.200 F 
ATOM     80  F   UNL A   1      36.290  30.231  28.687  1.00  0.00    -0.200 F 
ENDBRANCH  46  70
BRANCH  58  81
ATOM     81  C   UNL A   1      44.943  26.425  32.384  1.00  0.00     0.064 A 
ATOM     82  C   UNL A   1      44.624  25.076  32.146  1.00  0.00     0.173 A 
ATOM     83  C   UNL A   1      45.170  26.810  33.711  1.00  0.00     0.173 A 
ATOM     84  F   UNL A   1      44.484  24.612  30.898  1.00  0.00    -0.203 F 
ATOM     85  C   UNL A   1      44.503  24.168  33.198  1.00  0.00     0.198 A 
ATOM     86  C   UNL A   1      45.087  25.893  34.754  1.00  0.00     0.198 A 
ATOM     87  F   UNL A   1      45.530  28.073  33.990  1.00  0.00    -0.203 F 
ATOM     88  F   UNL A   1      44.190  22.887  32.949  1.00  0.00    -0.200 F 
ATOM     89  C   UNL A   1      44.745  24.576  34.499  1.00  0.00     0.200 A 
ATOM     90  F   UNL A   1      45.371  26.283  36.005  1.00  0.00    -0.200 F 
ATOM     91  F   UNL A   1      44.675  23.693  35.506  1.00  0.00    -0.200 F 
ENDBRANCH  58  81
ENDBRANCH  32  33
ENDBRANCH  25  27
ENDBRANCH  24  25
ENDBRANCH  23  24
ENDBRANCH   1  23
TORSDOF 16
ENDMDL
MODEL 2
REMARK VINA RESULT:     -11.6      5.822     10.735
REMARK SMILES Nc1nn(-c2ccc(Cl)cc2)nc1C(=O)OCCOCCOC(=O)c1ccc(-c2c3nc(c(-c4c(F)c(F)c(F)c(F)c4F)c4ccc([nH]4)c(-c4c(F)c(F)c(F)c(F)c4F)c4nc(c(-c5c(F)c(F)c(F)c(F)c5F)c5ccc2[nH]5)C=C4)C=C3)cc1
REMARK SMILES IDX 20 1 19 2 18 3 17 4 16 5 14 6 15 7 13 8 2 9 3 10 4 11 12 12
REMARK SMILES IDX 1 13 5 16 6 17 11 18 7 19 10 20 8 21 9 22 21 23 22 24 23 25
REMARK SMILES IDX 24 26 25 27 26 28 87 29 27 30 86 31 28 32 29 33 30 34 80 35
REMARK SMILES IDX 31 36 85 37 79 38 81 39 32 40 84 41 78 42 77 43 33 45 65 46
REMARK SMILES IDX 45 47 64 48 46 49 49 50 63 51 82 52 47 53 48 54 62 56 83 57
REMARK SMILES IDX 50 58 34 59 35 60 43 61 36 62 37 63 41 64 44 65 38 66 39 67
REMARK SMILES IDX 42 68 40 69 66 70 67 71 75 72 68 73 69 74 73 75 76 76 70 77
REMARK SMILES IDX 71 78 74 79 72 80 51 81 52 82 60 83 53 84 54 85 58 86 61 87
REMARK SMILES IDX 55 88 56 89 59 90 57 91
REMARK H PARENT 1 14 1 15 81 44 49 55
REMARK Flexibility Score: inf
ROOT
ATOM      1  C   UNL A   1      34.909  34.671  33.668  1.00  0.00     0.202 C 
ENDROOT
BRANCH   1   2
ATOM      2  O   UNL A   1      34.618  36.065  33.683  1.00  0.00    -0.374 OA
BRANCH   2   3
ATOM      3  C   UNL A   1      33.540  36.593  32.914  1.00  0.00     0.202 C 
BRANCH   3   4
ATOM      4  C   UNL A   1      33.010  35.776  31.732  1.00  0.00     0.261 C 
BRANCH   4   5
ATOM      5  O   UNL A   1      33.747  36.024  30.524  1.00  0.00    -0.458 OA
BRANCH   5   6
ATOM      6  C   UNL A   1      33.079  35.673  29.380  1.00  0.00     0.362 C 
ATOM      7  O   UNL A   1      32.179  36.336  28.881  1.00  0.00    -0.244 OA
BRANCH   6   8
ATOM      8  C   UNL A   1      33.648  34.495  28.735  1.00  0.00     0.214 A 
ATOM      9  C   UNL A   1      34.994  34.135  28.478  1.00  0.00     0.181 A 
ATOM     10  N   UNL A   1      35.038  32.898  27.984  1.00  0.00    -0.130 NA
ATOM     11  N   UNL A   1      33.729  32.616  27.814  1.00  0.00    -0.149 N 
ATOM     12  N   UNL A   1      32.847  33.553  28.201  1.00  0.00    -0.139 NA
BRANCH   9  13
ATOM     13  N   UNL A   1      36.090  34.871  28.700  1.00  0.00    -0.380 N 
ATOM     14  H   UNL A   1      36.559  34.807  29.563  1.00  0.00     0.158 HD
ATOM     15  H   UNL A   1      36.426  35.476  28.000  1.00  0.00     0.158 HD
ENDBRANCH   9  13
BRANCH  11  16
ATOM     16  C   UNL A   1      33.264  31.374  27.351  1.00  0.00     0.086 A 
ATOM     17  C   UNL A   1      34.095  30.252  27.450  1.00  0.00     0.032 A 
ATOM     18  C   UNL A   1      32.046  31.319  26.667  1.00  0.00     0.032 A 
ATOM     19  C   UNL A   1      33.688  29.049  26.872  1.00  0.00     0.023 A 
ATOM     20  C   UNL A   1      31.674  30.125  26.045  1.00  0.00     0.023 A 
ATOM     21  C   UNL A   1      32.490  28.997  26.156  1.00  0.00     0.041 A 
ATOM     22  Cl  UNL A   1      32.028  27.532  25.379  1.00  0.00    -0.084 Cl
ENDBRANCH  11  16
ENDBRANCH   6   8
ENDBRANCH   5   6
ENDBRANCH   4   5
ENDBRANCH   3   4
ENDBRANCH   2   3
ENDBRANCH   1   2
BRANCH   1  23
ATOM     23  C   UNL A   1      36.141  34.186  32.923  1.00  0.00     0.261 C 
BRANCH  23  24
ATOM     24  O   UNL A   1      36.177  32.774  32.821  1.00  0.00    -0.460 OA
BRANCH  24  25
ATOM     25  C   UNL A   1      35.544  32.296  31.724  1.00  0.00     0.338 C 
ATOM     26  O   UNL A   1      34.350  32.282  31.501  1.00  0.00    -0.246 OA
BRANCH  25  27
ATOM     27  C   UNL A   1      36.539  31.622  30.887  1.00  0.00     0.060 A 
ATOM     28  C   UNL A   1      36.511  30.227  30.922  1.00  0.00     0.016 A 
ATOM     29  C   UNL A   1      37.646  32.343  30.418  1.00  0.00     0.016 A 
ATOM     30  C   UNL A   1      37.697  29.558  30.742  1.00  0.00     0.010 A 
ATOM     31  C   UNL A   1      38.831  31.678  30.261  1.00  0.00     0.010 A 
ATOM     32  C   UNL A   1      38.854  30.310  30.521  1.00  0.00    -0.014 A 
BRANCH  32  33
ATOM     33  C   UNL A   1      40.113  29.609  30.436  1.00  0.00     0.031 A 
ATOM     34  C   UNL A   1      40.764  29.508  31.760  1.00  0.00     0.074 A 
ATOM     35  C   UNL A   1      40.516  29.041  29.283  1.00  0.00     0.049 A 
ATOM     36  N   UNL A   1      41.894  30.011  32.126  1.00  0.00    -0.248 NA
ATOM     37  C   UNL A   1      39.964  28.961  32.873  1.00  0.00     0.031 C 
ATOM     38  C   UNL A   1      39.770  28.922  28.025  1.00  0.00     0.029 A 
ATOM     39  N   UNL A   1      41.655  28.343  29.024  1.00  0.00    -0.354 N 
ATOM     40  C   UNL A   1      42.042  29.649  33.461  1.00  0.00     0.074 A 
ATOM     41  C   UNL A   1      40.752  29.216  33.916  1.00  0.00     0.031 C 
ATOM     42  C   UNL A   1      40.369  28.005  27.233  1.00  0.00     0.029 A 
ATOM     43  C   UNL A   1      41.599  27.570  27.866  1.00  0.00     0.049 A 
ATOM     44  H   UNL A   1      42.450  28.382  29.604  1.00  0.00     0.167 HD
ATOM     45  C   UNL A   1      43.282  29.423  33.969  1.00  0.00     0.037 A 
ATOM     46  C   UNL A   1      42.469  26.580  27.538  1.00  0.00     0.037 A 
ATOM     47  C   UNL A   1      44.280  30.106  33.180  1.00  0.00     0.049 A 
ATOM     48  C   UNL A   1      43.692  26.785  28.360  1.00  0.00     0.074 A 
ATOM     49  C   UNL A   1      44.535  31.427  32.870  1.00  0.00     0.029 A 
ATOM     50  N   UNL A   1      44.974  29.362  32.260  1.00  0.00    -0.354 N 
ATOM     51  N   UNL A   1      44.498  27.801  28.214  1.00  0.00    -0.248 NA
ATOM     52  C   UNL A   1      43.741  26.129  29.658  1.00  0.00     0.031 C 
ATOM     53  C   UNL A   1      44.998  31.411  31.521  1.00  0.00     0.029 A 
ATOM     54  C   UNL A   1      45.069  30.083  31.101  1.00  0.00     0.049 A 
ATOM     55  H   UNL A   1      45.342  28.461  32.407  1.00  0.00     0.167 HD
ATOM     56  C   UNL A   1      44.824  28.179  29.509  1.00  0.00     0.074 A 
ATOM     57  C   UNL A   1      44.385  27.071  30.353  1.00  0.00     0.031 C 
ATOM     58  C   UNL A   1      45.146  29.475  29.794  1.00  0.00     0.037 A 
BRANCH  45  59
ATOM     59  C   UNL A   1      43.614  28.221  34.832  1.00  0.00     0.064 A 
ATOM     60  C   UNL A   1      43.219  26.948  34.373  1.00  0.00     0.173 A 
ATOM     61  C   UNL A   1      43.982  28.278  36.196  1.00  0.00     0.173 A 
ATOM     62  F   UNL A   1      42.861  26.765  33.093  1.00  0.00    -0.203 F 
ATOM     63  C   UNL A   1      43.071  25.863  35.239  1.00  0.00     0.198 A 
ATOM     64  C   UNL A   1      43.877  27.180  37.047  1.00  0.00     0.198 A 
ATOM     65  F   UNL A   1      44.362  29.405  36.805  1.00  0.00    -0.203 F 
ATOM     66  F   UNL A   1      42.547  24.717  34.782  1.00  0.00    -0.200 F 
ATOM     67  C   UNL A   1      43.382  25.985  36.579  1.00  0.00     0.200 A 
ATOM     68  F   UNL A   1      44.179  27.325  38.345  1.00  0.00    -0.200 F 
ATOM     69  F   UNL A   1      43.167  24.971  37.426  1.00  0.00    -0.200 F 
ENDBRANCH  45  59
BRANCH  46  70
ATOM     70  C   UNL A   1      42.173  25.287  26.873  1.00  0.00     0.064 A 
ATOM     71  C   UNL A   1      42.911  24.857  25.757  1.00  0.00     0.173 A 
ATOM     72  C   UNL A   1      41.353  24.319  27.487  1.00  0.00     0.173 A 
ATOM     73  F   UNL A   1      43.761  25.697  25.148  1.00  0.00    -0.203 F 
ATOM     74  C   UNL A   1      42.845  23.537  25.295  1.00  0.00     0.198 A 
ATOM     75  C   UNL A   1      41.282  23.005  27.020  1.00  0.00     0.198 A 
ATOM     76  F   UNL A   1      40.679  24.601  28.611  1.00  0.00    -0.203 F 
ATOM     77  F   UNL A   1      43.609  23.149  24.263  1.00  0.00    -0.200 F 
ATOM     78  C   UNL A   1      42.036  22.610  25.932  1.00  0.00     0.200 A 
ATOM     79  F   UNL A   1      40.528  22.109  27.674  1.00  0.00    -0.200 F 
ATOM     80  F   UNL A   1      42.015  21.332  25.527  1.00  0.00    -0.200 F 
ENDBRANCH  46  70
BRANCH  58  81
ATOM     81  C   UNL A   1      45.405  30.400  28.637  1.00  0.00     0.064 A 
ATOM     82  C   UNL A   1      44.409  31.143  27.978  1.00  0.00     0.173 A 
ATOM     83  C   UNL A   1      46.737  30.652  28.286  1.00  0.00     0.173 A 
ATOM     84  F   UNL A   1      43.121  31.026  28.325  1.00  0.00    -0.203 F 
ATOM     85  C   UNL A   1      44.737  32.068  26.987  1.00  0.00     0.198 A 
ATOM     86  C   UNL A   1      47.063  31.603  27.324  1.00  0.00     0.198 A 
ATOM     87  F   UNL A   1      47.730  30.009  28.920  1.00  0.00    -0.203 F 
ATOM     88  F   UNL A   1      43.770  32.760  26.366  1.00  0.00    -0.200 F 
ATOM     89  C   UNL A   1      46.064  32.303  26.669  1.00  0.00     0.200 A 
ATOM     90  F   UNL A   1      48.351  31.862  27.057  1.00  0.00    -0.200 F 
ATOM     91  F   UNL A   1      46.383  33.226  25.750  1.00  0.00    -0.200 F 
ENDBRANCH  58  81
ENDBRANCH  32  33
ENDBRANCH  25  27
ENDBRANCH  24  25
ENDBRANCH  23  24
ENDBRANCH   1  23
TORSDOF 16
ENDMDL
MODEL 3
REMARK VINA RESULT:     -11.6      4.380      6.761
REMARK SMILES Nc1nn(-c2ccc(Cl)cc2)nc1C(=O)OCCOCCOC(=O)c1ccc(-c2c3nc(c(-c4c(F)c(F)c(F)c(F)c4F)c4ccc([nH]4)c(-c4c(F)c(F)c(F)c(F)c4F)c4nc(c(-c5c(F)c(F)c(F)c(F)c5F)c5ccc2[nH]5)C=C4)C=C3)cc1
REMARK SMILES IDX 20 1 19 2 18 3 17 4 16 5 14 6 15 7 13 8 2 9 3 10 4 11 12 12
REMARK SMILES IDX 1 13 5 16 6 17 11 18 7 19 10 20 8 21 9 22 21 23 22 24 23 25
REMARK SMILES IDX 24 26 25 27 26 28 87 29 27 30 86 31 28 32 29 33 30 34 80 35
REMARK SMILES IDX 31 36 85 37 79 38 81 39 32 40 84 41 78 42 77 43 33 45 65 46
REMARK SMILES IDX 45 47 64 48 46 49 49 50 63 51 82 52 47 53 48 54 62 56 83 57
REMARK SMILES IDX 50 58 34 59 35 60 43 61 36 62 37 63 41 64 44 65 38 66 39 67
REMARK SMILES IDX 42 68 40 69 66 70 67 71 75 72 68 73 69 74 73 75 76 76 70 77
REMARK SMILES IDX 71 78 74 79 72 80 51 81 52 82 60 83 53 84 54 85 58 86 61 87
REMARK SMILES IDX 55 88 56 89 59 90 57 91
REMARK H PARENT 1 14 1 15 81 44 49 55
REMARK Flexibility Score: inf
ROOT
ATOM      1  C   UNL A   1      42.241  19.686  26.002  1.00  0.00     0.202 C 
ENDROOT
BRANCH   1   2
ATOM      2  O   UNL A   1      43.259  20.229  25.168  1.00  0.00    -0.374 OA
BRANCH   2   3
ATOM      3  C   UNL A   1      44.580  19.693  25.187  1.00  0.00     0.202 C 
BRANCH   3   4
ATOM      4  C   UNL A   1      45.709  20.498  24.536  1.00  0.00     0.261 C 
BRANCH   4   5
ATOM      5  O   UNL A   1      46.172  21.568  25.376  1.00  0.00    -0.458 OA
BRANCH   5   6
ATOM      6  C   UNL A   1      45.792  22.815  24.954  1.00  0.00     0.362 C 
ATOM      7  O   UNL A   1      45.464  23.078  23.805  1.00  0.00    -0.244 OA
BRANCH   6   8
ATOM      8  C   UNL A   1      45.681  23.770  26.050  1.00  0.00     0.214 A 
ATOM      9  C   UNL A   1      45.650  25.187  26.049  1.00  0.00     0.181 A 
ATOM     10  N   UNL A   1      45.401  25.628  27.282  1.00  0.00    -0.130 NA
ATOM     11  N   UNL A   1      45.445  24.489  28.002  1.00  0.00    -0.149 N 
ATOM     12  N   UNL A   1      45.657  23.346  27.328  1.00  0.00    -0.139 NA
BRANCH   9  13
ATOM     13  N   UNL A   1      45.815  26.004  25.001  1.00  0.00    -0.380 N 
ATOM     14  H   UNL A   1      46.659  26.498  24.890  1.00  0.00     0.158 HD
ATOM     15  H   UNL A   1      45.091  26.111  24.342  1.00  0.00     0.158 HD
ENDBRANCH   9  13
BRANCH  11  16
ATOM     16  C   UNL A   1      45.187  24.442  29.383  1.00  0.00     0.086 A 
ATOM     17  C   UNL A   1      44.527  23.329  29.919  1.00  0.00     0.032 A 
ATOM     18  C   UNL A   1      45.458  25.571  30.161  1.00  0.00     0.032 A 
ATOM     19  C   UNL A   1      44.153  23.341  31.263  1.00  0.00     0.023 A 
ATOM     20  C   UNL A   1      45.031  25.594  31.490  1.00  0.00     0.023 A 
ATOM     21  C   UNL A   1      44.388  24.480  32.036  1.00  0.00     0.041 A 
ATOM     22  Cl  UNL A   1      43.857  24.519  33.673  1.00  0.00    -0.084 Cl
ENDBRANCH  11  16
ENDBRANCH   6   8
ENDBRANCH   5   6
ENDBRANCH   4   5
ENDBRANCH   3   4
ENDBRANCH   2   3
ENDBRANCH   1   2
BRANCH   1  23
ATOM     23  C   UNL A   1      41.014  20.530  26.307  1.00  0.00     0.261 C 
BRANCH  23  24
ATOM     24  O   UNL A   1      41.199  21.885  25.938  1.00  0.00    -0.460 OA
BRANCH  24  25
ATOM     25  C   UNL A   1      40.300  22.726  26.501  1.00  0.00     0.338 C 
ATOM     26  O   UNL A   1      39.120  22.525  26.705  1.00  0.00    -0.246 OA
BRANCH  25  27
ATOM     27  C   UNL A   1      40.951  24.026  26.684  1.00  0.00     0.060 A 
ATOM     28  C   UNL A   1      41.852  24.104  27.747  1.00  0.00     0.016 A 
ATOM     29  C   UNL A   1      40.403  25.162  26.072  1.00  0.00     0.016 A 
ATOM     30  C   UNL A   1      41.993  25.316  28.378  1.00  0.00     0.010 A 
ATOM     31  C   UNL A   1      40.527  26.364  26.714  1.00  0.00     0.010 A 
ATOM     32  C   UNL A   1      41.241  26.397  27.909  1.00  0.00    -0.014 A 
BRANCH  32  33
ATOM     33  C   UNL A   1      41.315  27.641  28.638  1.00  0.00     0.031 A 
ATOM     34  C   UNL A   1      42.530  28.405  28.280  1.00  0.00     0.074 A 
ATOM     35  C   UNL A   1      40.304  28.042  29.433  1.00  0.00     0.049 A 
ATOM     36  N   UNL A   1      43.513  28.732  29.048  1.00  0.00    -0.248 NA
ATOM     37  C   UNL A   1      42.781  28.651  26.847  1.00  0.00     0.031 C 
ATOM     38  C   UNL A   1      38.990  27.414  29.609  1.00  0.00     0.029 A 
ATOM     39  N   UNL A   1      40.199  29.174  30.181  1.00  0.00    -0.354 N 
ATOM     40  C   UNL A   1      44.404  29.421  28.231  1.00  0.00     0.074 A 
ATOM     41  C   UNL A   1      44.019  29.144  26.877  1.00  0.00     0.031 C 
ATOM     42  C   UNL A   1      38.152  28.287  30.212  1.00  0.00     0.029 A 
ATOM     43  C   UNL A   1      38.898  29.477  30.577  1.00  0.00     0.049 A 
ATOM     44  H   UNL A   1      40.975  29.730  30.422  1.00  0.00     0.167 HD
ATOM     45  C   UNL A   1      45.165  30.421  28.749  1.00  0.00     0.037 A 
ATOM     46  C   UNL A   1      38.484  30.671  31.073  1.00  0.00     0.037 A 
ATOM     47  C   UNL A   1      45.308  30.255  30.176  1.00  0.00     0.049 A 
ATOM     48  C   UNL A   1      39.699  31.396  31.534  1.00  0.00     0.074 A 
ATOM     49  C   UNL A   1      45.850  29.280  30.990  1.00  0.00     0.029 A 
ATOM     50  N   UNL A   1      44.499  31.014  30.983  1.00  0.00    -0.354 N 
ATOM     51  N   UNL A   1      40.427  31.012  32.547  1.00  0.00    -0.248 NA
ATOM     52  C   UNL A   1      40.372  32.252  30.569  1.00  0.00     0.031 C 
ATOM     53  C   UNL A   1      44.997  29.231  32.132  1.00  0.00     0.029 A 
ATOM     54  C   UNL A   1      44.023  30.221  31.991  1.00  0.00     0.049 A 
ATOM     55  H   UNL A   1      44.296  31.969  30.859  1.00  0.00     0.167 HD
ATOM     56  C   UNL A   1      41.737  31.207  32.132  1.00  0.00     0.074 A 
ATOM     57  C   UNL A   1      41.638  32.037  30.934  1.00  0.00     0.031 C 
ATOM     58  C   UNL A   1      42.745  30.432  32.629  1.00  0.00     0.037 A 
BRANCH  45  59
ATOM     59  C   UNL A   1      45.338  31.764  28.067  1.00  0.00     0.064 A 
ATOM     60  C   UNL A   1      44.177  32.469  27.692  1.00  0.00     0.173 A 
ATOM     61  C   UNL A   1      46.537  32.226  27.475  1.00  0.00     0.173 A 
ATOM     62  F   UNL A   1      42.981  32.133  28.199  1.00  0.00    -0.203 F 
ATOM     63  C   UNL A   1      44.197  33.456  26.705  1.00  0.00     0.198 A 
ATOM     64  C   UNL A   1      46.559  33.243  26.524  1.00  0.00     0.198 A 
ATOM     65  F   UNL A   1      47.728  31.663  27.700  1.00  0.00    -0.203 F 
ATOM     66  F   UNL A   1      43.045  33.989  26.276  1.00  0.00    -0.200 F 
ATOM     67  C   UNL A   1      45.386  33.829  26.108  1.00  0.00     0.200 A 
ATOM     68  F   UNL A   1      47.724  33.583  25.955  1.00  0.00    -0.200 F 
ATOM     69  F   UNL A   1      45.400  34.718  25.106  1.00  0.00    -0.200 F 
ENDBRANCH  45  59
BRANCH  46  70
ATOM     70  C   UNL A   1      37.198  31.368  30.825  1.00  0.00     0.064 A 
ATOM     71  C   UNL A   1      36.311  31.655  31.877  1.00  0.00     0.173 A 
ATOM     72  C   UNL A   1      36.941  32.015  29.600  1.00  0.00     0.173 A 
ATOM     73  F   UNL A   1      36.515  31.126  33.092  1.00  0.00    -0.203 F 
ATOM     74  C   UNL A   1      35.243  32.547  31.717  1.00  0.00     0.198 A 
ATOM     75  C   UNL A   1      35.872  32.900  29.440  1.00  0.00     0.198 A 
ATOM     76  F   UNL A   1      37.778  31.881  28.562  1.00  0.00    -0.203 F 
ATOM     77  F   UNL A   1      34.454  32.841  32.760  1.00  0.00    -0.200 F 
ATOM     78  C   UNL A   1      35.030  33.175  30.500  1.00  0.00     0.200 A 
ATOM     79  F   UNL A   1      35.704  33.533  28.269  1.00  0.00    -0.200 F 
ATOM     80  F   UNL A   1      34.045  34.073  30.362  1.00  0.00    -0.200 F 
ENDBRANCH  46  70
BRANCH  58  81
ATOM     81  C   UNL A   1      42.440  29.571  33.822  1.00  0.00     0.064 A 
ATOM     82  C   UNL A   1      41.864  28.290  33.749  1.00  0.00     0.173 A 
ATOM     83  C   UNL A   1      42.889  30.005  35.076  1.00  0.00     0.173 A 
ATOM     84  F   UNL A   1      41.497  27.767  32.572  1.00  0.00    -0.203 F 
ATOM     85  C   UNL A   1      41.714  27.501  34.889  1.00  0.00     0.198 A 
ATOM     86  C   UNL A   1      42.773  29.200  36.204  1.00  0.00     0.198 A 
ATOM     87  F   UNL A   1      43.494  31.198  35.194  1.00  0.00    -0.203 F 
ATOM     88  F   UNL A   1      41.155  26.284  34.797  1.00  0.00    -0.200 F 
ATOM     89  C   UNL A   1      42.178  27.953  36.113  1.00  0.00     0.200 A 
ATOM     90  F   UNL A   1      43.269  29.623  37.375  1.00  0.00    -0.200 F 
ATOM     91  F   UNL A   1      42.077  27.176  37.201  1.00  0.00    -0.200 F 
ENDBRANCH  58  81
ENDBRANCH  32  33
ENDBRANCH  25  27
ENDBRANCH  24  25
ENDBRANCH  23  24
ENDBRANCH   1  23
TORSDOF 16
ENDMDL
