MODEL 1
REMARK VINA RESULT:     -11.4      0.000      0.000
REMARK SMILES Cc1nonc1C[C@@]1(C(=O)OCCOCCOC(=O)c2ccc(-c3c4nc(c(-c5c(F)c(F)c(F)c(F)c5F)c5ccc([nH]5)c(-c5c(F)c(F)c(F)c(F)c5F)c5nc(c(-c6c(F)c(F)c(F)c(F)c6F)c6ccc3[nH]6)C=C5)C=C4)cc2)CCC[NH2+]C1
REMARK SMILES IDX 14 1 13 2 12 3 11 4 9 5 10 6 8 7 83 8 87 9 84 10 86 11 85 12
REMARK SMILES IDX 7 15 6 16 1 17 2 18 3 19 4 20 5 21 15 22 16 23 17 24 18 25
REMARK SMILES IDX 19 26 20 27 21 28 82 29 22 30 81 31 23 32 24 33 25 34 75 35
REMARK SMILES IDX 26 36 80 37 74 38 76 39 27 40 79 41 73 42 72 43 28 45 60 46
REMARK SMILES IDX 40 47 59 48 41 49 44 50 58 51 77 52 42 53 43 54 57 56 78 57
REMARK SMILES IDX 45 58 29 59 30 60 38 61 31 62 32 63 36 64 39 65 33 66 34 67
REMARK SMILES IDX 37 68 35 69 61 70 62 71 70 72 63 73 64 74 68 75 71 76 65 77
REMARK SMILES IDX 66 78 69 79 67 80 46 81 47 82 55 83 48 84 49 85 53 86 56 87
REMARK SMILES IDX 50 88 51 89 54 90 52 91
REMARK H PARENT 86 13 86 14 76 44 44 55
REMARK Flexibility Score: inf
ROOT
ATOM      1  O   UNL A   1      35.376  21.787  25.989  1.00  0.00    -0.374 OA
ENDROOT
BRANCH   1   2
ATOM      2  C   UNL A   1      34.376  21.565  26.972  1.00  0.00     0.202 C 
BRANCH   2   3
ATOM      3  C   UNL A   1      33.078  22.395  26.958  1.00  0.00     0.261 C 
BRANCH   3   4
ATOM      4  O   UNL A   1      33.136  23.687  26.334  1.00  0.00    -0.463 OA
BRANCH   4   5
ATOM      5  C   UNL A   1      31.959  24.375  26.431  1.00  0.00     0.318 C 
ATOM      6  O   UNL A   1      31.120  24.116  27.286  1.00  0.00    -0.251 OA
BRANCH   5   7
ATOM      7  C   UNL A   1      31.787  25.463  25.354  1.00  0.00     0.122 C 
ATOM      8  C   UNL A   1      33.110  26.252  25.200  1.00  0.00     0.031 C 
ATOM      9  C   UNL A   1      30.689  26.431  25.885  1.00  0.00     0.279 C 
ATOM     10  C   UNL A   1      33.453  27.142  26.397  1.00  0.00     0.063 C 
ATOM     11  N   UNL A   1      31.063  27.197  27.070  1.00  0.00    -0.345 N 
ATOM     12  C   UNL A   1      32.273  27.986  26.860  1.00  0.00     0.260 C 
ATOM     13  H   UNL A   1      30.297  27.827  27.308  1.00  0.00     0.346 HD
ATOM     14  H   UNL A   1      31.249  26.535  27.823  1.00  0.00     0.346 HD
BRANCH   7  15
ATOM     15  C   UNL A   1      31.242  24.921  23.993  1.00  0.00     0.086 C 
BRANCH  15  16
ATOM     16  C   UNL A   1      32.149  24.652  22.830  1.00  0.00     0.109 A 
ATOM     17  C   UNL A   1      32.845  22.146  23.212  1.00  0.00     0.073 C 
ATOM     18  C   UNL A   1      32.808  23.442  22.502  1.00  0.00     0.105 A 
ATOM     19  N   UNL A   1      33.441  23.577  21.335  1.00  0.00    -0.055 NA
ATOM     20  O   UNL A   1      33.148  24.864  20.914  1.00  0.00    -0.244 OA
ATOM     21  N   UNL A   1      32.349  25.521  21.838  1.00  0.00    -0.055 NA
ENDBRANCH  15  16
ENDBRANCH   7  15
ENDBRANCH   5   7
ENDBRANCH   4   5
ENDBRANCH   3   4
ENDBRANCH   2   3
ENDBRANCH   1   2
BRANCH   1  22
ATOM     22  C   UNL A   1      35.771  20.698  25.156  1.00  0.00     0.202 C 
BRANCH  22  23
ATOM     23  C   UNL A   1      37.269  20.456  24.957  1.00  0.00     0.261 C 
BRANCH  23  24
ATOM     24  O   UNL A   1      38.055  21.605  25.324  1.00  0.00    -0.460 OA
BRANCH  24  25
ATOM     25  C   UNL A   1      39.132  21.319  26.090  1.00  0.00     0.338 C 
ATOM     26  O   UNL A   1      39.719  20.253  26.192  1.00  0.00    -0.246 OA
BRANCH  25  27
ATOM     27  C   UNL A   1      39.662  22.557  26.682  1.00  0.00     0.060 A 
ATOM     28  C   UNL A   1      39.142  23.773  26.221  1.00  0.00     0.016 A 
ATOM     29  C   UNL A   1      40.717  22.528  27.594  1.00  0.00     0.016 A 
ATOM     30  C   UNL A   1      39.705  24.974  26.643  1.00  0.00     0.010 A 
ATOM     31  C   UNL A   1      41.291  23.735  28.005  1.00  0.00     0.010 A 
ATOM     32  C   UNL A   1      40.808  24.959  27.506  1.00  0.00    -0.014 A 
BRANCH  32  33
ATOM     33  C   UNL A   1      41.543  26.216  27.771  1.00  0.00     0.031 A 
ATOM     34  C   UNL A   1      40.862  27.308  28.548  1.00  0.00     0.074 A 
ATOM     35  C   UNL A   1      42.809  26.368  27.350  1.00  0.00     0.049 A 
ATOM     36  N   UNL A   1      41.298  28.500  28.861  1.00  0.00    -0.248 NA
ATOM     37  C   UNL A   1      39.507  27.011  29.040  1.00  0.00     0.031 C 
ATOM     38  C   UNL A   1      43.588  25.357  26.639  1.00  0.00     0.029 A 
ATOM     39  N   UNL A   1      43.662  27.438  27.458  1.00  0.00    -0.354 N 
ATOM     40  C   UNL A   1      40.275  29.096  29.587  1.00  0.00     0.074 A 
ATOM     41  C   UNL A   1      39.185  28.145  29.644  1.00  0.00     0.031 C 
ATOM     42  C   UNL A   1      44.803  25.859  26.364  1.00  0.00     0.029 A 
ATOM     43  C   UNL A   1      44.874  27.236  26.849  1.00  0.00     0.049 A 
ATOM     44  H   UNL A   1      43.425  28.270  27.928  1.00  0.00     0.167 HD
ATOM     45  C   UNL A   1      40.253  30.322  30.162  1.00  0.00     0.037 A 
ATOM     46  C   UNL A   1      45.911  28.078  26.683  1.00  0.00     0.037 A 
ATOM     47  C   UNL A   1      41.337  31.267  30.092  1.00  0.00     0.049 A 
ATOM     48  C   UNL A   1      45.822  29.474  27.243  1.00  0.00     0.074 A 
ATOM     49  C   UNL A   1      41.418  32.531  30.647  1.00  0.00     0.029 A 
ATOM     50  N   UNL A   1      42.528  31.048  29.416  1.00  0.00    -0.354 N 
ATOM     51  N   UNL A   1      44.859  30.026  27.939  1.00  0.00    -0.248 NA
ATOM     52  C   UNL A   1      46.962  30.365  26.987  1.00  0.00     0.031 C 
ATOM     53  C   UNL A   1      42.639  33.098  30.265  1.00  0.00     0.029 A 
ATOM     54  C   UNL A   1      43.339  32.168  29.512  1.00  0.00     0.049 A 
ATOM     55  H   UNL A   1      42.763  30.220  28.939  1.00  0.00     0.167 HD
ATOM     56  C   UNL A   1      45.283  31.317  28.226  1.00  0.00     0.074 A 
ATOM     57  C   UNL A   1      46.597  31.464  27.635  1.00  0.00     0.031 C 
ATOM     58  C   UNL A   1      44.644  32.293  28.917  1.00  0.00     0.037 A 
BRANCH  45  59
ATOM     59  C   UNL A   1      39.002  30.720  30.888  1.00  0.00     0.064 A 
ATOM     60  C   UNL A   1      38.866  30.538  32.273  1.00  0.00     0.173 A 
ATOM     61  C   UNL A   1      37.935  31.310  30.195  1.00  0.00     0.173 A 
ATOM     62  F   UNL A   1      39.853  29.966  32.979  1.00  0.00    -0.203 F 
ATOM     63  C   UNL A   1      37.696  30.908  32.931  1.00  0.00     0.198 A 
ATOM     64  C   UNL A   1      36.777  31.703  30.860  1.00  0.00     0.198 A 
ATOM     65  F   UNL A   1      38.017  31.508  28.870  1.00  0.00    -0.203 F 
ATOM     66  F   UNL A   1      37.570  30.684  34.246  1.00  0.00    -0.200 F 
ATOM     67  C   UNL A   1      36.655  31.495  32.226  1.00  0.00     0.200 A 
ATOM     68  F   UNL A   1      35.777  32.278  30.179  1.00  0.00    -0.200 F 
ATOM     69  F   UNL A   1      35.531  31.853  32.861  1.00  0.00    -0.200 F 
ENDBRANCH  45  59
BRANCH  46  70
ATOM     70  C   UNL A   1      47.117  27.631  25.942  1.00  0.00     0.064 A 
ATOM     71  C   UNL A   1      48.241  27.140  26.618  1.00  0.00     0.173 A 
ATOM     72  C   UNL A   1      47.171  27.686  24.541  1.00  0.00     0.173 A 
ATOM     73  F   UNL A   1      48.246  27.092  27.959  1.00  0.00    -0.203 F 
ATOM     74  C   UNL A   1      49.379  26.733  25.924  1.00  0.00     0.198 A 
ATOM     75  C   UNL A   1      48.299  27.255  23.847  1.00  0.00     0.198 A 
ATOM     76  F   UNL A   1      46.122  28.151  23.847  1.00  0.00    -0.203 F 
ATOM     77  F   UNL A   1      50.454  26.302  26.597  1.00  0.00    -0.200 F 
ATOM     78  C   UNL A   1      49.404  26.784  24.538  1.00  0.00     0.200 A 
ATOM     79  F   UNL A   1      48.314  27.297  22.507  1.00  0.00    -0.200 F 
ATOM     80  F   UNL A   1      50.495  26.386  23.870  1.00  0.00    -0.200 F 
ENDBRANCH  46  70
BRANCH  58  81
ATOM     81  C   UNL A   1      45.365  33.597  29.093  1.00  0.00     0.064 A 
ATOM     82  C   UNL A   1      45.193  34.656  28.190  1.00  0.00     0.173 A 
ATOM     83  C   UNL A   1      46.195  33.806  30.204  1.00  0.00     0.173 A 
ATOM     84  F   UNL A   1      44.423  34.499  27.104  1.00  0.00    -0.203 F 
ATOM     85  C   UNL A   1      45.841  35.873  28.386  1.00  0.00     0.198 A 
ATOM     86  C   UNL A   1      46.820  35.033  30.410  1.00  0.00     0.198 A 
ATOM     87  F   UNL A   1      46.387  32.825  31.099  1.00  0.00    -0.203 F 
ATOM     88  F   UNL A   1      45.693  36.860  27.491  1.00  0.00    -0.200 F 
ATOM     89  C   UNL A   1      46.646  36.063  29.499  1.00  0.00     0.200 A 
ATOM     90  F   UNL A   1      47.589  35.218  31.492  1.00  0.00    -0.200 F 
ATOM     91  F   UNL A   1      47.261  37.239  29.690  1.00  0.00    -0.200 F 
ENDBRANCH  58  81
ENDBRANCH  32  33
ENDBRANCH  25  27
ENDBRANCH  24  25
ENDBRANCH  23  24
ENDBRANCH  22  23
ENDBRANCH   1  22
TORSDOF 16
ENDMDL
MODEL 2
REMARK VINA RESULT:     -11.1      1.702      7.986
REMARK SMILES Cc1nonc1C[C@@]1(C(=O)OCCOCCOC(=O)c2ccc(-c3c4nc(c(-c5c(F)c(F)c(F)c(F)c5F)c5ccc([nH]5)c(-c5c(F)c(F)c(F)c(F)c5F)c5nc(c(-c6c(F)c(F)c(F)c(F)c6F)c6ccc3[nH]6)C=C5)C=C4)cc2)CCC[NH2+]C1
REMARK SMILES IDX 14 1 13 2 12 3 11 4 9 5 10 6 8 7 83 8 87 9 84 10 86 11 85 12
REMARK SMILES IDX 7 15 6 16 1 17 2 18 3 19 4 20 5 21 15 22 16 23 17 24 18 25
REMARK SMILES IDX 19 26 20 27 21 28 82 29 22 30 81 31 23 32 24 33 25 34 75 35
REMARK SMILES IDX 26 36 80 37 74 38 76 39 27 40 79 41 73 42 72 43 28 45 60 46
REMARK SMILES IDX 40 47 59 48 41 49 44 50 58 51 77 52 42 53 43 54 57 56 78 57
REMARK SMILES IDX 45 58 29 59 30 60 38 61 31 62 32 63 36 64 39 65 33 66 34 67
REMARK SMILES IDX 37 68 35 69 61 70 62 71 70 72 63 73 64 74 68 75 71 76 65 77
REMARK SMILES IDX 66 78 69 79 67 80 46 81 47 82 55 83 48 84 49 85 53 86 56 87
REMARK SMILES IDX 50 88 51 89 54 90 52 91
REMARK H PARENT 86 13 86 14 76 44 44 55
REMARK Flexibility Score: inf
ROOT
ATOM      1  O   UNL A   1      37.887  21.376  25.772  1.00  0.00    -0.374 OA
ENDROOT
BRANCH   1   2
ATOM      2  C   UNL A   1      37.366  22.424  24.970  1.00  0.00     0.202 C 
BRANCH   2   3
ATOM      3  C   UNL A   1      36.099  22.196  24.124  1.00  0.00     0.261 C 
BRANCH   3   4
ATOM      4  O   UNL A   1      35.144  21.247  24.621  1.00  0.00    -0.463 OA
BRANCH   4   5
ATOM      5  C   UNL A   1      34.039  21.841  25.163  1.00  0.00     0.318 C 
ATOM      6  O   UNL A   1      34.122  22.742  25.990  1.00  0.00    -0.251 OA
BRANCH   5   7
ATOM      7  C   UNL A   1      32.708  21.248  24.664  1.00  0.00     0.122 C 
ATOM      8  C   UNL A   1      32.496  21.632  23.179  1.00  0.00     0.031 C 
ATOM      9  C   UNL A   1      31.588  21.913  25.516  1.00  0.00     0.279 C 
ATOM     10  C   UNL A   1      32.205  23.118  22.952  1.00  0.00     0.063 C 
ATOM     11  N   UNL A   1      31.414  23.346  25.295  1.00  0.00    -0.345 N 
ATOM     12  C   UNL A   1      31.140  23.661  23.896  1.00  0.00     0.260 C 
ATOM     13  H   UNL A   1      30.633  23.673  25.864  1.00  0.00     0.346 HD
ATOM     14  H   UNL A   1      32.284  23.809  25.554  1.00  0.00     0.346 HD
BRANCH   7  15
ATOM     15  C   UNL A   1      32.569  19.712  24.918  1.00  0.00     0.086 C 
BRANCH  15  16
ATOM     16  C   UNL A   1      32.854  18.704  23.846  1.00  0.00     0.109 A 
ATOM     17  C   UNL A   1      35.115  17.635  24.651  1.00  0.00     0.073 C 
ATOM     18  C   UNL A   1      33.945  17.805  23.766  1.00  0.00     0.105 A 
ATOM     19  N   UNL A   1      33.787  16.999  22.712  1.00  0.00    -0.055 NA
ATOM     20  O   UNL A   1      32.576  17.374  22.153  1.00  0.00    -0.244 OA
ATOM     21  N   UNL A   1      32.004  18.423  22.857  1.00  0.00    -0.055 NA
ENDBRANCH  15  16
ENDBRANCH   7  15
ENDBRANCH   5   7
ENDBRANCH   4   5
ENDBRANCH   3   4
ENDBRANCH   2   3
ENDBRANCH   1   2
BRANCH   1  22
ATOM     22  C   UNL A   1      38.311  20.172  25.134  1.00  0.00     0.202 C 
BRANCH  22  23
ATOM     23  C   UNL A   1      39.489  19.412  25.750  1.00  0.00     0.261 C 
BRANCH  23  24
ATOM     24  O   UNL A   1      40.675  20.225  25.825  1.00  0.00    -0.460 OA
BRANCH  24  25
ATOM     25  C   UNL A   1      41.193  20.339  27.069  1.00  0.00     0.338 C 
ATOM     26  O   UNL A   1      41.657  19.454  27.773  1.00  0.00    -0.246 OA
BRANCH  25  27
ATOM     27  C   UNL A   1      41.310  21.759  27.430  1.00  0.00     0.060 A 
ATOM     28  C   UNL A   1      40.815  22.704  26.523  1.00  0.00     0.016 A 
ATOM     29  C   UNL A   1      41.983  22.159  28.585  1.00  0.00     0.016 A 
ATOM     30  C   UNL A   1      41.026  24.061  26.747  1.00  0.00     0.010 A 
ATOM     31  C   UNL A   1      42.207  23.521  28.802  1.00  0.00     0.010 A 
ATOM     32  C   UNL A   1      41.758  24.474  27.868  1.00  0.00    -0.014 A 
BRANCH  32  33
ATOM     33  C   UNL A   1      42.174  25.889  27.985  1.00  0.00     0.031 A 
ATOM     34  C   UNL A   1      43.494  26.312  27.403  1.00  0.00     0.074 A 
ATOM     35  C   UNL A   1      41.372  26.790  28.577  1.00  0.00     0.049 A 
ATOM     36  N   UNL A   1      44.074  27.484  27.425  1.00  0.00    -0.248 NA
ATOM     37  C   UNL A   1      44.260  25.271  26.700  1.00  0.00     0.031 C 
ATOM     38  C   UNL A   1      40.047  26.505  29.126  1.00  0.00     0.029 A 
ATOM     39  N   UNL A   1      41.559  28.127  28.818  1.00  0.00    -0.354 N 
ATOM     40  C   UNL A   1      45.270  27.324  26.738  1.00  0.00     0.074 A 
ATOM     41  C   UNL A   1      45.348  25.935  26.337  1.00  0.00     0.031 C 
ATOM     42  C   UNL A   1      39.544  27.634  29.651  1.00  0.00     0.029 A 
ATOM     43  C   UNL A   1      40.523  28.710  29.505  1.00  0.00     0.049 A 
ATOM     44  H   UNL A   1      42.359  28.621  28.527  1.00  0.00     0.167 HD
ATOM     45  C   UNL A   1      46.214  28.255  26.461  1.00  0.00     0.037 A 
ATOM     46  C   UNL A   1      40.396  29.963  29.980  1.00  0.00     0.037 A 
ATOM     47  C   UNL A   1      46.135  29.633  26.872  1.00  0.00     0.049 A 
ATOM     48  C   UNL A   1      41.506  30.955  29.748  1.00  0.00     0.074 A 
ATOM     49  C   UNL A   1      47.033  30.658  26.634  1.00  0.00     0.029 A 
ATOM     50  N   UNL A   1      45.097  30.172  27.616  1.00  0.00    -0.354 N 
ATOM     51  N   UNL A   1      42.627  30.801  29.087  1.00  0.00    -0.248 NA
ATOM     52  C   UNL A   1      41.334  32.291  30.334  1.00  0.00     0.031 C 
ATOM     53  C   UNL A   1      46.562  31.808  27.278  1.00  0.00     0.029 A 
ATOM     54  C   UNL A   1      45.347  31.511  27.876  1.00  0.00     0.049 A 
ATOM     55  H   UNL A   1      44.300  29.679  27.916  1.00  0.00     0.167 HD
ATOM     56  C   UNL A   1      43.283  32.023  29.155  1.00  0.00     0.074 A 
ATOM     57  C   UNL A   1      42.429  32.912  29.915  1.00  0.00     0.031 C 
ATOM     58  C   UNL A   1      44.483  32.378  28.634  1.00  0.00     0.037 A 
BRANCH  45  59
ATOM     59  C   UNL A   1      47.425  27.803  25.701  1.00  0.00     0.064 A 
ATOM     60  C   UNL A   1      47.436  27.744  24.299  1.00  0.00     0.173 A 
ATOM     61  C   UNL A   1      48.598  27.445  26.382  1.00  0.00     0.173 A 
ATOM     62  F   UNL A   1      46.335  28.063  23.602  1.00  0.00    -0.203 F 
ATOM     63  C   UNL A   1      48.568  27.317  23.609  1.00  0.00     0.198 A 
ATOM     64  C   UNL A   1      49.736  27.044  25.689  1.00  0.00     0.198 A 
ATOM     65  F   UNL A   1      48.640  27.487  27.723  1.00  0.00    -0.203 F 
ATOM     66  F   UNL A   1      48.540  27.224  22.273  1.00  0.00    -0.200 F 
ATOM     67  C   UNL A   1      49.718  26.972  24.304  1.00  0.00     0.200 A 
ATOM     68  F   UNL A   1      50.850  26.720  26.361  1.00  0.00    -0.200 F 
ATOM     69  F   UNL A   1      50.807  26.564  23.639  1.00  0.00    -0.200 F 
ENDBRANCH  45  59
BRANCH  46  70
ATOM     70  C   UNL A   1      39.178  30.347  30.738  1.00  0.00     0.064 A 
ATOM     71  C   UNL A   1      38.075  30.920  30.091  1.00  0.00     0.173 A 
ATOM     72  C   UNL A   1      39.092  30.151  32.124  1.00  0.00     0.173 A 
ATOM     73  F   UNL A   1      38.120  31.150  28.770  1.00  0.00    -0.203 F 
ATOM     74  C   UNL A   1      36.937  31.293  30.803  1.00  0.00     0.198 A 
ATOM     75  C   UNL A   1      37.944  30.501  32.831  1.00  0.00     0.198 A 
ATOM     76  F   UNL A   1      40.122  29.608  32.790  1.00  0.00    -0.203 F 
ATOM     77  F   UNL A   1      35.911  31.873  30.166  1.00  0.00    -0.200 F 
ATOM     78  C   UNL A   1      36.870  31.077  32.172  1.00  0.00     0.200 A 
ATOM     79  F   UNL A   1      37.881  30.279  34.152  1.00  0.00    -0.200 F 
ATOM     80  F   UNL A   1      35.773  31.429  32.855  1.00  0.00    -0.200 F 
ENDBRANCH  46  70
BRANCH  58  81
ATOM     81  C   UNL A   1      44.935  33.793  28.848  1.00  0.00     0.064 A 
ATOM     82  C   UNL A   1      45.812  34.133  29.888  1.00  0.00     0.173 A 
ATOM     83  C   UNL A   1      44.527  34.810  27.971  1.00  0.00     0.173 A 
ATOM     84  F   UNL A   1      46.217  33.200  30.762  1.00  0.00    -0.203 F 
ATOM     85  C   UNL A   1      46.250  35.445  30.052  1.00  0.00     0.198 A 
ATOM     86  C   UNL A   1      44.988  36.114  28.123  1.00  0.00     0.198 A 
ATOM     87  F   UNL A   1      43.693  34.533  26.957  1.00  0.00    -0.203 F 
ATOM     88  F   UNL A   1      47.058  35.755  31.076  1.00  0.00    -0.200 F 
ATOM     89  C   UNL A   1      45.845  36.431  29.165  1.00  0.00     0.200 A 
ATOM     90  F   UNL A   1      44.605  37.064  27.258  1.00  0.00    -0.200 F 
ATOM     91  F   UNL A   1      46.277  37.690  29.320  1.00  0.00    -0.200 F 
ENDBRANCH  58  81
ENDBRANCH  32  33
ENDBRANCH  25  27
ENDBRANCH  24  25
ENDBRANCH  23  24
ENDBRANCH  22  23
ENDBRANCH   1  22
TORSDOF 16
ENDMDL
MODEL 3
REMARK VINA RESULT:     -11.1      1.116      2.285
REMARK SMILES Cc1nonc1C[C@@]1(C(=O)OCCOCCOC(=O)c2ccc(-c3c4nc(c(-c5c(F)c(F)c(F)c(F)c5F)c5ccc([nH]5)c(-c5c(F)c(F)c(F)c(F)c5F)c5nc(c(-c6c(F)c(F)c(F)c(F)c6F)c6ccc3[nH]6)C=C5)C=C4)cc2)CCC[NH2+]C1
REMARK SMILES IDX 14 1 13 2 12 3 11 4 9 5 10 6 8 7 83 8 87 9 84 10 86 11 85 12
REMARK SMILES IDX 7 15 6 16 1 17 2 18 3 19 4 20 5 21 15 22 16 23 17 24 18 25
REMARK SMILES IDX 19 26 20 27 21 28 82 29 22 30 81 31 23 32 24 33 25 34 75 35
REMARK SMILES IDX 26 36 80 37 74 38 76 39 27 40 79 41 73 42 72 43 28 45 60 46
REMARK SMILES IDX 40 47 59 48 41 49 44 50 58 51 77 52 42 53 43 54 57 56 78 57
REMARK SMILES IDX 45 58 29 59 30 60 38 61 31 62 32 63 36 64 39 65 33 66 34 67
REMARK SMILES IDX 37 68 35 69 61 70 62 71 70 72 63 73 64 74 68 75 71 76 65 77
REMARK SMILES IDX 66 78 69 79 67 80 46 81 47 82 55 83 48 84 49 85 53 86 56 87
REMARK SMILES IDX 50 88 51 89 54 90 52 91
REMARK H PARENT 86 13 86 14 76 44 44 55
REMARK Flexibility Score: inf
ROOT
ATOM      1  O   UNL A   1      35.600  22.863  26.362  1.00  0.00    -0.374 OA
ENDROOT
BRANCH   1   2
ATOM      2  C   UNL A   1      34.531  23.610  25.800  1.00  0.00     0.202 C 
BRANCH   2   3
ATOM      3  C   UNL A   1      34.791  25.006  25.203  1.00  0.00     0.261 C 
BRANCH   3   4
ATOM      4  O   UNL A   1      34.024  26.097  25.736  1.00  0.00    -0.463 OA
BRANCH   4   5
ATOM      5  C   UNL A   1      33.041  26.519  24.886  1.00  0.00     0.318 C 
ATOM      6  O   UNL A   1      33.145  26.424  23.669  1.00  0.00    -0.251 OA
BRANCH   5   7
ATOM      7  C   UNL A   1      31.830  27.147  25.602  1.00  0.00     0.122 C 
ATOM      8  C   UNL A   1      31.460  28.484  24.915  1.00  0.00     0.031 C 
ATOM      9  C   UNL A   1      32.291  27.446  27.058  1.00  0.00     0.279 C 
ATOM     10  C   UNL A   1      32.482  29.604  25.131  1.00  0.00     0.063 C 
ATOM     11  N   UNL A   1      33.317  28.478  27.180  1.00  0.00    -0.345 N 
ATOM     12  C   UNL A   1      32.900  29.746  26.588  1.00  0.00     0.260 C 
ATOM     13  H   UNL A   1      33.516  28.627  28.169  1.00  0.00     0.346 HD
ATOM     14  H   UNL A   1      34.144  28.156  26.678  1.00  0.00     0.346 HD
BRANCH   7  15
ATOM     15  C   UNL A   1      30.610  26.179  25.741  1.00  0.00     0.086 C 
BRANCH  15  16
ATOM     16  C   UNL A   1      30.790  24.702  25.917  1.00  0.00     0.109 A 
ATOM     17  C   UNL A   1      30.720  23.817  23.443  1.00  0.00     0.073 C 
ATOM     18  C   UNL A   1      30.858  23.708  24.910  1.00  0.00     0.105 A 
ATOM     19  N   UNL A   1      31.128  22.524  25.464  1.00  0.00    -0.055 NA
ATOM     20  O   UNL A   1      31.263  22.784  26.819  1.00  0.00    -0.244 OA
ATOM     21  N   UNL A   1      31.058  24.128  27.091  1.00  0.00    -0.055 NA
ENDBRANCH  15  16
ENDBRANCH   7  15
ENDBRANCH   5   7
ENDBRANCH   4   5
ENDBRANCH   3   4
ENDBRANCH   2   3
ENDBRANCH   1   2
BRANCH   1  22
ATOM     22  C   UNL A   1      35.643  21.455  26.136  1.00  0.00     0.202 C 
BRANCH  22  23
ATOM     23  C   UNL A   1      36.697  20.918  25.165  1.00  0.00     0.261 C 
BRANCH  23  24
ATOM     24  O   UNL A   1      37.838  21.791  25.069  1.00  0.00    -0.460 OA
BRANCH  24  25
ATOM     25  C   UNL A   1      38.865  21.453  25.882  1.00  0.00     0.338 C 
ATOM     26  O   UNL A   1      39.402  20.362  26.000  1.00  0.00    -0.246 OA
BRANCH  25  27
ATOM     27  C   UNL A   1      39.416  22.662  26.513  1.00  0.00     0.060 A 
ATOM     28  C   UNL A   1      38.963  23.903  26.048  1.00  0.00     0.016 A 
ATOM     29  C   UNL A   1      40.430  22.581  27.468  1.00  0.00     0.016 A 
ATOM     30  C   UNL A   1      39.554  25.076  26.509  1.00  0.00     0.010 A 
ATOM     31  C   UNL A   1      41.032  23.759  27.919  1.00  0.00     0.010 A 
ATOM     32  C   UNL A   1      40.618  25.007  27.417  1.00  0.00    -0.014 A 
BRANCH  32  33
ATOM     33  C   UNL A   1      41.388  26.231  27.731  1.00  0.00     0.031 A 
ATOM     34  C   UNL A   1      40.725  27.329  28.515  1.00  0.00     0.074 A 
ATOM     35  C   UNL A   1      42.670  26.349  27.346  1.00  0.00     0.049 A 
ATOM     36  N   UNL A   1      41.194  28.498  28.867  1.00  0.00    -0.248 NA
ATOM     37  C   UNL A   1      39.348  27.069  28.966  1.00  0.00     0.031 C 
ATOM     38  C   UNL A   1      43.431  25.327  26.631  1.00  0.00     0.029 A 
ATOM     39  N   UNL A   1      43.555  27.386  27.500  1.00  0.00    -0.354 N 
ATOM     40  C   UNL A   1      40.173  29.113  29.581  1.00  0.00     0.074 A 
ATOM     41  C   UNL A   1      39.050  28.200  29.588  1.00  0.00     0.031 C 
ATOM     42  C   UNL A   1      44.670  25.792  26.398  1.00  0.00     0.029 A 
ATOM     43  C   UNL A   1      44.776  27.154  26.917  1.00  0.00     0.049 A 
ATOM     44  H   UNL A   1      43.335  28.215  27.983  1.00  0.00     0.167 HD
ATOM     45  C   UNL A   1      40.178  30.326  30.183  1.00  0.00     0.037 A 
ATOM     46  C   UNL A   1      45.845  27.963  26.798  1.00  0.00     0.037 A 
ATOM     47  C   UNL A   1      41.296  31.233  30.163  1.00  0.00     0.049 A 
ATOM     48  C   UNL A   1      45.790  29.349  27.387  1.00  0.00     0.074 A 
ATOM     49  C   UNL A   1      41.406  32.481  30.749  1.00  0.00     0.029 A 
ATOM     50  N   UNL A   1      42.496  30.988  29.513  1.00  0.00    -0.354 N 
ATOM     51  N   UNL A   1      44.828  29.919  28.072  1.00  0.00    -0.248 NA
ATOM     52  C   UNL A   1      46.966  30.204  27.181  1.00  0.00     0.031 C 
ATOM     53  C   UNL A   1      42.655  33.013  30.411  1.00  0.00     0.029 A 
ATOM     54  C   UNL A   1      43.342  32.076  29.655  1.00  0.00     0.049 A 
ATOM     55  H   UNL A   1      42.715  30.163  29.022  1.00  0.00     0.167 HD
ATOM     56  C   UNL A   1      45.289  31.187  28.399  1.00  0.00     0.074 A 
ATOM     57  C   UNL A   1      46.622  31.300  27.845  1.00  0.00     0.031 C 
ATOM     58  C   UNL A   1      44.666  32.168  29.097  1.00  0.00     0.037 A 
BRANCH  45  59
ATOM     59  C   UNL A   1      38.924  30.751  30.886  1.00  0.00     0.064 A 
ATOM     60  C   UNL A   1      38.755  30.566  32.267  1.00  0.00     0.173 A 
ATOM     61  C   UNL A   1      37.886  31.371  30.176  1.00  0.00     0.173 A 
ATOM     62  F   UNL A   1      39.713  29.965  32.989  1.00  0.00    -0.203 F 
ATOM     63  C   UNL A   1      37.582  30.961  32.905  1.00  0.00     0.198 A 
ATOM     64  C   UNL A   1      36.725  31.789  30.820  1.00  0.00     0.198 A 
ATOM     65  F   UNL A   1      37.999  31.574  28.854  1.00  0.00    -0.203 F 
ATOM     66  F   UNL A   1      37.424  30.733  34.215  1.00  0.00    -0.200 F 
ATOM     67  C   UNL A   1      36.570  31.577  32.182  1.00  0.00     0.200 A 
ATOM     68  F   UNL A   1      35.753  32.392  30.122  1.00  0.00    -0.200 F 
ATOM     69  F   UNL A   1      35.443  31.959  32.797  1.00  0.00    -0.200 F 
ENDBRANCH  45  59
BRANCH  46  70
ATOM     70  C   UNL A   1      47.054  27.490  26.076  1.00  0.00     0.064 A 
ATOM     71  C   UNL A   1      47.161  27.615  24.685  1.00  0.00     0.173 A 
ATOM     72  C   UNL A   1      48.126  26.902  26.764  1.00  0.00     0.173 A 
ATOM     73  F   UNL A   1      46.150  28.148  23.982  1.00  0.00    -0.203 F 
ATOM     74  C   UNL A   1      48.289  27.159  24.006  1.00  0.00     0.198 A 
ATOM     75  C   UNL A   1      49.264  26.470  26.087  1.00  0.00     0.198 A 
ATOM     76  F   UNL A   1      48.071  26.758  28.096  1.00  0.00    -0.203 F 
ATOM     77  F   UNL A   1      48.350  27.256  22.671  1.00  0.00    -0.200 F 
ATOM     78  C   UNL A   1      49.343  26.593  24.708  1.00  0.00     0.200 A 
ATOM     79  F   UNL A   1      50.284  25.934  26.772  1.00  0.00    -0.200 F 
ATOM     80  F   UNL A   1      50.430  26.161  24.057  1.00  0.00    -0.200 F 
ENDBRANCH  46  70
BRANCH  58  81
ATOM     81  C   UNL A   1      45.426  33.442  29.321  1.00  0.00     0.064 A 
ATOM     82  C   UNL A   1      46.308  33.590  30.401  1.00  0.00     0.173 A 
ATOM     83  C   UNL A   1      45.310  34.508  28.415  1.00  0.00     0.173 A 
ATOM     84  F   UNL A   1      46.442  32.606  31.301  1.00  0.00    -0.203 F 
ATOM     85  C   UNL A   1      47.034  34.766  30.575  1.00  0.00     0.198 A 
ATOM     86  C   UNL A   1      46.056  35.671  28.578  1.00  0.00     0.198 A 
ATOM     87  F   UNL A   1      44.483  34.413  27.362  1.00  0.00    -0.203 F 
ATOM     88  F   UNL A   1      47.843  34.899  31.635  1.00  0.00    -0.200 F 
ATOM     89  C   UNL A   1      46.913  35.801  29.660  1.00  0.00     0.200 A 
ATOM     90  F   UNL A   1      45.947  36.667  27.687  1.00  0.00    -0.200 F 
ATOM     91  F   UNL A   1      47.620  36.928  29.825  1.00  0.00    -0.200 F 
ENDBRANCH  58  81
ENDBRANCH  32  33
ENDBRANCH  25  27
ENDBRANCH  24  25
ENDBRANCH  23  24
ENDBRANCH  22  23
ENDBRANCH   1  22
TORSDOF 16
ENDMDL
