MODEL 1
REMARK VINA RESULT:     -11.3      0.000      0.000
REMARK SMILES Cn1c(SCC(=O)OCCOCCOC(=O)c2ccc(-c3c4nc(c(-c5c(F)c(F)c(F)c(F)c5F)c5ccc([nH]5)c(-c5c(F)c(F)c(F)c(F)c5F)c5nc(c(-c6c(F)c(F)c(F)c(F)c6F)c6ccc3[nH]6)C=C5)C=C4)cc2)nnc1-c1ccccc1Br
REMARK SMILES IDX 10 1 9 2 8 3 6 4 7 5 5 6 4 7 3 8 1 9 2 10 82 11 80 12 81 13
REMARK SMILES IDX 83 14 84 15 88 16 85 17 87 18 89 19 86 20 11 21 12 22 13 23
REMARK SMILES IDX 14 24 15 25 16 26 17 27 18 28 79 29 19 30 78 31 20 32 21 33
REMARK SMILES IDX 22 34 72 35 23 36 77 37 71 38 73 39 24 40 76 41 70 42 69 43
REMARK SMILES IDX 25 45 57 46 37 47 56 48 38 49 41 50 55 51 74 52 39 53 40 54
REMARK SMILES IDX 54 56 75 57 42 58 26 59 27 60 35 61 28 62 29 63 33 64 36 65
REMARK SMILES IDX 30 66 31 67 34 68 32 69 58 70 59 71 67 72 60 73 61 74 65 75
REMARK SMILES IDX 68 76 62 77 63 78 66 79 64 80 43 81 44 82 52 83 45 84 46 85
REMARK SMILES IDX 50 86 53 87 47 88 48 89 51 90 49 91
REMARK H PARENT 73 44 41 55
REMARK Flexibility Score: inf
ROOT
ATOM      1  C   UNL A   1      33.496  28.763  26.308  1.00  0.00     0.202 C 
ENDROOT
BRANCH   1   2
ATOM      2  C   UNL A   1      33.236  29.087  24.831  1.00  0.00     0.261 C 
BRANCH   2   3
ATOM      3  O   UNL A   1      34.142  28.476  23.873  1.00  0.00    -0.463 OA
BRANCH   3   4
ATOM      4  C   UNL A   1      33.647  28.283  22.622  1.00  0.00     0.316 C 
ATOM      5  O   UNL A   1      34.357  28.193  21.621  1.00  0.00    -0.251 OA
BRANCH   4   6
ATOM      6  C   UNL A   1      32.140  28.270  22.469  1.00  0.00     0.200 C 
BRANCH   6   7
ATOM      7  S   UNL A   1      31.258  26.775  22.071  1.00  0.00    -0.074 SA
BRANCH   7   8
ATOM      8  C   UNL A   1      32.165  25.312  22.301  1.00  0.00     0.191 A 
ATOM      9  C   UNL A   1      31.424  24.347  24.522  1.00  0.00     0.154 C 
ATOM     10  N   UNL A   1      32.131  24.334  23.271  1.00  0.00    -0.305 N 
ATOM     11  C   UNL A   1      32.971  23.310  22.823  1.00  0.00     0.165 A 
ATOM     12  N   UNL A   1      33.042  24.955  21.387  1.00  0.00    -0.123 NA
ATOM     13  N   UNL A   1      33.539  23.721  21.707  1.00  0.00    -0.129 NA
BRANCH  11  14
ATOM     14  C   UNL A   1      33.332  22.059  23.511  1.00  0.00     0.034 A 
ATOM     15  C   UNL A   1      32.416  20.996  23.416  1.00  0.00     0.013 A 
ATOM     16  C   UNL A   1      34.447  21.868  24.352  1.00  0.00     0.029 A 
ATOM     17  C   UNL A   1      32.629  19.783  24.082  1.00  0.00     0.001 A 
ATOM     18  C   UNL A   1      34.679  20.635  24.981  1.00  0.00     0.016 A 
ATOM     19  Br  UNL A   1      35.695  23.191  24.851  1.00  0.00    -0.050 Br
ATOM     20  C   UNL A   1      33.774  19.594  24.848  1.00  0.00     0.001 A 
ENDBRANCH  11  14
ENDBRANCH   7   8
ENDBRANCH   6   7
ENDBRANCH   4   6
ENDBRANCH   3   4
ENDBRANCH   2   3
ENDBRANCH   1   2
BRANCH   1  21
ATOM     21  O   UNL A   1      32.673  29.392  27.280  1.00  0.00    -0.374 OA
BRANCH  21  22
ATOM     22  C   UNL A   1      31.748  30.378  26.855  1.00  0.00     0.202 C 
BRANCH  22  23
ATOM     23  C   UNL A   1      32.070  31.852  27.102  1.00  0.00     0.261 C 
BRANCH  23  24
ATOM     24  O   UNL A   1      33.442  32.156  27.104  1.00  0.00    -0.460 OA
BRANCH  24  25
ATOM     25  C   UNL A   1      33.875  33.050  28.002  1.00  0.00     0.338 C 
ATOM     26  O   UNL A   1      33.405  34.097  28.376  1.00  0.00    -0.246 OA
BRANCH  25  27
ATOM     27  C   UNL A   1      35.119  32.454  28.454  1.00  0.00     0.060 A 
ATOM     28  C   UNL A   1      35.090  31.121  28.859  1.00  0.00     0.016 A 
ATOM     29  C   UNL A   1      36.295  33.204  28.383  1.00  0.00     0.016 A 
ATOM     30  C   UNL A   1      36.265  30.545  29.298  1.00  0.00     0.010 A 
ATOM     31  C   UNL A   1      37.478  32.615  28.800  1.00  0.00     0.010 A 
ATOM     32  C   UNL A   1      37.445  31.306  29.305  1.00  0.00    -0.014 A 
BRANCH  32  33
ATOM     33  C   UNL A   1      38.610  30.752  30.005  1.00  0.00     0.031 A 
ATOM     34  C   UNL A   1      38.806  31.116  31.443  1.00  0.00     0.074 A 
ATOM     35  C   UNL A   1      39.392  29.868  29.368  1.00  0.00     0.049 A 
ATOM     36  N   UNL A   1      39.684  30.664  32.297  1.00  0.00    -0.248 NA
ATOM     37  C   UNL A   1      37.885  32.124  31.999  1.00  0.00     0.031 C 
ATOM     38  C   UNL A   1      39.233  29.457  27.973  1.00  0.00     0.029 A 
ATOM     39  N   UNL A   1      40.455  29.139  29.819  1.00  0.00    -0.354 N 
ATOM     40  C   UNL A   1      39.416  31.324  33.488  1.00  0.00     0.074 A 
ATOM     41  C   UNL A   1      38.325  32.239  33.242  1.00  0.00     0.031 C 
ATOM     42  C   UNL A   1      40.158  28.527  27.686  1.00  0.00     0.029 A 
ATOM     43  C   UNL A   1      40.980  28.300  28.871  1.00  0.00     0.049 A 
ATOM     44  H   UNL A   1      40.810  29.209  30.735  1.00  0.00     0.167 HD
ATOM     45  C   UNL A   1      40.025  31.159  34.683  1.00  0.00     0.037 A 
ATOM     46  C   UNL A   1      42.011  27.443  28.967  1.00  0.00     0.037 A 
ATOM     47  C   UNL A   1      41.116  30.244  34.890  1.00  0.00     0.049 A 
ATOM     48  C   UNL A   1      42.694  27.307  30.301  1.00  0.00     0.074 A 
ATOM     49  C   UNL A   1      41.826  29.988  36.047  1.00  0.00     0.029 A 
ATOM     50  N   UNL A   1      41.655  29.433  33.898  1.00  0.00    -0.354 N 
ATOM     51  N   UNL A   1      42.425  27.914  31.434  1.00  0.00    -0.248 NA
ATOM     52  C   UNL A   1      43.811  26.361  30.375  1.00  0.00     0.031 C 
ATOM     53  C   UNL A   1      42.827  29.058  35.744  1.00  0.00     0.029 A 
ATOM     54  C   UNL A   1      42.704  28.691  34.410  1.00  0.00     0.049 A 
ATOM     55  H   UNL A   1      41.338  29.394  32.966  1.00  0.00     0.167 HD
ATOM     56  C   UNL A   1      43.326  27.411  32.361  1.00  0.00     0.074 A 
ATOM     57  C   UNL A   1      44.130  26.429  31.659  1.00  0.00     0.031 C 
ATOM     58  C   UNL A   1      43.482  27.729  33.672  1.00  0.00     0.037 A 
BRANCH  45  59
ATOM     59  C   UNL A   1      39.547  32.005  35.826  1.00  0.00     0.064 A 
ATOM     60  C   UNL A   1      40.110  33.260  36.104  1.00  0.00     0.173 A 
ATOM     61  C   UNL A   1      38.510  31.555  36.656  1.00  0.00     0.173 A 
ATOM     62  F   UNL A   1      41.120  33.729  35.354  1.00  0.00    -0.203 F 
ATOM     63  C   UNL A   1      39.669  34.023  37.184  1.00  0.00     0.198 A 
ATOM     64  C   UNL A   1      38.052  32.332  37.718  1.00  0.00     0.198 A 
ATOM     65  F   UNL A   1      37.941  30.360  36.440  1.00  0.00    -0.203 F 
ATOM     66  F   UNL A   1      40.255  35.196  37.459  1.00  0.00    -0.200 F 
ATOM     67  C   UNL A   1      38.636  33.561  37.986  1.00  0.00     0.200 A 
ATOM     68  F   UNL A   1      37.048  31.887  38.487  1.00  0.00    -0.200 F 
ATOM     69  F   UNL A   1      38.209  34.296  39.021  1.00  0.00    -0.200 F 
ENDBRANCH  45  59
BRANCH  46  70
ATOM     70  C   UNL A   1      42.431  26.652  27.783  1.00  0.00     0.064 A 
ATOM     71  C   UNL A   1      43.420  27.121  26.907  1.00  0.00     0.173 A 
ATOM     72  C   UNL A   1      41.861  25.398  27.512  1.00  0.00     0.173 A 
ATOM     73  F   UNL A   1      43.986  28.318  27.115  1.00  0.00    -0.203 F 
ATOM     74  C   UNL A   1      43.809  26.375  25.797  1.00  0.00     0.198 A 
ATOM     75  C   UNL A   1      42.274  24.641  26.418  1.00  0.00     0.198 A 
ATOM     76  F   UNL A   1      40.918  24.899  28.323  1.00  0.00    -0.203 F 
ATOM     77  F   UNL A   1      44.728  26.864  24.953  1.00  0.00    -0.200 F 
ATOM     78  C   UNL A   1      43.241  25.132  25.556  1.00  0.00     0.200 A 
ATOM     79  F   UNL A   1      41.735  23.433  26.202  1.00  0.00    -0.200 F 
ATOM     80  F   UNL A   1      43.623  24.413  24.494  1.00  0.00    -0.200 F 
ENDBRANCH  46  70
BRANCH  58  81
ATOM     81  C   UNL A   1      44.550  26.986  34.417  1.00  0.00     0.064 A 
ATOM     82  C   UNL A   1      45.855  27.490  34.526  1.00  0.00     0.173 A 
ATOM     83  C   UNL A   1      44.260  25.763  35.039  1.00  0.00     0.173 A 
ATOM     84  F   UNL A   1      46.183  28.648  33.935  1.00  0.00    -0.203 F 
ATOM     85  C   UNL A   1      46.841  26.774  35.198  1.00  0.00     0.198 A 
ATOM     86  C   UNL A   1      45.239  25.068  35.740  1.00  0.00     0.198 A 
ATOM     87  F   UNL A   1      43.024  25.246  34.971  1.00  0.00    -0.203 F 
ATOM     88  F   UNL A   1      48.097  27.242  35.234  1.00  0.00    -0.200 F 
ATOM     89  C   UNL A   1      46.532  25.568  35.808  1.00  0.00     0.200 A 
ATOM     90  F   UNL A   1      44.936  23.910  36.342  1.00  0.00    -0.200 F 
ATOM     91  F   UNL A   1      47.483  24.879  36.453  1.00  0.00    -0.200 F 
ENDBRANCH  58  81
ENDBRANCH  32  33
ENDBRANCH  25  27
ENDBRANCH  24  25
ENDBRANCH  23  24
ENDBRANCH  22  23
ENDBRANCH  21  22
ENDBRANCH   1  21
TORSDOF 17
ENDMDL
MODEL 2
REMARK VINA RESULT:     -11.2      1.750      2.483
REMARK SMILES Cn1c(SCC(=O)OCCOCCOC(=O)c2ccc(-c3c4nc(c(-c5c(F)c(F)c(F)c(F)c5F)c5ccc([nH]5)c(-c5c(F)c(F)c(F)c(F)c5F)c5nc(c(-c6c(F)c(F)c(F)c(F)c6F)c6ccc3[nH]6)C=C5)C=C4)cc2)nnc1-c1ccccc1Br
REMARK SMILES IDX 10 1 9 2 8 3 6 4 7 5 5 6 4 7 3 8 1 9 2 10 82 11 80 12 81 13
REMARK SMILES IDX 83 14 84 15 88 16 85 17 87 18 89 19 86 20 11 21 12 22 13 23
REMARK SMILES IDX 14 24 15 25 16 26 17 27 18 28 79 29 19 30 78 31 20 32 21 33
REMARK SMILES IDX 22 34 72 35 23 36 77 37 71 38 73 39 24 40 76 41 70 42 69 43
REMARK SMILES IDX 25 45 57 46 37 47 56 48 38 49 41 50 55 51 74 52 39 53 40 54
REMARK SMILES IDX 54 56 75 57 42 58 26 59 27 60 35 61 28 62 29 63 33 64 36 65
REMARK SMILES IDX 30 66 31 67 34 68 32 69 58 70 59 71 67 72 60 73 61 74 65 75
REMARK SMILES IDX 68 76 62 77 63 78 66 79 64 80 43 81 44 82 52 83 45 84 46 85
REMARK SMILES IDX 50 86 53 87 47 88 48 89 51 90 49 91
REMARK H PARENT 73 44 41 55
REMARK Flexibility Score: inf
ROOT
ATOM      1  C   UNL A   1      32.954  28.989  27.246  1.00  0.00     0.202 C 
ENDROOT
BRANCH   1   2
ATOM      2  C   UNL A   1      31.593  28.297  27.096  1.00  0.00     0.261 C 
BRANCH   2   3
ATOM      3  O   UNL A   1      31.626  26.901  26.695  1.00  0.00    -0.463 OA
BRANCH   3   4
ATOM      4  C   UNL A   1      30.859  26.569  25.623  1.00  0.00     0.316 C 
ATOM      5  O   UNL A   1      30.050  25.641  25.633  1.00  0.00    -0.251 OA
BRANCH   4   6
ATOM      6  C   UNL A   1      31.095  27.337  24.340  1.00  0.00     0.200 C 
BRANCH   6   7
ATOM      7  S   UNL A   1      32.711  27.436  23.599  1.00  0.00    -0.074 SA
BRANCH   7   8
ATOM      8  C   UNL A   1      33.529  25.913  23.432  1.00  0.00     0.191 A 
ATOM      9  C   UNL A   1      34.384  25.298  25.735  1.00  0.00     0.154 C 
ATOM     10  N   UNL A   1      34.115  25.062  24.344  1.00  0.00    -0.305 N 
ATOM     11  C   UNL A   1      34.451  23.903  23.637  1.00  0.00     0.165 A 
ATOM     12  N   UNL A   1      33.603  25.356  22.242  1.00  0.00    -0.123 NA
ATOM     13  N   UNL A   1      34.170  24.117  22.366  1.00  0.00    -0.129 NA
BRANCH  11  14
ATOM     14  C   UNL A   1      35.152  22.705  24.128  1.00  0.00     0.034 A 
ATOM     15  C   UNL A   1      36.558  22.738  24.102  1.00  0.00     0.013 A 
ATOM     16  C   UNL A   1      34.548  21.489  24.506  1.00  0.00     0.029 A 
ATOM     17  C   UNL A   1      37.324  21.630  24.488  1.00  0.00     0.001 A 
ATOM     18  C   UNL A   1      35.319  20.397  24.934  1.00  0.00     0.016 A 
ATOM     19  Br  UNL A   1      32.708  21.088  24.401  1.00  0.00    -0.050 Br
ATOM     20  C   UNL A   1      36.703  20.466  24.925  1.00  0.00     0.001 A 
ENDBRANCH  11  14
ENDBRANCH   7   8
ENDBRANCH   6   7
ENDBRANCH   4   6
ENDBRANCH   3   4
ENDBRANCH   2   3
ENDBRANCH   1   2
BRANCH   1  21
ATOM     21  O   UNL A   1      32.969  30.403  27.376  1.00  0.00    -0.374 OA
BRANCH  21  22
ATOM     22  C   UNL A   1      31.911  31.152  26.803  1.00  0.00     0.202 C 
BRANCH  22  23
ATOM     23  C   UNL A   1      31.821  32.650  27.092  1.00  0.00     0.261 C 
BRANCH  23  24
ATOM     24  O   UNL A   1      33.063  33.282  27.281  1.00  0.00    -0.460 OA
BRANCH  24  25
ATOM     25  C   UNL A   1      33.151  34.187  28.263  1.00  0.00     0.338 C 
ATOM     26  O   UNL A   1      32.481  35.159  28.516  1.00  0.00    -0.246 OA
BRANCH  25  27
ATOM     27  C   UNL A   1      34.308  33.722  29.007  1.00  0.00     0.060 A 
ATOM     28  C   UNL A   1      35.530  34.343  28.762  1.00  0.00     0.016 A 
ATOM     29  C   UNL A   1      34.134  32.744  29.988  1.00  0.00     0.016 A 
ATOM     30  C   UNL A   1      36.638  33.905  29.457  1.00  0.00     0.010 A 
ATOM     31  C   UNL A   1      35.243  32.323  30.703  1.00  0.00     0.010 A 
ATOM     32  C   UNL A   1      36.498  32.870  30.395  1.00  0.00    -0.014 A 
BRANCH  32  33
ATOM     33  C   UNL A   1      37.723  32.261  30.929  1.00  0.00     0.031 A 
ATOM     34  C   UNL A   1      38.160  32.653  32.306  1.00  0.00     0.074 A 
ATOM     35  C   UNL A   1      38.343  31.312  30.214  1.00  0.00     0.049 A 
ATOM     36  N   UNL A   1      39.131  32.168  33.032  1.00  0.00    -0.248 NA
ATOM     37  C   UNL A   1      37.398  33.732  32.958  1.00  0.00     0.031 C 
ATOM     38  C   UNL A   1      37.946  30.874  28.875  1.00  0.00     0.029 A 
ATOM     39  N   UNL A   1      39.418  30.528  30.524  1.00  0.00    -0.354 N 
ATOM     40  C   UNL A   1      39.091  32.877  34.224  1.00  0.00     0.074 A 
ATOM     41  C   UNL A   1      38.032  33.853  34.114  1.00  0.00     0.031 C 
ATOM     42  C   UNL A   1      38.759  29.878  28.486  1.00  0.00     0.029 A 
ATOM     43  C   UNL A   1      39.739  29.631  29.539  1.00  0.00     0.049 A 
ATOM     44  H   UNL A   1      39.914  30.601  31.372  1.00  0.00     0.167 HD
ATOM     45  C   UNL A   1      39.867  32.707  35.318  1.00  0.00     0.037 A 
ATOM     46  C   UNL A   1      40.720  28.713  29.509  1.00  0.00     0.037 A 
ATOM     47  C   UNL A   1      40.920  31.729  35.390  1.00  0.00     0.049 A 
ATOM     48  C   UNL A   1      41.592  28.571  30.727  1.00  0.00     0.074 A 
ATOM     49  C   UNL A   1      41.784  31.461  36.434  1.00  0.00     0.029 A 
ATOM     50  N   UNL A   1      41.250  30.858  34.358  1.00  0.00    -0.354 N 
ATOM     51  N   UNL A   1      41.538  29.225  31.864  1.00  0.00    -0.248 NA
ATOM     52  C   UNL A   1      42.649  27.557  30.664  1.00  0.00     0.031 C 
ATOM     53  C   UNL A   1      42.669  30.460  36.016  1.00  0.00     0.029 A 
ATOM     54  C   UNL A   1      42.320  30.064  34.731  1.00  0.00     0.049 A 
ATOM     55  H   UNL A   1      40.791  30.814  33.488  1.00  0.00     0.167 HD
ATOM     56  C   UNL A   1      42.540  28.691  32.660  1.00  0.00     0.074 A 
ATOM     57  C   UNL A   1      43.166  27.640  31.881  1.00  0.00     0.031 C 
ATOM     58  C   UNL A   1      42.916  29.034  33.919  1.00  0.00     0.037 A 
BRANCH  45  59
ATOM     59  C   UNL A   1      39.623  33.614  36.488  1.00  0.00     0.064 A 
ATOM     60  C   UNL A   1      40.194  34.893  36.564  1.00  0.00     0.173 A 
ATOM     61  C   UNL A   1      38.805  33.197  37.549  1.00  0.00     0.173 A 
ATOM     62  F   UNL A   1      41.002  35.332  35.587  1.00  0.00    -0.203 F 
ATOM     63  C   UNL A   1      39.975  35.713  37.670  1.00  0.00     0.198 A 
ATOM     64  C   UNL A   1      38.564  34.030  38.639  1.00  0.00     0.198 A 
ATOM     65  F   UNL A   1      38.239  31.981  37.530  1.00  0.00    -0.203 F 
ATOM     66  F   UNL A   1      40.570  36.911  37.744  1.00  0.00    -0.200 F 
ATOM     67  C   UNL A   1      39.155  35.283  38.703  1.00  0.00     0.200 A 
ATOM     68  F   UNL A   1      37.766  33.616  39.633  1.00  0.00    -0.200 F 
ATOM     69  F   UNL A   1      38.940  36.074  39.763  1.00  0.00    -0.200 F 
ENDBRANCH  45  59
BRANCH  46  70
ATOM     70  C   UNL A   1      40.904  27.865  28.305  1.00  0.00     0.064 A 
ATOM     71  C   UNL A   1      40.285  26.612  28.194  1.00  0.00     0.173 A 
ATOM     72  C   UNL A   1      41.693  28.299  27.228  1.00  0.00     0.173 A 
ATOM     73  F   UNL A   1      39.531  26.146  29.200  1.00  0.00    -0.203 F 
ATOM     74  C   UNL A   1      40.462  25.819  27.062  1.00  0.00     0.198 A 
ATOM     75  C   UNL A   1      41.844  27.518  26.084  1.00  0.00     0.198 A 
ATOM     76  F   UNL A   1      42.300  29.493  27.278  1.00  0.00    -0.203 F 
ATOM     77  F   UNL A   1      39.891  24.608  26.998  1.00  0.00    -0.200 F 
ATOM     78  C   UNL A   1      41.236  26.275  26.005  1.00  0.00     0.200 A 
ATOM     79  F   UNL A   1      42.577  27.972  25.058  1.00  0.00    -0.200 F 
ATOM     80  F   UNL A   1      41.398  25.516  24.914  1.00  0.00    -0.200 F 
ENDBRANCH  46  70
BRANCH  58  81
ATOM     81  C   UNL A   1      44.041  28.245  34.519  1.00  0.00     0.064 A 
ATOM     82  C   UNL A   1      45.374  28.671  34.416  1.00  0.00     0.173 A 
ATOM     83  C   UNL A   1      43.779  27.057  35.217  1.00  0.00     0.173 A 
ATOM     84  F   UNL A   1      45.674  29.793  33.746  1.00  0.00    -0.203 F 
ATOM     85  C   UNL A   1      46.407  27.912  34.956  1.00  0.00     0.198 A 
ATOM     86  C   UNL A   1      44.812  26.319  35.785  1.00  0.00     0.198 A 
ATOM     87  F   UNL A   1      42.520  26.614  35.351  1.00  0.00    -0.203 F 
ATOM     88  F   UNL A   1      47.679  28.304  34.789  1.00  0.00    -0.200 F 
ATOM     89  C   UNL A   1      46.126  26.742  35.643  1.00  0.00     0.200 A 
ATOM     90  F   UNL A   1      44.538  25.196  36.462  1.00  0.00    -0.200 F 
ATOM     91  F   UNL A   1      47.123  26.011  36.161  1.00  0.00    -0.200 F 
ENDBRANCH  58  81
ENDBRANCH  32  33
ENDBRANCH  25  27
ENDBRANCH  24  25
ENDBRANCH  23  24
ENDBRANCH  22  23
ENDBRANCH  21  22
ENDBRANCH   1  21
TORSDOF 17
ENDMDL
MODEL 3
REMARK VINA RESULT:     -11.2      4.500     10.157
REMARK SMILES Cn1c(SCC(=O)OCCOCCOC(=O)c2ccc(-c3c4nc(c(-c5c(F)c(F)c(F)c(F)c5F)c5ccc([nH]5)c(-c5c(F)c(F)c(F)c(F)c5F)c5nc(c(-c6c(F)c(F)c(F)c(F)c6F)c6ccc3[nH]6)C=C5)C=C4)cc2)nnc1-c1ccccc1Br
REMARK SMILES IDX 10 1 9 2 8 3 6 4 7 5 5 6 4 7 3 8 1 9 2 10 82 11 80 12 81 13
REMARK SMILES IDX 83 14 84 15 88 16 85 17 87 18 89 19 86 20 11 21 12 22 13 23
REMARK SMILES IDX 14 24 15 25 16 26 17 27 18 28 79 29 19 30 78 31 20 32 21 33
REMARK SMILES IDX 22 34 72 35 23 36 77 37 71 38 73 39 24 40 76 41 70 42 69 43
REMARK SMILES IDX 25 45 57 46 37 47 56 48 38 49 41 50 55 51 74 52 39 53 40 54
REMARK SMILES IDX 54 56 75 57 42 58 26 59 27 60 35 61 28 62 29 63 33 64 36 65
REMARK SMILES IDX 30 66 31 67 34 68 32 69 58 70 59 71 67 72 60 73 61 74 65 75
REMARK SMILES IDX 68 76 62 77 63 78 66 79 64 80 43 81 44 82 52 83 45 84 46 85
REMARK SMILES IDX 50 86 53 87 47 88 48 89 51 90 49 91
REMARK H PARENT 73 44 41 55
REMARK Flexibility Score: inf
ROOT
ATOM      1  C   UNL A   1      34.897  22.897  25.781  1.00  0.00     0.202 C 
ENDROOT
BRANCH   1   2
ATOM      2  C   UNL A   1      33.637  22.596  24.958  1.00  0.00     0.261 C 
BRANCH   2   3
ATOM      3  O   UNL A   1      32.638  23.650  24.910  1.00  0.00    -0.463 OA
BRANCH   3   4
ATOM      4  C   UNL A   1      32.364  24.158  23.679  1.00  0.00     0.316 C 
ATOM      5  O   UNL A   1      33.235  24.472  22.869  1.00  0.00    -0.251 OA
BRANCH   4   6
ATOM      6  C   UNL A   1      30.910  24.425  23.350  1.00  0.00     0.200 C 
BRANCH   6   7
ATOM      7  S   UNL A   1      30.021  25.778  24.092  1.00  0.00    -0.074 SA
BRANCH   7   8
ATOM      8  C   UNL A   1      30.931  26.699  25.250  1.00  0.00     0.191 A 
ATOM      9  C   UNL A   1      32.673  27.984  23.937  1.00  0.00     0.154 C 
ATOM     10  N   UNL A   1      31.937  27.632  25.119  1.00  0.00    -0.305 N 
ATOM     11  C   UNL A   1      32.149  28.159  26.396  1.00  0.00     0.165 A 
ATOM     12  N   UNL A   1      30.631  26.593  26.527  1.00  0.00    -0.123 NA
ATOM     13  N   UNL A   1      31.379  27.492  27.235  1.00  0.00    -0.129 NA
BRANCH  11  14
ATOM     14  C   UNL A   1      33.152  29.150  26.820  1.00  0.00     0.034 A 
ATOM     15  C   UNL A   1      34.378  28.648  27.292  1.00  0.00     0.013 A 
ATOM     16  C   UNL A   1      32.955  30.542  26.909  1.00  0.00     0.029 A 
ATOM     17  C   UNL A   1      35.380  29.499  27.778  1.00  0.00     0.001 A 
ATOM     18  C   UNL A   1      33.978  31.394  27.355  1.00  0.00     0.016 A 
ATOM     19  Br  UNL A   1      31.337  31.454  26.578  1.00  0.00    -0.050 Br
ATOM     20  C   UNL A   1      35.187  30.875  27.789  1.00  0.00     0.001 A 
ENDBRANCH  11  14
ENDBRANCH   7   8
ENDBRANCH   6   7
ENDBRANCH   4   6
ENDBRANCH   3   4
ENDBRANCH   2   3
ENDBRANCH   1   2
BRANCH   1  21
ATOM     21  O   UNL A   1      35.714  21.802  26.166  1.00  0.00    -0.374 OA
BRANCH  21  22
ATOM     22  C   UNL A   1      36.207  20.931  25.163  1.00  0.00     0.202 C 
BRANCH  22  23
ATOM     23  C   UNL A   1      37.718  20.782  24.986  1.00  0.00     0.261 C 
BRANCH  23  24
ATOM     24  O   UNL A   1      38.479  21.783  25.616  1.00  0.00    -0.460 OA
BRANCH  24  25
ATOM     25  C   UNL A   1      39.600  21.403  26.243  1.00  0.00     0.338 C 
ATOM     26  O   UNL A   1      40.125  20.322  26.354  1.00  0.00    -0.246 OA
BRANCH  25  27
ATOM     27  C   UNL A   1      40.076  22.653  26.804  1.00  0.00     0.060 A 
ATOM     28  C   UNL A   1      39.467  23.831  26.376  1.00  0.00     0.016 A 
ATOM     29  C   UNL A   1      41.052  22.620  27.803  1.00  0.00     0.016 A 
ATOM     30  C   UNL A   1      39.916  25.027  26.897  1.00  0.00     0.010 A 
ATOM     31  C   UNL A   1      41.483  23.821  28.343  1.00  0.00     0.010 A 
ATOM     32  C   UNL A   1      40.949  25.020  27.848  1.00  0.00    -0.014 A 
BRANCH  32  33
ATOM     33  C   UNL A   1      41.569  26.306  28.192  1.00  0.00     0.031 A 
ATOM     34  C   UNL A   1      42.943  26.587  27.667  1.00  0.00     0.074 A 
ATOM     35  C   UNL A   1      40.853  27.213  28.870  1.00  0.00     0.049 A 
ATOM     36  N   UNL A   1      43.643  27.686  27.735  1.00  0.00    -0.248 NA
ATOM     37  C   UNL A   1      43.619  25.482  26.965  1.00  0.00     0.031 C 
ATOM     38  C   UNL A   1      39.500  27.002  29.385  1.00  0.00     0.029 A 
ATOM     39  N   UNL A   1      41.151  28.500  29.216  1.00  0.00    -0.354 N 
ATOM     40  C   UNL A   1      44.834  27.408  27.081  1.00  0.00     0.074 A 
ATOM     41  C   UNL A   1      44.786  26.027  26.658  1.00  0.00     0.031 C 
ATOM     42  C   UNL A   1      39.075  28.135  29.967  1.00  0.00     0.029 A 
ATOM     43  C   UNL A   1      40.134  29.134  29.881  1.00  0.00     0.049 A 
ATOM     44  H   UNL A   1      42.013  28.930  29.010  1.00  0.00     0.167 HD
ATOM     45  C   UNL A   1      45.867  28.248  26.844  1.00  0.00     0.037 A 
ATOM     46  C   UNL A   1      40.080  30.390  30.357  1.00  0.00     0.037 A 
ATOM     47  C   UNL A   1      45.886  29.616  27.287  1.00  0.00     0.049 A 
ATOM     48  C   UNL A   1      41.260  31.291  30.111  1.00  0.00     0.074 A 
ATOM     49  C   UNL A   1      46.872  30.568  27.121  1.00  0.00     0.029 A 
ATOM     50  N   UNL A   1      44.854  30.222  27.996  1.00  0.00    -0.354 N 
ATOM     51  N   UNL A   1      42.377  31.035  29.470  1.00  0.00    -0.248 NA
ATOM     52  C   UNL A   1      41.167  32.655  30.638  1.00  0.00     0.031 C 
ATOM     53  C   UNL A   1      46.459  31.737  27.771  1.00  0.00     0.029 A 
ATOM     54  C   UNL A   1      45.190  31.531  28.294  1.00  0.00     0.049 A 
ATOM     55  H   UNL A   1      44.010  29.783  28.250  1.00  0.00     0.167 HD
ATOM     56  C   UNL A   1      43.114  32.209  29.500  1.00  0.00     0.074 A 
ATOM     57  C   UNL A   1      42.300  33.185  30.200  1.00  0.00     0.031 C 
ATOM     58  C   UNL A   1      44.350  32.465  29.001  1.00  0.00     0.037 A 
BRANCH  45  59
ATOM     59  C   UNL A   1      47.054  27.694  26.110  1.00  0.00     0.064 A 
ATOM     60  C   UNL A   1      48.160  27.161  26.790  1.00  0.00     0.173 A 
ATOM     61  C   UNL A   1      47.086  27.698  24.708  1.00  0.00     0.173 A 
ATOM     62  F   UNL A   1      48.191  27.152  28.131  1.00  0.00    -0.203 F 
ATOM     63  C   UNL A   1      49.264  26.673  26.092  1.00  0.00     0.198 A 
ATOM     64  C   UNL A   1      48.178  27.184  24.014  1.00  0.00     0.198 A 
ATOM     65  F   UNL A   1      46.058  28.203  24.010  1.00  0.00    -0.203 F 
ATOM     66  F   UNL A   1      50.329  26.213  26.762  1.00  0.00    -0.200 F 
ATOM     67  C   UNL A   1      49.269  26.679  24.706  1.00  0.00     0.200 A 
ATOM     68  F   UNL A   1      48.178  27.184  22.674  1.00  0.00    -0.200 F 
ATOM     69  F   UNL A   1      50.328  26.205  24.036  1.00  0.00    -0.200 F 
ENDBRANCH  45  59
BRANCH  46  70
ATOM     70  C   UNL A   1      38.873  30.855  31.085  1.00  0.00     0.064 A 
ATOM     71  C   UNL A   1      38.726  30.642  32.463  1.00  0.00     0.173 A 
ATOM     72  C   UNL A   1      37.845  31.539  30.418  1.00  0.00     0.173 A 
ATOM     73  F   UNL A   1      39.674  29.983  33.144  1.00  0.00    -0.203 F 
ATOM     74  C   UNL A   1      37.590  31.080  33.141  1.00  0.00     0.198 A 
ATOM     75  C   UNL A   1      36.724  32.002  31.103  1.00  0.00     0.198 A 
ATOM     76  F   UNL A   1      37.939  31.777  29.102  1.00  0.00    -0.203 F 
ATOM     77  F   UNL A   1      37.456  30.829  34.451  1.00  0.00    -0.200 F 
ATOM     78  C   UNL A   1      36.593  31.765  32.463  1.00  0.00     0.200 A 
ATOM     79  F   UNL A   1      35.773  32.680  30.446  1.00  0.00    -0.200 F 
ATOM     80  F   UNL A   1      35.506  32.193  33.117  1.00  0.00    -0.200 F 
ENDBRANCH  46  70
BRANCH  58  81
ATOM     81  C   UNL A   1      44.871  33.859  29.185  1.00  0.00     0.064 A 
ATOM     82  C   UNL A   1      45.653  34.209  30.296  1.00  0.00     0.173 A 
ATOM     83  C   UNL A   1      44.594  34.850  28.232  1.00  0.00     0.173 A 
ATOM     84  F   UNL A   1      45.931  33.299  31.240  1.00  0.00    -0.203 F 
ATOM     85  C   UNL A   1      46.105  35.514  30.465  1.00  0.00     0.198 A 
ATOM     86  C   UNL A   1      45.077  36.145  28.388  1.00  0.00     0.198 A 
ATOM     87  F   UNL A   1      43.859  34.561  27.148  1.00  0.00    -0.203 F 
ATOM     88  F   UNL A   1      46.795  35.843  31.566  1.00  0.00    -0.200 F 
ATOM     89  C   UNL A   1      45.822  36.478  29.510  1.00  0.00     0.200 A 
ATOM     90  F   UNL A   1      44.816  37.072  27.456  1.00  0.00    -0.200 F 
ATOM     91  F   UNL A   1      46.256  37.735  29.676  1.00  0.00    -0.200 F 
ENDBRANCH  58  81
ENDBRANCH  32  33
ENDBRANCH  25  27
ENDBRANCH  24  25
ENDBRANCH  23  24
ENDBRANCH  22  23
ENDBRANCH  21  22
ENDBRANCH   1  21
TORSDOF 17
ENDMDL
