MODEL 1
REMARK VINA RESULT:     -12.1      0.000      0.000
REMARK SMILES COC(=O)c1c(NC(=O)[C@@H]2[C@H]3CC[C@H](CC3)[C@H]2C(=O)OCCOCCOC(=O)c2ccc(-c3c4nc(c(-c5c(F)c(F)c(F)c(F)c5F)c5ccc([nH]5)c(-c5c(F)c(F)c(F)c(F)c5F)c5nc(c(-c6c(F)c(F)c(F)c(F)c6F)c6ccc3[nH]6)C=C5)C=C4)cc2)sc(C)c1-c1ccc(C)cc1
REMARK SMILES IDX 22 1 21 2 20 3 18 4 19 5 17 6 10 7 11 8 12 9 16 10 14 11
REMARK SMILES IDX 13 12 15 13 8 14 7 15 9 17 6 18 5 19 95 20 92 21 93 22 94 23
REMARK SMILES IDX 3 24 4 25 2 26 1 27 96 28 97 29 102 30 98 31 101 32 99 33
REMARK SMILES IDX 100 34 23 35 24 36 25 37 26 38 27 39 28 40 29 41 30 42 91 43
REMARK SMILES IDX 31 44 90 45 32 46 33 47 34 48 84 49 35 50 89 51 83 52 85 53
REMARK SMILES IDX 36 54 88 55 82 56 81 57 37 59 69 60 49 61 68 62 50 63 53 64
REMARK SMILES IDX 67 65 86 66 51 67 52 68 66 70 87 71 54 72 38 73 39 74 47 75
REMARK SMILES IDX 40 76 41 77 45 78 48 79 42 80 43 81 46 82 44 83 70 84 71 85
REMARK SMILES IDX 79 86 72 87 73 88 77 89 80 90 74 91 75 92 78 93 76 94 55 95
REMARK SMILES IDX 56 96 64 97 57 98 58 99 62 100 65 101 59 102 60 103 63 104
REMARK SMILES IDX 61 105
REMARK H PARENT 7 16 85 58 53 69
REMARK Flexibility Score: inf
ROOT
ATOM      1  C   UNL A   1      33.500  30.057  27.307  1.00  0.00     0.202 C 
ENDROOT
BRANCH   1   2
ATOM      2  C   UNL A   1      32.429  29.629  26.308  1.00  0.00     0.261 C 
BRANCH   2   3
ATOM      3  O   UNL A   1      31.398  28.824  26.906  1.00  0.00    -0.463 OA
BRANCH   3   4
ATOM      4  C   UNL A   1      31.203  27.577  26.392  1.00  0.00     0.310 C 
ATOM      5  O   UNL A   1      30.736  26.636  27.021  1.00  0.00    -0.252 OA
BRANCH   4   6
ATOM      6  C   UNL A   1      31.819  27.417  24.998  1.00  0.00     0.115 C 
ATOM      7  C   UNL A   1      32.013  25.973  24.451  1.00  0.00     0.096 C 
ATOM      8  C   UNL A   1      30.910  25.667  23.401  1.00  0.00     0.002 C 
ATOM      9  C   UNL A   1      29.502  26.064  23.883  1.00  0.00     0.005 C 
ATOM     10  C   UNL A   1      31.083  26.560  22.194  1.00  0.00     0.005 C 
ATOM     11  C   UNL A   1      30.872  28.194  24.044  1.00  0.00     0.004 C 
ATOM     12  C   UNL A   1      29.438  27.603  24.036  1.00  0.00     0.005 C 
ATOM     13  C   UNL A   1      31.426  27.994  22.635  1.00  0.00     0.005 C 
BRANCH   7  14
ATOM     14  C   UNL A   1      33.507  25.497  24.163  1.00  0.00     0.229 C 
ATOM     15  N   UNL A   1      34.165  24.295  24.097  1.00  0.00    -0.317 N 
ATOM     16  H   UNL A   1      35.137  24.427  24.019  1.00  0.00     0.170 HD
ATOM     17  O   UNL A   1      34.272  26.443  23.857  1.00  0.00    -0.274 OA
BRANCH  15  18
ATOM     18  C   UNL A   1      33.847  22.944  24.108  1.00  0.00     0.111 A 
ATOM     19  C   UNL A   1      34.342  21.842  24.840  1.00  0.00     0.102 A 
ATOM     20  C   UNL A   1      33.790  20.615  24.239  1.00  0.00     0.012 A 
ATOM     21  S   UNL A   1      32.193  22.436  24.100  1.00  0.00    -0.122 S 
ATOM     22  C   UNL A   1      32.748  20.970  23.394  1.00  0.00     0.012 A 
ATOM     23  C   UNL A   1      31.960  20.214  22.387  1.00  0.00     0.057 C 
BRANCH  19  24
ATOM     24  C   UNL A   1      35.131  21.954  26.058  1.00  0.00     0.341 C 
ATOM     25  O   UNL A   1      34.661  22.382  27.114  1.00  0.00    -0.246 OA
BRANCH  24  26
ATOM     26  O   UNL A   1      36.362  21.393  25.936  1.00  0.00    -0.465 OA
ATOM     27  C   UNL A   1      37.093  21.726  24.756  1.00  0.00     0.282 C 
ENDBRANCH  24  26
ENDBRANCH  19  24
BRANCH  20  28
ATOM     28  C   UNL A   1      33.772  19.238  24.709  1.00  0.00    -0.016 A 
ATOM     29  C   UNL A   1      32.627  18.815  25.401  1.00  0.00     0.009 A 
ATOM     30  C   UNL A   1      34.717  18.300  24.292  1.00  0.00     0.009 A 
ATOM     31  C   UNL A   1      32.422  17.468  25.672  1.00  0.00     0.004 A 
ATOM     32  C   UNL A   1      34.512  16.944  24.573  1.00  0.00     0.004 A 
ATOM     33  C   UNL A   1      33.363  16.522  25.260  1.00  0.00    -0.051 A 
ATOM     34  C   UNL A   1      33.114  15.074  25.559  1.00  0.00     0.044 C 
ENDBRANCH  20  28
ENDBRANCH  15  18
ENDBRANCH   7  14
ENDBRANCH   4   6
ENDBRANCH   3   4
ENDBRANCH   2   3
ENDBRANCH   1   2
BRANCH   1  35
ATOM     35  O   UNL A   1      33.742  31.448  27.446  1.00  0.00    -0.374 OA
BRANCH  35  36
ATOM     36  C   UNL A   1      32.623  32.333  27.491  1.00  0.00     0.202 C 
BRANCH  36  37
ATOM     37  C   UNL A   1      32.896  33.837  27.620  1.00  0.00     0.261 C 
BRANCH  37  38
ATOM     38  O   UNL A   1      32.506  34.399  28.889  1.00  0.00    -0.460 OA
BRANCH  38  39
ATOM     39  C   UNL A   1      33.527  34.948  29.593  1.00  0.00     0.338 C 
ATOM     40  O   UNL A   1      33.544  36.032  30.153  1.00  0.00    -0.246 OA
BRANCH  39  41
ATOM     41  C   UNL A   1      34.635  33.992  29.753  1.00  0.00     0.060 A 
ATOM     42  C   UNL A   1      34.424  32.892  30.594  1.00  0.00     0.016 A 
ATOM     43  C   UNL A   1      35.906  34.265  29.248  1.00  0.00     0.016 A 
ATOM     44  C   UNL A   1      35.497  32.094  30.983  1.00  0.00     0.010 A 
ATOM     45  C   UNL A   1      36.985  33.463  29.642  1.00  0.00     0.010 A 
ATOM     46  C   UNL A   1      36.792  32.401  30.547  1.00  0.00    -0.014 A 
BRANCH  46  47
ATOM     47  C   UNL A   1      37.949  31.698  31.157  1.00  0.00     0.031 A 
ATOM     48  C   UNL A   1      38.367  32.047  32.562  1.00  0.00     0.074 A 
ATOM     49  C   UNL A   1      38.590  30.725  30.485  1.00  0.00     0.049 A 
ATOM     50  N   UNL A   1      39.365  31.581  33.271  1.00  0.00    -0.248 NA
ATOM     51  C   UNL A   1      37.555  33.056  33.261  1.00  0.00     0.031 C 
ATOM     52  C   UNL A   1      38.252  30.269  29.138  1.00  0.00     0.029 A 
ATOM     53  N   UNL A   1      39.667  29.952  30.842  1.00  0.00    -0.354 N 
ATOM     54  C   UNL A   1      39.311  32.252  34.487  1.00  0.00     0.074 A 
ATOM     55  C   UNL A   1      38.195  33.169  34.417  1.00  0.00     0.031 C 
ATOM     56  C   UNL A   1      39.116  29.307  28.775  1.00  0.00     0.029 A 
ATOM     57  C   UNL A   1      40.090  29.107  29.847  1.00  0.00     0.049 A 
ATOM     58  H   UNL A   1      40.095  30.000  31.728  1.00  0.00     0.167 HD
ATOM     59  C   UNL A   1      40.119  32.109  35.565  1.00  0.00     0.037 A 
ATOM     60  C   UNL A   1      41.160  28.289  29.794  1.00  0.00     0.037 A 
ATOM     61  C   UNL A   1      41.214  31.176  35.641  1.00  0.00     0.049 A 
ATOM     62  C   UNL A   1      42.071  28.190  30.992  1.00  0.00     0.074 A 
ATOM     63  C   UNL A   1      42.057  30.924  36.709  1.00  0.00     0.029 A 
ATOM     64  N   UNL A   1      41.622  30.349  34.606  1.00  0.00    -0.354 N 
ATOM     65  N   UNL A   1      41.988  28.796  32.151  1.00  0.00    -0.248 NA
ATOM     66  C   UNL A   1      43.225  27.286  30.876  1.00  0.00     0.031 C 
ATOM     67  C   UNL A   1      43.018  29.996  36.298  1.00  0.00     0.029 A 
ATOM     68  C   UNL A   1      42.730  29.614  34.999  1.00  0.00     0.049 A 
ATOM     69  H   UNL A   1      41.190  30.293  33.723  1.00  0.00     0.167 HD
ATOM     70  C   UNL A   1      43.053  28.325  32.909  1.00  0.00     0.074 A 
ATOM     71  C   UNL A   1      43.758  27.367  32.085  1.00  0.00     0.031 C 
ATOM     72  C   UNL A   1      43.415  28.655  34.173  1.00  0.00     0.037 A 
BRANCH  59  73
ATOM     73  C   UNL A   1      39.882  32.998  36.752  1.00  0.00     0.064 A 
ATOM     74  C   UNL A   1      40.574  34.204  36.927  1.00  0.00     0.173 A 
ATOM     75  C   UNL A   1      38.878  32.676  37.679  1.00  0.00     0.173 A 
ATOM     76  F   UNL A   1      41.549  34.554  36.075  1.00  0.00    -0.203 F 
ATOM     77  C   UNL A   1      40.276  35.051  37.993  1.00  0.00     0.198 A 
ATOM     78  C   UNL A   1      38.564  33.537  38.725  1.00  0.00     0.198 A 
ATOM     79  F   UNL A   1      38.182  31.536  37.553  1.00  0.00    -0.203 F 
ATOM     80  F   UNL A   1      40.968  36.187  38.158  1.00  0.00    -0.200 F 
ATOM     81  C   UNL A   1      39.264  34.723  38.884  1.00  0.00     0.200 A 
ATOM     82  F   UNL A   1      37.573  33.226  39.574  1.00  0.00    -0.200 F 
ATOM     83  F   UNL A   1      38.963  35.551  39.894  1.00  0.00    -0.200 F 
ENDBRANCH  59  73
BRANCH  60  84
ATOM     84  C   UNL A   1      41.461  27.527  28.552  1.00  0.00     0.064 A 
ATOM     85  C   UNL A   1      42.326  28.037  27.573  1.00  0.00     0.173 A 
ATOM     86  C   UNL A   1      40.843  26.294  28.295  1.00  0.00     0.173 A 
ATOM     87  F   UNL A   1      42.923  29.223  27.760  1.00  0.00    -0.203 F 
ATOM     88  C   UNL A   1      42.532  27.361  26.372  1.00  0.00     0.198 A 
ATOM     89  C   UNL A   1      41.079  25.602  27.109  1.00  0.00     0.198 A 
ATOM     90  F   UNL A   1      40.005  25.759  29.196  1.00  0.00    -0.203 F 
ATOM     91  F   UNL A   1      43.308  27.906  25.425  1.00  0.00    -0.200 F 
ATOM     92  C   UNL A   1      41.912  26.142  26.142  1.00  0.00     0.200 A 
ATOM     93  F   UNL A   1      40.489  24.416  26.900  1.00  0.00    -0.200 F 
ATOM     94  F   UNL A   1      42.105  25.496  24.985  1.00  0.00    -0.200 F 
ENDBRANCH  60  84
BRANCH  72  95
ATOM     95  C   UNL A   1      44.600  27.943  34.764  1.00  0.00     0.064 A 
ATOM     96  C   UNL A   1      44.470  26.717  35.434  1.00  0.00     0.173 A 
ATOM     97  C   UNL A   1      45.890  28.477  34.622  1.00  0.00     0.173 A 
ATOM     98  F   UNL A   1      43.258  26.168  35.608  1.00  0.00    -0.203 F 
ATOM     99  C   UNL A   1      45.582  26.071  35.968  1.00  0.00     0.198 A 
ATOM    100  C   UNL A   1      47.004  27.811  35.126  1.00  0.00     0.198 A 
ATOM    101  F   UNL A   1      46.074  29.642  33.983  1.00  0.00    -0.203 F 
ATOM    102  F   UNL A   1      45.426  24.929  36.653  1.00  0.00    -0.200 F 
ATOM    103  C   UNL A   1      46.848  26.613  35.807  1.00  0.00     0.200 A 
ATOM    104  F   UNL A   1      48.228  28.328  34.952  1.00  0.00    -0.200 F 
ATOM    105  F   UNL A   1      47.917  25.986  36.314  1.00  0.00    -0.200 F 
ENDBRANCH  72  95
ENDBRANCH  46  47
ENDBRANCH  39  41
ENDBRANCH  38  39
ENDBRANCH  37  38
ENDBRANCH  36  37
ENDBRANCH  35  36
ENDBRANCH   1  35
TORSDOF 19
ENDMDL
MODEL 2
REMARK VINA RESULT:     -12.0      1.251      2.491
REMARK SMILES COC(=O)c1c(NC(=O)[C@@H]2[C@H]3CC[C@H](CC3)[C@H]2C(=O)OCCOCCOC(=O)c2ccc(-c3c4nc(c(-c5c(F)c(F)c(F)c(F)c5F)c5ccc([nH]5)c(-c5c(F)c(F)c(F)c(F)c5F)c5nc(c(-c6c(F)c(F)c(F)c(F)c6F)c6ccc3[nH]6)C=C5)C=C4)cc2)sc(C)c1-c1ccc(C)cc1
REMARK SMILES IDX 22 1 21 2 20 3 18 4 19 5 17 6 10 7 11 8 12 9 16 10 14 11
REMARK SMILES IDX 13 12 15 13 8 14 7 15 9 17 6 18 5 19 95 20 92 21 93 22 94 23
REMARK SMILES IDX 3 24 4 25 2 26 1 27 96 28 97 29 102 30 98 31 101 32 99 33
REMARK SMILES IDX 100 34 23 35 24 36 25 37 26 38 27 39 28 40 29 41 30 42 91 43
REMARK SMILES IDX 31 44 90 45 32 46 33 47 34 48 84 49 35 50 89 51 83 52 85 53
REMARK SMILES IDX 36 54 88 55 82 56 81 57 37 59 69 60 49 61 68 62 50 63 53 64
REMARK SMILES IDX 67 65 86 66 51 67 52 68 66 70 87 71 54 72 38 73 39 74 47 75
REMARK SMILES IDX 40 76 41 77 45 78 48 79 42 80 43 81 46 82 44 83 70 84 71 85
REMARK SMILES IDX 79 86 72 87 73 88 77 89 80 90 74 91 75 92 78 93 76 94 55 95
REMARK SMILES IDX 56 96 64 97 57 98 58 99 62 100 65 101 59 102 60 103 63 104
REMARK SMILES IDX 61 105
REMARK H PARENT 7 16 85 58 53 69
REMARK Flexibility Score: inf
ROOT
ATOM      1  C   UNL A   1      34.689  29.447  27.462  1.00  0.00     0.202 C 
ENDROOT
BRANCH   1   2
ATOM      2  C   UNL A   1      33.674  28.941  26.441  1.00  0.00     0.261 C 
BRANCH   2   3
ATOM      3  O   UNL A   1      32.611  28.181  27.041  1.00  0.00    -0.463 OA
BRANCH   3   4
ATOM      4  C   UNL A   1      32.078  27.165  26.305  1.00  0.00     0.310 C 
ATOM      5  O   UNL A   1      31.615  26.137  26.781  1.00  0.00    -0.252 OA
BRANCH   4   6
ATOM      6  C   UNL A   1      32.305  27.353  24.800  1.00  0.00     0.115 C 
ATOM      7  C   UNL A   1      32.369  26.077  23.912  1.00  0.00     0.096 C 
ATOM      8  C   UNL A   1      31.032  25.920  23.137  1.00  0.00     0.002 C 
ATOM      9  C   UNL A   1      29.796  26.099  24.039  1.00  0.00     0.005 C 
ATOM     10  C   UNL A   1      30.864  27.061  22.159  1.00  0.00     0.005 C 
ATOM     11  C   UNL A   1      31.126  28.243  24.321  1.00  0.00     0.004 C 
ATOM     12  C   UNL A   1      29.751  27.561  24.546  1.00  0.00     0.005 C 
ATOM     13  C   UNL A   1      31.289  28.390  22.810  1.00  0.00     0.005 C 
BRANCH   7  14
ATOM     14  C   UNL A   1      33.740  25.786  23.151  1.00  0.00     0.229 C 
ATOM     15  N   UNL A   1      34.678  24.785  23.155  1.00  0.00    -0.317 N 
ATOM     16  H   UNL A   1      35.468  25.039  22.626  1.00  0.00     0.170 HD
ATOM     17  O   UNL A   1      34.013  26.651  22.284  1.00  0.00    -0.274 OA
BRANCH  15  18
ATOM     18  C   UNL A   1      34.827  23.515  23.693  1.00  0.00     0.111 A 
ATOM     19  C   UNL A   1      33.956  22.409  23.816  1.00  0.00     0.102 A 
ATOM     20  C   UNL A   1      34.599  21.423  24.702  1.00  0.00     0.012 A 
ATOM     21  S   UNL A   1      36.255  22.593  23.371  1.00  0.00    -0.122 S 
ATOM     22  C   UNL A   1      35.936  21.765  24.844  1.00  0.00     0.012 A 
ATOM     23  C   UNL A   1      37.014  21.281  25.744  1.00  0.00     0.057 C 
BRANCH  19  24
ATOM     24  C   UNL A   1      32.722  22.250  23.060  1.00  0.00     0.341 C 
ATOM     25  O   UNL A   1      32.684  22.327  21.831  1.00  0.00    -0.246 OA
BRANCH  24  26
ATOM     26  O   UNL A   1      31.681  21.855  23.838  1.00  0.00    -0.465 OA
ATOM     27  C   UNL A   1      31.236  22.791  24.820  1.00  0.00     0.282 C 
ENDBRANCH  24  26
ENDBRANCH  19  24
BRANCH  20  28
ATOM     28  C   UNL A   1      34.274  20.034  24.990  1.00  0.00    -0.016 A 
ATOM     29  C   UNL A   1      33.123  19.794  25.756  1.00  0.00     0.009 A 
ATOM     30  C   UNL A   1      34.911  18.974  24.344  1.00  0.00     0.009 A 
ATOM     31  C   UNL A   1      32.608  18.509  25.875  1.00  0.00     0.004 A 
ATOM     32  C   UNL A   1      34.394  17.680  24.471  1.00  0.00     0.004 A 
ATOM     33  C   UNL A   1      33.239  17.442  25.233  1.00  0.00    -0.051 A 
ATOM     34  C   UNL A   1      32.659  16.067  25.372  1.00  0.00     0.044 C 
ENDBRANCH  20  28
ENDBRANCH  15  18
ENDBRANCH   7  14
ENDBRANCH   4   6
ENDBRANCH   3   4
ENDBRANCH   2   3
ENDBRANCH   1   2
BRANCH   1  35
ATOM     35  O   UNL A   1      34.704  30.840  27.731  1.00  0.00    -0.374 OA
BRANCH  35  36
ATOM     36  C   UNL A   1      33.465  31.549  27.719  1.00  0.00     0.202 C 
BRANCH  36  37
ATOM     37  C   UNL A   1      33.492  33.045  27.379  1.00  0.00     0.261 C 
BRANCH  37  38
ATOM     38  O   UNL A   1      32.495  33.824  28.070  1.00  0.00    -0.460 OA
BRANCH  38  39
ATOM     39  C   UNL A   1      32.987  34.904  28.726  1.00  0.00     0.338 C 
ATOM     40  O   UNL A   1      32.523  36.033  28.750  1.00  0.00    -0.246 OA
BRANCH  39  41
ATOM     41  C   UNL A   1      34.127  34.533  29.581  1.00  0.00     0.060 A 
ATOM     42  C   UNL A   1      35.411  34.644  29.032  1.00  0.00     0.016 A 
ATOM     43  C   UNL A   1      33.934  33.914  30.816  1.00  0.00     0.016 A 
ATOM     44  C   UNL A   1      36.502  34.081  29.689  1.00  0.00     0.010 A 
ATOM     45  C   UNL A   1      35.033  33.346  31.474  1.00  0.00     0.010 A 
ATOM     46  C   UNL A   1      36.314  33.387  30.891  1.00  0.00    -0.014 A 
BRANCH  46  47
ATOM     47  C   UNL A   1      37.435  32.591  31.452  1.00  0.00     0.031 A 
ATOM     48  C   UNL A   1      37.969  32.930  32.819  1.00  0.00     0.074 A 
ATOM     49  C   UNL A   1      37.940  31.547  30.770  1.00  0.00     0.049 A 
ATOM     50  N   UNL A   1      38.960  32.387  33.482  1.00  0.00    -0.248 NA
ATOM     51  C   UNL A   1      37.298  34.027  33.537  1.00  0.00     0.031 C 
ATOM     52  C   UNL A   1      37.480  31.095  29.459  1.00  0.00     0.029 A 
ATOM     53  N   UNL A   1      38.960  30.683  31.086  1.00  0.00    -0.354 N 
ATOM     54  C   UNL A   1      39.042  33.087  34.680  1.00  0.00     0.074 A 
ATOM     55  C   UNL A   1      38.015  34.104  34.649  1.00  0.00     0.031 C 
ATOM     56  C   UNL A   1      38.226  30.047  29.073  1.00  0.00     0.029 A 
ATOM     57  C   UNL A   1      39.241  29.780  30.091  1.00  0.00     0.049 A 
ATOM     58  H   UNL A   1      39.443  30.710  31.943  1.00  0.00     0.167 HD
ATOM     59  C   UNL A   1      39.898  32.891  35.712  1.00  0.00     0.037 A 
ATOM     60  C   UNL A   1      40.224  28.863  29.999  1.00  0.00     0.037 A 
ATOM     61  C   UNL A   1      40.903  31.861  35.750  1.00  0.00     0.049 A 
ATOM     62  C   UNL A   1      41.194  28.705  31.144  1.00  0.00     0.074 A 
ATOM     63  C   UNL A   1      41.782  31.554  36.774  1.00  0.00     0.029 A 
ATOM     64  N   UNL A   1      41.169  30.976  34.716  1.00  0.00    -0.354 N 
ATOM     65  N   UNL A   1      41.238  29.342  32.289  1.00  0.00    -0.248 NA
ATOM     66  C   UNL A   1      42.249  27.693  30.985  1.00  0.00     0.031 C 
ATOM     67  C   UNL A   1      42.625  30.530  36.334  1.00  0.00     0.029 A 
ATOM     68  C   UNL A   1      42.225  30.148  35.064  1.00  0.00     0.049 A 
ATOM     69  H   UNL A   1      40.680  30.941  33.862  1.00  0.00     0.167 HD
ATOM     70  C   UNL A   1      42.298  28.788  32.996  1.00  0.00     0.074 A 
ATOM     71  C   UNL A   1      42.859  27.749  32.159  1.00  0.00     0.031 C 
ATOM     72  C   UNL A   1      42.766  29.110  34.227  1.00  0.00     0.037 A 
BRANCH  59  73
ATOM     73  C   UNL A   1      39.817  33.825  36.886  1.00  0.00     0.064 A 
ATOM     74  C   UNL A   1      39.011  33.551  37.999  1.00  0.00     0.173 A 
ATOM     75  C   UNL A   1      40.633  34.966  36.930  1.00  0.00     0.173 A 
ATOM     76  F   UNL A   1      38.206  32.479  38.004  1.00  0.00    -0.203 F 
ATOM     77  C   UNL A   1      39.018  34.391  39.111  1.00  0.00     0.198 A 
ATOM     78  C   UNL A   1      40.660  35.787  38.053  1.00  0.00     0.198 A 
ATOM     79  F   UNL A   1      41.429  35.270  35.893  1.00  0.00    -0.203 F 
ATOM     80  F   UNL A   1      38.221  34.127  40.155  1.00  0.00    -0.200 F 
ATOM     81  C   UNL A   1      39.850  35.502  39.142  1.00  0.00     0.200 A 
ATOM     82  F   UNL A   1      41.478  36.849  38.088  1.00  0.00    -0.200 F 
ATOM     83  F   UNL A   1      39.874  36.295  40.222  1.00  0.00    -0.200 F 
ENDBRANCH  59  73
BRANCH  60  84
ATOM     84  C   UNL A   1      40.376  28.049  28.763  1.00  0.00     0.064 A 
ATOM     85  C   UNL A   1      39.770  26.791  28.638  1.00  0.00     0.173 A 
ATOM     86  C   UNL A   1      41.178  28.493  27.701  1.00  0.00     0.173 A 
ATOM     87  F   UNL A   1      39.013  26.310  29.635  1.00  0.00    -0.203 F 
ATOM     88  C   UNL A   1      39.991  25.994  27.515  1.00  0.00     0.198 A 
ATOM     89  C   UNL A   1      41.368  27.711  26.563  1.00  0.00     0.198 A 
ATOM     90  F   UNL A   1      41.782  29.688  27.767  1.00  0.00    -0.203 F 
ATOM     91  F   UNL A   1      39.457  24.766  27.454  1.00  0.00    -0.200 F 
ATOM     92  C   UNL A   1      40.786  26.456  26.477  1.00  0.00     0.200 A 
ATOM     93  F   UNL A   1      42.124  28.169  25.557  1.00  0.00    -0.200 F 
ATOM     94  F   UNL A   1      41.002  25.687  25.402  1.00  0.00    -0.200 F 
ENDBRANCH  60  84
BRANCH  72  95
ATOM     95  C   UNL A   1      43.912  28.302  34.767  1.00  0.00     0.064 A 
ATOM     96  C   UNL A   1      45.247  28.700  34.594  1.00  0.00     0.173 A 
ATOM     97  C   UNL A   1      43.669  27.130  35.501  1.00  0.00     0.173 A 
ATOM     98  F   UNL A   1      45.536  29.806  33.890  1.00  0.00    -0.203 F 
ATOM     99  C   UNL A   1      46.294  27.940  35.109  1.00  0.00     0.198 A 
ATOM    100  C   UNL A   1      44.717  26.392  36.044  1.00  0.00     0.198 A 
ATOM    101  F   UNL A   1      42.413  26.708  35.704  1.00  0.00    -0.203 F 
ATOM    102  F   UNL A   1      47.562  28.311  34.882  1.00  0.00    -0.200 F 
ATOM    103  C   UNL A   1      46.028  26.792  35.839  1.00  0.00     0.200 A 
ATOM    104  F   UNL A   1      44.457  25.293  36.766  1.00  0.00    -0.200 F 
ATOM    105  F   UNL A   1      47.037  26.066  36.340  1.00  0.00    -0.200 F 
ENDBRANCH  72  95
ENDBRANCH  46  47
ENDBRANCH  39  41
ENDBRANCH  38  39
ENDBRANCH  37  38
ENDBRANCH  36  37
ENDBRANCH  35  36
ENDBRANCH   1  35
TORSDOF 19
ENDMDL
MODEL 3
REMARK VINA RESULT:     -11.8      4.091      5.779
REMARK SMILES COC(=O)c1c(NC(=O)[C@@H]2[C@H]3CC[C@H](CC3)[C@H]2C(=O)OCCOCCOC(=O)c2ccc(-c3c4nc(c(-c5c(F)c(F)c(F)c(F)c5F)c5ccc([nH]5)c(-c5c(F)c(F)c(F)c(F)c5F)c5nc(c(-c6c(F)c(F)c(F)c(F)c6F)c6ccc3[nH]6)C=C5)C=C4)cc2)sc(C)c1-c1ccc(C)cc1
REMARK SMILES IDX 22 1 21 2 20 3 18 4 19 5 17 6 10 7 11 8 12 9 16 10 14 11
REMARK SMILES IDX 13 12 15 13 8 14 7 15 9 17 6 18 5 19 95 20 92 21 93 22 94 23
REMARK SMILES IDX 3 24 4 25 2 26 1 27 96 28 97 29 102 30 98 31 101 32 99 33
REMARK SMILES IDX 100 34 23 35 24 36 25 37 26 38 27 39 28 40 29 41 30 42 91 43
REMARK SMILES IDX 31 44 90 45 32 46 33 47 34 48 84 49 35 50 89 51 83 52 85 53
REMARK SMILES IDX 36 54 88 55 82 56 81 57 37 59 69 60 49 61 68 62 50 63 53 64
REMARK SMILES IDX 67 65 86 66 51 67 52 68 66 70 87 71 54 72 38 73 39 74 47 75
REMARK SMILES IDX 40 76 41 77 45 78 48 79 42 80 43 81 46 82 44 83 70 84 71 85
REMARK SMILES IDX 79 86 72 87 73 88 77 89 80 90 74 91 75 92 78 93 76 94 55 95
REMARK SMILES IDX 56 96 64 97 57 98 58 99 62 100 65 101 59 102 60 103 63 104
REMARK SMILES IDX 61 105
REMARK H PARENT 7 16 85 58 53 69
REMARK Flexibility Score: inf
ROOT
ATOM      1  C   UNL A   1      34.030  30.392  27.641  1.00  0.00     0.202 C 
ENDROOT
BRANCH   1   2
ATOM      2  C   UNL A   1      33.409  29.416  26.646  1.00  0.00     0.261 C 
BRANCH   2   3
ATOM      3  O   UNL A   1      32.064  29.044  26.995  1.00  0.00    -0.463 OA
BRANCH   3   4
ATOM      4  C   UNL A   1      31.593  27.867  26.496  1.00  0.00     0.310 C 
ATOM      5  O   UNL A   1      30.968  27.041  27.148  1.00  0.00    -0.252 OA
BRANCH   4   6
ATOM      6  C   UNL A   1      32.104  27.588  25.077  1.00  0.00     0.115 C 
ATOM      7  C   UNL A   1      32.246  26.103  24.636  1.00  0.00     0.096 C 
ATOM      8  C   UNL A   1      31.066  25.728  23.698  1.00  0.00     0.002 C 
ATOM      9  C   UNL A   1      29.700  26.180  24.248  1.00  0.00     0.005 C 
ATOM     10  C   UNL A   1      31.156  26.520  22.413  1.00  0.00     0.005 C 
ATOM     11  C   UNL A   1      31.094  28.299  24.136  1.00  0.00     0.004 C 
ATOM     12  C   UNL A   1      29.659  27.727  24.281  1.00  0.00     0.005 C 
ATOM     13  C   UNL A   1      31.540  27.980  22.711  1.00  0.00     0.005 C 
BRANCH   7  14
ATOM     14  C   UNL A   1      33.711  25.585  24.279  1.00  0.00     0.229 C 
ATOM     15  N   UNL A   1      34.326  24.365  24.160  1.00  0.00    -0.317 N 
ATOM     16  H   UNL A   1      35.298  24.468  24.047  1.00  0.00     0.170 HD
ATOM     17  O   UNL A   1      34.495  26.513  23.964  1.00  0.00    -0.274 OA
BRANCH  15  18
ATOM     18  C   UNL A   1      33.964  23.025  24.154  1.00  0.00     0.111 A 
ATOM     19  C   UNL A   1      34.415  21.900  24.880  1.00  0.00     0.102 A 
ATOM     20  C   UNL A   1      33.830  20.698  24.261  1.00  0.00     0.012 A 
ATOM     21  S   UNL A   1      32.295  22.571  24.123  1.00  0.00    -0.122 S 
ATOM     22  C   UNL A   1      32.810  21.095  23.408  1.00  0.00     0.012 A 
ATOM     23  C   UNL A   1      32.009  20.375  22.385  1.00  0.00     0.057 C 
BRANCH  19  24
ATOM     24  C   UNL A   1      35.194  21.974  26.107  1.00  0.00     0.341 C 
ATOM     25  O   UNL A   1      36.316  21.475  26.211  1.00  0.00    -0.246 OA
BRANCH  24  26
ATOM     26  O   UNL A   1      34.621  22.777  27.041  1.00  0.00    -0.465 OA
ATOM     27  C   UNL A   1      33.485  22.243  27.722  1.00  0.00     0.282 C 
ENDBRANCH  24  26
ENDBRANCH  19  24
BRANCH  20  28
ATOM     28  C   UNL A   1      33.763  19.317  24.716  1.00  0.00    -0.016 A 
ATOM     29  C   UNL A   1      32.600  18.926  25.397  1.00  0.00     0.009 A 
ATOM     30  C   UNL A   1      34.678  18.352  24.295  1.00  0.00     0.009 A 
ATOM     31  C   UNL A   1      32.348  17.585  25.653  1.00  0.00     0.004 A 
ATOM     32  C   UNL A   1      34.425  17.002  24.560  1.00  0.00     0.004 A 
ATOM     33  C   UNL A   1      33.258  16.611  25.236  1.00  0.00    -0.051 A 
ATOM     34  C   UNL A   1      32.959  15.170  25.519  1.00  0.00     0.044 C 
ENDBRANCH  20  28
ENDBRANCH  15  18
ENDBRANCH   7  14
ENDBRANCH   4   6
ENDBRANCH   3   4
ENDBRANCH   2   3
ENDBRANCH   1   2
BRANCH   1  35
ATOM     35  O   UNL A   1      34.027  31.768  27.291  1.00  0.00    -0.374 OA
BRANCH  35  36
ATOM     36  C   UNL A   1      33.967  32.736  28.338  1.00  0.00     0.202 C 
BRANCH  36  37
ATOM     37  C   UNL A   1      34.421  32.311  29.741  1.00  0.00     0.261 C 
BRANCH  37  38
ATOM     38  O   UNL A   1      35.081  33.354  30.487  1.00  0.00    -0.460 OA
BRANCH  38  39
ATOM     39  C   UNL A   1      35.921  32.904  31.451  1.00  0.00     0.338 C 
ATOM     40  O   UNL A   1      35.870  33.136  32.649  1.00  0.00    -0.246 OA
BRANCH  39  41
ATOM     41  C   UNL A   1      36.880  31.928  30.907  1.00  0.00     0.060 A 
ATOM     42  C   UNL A   1      37.557  31.109  31.820  1.00  0.00     0.016 A 
ATOM     43  C   UNL A   1      37.245  31.945  29.561  1.00  0.00     0.016 A 
ATOM     44  C   UNL A   1      38.645  30.348  31.401  1.00  0.00     0.010 A 
ATOM     45  C   UNL A   1      38.342  31.180  29.142  1.00  0.00     0.010 A 
ATOM     46  C   UNL A   1      39.075  30.414  30.069  1.00  0.00    -0.014 A 
BRANCH  46  47
ATOM     47  C   UNL A   1      40.370  29.793  29.693  1.00  0.00     0.031 A 
ATOM     48  C   UNL A   1      41.634  30.608  29.791  1.00  0.00     0.074 A 
ATOM     49  C   UNL A   1      40.427  28.504  29.313  1.00  0.00     0.049 A 
ATOM     50  N   UNL A   1      42.862  30.275  29.483  1.00  0.00    -0.248 NA
ATOM     51  C   UNL A   1      41.496  31.981  30.304  1.00  0.00     0.031 C 
ATOM     52  C   UNL A   1      39.280  27.603  29.220  1.00  0.00     0.029 A 
ATOM     53  N   UNL A   1      41.495  27.732  28.926  1.00  0.00    -0.354 N 
ATOM     54  C   UNL A   1      43.637  31.398  29.745  1.00  0.00     0.074 A 
ATOM     55  C   UNL A   1      42.741  32.429  30.221  1.00  0.00     0.031 C 
ATOM     56  C   UNL A   1      39.703  26.404  28.786  1.00  0.00     0.029 A 
ATOM     57  C   UNL A   1      41.141  26.465  28.533  1.00  0.00     0.049 A 
ATOM     58  H   UNL A   1      42.424  28.057  28.930  1.00  0.00     0.167 HD
ATOM     59  C   UNL A   1      44.976  31.551  29.604  1.00  0.00     0.037 A 
ATOM     60  C   UNL A   1      41.889  25.478  28.000  1.00  0.00     0.037 A 
ATOM     61  C   UNL A   1      45.868  30.514  29.154  1.00  0.00     0.049 A 
ATOM     62  C   UNL A   1      43.368  25.697  27.807  1.00  0.00     0.074 A 
ATOM     63  C   UNL A   1      47.245  30.559  29.028  1.00  0.00     0.029 A 
ATOM     64  N   UNL A   1      45.471  29.249  28.749  1.00  0.00    -0.354 N 
ATOM     65  N   UNL A   1      44.098  26.747  28.098  1.00  0.00    -0.248 NA
ATOM     66  C   UNL A   1      44.132  24.587  27.217  1.00  0.00     0.031 C 
ATOM     67  C   UNL A   1      47.674  29.347  28.481  1.00  0.00     0.029 A 
ATOM     68  C   UNL A   1      46.574  28.519  28.335  1.00  0.00     0.049 A 
ATOM     69  H   UNL A   1      44.543  28.919  28.754  1.00  0.00     0.167 HD
ATOM     70  C   UNL A   1      45.403  26.414  27.758  1.00  0.00     0.074 A 
ATOM     71  C   UNL A   1      45.370  25.057  27.258  1.00  0.00     0.031 C 
ATOM     72  C   UNL A   1      46.529  27.164  27.851  1.00  0.00     0.037 A 
BRANCH  59  73
ATOM     73  C   UNL A   1      45.572  32.895  29.909  1.00  0.00     0.064 A 
ATOM     74  C   UNL A   1      45.627  33.917  28.951  1.00  0.00     0.173 A 
ATOM     75  C   UNL A   1      46.012  33.188  31.209  1.00  0.00     0.173 A 
ATOM     76  F   UNL A   1      45.229  33.687  27.692  1.00  0.00    -0.203 F 
ATOM     77  C   UNL A   1      46.109  35.182  29.283  1.00  0.00     0.198 A 
ATOM     78  C   UNL A   1      46.465  34.460  31.545  1.00  0.00     0.198 A 
ATOM     79  F   UNL A   1      45.973  32.246  32.164  1.00  0.00    -0.203 F 
ATOM     80  F   UNL A   1      46.179  36.139  28.347  1.00  0.00    -0.200 F 
ATOM     81  C   UNL A   1      46.517  35.455  30.581  1.00  0.00     0.200 A 
ATOM     82  F   UNL A   1      46.841  34.727  32.804  1.00  0.00    -0.200 F 
ATOM     83  F   UNL A   1      46.957  36.680  30.904  1.00  0.00    -0.200 F 
ENDBRANCH  59  73
BRANCH  60  84
ATOM     84  C   UNL A   1      41.251  24.206  27.568  1.00  0.00     0.064 A 
ATOM     85  C   UNL A   1      40.322  24.174  26.517  1.00  0.00     0.173 A 
ATOM     86  C   UNL A   1      41.519  23.001  28.235  1.00  0.00     0.173 A 
ATOM     87  F   UNL A   1      40.013  25.303  25.863  1.00  0.00    -0.203 F 
ATOM     88  C   UNL A   1      39.660  22.995  26.178  1.00  0.00     0.198 A 
ATOM     89  C   UNL A   1      40.884  21.816  27.870  1.00  0.00     0.198 A 
ATOM     90  F   UNL A   1      42.399  22.973  29.247  1.00  0.00    -0.203 F 
ATOM     91  F   UNL A   1      38.725  23.008  25.218  1.00  0.00    -0.200 F 
ATOM     92  C   UNL A   1      39.944  21.816  26.851  1.00  0.00     0.200 A 
ATOM     93  F   UNL A   1      41.175  20.677  28.513  1.00  0.00    -0.200 F 
ATOM     94  F   UNL A   1      39.304  20.685  26.528  1.00  0.00    -0.200 F 
ENDBRANCH  60  84
BRANCH  72  95
ATOM     95  C   UNL A   1      47.826  26.521  27.448  1.00  0.00     0.064 A 
ATOM     96  C   UNL A   1      48.387  26.715  26.176  1.00  0.00     0.173 A 
ATOM     97  C   UNL A   1      48.538  25.729  28.362  1.00  0.00     0.173 A 
ATOM     98  F   UNL A   1      47.741  27.453  25.259  1.00  0.00    -0.203 F 
ATOM     99  C   UNL A   1      49.593  26.115  25.825  1.00  0.00     0.198 A 
ATOM    100  C   UNL A   1      49.762  25.160  28.020  1.00  0.00     0.198 A 
ATOM    101  F   UNL A   1      48.054  25.517  29.595  1.00  0.00    -0.203 F 
ATOM    102  F   UNL A   1      50.080  26.269  24.586  1.00  0.00    -0.200 F 
ATOM    103  C   UNL A   1      50.283  25.345  26.749  1.00  0.00     0.200 A 
ATOM    104  F   UNL A   1      50.436  24.432  28.921  1.00  0.00    -0.200 F 
ATOM    105  F   UNL A   1      51.448  24.775  26.412  1.00  0.00    -0.200 F 
ENDBRANCH  72  95
ENDBRANCH  46  47
ENDBRANCH  39  41
ENDBRANCH  38  39
ENDBRANCH  37  38
ENDBRANCH  36  37
ENDBRANCH  35  36
ENDBRANCH   1  35
TORSDOF 19
ENDMDL
