MODEL 1
REMARK VINA RESULT:     -11.7      0.000      0.000
REMARK SMILES O=C(OCCOCCOC(=O)[C@@H]1Cc2ccccc2CN1C(=O)COc1ccccc1)c1ccc(-c2c3nc(c(-c4c(F)c(F)c(F)c(F)c4F)c4ccc([nH]4)c(-c4c(F)c(F)c(F)c(F)c4F)c4nc(c(-c5c(F)c(F)c(F)c(F)c5F)c5ccc2[nH]5)C=C4)C=C3)cc1
REMARK SMILES IDX 7 1 6 2 5 3 4 4 3 5 2 6 1 7 32 8 33 9 94 10 34 11 93 12
REMARK SMILES IDX 35 13 36 14 37 15 87 16 38 17 92 18 86 19 88 20 39 21 91 22
REMARK SMILES IDX 85 23 84 24 40 26 72 27 52 28 71 29 53 30 56 31 70 32 89 33
REMARK SMILES IDX 54 34 55 35 69 37 90 38 57 39 41 40 42 41 50 42 43 43 44 44
REMARK SMILES IDX 48 45 51 46 45 47 46 48 49 49 47 50 73 51 74 52 82 53 75 54
REMARK SMILES IDX 76 55 80 56 83 57 77 58 78 59 81 60 79 61 58 62 59 63 67 64
REMARK SMILES IDX 60 65 61 66 65 67 68 68 62 69 63 70 66 71 64 72 8 73 9 74
REMARK SMILES IDX 10 75 11 76 12 77 13 78 21 79 14 80 20 81 15 82 19 83 16 84
REMARK SMILES IDX 18 85 17 86 22 87 23 88 24 89 25 90 26 91 27 92 31 93 28 94
REMARK SMILES IDX 30 95 29 96
REMARK H PARENT 88 25 56 36
REMARK Flexibility Score: inf
ROOT
ATOM      1  C   UNL A   1      30.275  29.718  22.730  1.00  0.00     0.202 C 
ENDROOT
BRANCH   1   2
ATOM      2  O   UNL A   1      30.279  30.015  24.133  1.00  0.00    -0.374 OA
BRANCH   2   3
ATOM      3  C   UNL A   1      31.429  29.601  24.879  1.00  0.00     0.202 C 
BRANCH   3   4
ATOM      4  C   UNL A   1      31.740  30.294  26.220  1.00  0.00     0.261 C 
BRANCH   4   5
ATOM      5  O   UNL A   1      33.163  30.482  26.420  1.00  0.00    -0.460 OA
BRANCH   5   6
ATOM      6  C   UNL A   1      33.790  31.357  27.251  1.00  0.00     0.338 C 
ATOM      7  O   UNL A   1      33.312  32.469  27.458  1.00  0.00    -0.246 OA
BRANCH   6   8
ATOM      8  C   UNL A   1      35.055  30.985  27.929  1.00  0.00     0.060 A 
ATOM      9  C   UNL A   1      35.261  29.703  28.406  1.00  0.00     0.016 A 
ATOM     10  C   UNL A   1      36.091  31.913  28.080  1.00  0.00     0.016 A 
ATOM     11  C   UNL A   1      36.328  29.366  29.179  1.00  0.00     0.010 A 
ATOM     12  C   UNL A   1      37.267  31.545  28.751  1.00  0.00     0.010 A 
ATOM     13  C   UNL A   1      37.366  30.268  29.314  1.00  0.00    -0.014 A 
BRANCH  13  14
ATOM     14  C   UNL A   1      38.464  29.768  30.141  1.00  0.00     0.031 A 
ATOM     15  C   UNL A   1      39.520  28.957  29.474  1.00  0.00     0.074 A 
ATOM     16  C   UNL A   1      38.632  30.330  31.355  1.00  0.00     0.049 A 
ATOM     17  N   UNL A   1      40.588  28.423  29.990  1.00  0.00    -0.248 NA
ATOM     18  C   UNL A   1      39.374  28.739  28.021  1.00  0.00     0.031 C 
ATOM     19  C   UNL A   1      37.732  31.330  31.952  1.00  0.00     0.029 A 
ATOM     20  N   UNL A   1      39.652  30.234  32.256  1.00  0.00    -0.354 N 
ATOM     21  C   UNL A   1      41.200  27.743  28.949  1.00  0.00     0.074 A 
ATOM     22  C   UNL A   1      40.421  27.973  27.756  1.00  0.00     0.031 C 
ATOM     23  C   UNL A   1      38.278  31.800  33.081  1.00  0.00     0.029 A 
ATOM     24  C   UNL A   1      39.485  31.040  33.358  1.00  0.00     0.049 A 
ATOM     25  H   UNL A   1      40.431  29.645  32.132  1.00  0.00     0.167 HD
ATOM     26  C   UNL A   1      42.299  26.962  29.028  1.00  0.00     0.037 A 
ATOM     27  C   UNL A   1      40.203  31.089  34.493  1.00  0.00     0.037 A 
ATOM     28  C   UNL A   1      43.037  26.800  30.249  1.00  0.00     0.049 A 
ATOM     29  C   UNL A   1      41.363  30.140  34.586  1.00  0.00     0.074 A 
ATOM     30  C   UNL A   1      44.097  25.960  30.523  1.00  0.00     0.029 A 
ATOM     31  N   UNL A   1      42.779  27.521  31.412  1.00  0.00    -0.354 N 
ATOM     32  N   UNL A   1      41.859  29.353  33.658  1.00  0.00    -0.248 NA
ATOM     33  C   UNL A   1      42.034  30.040  35.884  1.00  0.00     0.031 C 
ATOM     34  C   UNL A   1      44.454  26.146  31.863  1.00  0.00     0.029 A 
ATOM     35  C   UNL A   1      43.647  27.135  32.413  1.00  0.00     0.049 A 
ATOM     36  H   UNL A   1      42.080  28.209  31.505  1.00  0.00     0.167 HD
ATOM     37  C   UNL A   1      42.887  28.652  34.259  1.00  0.00     0.074 A 
ATOM     38  C   UNL A   1      42.974  29.141  35.623  1.00  0.00     0.031 C 
ATOM     39  C   UNL A   1      43.677  27.673  33.750  1.00  0.00     0.037 A 
BRANCH  26  40
ATOM     40  C   UNL A   1      42.652  26.155  27.819  1.00  0.00     0.064 A 
ATOM     41  C   UNL A   1      42.067  24.911  27.543  1.00  0.00     0.173 A 
ATOM     42  C   UNL A   1      43.639  26.627  26.938  1.00  0.00     0.173 A 
ATOM     43  F   UNL A   1      41.152  24.395  28.378  1.00  0.00    -0.203 F 
ATOM     44  C   UNL A   1      42.467  24.164  26.435  1.00  0.00     0.198 A 
ATOM     45  C   UNL A   1      44.019  25.888  25.822  1.00  0.00     0.198 A 
ATOM     46  F   UNL A   1      44.246  27.799  27.172  1.00  0.00    -0.203 F 
ATOM     47  F   UNL A   1      41.930  22.955  26.216  1.00  0.00    -0.200 F 
ATOM     48  C   UNL A   1      43.437  24.655  25.574  1.00  0.00     0.200 A 
ATOM     49  F   UNL A   1      44.963  26.363  24.997  1.00  0.00    -0.200 F 
ATOM     50  F   UNL A   1      43.823  23.933  24.513  1.00  0.00    -0.200 F 
ENDBRANCH  26  40
BRANCH  27  51
ATOM     51  C   UNL A   1      39.765  31.937  35.637  1.00  0.00     0.064 A 
ATOM     52  C   UNL A   1      38.738  31.537  36.501  1.00  0.00     0.173 A 
ATOM     53  C   UNL A   1      40.359  33.189  35.881  1.00  0.00     0.173 A 
ATOM     54  F   UNL A   1      38.116  30.365  36.306  1.00  0.00    -0.203 F 
ATOM     55  C   UNL A   1      38.314  32.357  37.549  1.00  0.00     0.198 A 
ATOM     56  C   UNL A   1      39.964  33.988  36.951  1.00  0.00     0.198 A 
ATOM     57  F   UNL A   1      41.341  33.637  35.084  1.00  0.00    -0.203 F 
ATOM     58  F   UNL A   1      37.293  31.972  38.327  1.00  0.00    -0.200 F 
ATOM     59  C   UNL A   1      38.932  33.577  37.778  1.00  0.00     0.200 A 
ATOM     60  F   UNL A   1      40.580  35.156  37.175  1.00  0.00    -0.200 F 
ATOM     61  F   UNL A   1      38.528  34.361  38.786  1.00  0.00    -0.200 F 
ENDBRANCH  27  51
BRANCH  39  62
ATOM     62  C   UNL A   1      44.695  27.101  34.682  1.00  0.00     0.064 A 
ATOM     63  C   UNL A   1      45.960  27.687  34.824  1.00  0.00     0.173 A 
ATOM     64  C   UNL A   1      44.381  25.983  35.465  1.00  0.00     0.173 A 
ATOM     65  F   UNL A   1      46.301  28.746  34.076  1.00  0.00    -0.203 F 
ATOM     66  C   UNL A   1      46.888  27.157  35.711  1.00  0.00     0.198 A 
ATOM     67  C   UNL A   1      45.302  25.474  36.372  1.00  0.00     0.198 A 
ATOM     68  F   UNL A   1      43.178  25.398  35.360  1.00  0.00    -0.203 F 
ATOM     69  F   UNL A   1      48.108  27.702  35.804  1.00  0.00    -0.200 F 
ATOM     70  C   UNL A   1      46.556  26.057  36.489  1.00  0.00     0.200 A 
ATOM     71  F   UNL A   1      44.978  24.419  37.132  1.00  0.00    -0.200 F 
ATOM     72  F   UNL A   1      47.449  25.552  37.351  1.00  0.00    -0.200 F 
ENDBRANCH  39  62
ENDBRANCH  13  14
ENDBRANCH   6   8
ENDBRANCH   5   6
ENDBRANCH   4   5
ENDBRANCH   3   4
ENDBRANCH   2   3
ENDBRANCH   1   2
BRANCH   1  73
ATOM     73  C   UNL A   1      29.463  28.462  22.405  1.00  0.00     0.261 C 
BRANCH  73  74
ATOM     74  O   UNL A   1      30.301  27.304  22.561  1.00  0.00    -0.462 OA
BRANCH  74  75
ATOM     75  C   UNL A   1      29.873  26.447  23.523  1.00  0.00     0.329 C 
ATOM     76  O   UNL A   1      28.700  26.343  23.873  1.00  0.00    -0.250 OA
BRANCH  75  77
ATOM     77  C   UNL A   1      30.970  25.463  23.970  1.00  0.00     0.200 C 
ATOM     78  C   UNL A   1      30.557  24.138  23.271  1.00  0.00     0.073 C 
ATOM     79  N   UNL A   1      31.255  25.340  25.434  1.00  0.00    -0.321 N 
ATOM     80  C   UNL A   1      31.337  22.976  23.788  1.00  0.00    -0.040 A 
ATOM     81  C   UNL A   1      30.975  24.029  26.022  1.00  0.00     0.156 C 
ATOM     82  C   UNL A   1      31.778  21.949  22.952  1.00  0.00     0.004 A 
ATOM     83  C   UNL A   1      31.570  22.931  25.170  1.00  0.00    -0.025 A 
ATOM     84  C   UNL A   1      32.496  20.888  23.493  1.00  0.00     0.000 A 
ATOM     85  C   UNL A   1      32.303  21.871  25.702  1.00  0.00     0.006 A 
ATOM     86  C   UNL A   1      32.768  20.856  24.862  1.00  0.00     0.000 A 
BRANCH  79  87
ATOM     87  C   UNL A   1      31.897  26.252  26.270  1.00  0.00     0.261 C 
ATOM     88  O   UNL A   1      31.271  26.824  27.173  1.00  0.00    -0.271 OA
BRANCH  87  89
ATOM     89  C   UNL A   1      33.388  26.598  26.126  1.00  0.00     0.329 C 
BRANCH  89  90
ATOM     90  O   UNL A   1      34.023  26.360  24.883  1.00  0.00    -0.484 OA
BRANCH  90  91
ATOM     91  C   UNL A   1      34.498  25.100  24.669  1.00  0.00     0.120 A 
ATOM     92  C   UNL A   1      35.103  24.453  25.751  1.00  0.00     0.046 A 
ATOM     93  C   UNL A   1      34.541  24.517  23.408  1.00  0.00     0.046 A 
ATOM     94  C   UNL A   1      35.782  23.250  25.570  1.00  0.00     0.004 A 
ATOM     95  C   UNL A   1      35.208  23.303  23.228  1.00  0.00     0.004 A 
ATOM     96  C   UNL A   1      35.841  22.679  24.303  1.00  0.00     0.000 A 
ENDBRANCH  90  91
ENDBRANCH  89  90
ENDBRANCH  87  89
ENDBRANCH  79  87
ENDBRANCH  75  77
ENDBRANCH  74  75
ENDBRANCH  73  74
ENDBRANCH   1  73
TORSDOF 18
ENDMDL
MODEL 2
REMARK VINA RESULT:     -11.4      1.713      3.278
REMARK SMILES O=C(OCCOCCOC(=O)[C@@H]1Cc2ccccc2CN1C(=O)COc1ccccc1)c1ccc(-c2c3nc(c(-c4c(F)c(F)c(F)c(F)c4F)c4ccc([nH]4)c(-c4c(F)c(F)c(F)c(F)c4F)c4nc(c(-c5c(F)c(F)c(F)c(F)c5F)c5ccc2[nH]5)C=C4)C=C3)cc1
REMARK SMILES IDX 7 1 6 2 5 3 4 4 3 5 2 6 1 7 32 8 33 9 94 10 34 11 93 12
REMARK SMILES IDX 35 13 36 14 37 15 87 16 38 17 92 18 86 19 88 20 39 21 91 22
REMARK SMILES IDX 85 23 84 24 40 26 72 27 52 28 71 29 53 30 56 31 70 32 89 33
REMARK SMILES IDX 54 34 55 35 69 37 90 38 57 39 41 40 42 41 50 42 43 43 44 44
REMARK SMILES IDX 48 45 51 46 45 47 46 48 49 49 47 50 73 51 74 52 82 53 75 54
REMARK SMILES IDX 76 55 80 56 83 57 77 58 78 59 81 60 79 61 58 62 59 63 67 64
REMARK SMILES IDX 60 65 61 66 65 67 68 68 62 69 63 70 66 71 64 72 8 73 9 74
REMARK SMILES IDX 10 75 11 76 12 77 13 78 21 79 14 80 20 81 15 82 19 83 16 84
REMARK SMILES IDX 18 85 17 86 22 87 23 88 24 89 25 90 26 91 27 92 31 93 28 94
REMARK SMILES IDX 30 95 29 96
REMARK H PARENT 88 25 56 36
REMARK Flexibility Score: inf
ROOT
ATOM      1  C   UNL A   1      33.288  27.934  24.671  1.00  0.00     0.202 C 
ENDROOT
BRANCH   1   2
ATOM      2  O   UNL A   1      32.566  29.065  24.166  1.00  0.00    -0.374 OA
BRANCH   2   3
ATOM      3  C   UNL A   1      31.465  29.533  24.953  1.00  0.00     0.202 C 
BRANCH   3   4
ATOM      4  C   UNL A   1      31.724  30.580  26.054  1.00  0.00     0.261 C 
BRANCH   4   5
ATOM      5  O   UNL A   1      33.111  30.600  26.473  1.00  0.00    -0.460 OA
BRANCH   5   6
ATOM      6  C   UNL A   1      33.728  31.479  27.308  1.00  0.00     0.338 C 
ATOM      7  O   UNL A   1      33.238  32.585  27.518  1.00  0.00    -0.246 OA
BRANCH   6   8
ATOM      8  C   UNL A   1      34.996  31.117  27.987  1.00  0.00     0.060 A 
ATOM      9  C   UNL A   1      35.212  29.838  28.466  1.00  0.00     0.016 A 
ATOM     10  C   UNL A   1      36.025  32.054  28.135  1.00  0.00     0.016 A 
ATOM     11  C   UNL A   1      36.281  29.510  29.240  1.00  0.00     0.010 A 
ATOM     12  C   UNL A   1      37.204  31.695  28.807  1.00  0.00     0.010 A 
ATOM     13  C   UNL A   1      37.312  30.420  29.372  1.00  0.00    -0.014 A 
BRANCH  13  14
ATOM     14  C   UNL A   1      38.414  29.930  30.200  1.00  0.00     0.031 A 
ATOM     15  C   UNL A   1      39.503  29.171  29.525  1.00  0.00     0.074 A 
ATOM     16  C   UNL A   1      38.549  30.461  31.432  1.00  0.00     0.049 A 
ATOM     17  N   UNL A   1      40.580  28.655  30.041  1.00  0.00    -0.248 NA
ATOM     18  C   UNL A   1      39.383  28.991  28.065  1.00  0.00     0.031 C 
ATOM     19  C   UNL A   1      37.611  31.417  32.044  1.00  0.00     0.029 A 
ATOM     20  N   UNL A   1      39.559  30.371  32.344  1.00  0.00    -0.354 N 
ATOM     21  C   UNL A   1      41.226  28.024  28.990  1.00  0.00     0.074 A 
ATOM     22  C   UNL A   1      40.457  28.265  27.793  1.00  0.00     0.031 C 
ATOM     23  C   UNL A   1      38.126  31.870  33.194  1.00  0.00     0.029 A 
ATOM     24  C   UNL A   1      39.353  31.139  33.466  1.00  0.00     0.049 A 
ATOM     25  H   UNL A   1      40.357  29.810  32.214  1.00  0.00     0.167 HD
ATOM     26  C   UNL A   1      42.347  27.275  29.062  1.00  0.00     0.037 A 
ATOM     27  C   UNL A   1      40.053  31.177  34.612  1.00  0.00     0.037 A 
ATOM     28  C   UNL A   1      43.074  27.100  30.288  1.00  0.00     0.049 A 
ATOM     29  C   UNL A   1      41.241  30.261  34.695  1.00  0.00     0.074 A 
ATOM     30  C   UNL A   1      44.155  26.286  30.553  1.00  0.00     0.029 A 
ATOM     31  N   UNL A   1      42.778  27.780  31.467  1.00  0.00    -0.354 N 
ATOM     32  N   UNL A   1      41.773  29.517  33.752  1.00  0.00    -0.248 NA
ATOM     33  C   UNL A   1      41.897  30.145  35.999  1.00  0.00     0.031 C 
ATOM     34  C   UNL A   1      44.489  26.443  31.903  1.00  0.00     0.029 A 
ATOM     35  C   UNL A   1      43.645  27.391  32.469  1.00  0.00     0.049 A 
ATOM     36  H   UNL A   1      42.057  28.443  31.570  1.00  0.00     0.167 HD
ATOM     37  C   UNL A   1      42.814  28.830  34.347  1.00  0.00     0.074 A 
ATOM     38  C   UNL A   1      42.868  29.282  35.725  1.00  0.00     0.031 C 
ATOM     39  C   UNL A   1      43.641  27.891  33.821  1.00  0.00     0.037 A 
BRANCH  26  40
ATOM     40  C   UNL A   1      42.742  26.515  27.836  1.00  0.00     0.064 A 
ATOM     41  C   UNL A   1      42.300  25.208  27.582  1.00  0.00     0.173 A 
ATOM     42  C   UNL A   1      43.623  27.101  26.913  1.00  0.00     0.173 A 
ATOM     43  F   UNL A   1      41.493  24.587  28.455  1.00  0.00    -0.203 F 
ATOM     44  C   UNL A   1      42.737  24.513  26.455  1.00  0.00     0.198 A 
ATOM     45  C   UNL A   1      44.040  26.412  25.779  1.00  0.00     0.198 A 
ATOM     46  F   UNL A   1      44.094  28.339  27.123  1.00  0.00    -0.203 F 
ATOM     47  F   UNL A   1      42.342  23.248  26.256  1.00  0.00    -0.200 F 
ATOM     48  C   UNL A   1      43.601  25.117  25.553  1.00  0.00     0.200 A 
ATOM     49  F   UNL A   1      44.880  26.996  24.913  1.00  0.00    -0.200 F 
ATOM     50  F   UNL A   1      44.024  24.444  24.473  1.00  0.00    -0.200 F 
ENDBRANCH  26  40
BRANCH  27  51
ATOM     51  C   UNL A   1      39.575  31.978  35.773  1.00  0.00     0.064 A 
ATOM     52  C   UNL A   1      38.571  31.508  36.630  1.00  0.00     0.173 A 
ATOM     53  C   UNL A   1      40.104  33.253  36.043  1.00  0.00     0.173 A 
ATOM     54  F   UNL A   1      38.010  30.309  36.412  1.00  0.00    -0.203 F 
ATOM     55  C   UNL A   1      38.108  32.284  37.695  1.00  0.00     0.198 A 
ATOM     56  C   UNL A   1      39.670  34.009  37.129  1.00  0.00     0.198 A 
ATOM     57  F   UNL A   1      41.059  33.768  35.254  1.00  0.00    -0.203 F 
ATOM     58  F   UNL A   1      37.110  31.831  38.466  1.00  0.00    -0.200 F 
ATOM     59  C   UNL A   1      38.663  33.529  37.948  1.00  0.00     0.200 A 
ATOM     60  F   UNL A   1      40.225  35.203  37.376  1.00  0.00    -0.200 F 
ATOM     61  F   UNL A   1      38.220  34.271  38.973  1.00  0.00    -0.200 F 
ENDBRANCH  27  51
BRANCH  39  62
ATOM     62  C   UNL A   1      44.663  27.323  34.751  1.00  0.00     0.064 A 
ATOM     63  C   UNL A   1      44.394  26.177  35.512  1.00  0.00     0.173 A 
ATOM     64  C   UNL A   1      45.931  27.909  34.846  1.00  0.00     0.173 A 
ATOM     65  F   UNL A   1      43.184  25.601  35.461  1.00  0.00    -0.203 F 
ATOM     66  C   UNL A   1      45.362  25.647  36.356  1.00  0.00     0.198 A 
ATOM     67  C   UNL A   1      46.905  27.359  35.669  1.00  0.00     0.198 A 
ATOM     68  F   UNL A   1      46.226  29.005  34.129  1.00  0.00    -0.203 F 
ATOM     69  F   UNL A   1      45.076  24.578  37.110  1.00  0.00    -0.200 F 
ATOM     70  C   UNL A   1      46.618  26.234  36.428  1.00  0.00     0.200 A 
ATOM     71  F   UNL A   1      48.121  27.918  35.730  1.00  0.00    -0.200 F 
ATOM     72  F   UNL A   1      47.553  25.716  37.236  1.00  0.00    -0.200 F 
ENDBRANCH  39  62
ENDBRANCH  13  14
ENDBRANCH   6   8
ENDBRANCH   5   6
ENDBRANCH   4   5
ENDBRANCH   3   4
ENDBRANCH   2   3
ENDBRANCH   1   2
BRANCH   1  73
ATOM     73  C   UNL A   1      33.035  26.669  23.849  1.00  0.00     0.261 C 
BRANCH  73  74
ATOM     74  O   UNL A   1      33.947  25.640  24.271  1.00  0.00    -0.462 OA
BRANCH  74  75
ATOM     75  C   UNL A   1      33.391  24.732  25.114  1.00  0.00     0.329 C 
ATOM     76  O   UNL A   1      32.180  24.576  25.249  1.00  0.00    -0.250 OA
BRANCH  75  77
ATOM     77  C   UNL A   1      34.431  23.768  25.713  1.00  0.00     0.200 C 
ATOM     78  C   UNL A   1      35.780  24.479  25.416  1.00  0.00     0.073 C 
ATOM     79  N   UNL A   1      34.376  22.328  25.306  1.00  0.00    -0.321 N 
ATOM     80  C   UNL A   1      36.945  23.583  25.674  1.00  0.00    -0.040 A 
ATOM     81  C   UNL A   1      35.542  21.837  24.571  1.00  0.00     0.156 C 
ATOM     82  C   UNL A   1      38.129  24.053  26.244  1.00  0.00     0.004 A 
ATOM     83  C   UNL A   1      36.819  22.246  25.271  1.00  0.00    -0.025 A 
ATOM     84  C   UNL A   1      39.183  23.170  26.454  1.00  0.00     0.000 A 
ATOM     85  C   UNL A   1      37.875  21.365  25.499  1.00  0.00     0.006 A 
ATOM     86  C   UNL A   1      39.051  21.828  26.094  1.00  0.00     0.000 A 
BRANCH  79  87
ATOM     87  C   UNL A   1      33.442  21.361  25.673  1.00  0.00     0.261 C 
ATOM     88  O   UNL A   1      33.278  21.067  26.865  1.00  0.00    -0.271 OA
BRANCH  87  89
ATOM     89  C   UNL A   1      32.578  20.614  24.644  1.00  0.00     0.329 C 
BRANCH  89  90
ATOM     90  O   UNL A   1      31.964  19.396  25.029  1.00  0.00    -0.484 OA
BRANCH  90  91
ATOM     91  C   UNL A   1      32.599  18.247  24.660  1.00  0.00     0.120 A 
ATOM     92  C   UNL A   1      32.845  17.305  25.663  1.00  0.00     0.046 A 
ATOM     93  C   UNL A   1      33.133  18.057  23.392  1.00  0.00     0.046 A 
ATOM     94  C   UNL A   1      33.654  16.197  25.415  1.00  0.00     0.004 A 
ATOM     95  C   UNL A   1      33.931  16.939  23.137  1.00  0.00     0.004 A 
ATOM     96  C   UNL A   1      34.204  16.019  24.150  1.00  0.00     0.000 A 
ENDBRANCH  90  91
ENDBRANCH  89  90
ENDBRANCH  87  89
ENDBRANCH  79  87
ENDBRANCH  75  77
ENDBRANCH  74  75
ENDBRANCH  73  74
ENDBRANCH   1  73
TORSDOF 18
ENDMDL
MODEL 3
REMARK VINA RESULT:     -11.4      1.701      7.825
REMARK SMILES O=C(OCCOCCOC(=O)[C@@H]1Cc2ccccc2CN1C(=O)COc1ccccc1)c1ccc(-c2c3nc(c(-c4c(F)c(F)c(F)c(F)c4F)c4ccc([nH]4)c(-c4c(F)c(F)c(F)c(F)c4F)c4nc(c(-c5c(F)c(F)c(F)c(F)c5F)c5ccc2[nH]5)C=C4)C=C3)cc1
REMARK SMILES IDX 7 1 6 2 5 3 4 4 3 5 2 6 1 7 32 8 33 9 94 10 34 11 93 12
REMARK SMILES IDX 35 13 36 14 37 15 87 16 38 17 92 18 86 19 88 20 39 21 91 22
REMARK SMILES IDX 85 23 84 24 40 26 72 27 52 28 71 29 53 30 56 31 70 32 89 33
REMARK SMILES IDX 54 34 55 35 69 37 90 38 57 39 41 40 42 41 50 42 43 43 44 44
REMARK SMILES IDX 48 45 51 46 45 47 46 48 49 49 47 50 73 51 74 52 82 53 75 54
REMARK SMILES IDX 76 55 80 56 83 57 77 58 78 59 81 60 79 61 58 62 59 63 67 64
REMARK SMILES IDX 60 65 61 66 65 67 68 68 62 69 63 70 66 71 64 72 8 73 9 74
REMARK SMILES IDX 10 75 11 76 12 77 13 78 21 79 14 80 20 81 15 82 19 83 16 84
REMARK SMILES IDX 18 85 17 86 22 87 23 88 24 89 25 90 26 91 27 92 31 93 28 94
REMARK SMILES IDX 30 95 29 96
REMARK H PARENT 88 25 56 36
REMARK Flexibility Score: inf
ROOT
ATOM      1  C   UNL A   1      33.727  28.188  23.447  1.00  0.00     0.202 C 
ENDROOT
BRANCH   1   2
ATOM      2  O   UNL A   1      33.390  29.203  24.401  1.00  0.00    -0.374 OA
BRANCH   2   3
ATOM      3  C   UNL A   1      32.018  29.284  24.802  1.00  0.00     0.202 C 
BRANCH   3   4
ATOM      4  C   UNL A   1      31.623  30.264  25.924  1.00  0.00     0.261 C 
BRANCH   4   5
ATOM      5  O   UNL A   1      32.601  30.294  26.992  1.00  0.00    -0.460 OA
BRANCH   5   6
ATOM      6  C   UNL A   1      33.407  31.322  27.370  1.00  0.00     0.338 C 
ATOM      7  O   UNL A   1      33.016  32.483  27.283  1.00  0.00    -0.246 OA
BRANCH   6   8
ATOM      8  C   UNL A   1      34.768  31.063  27.900  1.00  0.00     0.060 A 
ATOM      9  C   UNL A   1      35.136  29.806  28.345  1.00  0.00     0.016 A 
ATOM     10  C   UNL A   1      35.731  32.079  27.937  1.00  0.00     0.016 A 
ATOM     11  C   UNL A   1      36.308  29.566  28.992  1.00  0.00     0.010 A 
ATOM     12  C   UNL A   1      37.002  31.816  28.470  1.00  0.00     0.010 A 
ATOM     13  C   UNL A   1      37.273  30.555  29.013  1.00  0.00    -0.014 A 
BRANCH  13  14
ATOM     14  C   UNL A   1      38.496  30.156  29.709  1.00  0.00     0.031 A 
ATOM     15  C   UNL A   1      38.640  30.552  31.138  1.00  0.00     0.074 A 
ATOM     16  C   UNL A   1      39.252  29.198  29.137  1.00  0.00     0.049 A 
ATOM     17  N   UNL A   1      39.618  30.305  31.960  1.00  0.00    -0.248 NA
ATOM     18  C   UNL A   1      37.521  31.305  31.736  1.00  0.00     0.031 C 
ATOM     19  C   UNL A   1      38.995  28.599  27.817  1.00  0.00     0.029 A 
ATOM     20  N   UNL A   1      40.310  28.482  29.616  1.00  0.00    -0.354 N 
ATOM     21  C   UNL A   1      39.271  30.933  33.145  1.00  0.00     0.074 A 
ATOM     22  C   UNL A   1      37.969  31.528  32.962  1.00  0.00     0.031 C 
ATOM     23  C   UNL A   1      39.828  27.568  27.627  1.00  0.00     0.029 A 
ATOM     24  C   UNL A   1      40.761  27.522  28.741  1.00  0.00     0.049 A 
ATOM     25  H   UNL A   1      40.713  28.638  30.500  1.00  0.00     0.167 HD
ATOM     26  C   UNL A   1      40.023  31.023  34.262  1.00  0.00     0.037 A 
ATOM     27  C   UNL A   1      41.858  26.748  28.817  1.00  0.00     0.037 A 
ATOM     28  C   UNL A   1      41.303  30.383  34.379  1.00  0.00     0.049 A 
ATOM     29  C   UNL A   1      42.723  26.942  30.030  1.00  0.00     0.074 A 
ATOM     30  C   UNL A   1      42.234  30.471  35.392  1.00  0.00     0.029 A 
ATOM     31  N   UNL A   1      41.822  29.512  33.424  1.00  0.00    -0.354 N 
ATOM     32  N   UNL A   1      42.492  27.672  31.097  1.00  0.00    -0.248 NA
ATOM     33  C   UNL A   1      44.016  26.255  30.036  1.00  0.00     0.031 C 
ATOM     34  C   UNL A   1      43.334  29.684  35.032  1.00  0.00     0.029 A 
ATOM     35  C   UNL A   1      43.070  29.068  33.815  1.00  0.00     0.049 A 
ATOM     36  H   UNL A   1      41.365  29.249  32.592  1.00  0.00     0.167 HD
ATOM     37  C   UNL A   1      43.614  27.549  31.896  1.00  0.00     0.074 A 
ATOM     38  C   UNL A   1      44.507  26.635  31.208  1.00  0.00     0.031 C 
ATOM     39  C   UNL A   1      43.902  28.150  33.077  1.00  0.00     0.037 A 
BRANCH  26  40
ATOM     40  C   UNL A   1      39.534  31.935  35.343  1.00  0.00     0.064 A 
ATOM     41  C   UNL A   1      38.627  31.520  36.329  1.00  0.00     0.173 A 
ATOM     42  C   UNL A   1      39.957  33.274  35.361  1.00  0.00     0.173 A 
ATOM     43  F   UNL A   1      38.158  30.264  36.330  1.00  0.00    -0.203 F 
ATOM     44  C   UNL A   1      38.153  32.418  37.285  1.00  0.00     0.198 A 
ATOM     45  C   UNL A   1      39.498  34.161  36.330  1.00  0.00     0.198 A 
ATOM     46  F   UNL A   1      40.804  33.726  34.425  1.00  0.00    -0.203 F 
ATOM     47  F   UNL A   1      37.249  32.014  38.190  1.00  0.00    -0.200 F 
ATOM     48  C   UNL A   1      38.592  33.734  37.288  1.00  0.00     0.200 A 
ATOM     49  F   UNL A   1      39.919  35.433  36.324  1.00  0.00    -0.200 F 
ATOM     50  F   UNL A   1      38.130  34.596  38.204  1.00  0.00    -0.200 F 
ENDBRANCH  26  40
BRANCH  27  51
ATOM     51  C   UNL A   1      42.250  25.866  27.683  1.00  0.00     0.064 A 
ATOM     52  C   UNL A   1      43.087  26.315  26.654  1.00  0.00     0.173 A 
ATOM     53  C   UNL A   1      41.774  24.546  27.593  1.00  0.00     0.173 A 
ATOM     54  F   UNL A   1      43.555  27.573  26.672  1.00  0.00    -0.203 F 
ATOM     55  C   UNL A   1      43.420  25.488  25.579  1.00  0.00     0.198 A 
ATOM     56  C   UNL A   1      42.138  23.708  26.542  1.00  0.00     0.198 A 
ATOM     57  F   UNL A   1      40.957  24.057  28.539  1.00  0.00    -0.203 F 
ATOM     58  F   UNL A   1      44.181  25.962  24.583  1.00  0.00    -0.200 F 
ATOM     59  C   UNL A   1      42.952  24.184  25.528  1.00  0.00     0.200 A 
ATOM     60  F   UNL A   1      41.696  22.444  26.510  1.00  0.00    -0.200 F 
ATOM     61  F   UNL A   1      43.275  23.390  24.498  1.00  0.00    -0.200 F 
ENDBRANCH  27  51
BRANCH  39  62
ATOM     62  C   UNL A   1      45.226  27.812  33.679  1.00  0.00     0.064 A 
ATOM     63  C   UNL A   1      45.376  26.710  34.532  1.00  0.00     0.173 A 
ATOM     64  C   UNL A   1      46.358  28.575  33.364  1.00  0.00     0.173 A 
ATOM     65  F   UNL A   1      44.310  25.969  34.870  1.00  0.00    -0.203 F 
ATOM     66  C   UNL A   1      46.618  26.394  35.067  1.00  0.00     0.198 A 
ATOM     67  C   UNL A   1      47.603  28.238  33.879  1.00  0.00     0.198 A 
ATOM     68  F   UNL A   1      46.254  29.635  32.549  1.00  0.00    -0.203 F 
ATOM     69  F   UNL A   1      46.737  25.364  35.914  1.00  0.00    -0.200 F 
ATOM     70  C   UNL A   1      47.731  27.153  34.734  1.00  0.00     0.200 A 
ATOM     71  F   UNL A   1      48.681  28.964  33.548  1.00  0.00    -0.200 F 
ATOM     72  F   UNL A   1      48.930  26.841  35.243  1.00  0.00    -0.200 F 
ENDBRANCH  39  62
ENDBRANCH  13  14
ENDBRANCH   6   8
ENDBRANCH   5   6
ENDBRANCH   4   5
ENDBRANCH   3   4
ENDBRANCH   2   3
ENDBRANCH   1   2
BRANCH   1  73
ATOM     73  C   UNL A   1      32.614  27.151  23.284  1.00  0.00     0.261 C 
BRANCH  73  74
ATOM     74  O   UNL A   1      33.132  25.847  23.599  1.00  0.00    -0.462 OA
BRANCH  74  75
ATOM     75  C   UNL A   1      32.855  25.441  24.865  1.00  0.00     0.329 C 
ATOM     76  O   UNL A   1      31.923  25.880  25.535  1.00  0.00    -0.250 OA
BRANCH  75  77
ATOM     77  C   UNL A   1      33.689  24.219  25.290  1.00  0.00     0.200 C 
ATOM     78  C   UNL A   1      35.151  24.719  25.124  1.00  0.00     0.073 C 
ATOM     79  N   UNL A   1      33.396  22.903  24.640  1.00  0.00    -0.321 N 
ATOM     80  C   UNL A   1      36.131  23.598  25.226  1.00  0.00    -0.040 A 
ATOM     81  C   UNL A   1      34.482  22.344  23.834  1.00  0.00     0.156 C 
ATOM     82  C   UNL A   1      37.360  23.745  25.871  1.00  0.00     0.004 A 
ATOM     83  C   UNL A   1      35.786  22.394  24.597  1.00  0.00    -0.025 A 
ATOM     84  C   UNL A   1      38.235  22.666  25.928  1.00  0.00     0.000 A 
ATOM     85  C   UNL A   1      36.663  21.313  24.671  1.00  0.00     0.006 A 
ATOM     86  C   UNL A   1      37.882  21.450  25.340  1.00  0.00     0.000 A 
BRANCH  79  87
ATOM     87  C   UNL A   1      32.295  22.070  24.831  1.00  0.00     0.261 C 
ATOM     88  O   UNL A   1      31.296  22.481  25.438  1.00  0.00    -0.271 OA
BRANCH  87  89
ATOM     89  C   UNL A   1      32.253  20.623  24.315  1.00  0.00     0.329 C 
BRANCH  89  90
ATOM     90  O   UNL A   1      32.043  19.576  25.245  1.00  0.00    -0.484 OA
BRANCH  90  91
ATOM     91  C   UNL A   1      32.902  18.519  25.182  1.00  0.00     0.120 A 
ATOM     92  C   UNL A   1      34.153  18.747  24.601  1.00  0.00     0.046 A 
ATOM     93  C   UNL A   1      32.528  17.224  25.522  1.00  0.00     0.046 A 
ATOM     94  C   UNL A   1      35.011  17.685  24.322  1.00  0.00     0.004 A 
ATOM     95  C   UNL A   1      33.394  16.161  25.258  1.00  0.00     0.004 A 
ATOM     96  C   UNL A   1      34.626  16.388  24.645  1.00  0.00     0.000 A 
ENDBRANCH  90  91
ENDBRANCH  89  90
ENDBRANCH  87  89
ENDBRANCH  79  87
ENDBRANCH  75  77
ENDBRANCH  74  75
ENDBRANCH  73  74
ENDBRANCH   1  73
TORSDOF 18
ENDMDL
