MODEL 1
REMARK VINA RESULT:     -11.5      0.000      0.000
REMARK SMILES Cc1ccc(S(=O)(=O)n2cc(C(=O)C(=O)N[C@@H](Cc3cnc[nH]3)C(=O)OCCOCCOC(=O)c3ccc(-c4c5nc(c(-c6c(F)c(F)c(F)c(F)c6F)c6ccc([nH]6)c(-c6c(F)c(F)c(F)c(F)c6F)c6nc(c(-c7c(F)c(F)c(F)c(F)c7F)c7ccc4[nH]7)C=C6)C=C5)cc3)c3ccccc32)cc1
REMARK SMILES IDX 27 1 26 2 24 3 25 4 17 5 16 6 14 7 15 8 12 10 13 11 11 12
REMARK SMILES IDX 9 13 10 14 103 15 98 16 102 17 99 18 101 19 100 20 6 21 7 22
REMARK SMILES IDX 8 23 5 24 1 25 2 26 3 27 105 28 4 29 104 30 18 31 19 32
REMARK SMILES IDX 20 33 23 34 21 35 22 36 28 38 29 39 30 40 31 41 32 42 33 43
REMARK SMILES IDX 34 44 35 45 36 46 97 47 37 48 96 49 38 50 39 51 40 52 90 53
REMARK SMILES IDX 41 54 95 55 89 56 91 57 42 58 94 59 88 60 87 61 43 63 75 64
REMARK SMILES IDX 55 65 74 66 56 67 59 68 73 69 92 70 57 71 58 72 72 74 93 75
REMARK SMILES IDX 60 76 44 77 45 78 53 79 46 80 47 81 51 82 54 83 48 84 49 85
REMARK SMILES IDX 52 86 50 87 76 88 77 89 85 90 78 91 79 92 83 93 86 94 80 95
REMARK SMILES IDX 81 96 84 97 82 98 61 99 62 100 70 101 63 102 64 103 68 104
REMARK SMILES IDX 71 105 65 106 66 107 69 108 67 109
REMARK H PARENT 16 9 23 37 91 62 59 73
REMARK Flexibility Score: inf
ROOT
ATOM      1  C   UNL A   1      46.742  20.451  35.693  1.00  0.00     0.261 C 
ENDROOT
BRANCH   1   2
ATOM      2  O   UNL A   1      47.296  20.403  37.001  1.00  0.00    -0.462 OA
BRANCH   2   3
ATOM      3  C   UNL A   1      46.529  19.691  37.890  1.00  0.00     0.329 C 
ATOM      4  O   UNL A   1      45.685  18.863  37.576  1.00  0.00    -0.250 OA
BRANCH   3   5
ATOM      5  C   UNL A   1      46.758  20.220  39.299  1.00  0.00     0.198 C 
BRANCH   5   6
ATOM      6  N   UNL A   1      47.429  19.164  40.082  1.00  0.00    -0.335 N 
ATOM      7  C   UNL A   1      46.875  18.287  40.975  1.00  0.00     0.293 C 
ATOM      8  O   UNL A   1      47.477  17.283  41.334  1.00  0.00    -0.265 OA
ATOM      9  H   UNL A   1      48.400  19.078  39.944  1.00  0.00     0.164 HD
BRANCH   7  10
ATOM     10  C   UNL A   1      45.478  18.577  41.513  1.00  0.00     0.252 C 
ATOM     11  O   UNL A   1      45.092  19.742  41.497  1.00  0.00    -0.283 OA
BRANCH  10  12
ATOM     12  C   UNL A   1      44.659  17.490  42.027  1.00  0.00     0.054 A 
ATOM     13  N   UNL A   1      43.752  15.981  43.387  1.00  0.00    -0.240 N 
ATOM     14  C   UNL A   1      44.550  17.093  43.345  1.00  0.00     0.117 A 
ATOM     15  C   UNL A   1      43.284  15.657  42.130  1.00  0.00     0.065 A 
ATOM     16  C   UNL A   1      43.840  16.603  41.258  1.00  0.00     0.012 A 
ATOM     17  C   UNL A   1      42.472  14.612  41.657  1.00  0.00     0.028 A 
ATOM     18  C   UNL A   1      43.544  16.521  39.882  1.00  0.00     0.011 A 
ATOM     19  C   UNL A   1      42.223  14.538  40.283  1.00  0.00     0.002 A 
ATOM     20  C   UNL A   1      42.741  15.484  39.406  1.00  0.00     0.001 A 
BRANCH  13  21
ATOM     21  S   UNL A   1      43.529  15.044  44.790  1.00  0.00     0.268 S 
ATOM     22  O   UNL A   1      42.166  14.571  44.721  1.00  0.00    -0.201 OA
ATOM     23  O   UNL A   1      44.007  15.869  45.892  1.00  0.00    -0.201 OA
BRANCH  21  24
ATOM     24  C   UNL A   1      44.608  13.642  44.680  1.00  0.00     0.088 A 
ATOM     25  C   UNL A   1      46.939  10.085  44.054  1.00  0.00     0.044 C 
ATOM     26  C   UNL A   1      46.140  11.329  44.310  1.00  0.00    -0.051 A 
ATOM     27  C   UNL A   1      44.777  11.231  44.614  1.00  0.00     0.005 A 
ATOM     28  C   UNL A   1      46.737  12.593  44.239  1.00  0.00     0.005 A 
ATOM     29  C   UNL A   1      44.010  12.382  44.794  1.00  0.00     0.022 A 
ATOM     30  C   UNL A   1      45.979  13.750  44.437  1.00  0.00     0.022 A 
ENDBRANCH  21  24
ENDBRANCH  13  21
ENDBRANCH  10  12
ENDBRANCH   7  10
ENDBRANCH   5   6
BRANCH   5  31
ATOM     31  C   UNL A   1      47.594  21.504  39.211  1.00  0.00     0.092 C 
BRANCH  31  32
ATOM     32  C   UNL A   1      46.780  22.740  39.403  1.00  0.00     0.037 A 
ATOM     33  C   UNL A   1      47.165  24.052  39.586  1.00  0.00     0.134 A 
ATOM     34  N   UNL A   1      45.411  22.783  39.343  1.00  0.00    -0.348 N 
ATOM     35  N   UNL A   1      46.078  24.873  39.646  1.00  0.00    -0.245 NA
ATOM     36  C   UNL A   1      45.041  24.082  39.533  1.00  0.00     0.196 A 
ATOM     37  H   UNL A   1      44.808  22.020  39.191  1.00  0.00     0.167 HD
ENDBRANCH  31  32
ENDBRANCH   5  31
ENDBRANCH   3   5
ENDBRANCH   2   3
ENDBRANCH   1   2
BRANCH   1  38
ATOM     38  C   UNL A   1      46.618  21.852  35.202  1.00  0.00     0.202 C 
BRANCH  38  39
ATOM     39  O   UNL A   1      45.821  22.544  36.139  1.00  0.00    -0.374 OA
BRANCH  39  40
ATOM     40  C   UNL A   1      45.390  23.815  35.669  1.00  0.00     0.202 C 
BRANCH  40  41
ATOM     41  C   UNL A   1      46.477  24.634  34.940  1.00  0.00     0.261 C 
BRANCH  41  42
ATOM     42  O   UNL A   1      46.069  24.865  33.574  1.00  0.00    -0.460 OA
BRANCH  42  43
ATOM     43  C   UNL A   1      44.730  24.882  33.315  1.00  0.00     0.338 C 
ATOM     44  O   UNL A   1      44.153  24.188  32.496  1.00  0.00    -0.246 OA
BRANCH  43  45
ATOM     45  C   UNL A   1      44.138  26.116  33.917  1.00  0.00     0.060 A 
ATOM     46  C   UNL A   1      42.766  26.165  34.227  1.00  0.00     0.016 A 
ATOM     47  C   UNL A   1      44.848  27.301  33.773  1.00  0.00     0.016 A 
ATOM     48  C   UNL A   1      42.067  27.381  34.159  1.00  0.00     0.010 A 
ATOM     49  C   UNL A   1      44.135  28.463  33.587  1.00  0.00     0.010 A 
ATOM     50  C   UNL A   1      42.736  28.509  33.711  1.00  0.00    -0.014 A 
BRANCH  50  51
ATOM     51  C   UNL A   1      42.121  29.776  33.289  1.00  0.00     0.031 A 
ATOM     52  C   UNL A   1      41.601  30.644  34.372  1.00  0.00     0.074 A 
ATOM     53  C   UNL A   1      42.203  30.262  32.017  1.00  0.00     0.049 A 
ATOM     54  N   UNL A   1      40.726  31.566  34.191  1.00  0.00    -0.248 NA
ATOM     55  C   UNL A   1      41.987  30.516  35.776  1.00  0.00     0.031 C 
ATOM     56  C   UNL A   1      42.016  31.643  31.560  1.00  0.00     0.029 A 
ATOM     57  N   UNL A   1      42.487  29.597  30.807  1.00  0.00    -0.354 N 
ATOM     58  C   UNL A   1      40.704  32.346  35.326  1.00  0.00     0.074 A 
ATOM     59  C   UNL A   1      41.389  31.572  36.323  1.00  0.00     0.031 C 
ATOM     60  C   UNL A   1      41.862  31.655  30.221  1.00  0.00     0.029 A 
ATOM     61  C   UNL A   1      41.815  30.270  29.776  1.00  0.00     0.049 A 
ATOM     62  H   UNL A   1      43.058  28.802  30.703  1.00  0.00     0.167 HD
ATOM     63  C   UNL A   1      40.251  33.629  35.229  1.00  0.00     0.037 A 
ATOM     64  C   UNL A   1      40.864  29.618  29.053  1.00  0.00     0.037 A 
ATOM     65  C   UNL A   1      39.881  33.929  33.829  1.00  0.00     0.049 A 
ATOM     66  C   UNL A   1      39.539  30.253  29.338  1.00  0.00     0.074 A 
ATOM     67  C   UNL A   1      40.449  34.689  32.819  1.00  0.00     0.029 A 
ATOM     68  N   UNL A   1      38.953  33.114  33.189  1.00  0.00    -0.354 N 
ATOM     69  N   UNL A   1      39.403  31.166  30.260  1.00  0.00    -0.248 NA
ATOM     70  C   UNL A   1      38.287  29.952  28.671  1.00  0.00     0.031 C 
ATOM     71  C   UNL A   1      39.809  34.350  31.584  1.00  0.00     0.029 A 
ATOM     72  C   UNL A   1      38.844  33.390  31.840  1.00  0.00     0.049 A 
ATOM     73  H   UNL A   1      38.430  32.417  33.647  1.00  0.00     0.167 HD
ATOM     74  C   UNL A   1      38.142  31.645  30.278  1.00  0.00     0.074 A 
ATOM     75  C   UNL A   1      37.450  30.780  29.327  1.00  0.00     0.031 C 
ATOM     76  C   UNL A   1      37.806  32.714  31.062  1.00  0.00     0.037 A 
BRANCH  63  77
ATOM     77  C   UNL A   1      40.372  34.680  36.326  1.00  0.00     0.064 A 
ATOM     78  C   UNL A   1      41.482  35.552  36.358  1.00  0.00     0.173 A 
ATOM     79  C   UNL A   1      39.447  34.901  37.373  1.00  0.00     0.173 A 
ATOM     80  F   UNL A   1      42.401  35.547  35.385  1.00  0.00    -0.203 F 
ATOM     81  C   UNL A   1      41.686  36.487  37.382  1.00  0.00     0.198 A 
ATOM     82  C   UNL A   1      39.676  35.797  38.425  1.00  0.00     0.198 A 
ATOM     83  F   UNL A   1      38.239  34.336  37.389  1.00  0.00    -0.203 F 
ATOM     84  F   UNL A   1      42.756  37.293  37.339  1.00  0.00    -0.200 F 
ATOM     85  C   UNL A   1      40.796  36.592  38.431  1.00  0.00     0.200 A 
ATOM     86  F   UNL A   1      38.779  35.897  39.418  1.00  0.00    -0.200 F 
ATOM     87  F   UNL A   1      40.997  37.479  39.414  1.00  0.00    -0.200 F 
ENDBRANCH  63  77
BRANCH  64  88
ATOM     88  C   UNL A   1      41.224  28.177  28.833  1.00  0.00     0.064 A 
ATOM     89  C   UNL A   1      40.352  27.240  29.424  1.00  0.00     0.173 A 
ATOM     90  C   UNL A   1      41.881  27.763  27.670  1.00  0.00     0.173 A 
ATOM     91  F   UNL A   1      39.823  27.512  30.620  1.00  0.00    -0.203 F 
ATOM     92  C   UNL A   1      39.905  26.112  28.732  1.00  0.00     0.198 A 
ATOM     93  C   UNL A   1      41.499  26.581  27.020  1.00  0.00     0.198 A 
ATOM     94  F   UNL A   1      42.765  28.574  27.075  1.00  0.00    -0.203 F 
ATOM     95  F   UNL A   1      38.889  25.384  29.215  1.00  0.00    -0.200 F 
ATOM     96  C   UNL A   1      40.446  25.815  27.498  1.00  0.00     0.200 A 
ATOM     97  F   UNL A   1      42.089  26.237  25.867  1.00  0.00    -0.200 F 
ATOM     98  F   UNL A   1      39.926  24.827  26.755  1.00  0.00    -0.200 F 
ENDBRANCH  64  88
BRANCH  76  99
ATOM     99  C   UNL A   1      36.390  33.166  31.208  1.00  0.00     0.064 A 
ATOM    100  C   UNL A   1      35.605  32.834  32.316  1.00  0.00     0.173 A 
ATOM    101  C   UNL A   1      35.783  33.993  30.239  1.00  0.00     0.173 A 
ATOM    102  F   UNL A   1      35.990  31.878  33.175  1.00  0.00    -0.203 F 
ATOM    103  C   UNL A   1      34.399  33.482  32.561  1.00  0.00     0.198 A 
ATOM    104  C   UNL A   1      34.549  34.584  30.451  1.00  0.00     0.198 A 
ATOM    105  F   UNL A   1      36.367  34.288  29.073  1.00  0.00    -0.203 F 
ATOM    106  F   UNL A   1      33.753  33.256  33.710  1.00  0.00    -0.200 F 
ATOM    107  C   UNL A   1      33.885  34.376  31.640  1.00  0.00     0.200 A 
ATOM    108  F   UNL A   1      34.033  35.387  29.510  1.00  0.00    -0.200 F 
ATOM    109  F   UNL A   1      32.745  35.031  31.892  1.00  0.00    -0.200 F 
ENDBRANCH  76  99
ENDBRANCH  50  51
ENDBRANCH  43  45
ENDBRANCH  42  43
ENDBRANCH  41  42
ENDBRANCH  40  41
ENDBRANCH  39  40
ENDBRANCH  38  39
ENDBRANCH   1  38
TORSDOF 21
ENDMDL
MODEL 2
REMARK VINA RESULT:     -11.3      8.368     16.333
REMARK SMILES Cc1ccc(S(=O)(=O)n2cc(C(=O)C(=O)N[C@@H](Cc3cnc[nH]3)C(=O)OCCOCCOC(=O)c3ccc(-c4c5nc(c(-c6c(F)c(F)c(F)c(F)c6F)c6ccc([nH]6)c(-c6c(F)c(F)c(F)c(F)c6F)c6nc(c(-c7c(F)c(F)c(F)c(F)c7F)c7ccc4[nH]7)C=C6)C=C5)cc3)c3ccccc32)cc1
REMARK SMILES IDX 27 1 26 2 24 3 25 4 17 5 16 6 14 7 15 8 12 10 13 11 11 12
REMARK SMILES IDX 9 13 10 14 103 15 98 16 102 17 99 18 101 19 100 20 6 21 7 22
REMARK SMILES IDX 8 23 5 24 1 25 2 26 3 27 105 28 4 29 104 30 18 31 19 32
REMARK SMILES IDX 20 33 23 34 21 35 22 36 28 38 29 39 30 40 31 41 32 42 33 43
REMARK SMILES IDX 34 44 35 45 36 46 97 47 37 48 96 49 38 50 39 51 40 52 90 53
REMARK SMILES IDX 41 54 95 55 89 56 91 57 42 58 94 59 88 60 87 61 43 63 75 64
REMARK SMILES IDX 55 65 74 66 56 67 59 68 73 69 92 70 57 71 58 72 72 74 93 75
REMARK SMILES IDX 60 76 44 77 45 78 53 79 46 80 47 81 51 82 54 83 48 84 49 85
REMARK SMILES IDX 52 86 50 87 76 88 77 89 85 90 78 91 79 92 83 93 86 94 80 95
REMARK SMILES IDX 81 96 84 97 82 98 61 99 62 100 70 101 63 102 64 103 68 104
REMARK SMILES IDX 71 105 65 106 66 107 69 108 67 109
REMARK H PARENT 16 9 23 37 91 62 59 73
REMARK Flexibility Score: inf
ROOT
ATOM      1  C   UNL A   1      33.502  31.468  27.805  1.00  0.00     0.261 C 
ENDROOT
BRANCH   1   2
ATOM      2  O   UNL A   1      33.450  30.771  26.567  1.00  0.00    -0.462 OA
BRANCH   2   3
ATOM      3  C   UNL A   1      32.315  30.014  26.417  1.00  0.00     0.329 C 
ATOM      4  O   UNL A   1      31.778  29.378  27.312  1.00  0.00    -0.250 OA
BRANCH   3   5
ATOM      5  C   UNL A   1      31.942  29.941  24.942  1.00  0.00     0.198 C 
BRANCH   5   6
ATOM      6  N   UNL A   1      33.178  29.720  24.167  1.00  0.00    -0.335 N 
ATOM      7  C   UNL A   1      34.000  28.625  24.174  1.00  0.00     0.293 C 
ATOM      8  O   UNL A   1      34.822  28.445  23.284  1.00  0.00    -0.265 OA
ATOM      9  H   UNL A   1      33.447  30.453  23.568  1.00  0.00     0.164 HD
BRANCH   7  10
ATOM     10  C   UNL A   1      33.868  27.619  25.311  1.00  0.00     0.252 C 
ATOM     11  O   UNL A   1      34.332  27.930  26.404  1.00  0.00    -0.283 OA
BRANCH  10  12
ATOM     12  C   UNL A   1      33.215  26.339  25.075  1.00  0.00     0.054 A 
ATOM     13  N   UNL A   1      32.266  24.354  25.398  1.00  0.00    -0.240 N 
ATOM     14  C   UNL A   1      32.711  25.482  26.034  1.00  0.00     0.117 A 
ATOM     15  C   UNL A   1      32.415  24.461  24.031  1.00  0.00     0.065 A 
ATOM     16  C   UNL A   1      33.006  25.711  23.806  1.00  0.00     0.012 A 
ATOM     17  C   UNL A   1      32.138  23.580  22.972  1.00  0.00     0.028 A 
ATOM     18  C   UNL A   1      33.293  26.103  22.482  1.00  0.00     0.011 A 
ATOM     19  C   UNL A   1      32.464  23.983  21.674  1.00  0.00     0.002 A 
ATOM     20  C   UNL A   1      33.024  25.231  21.428  1.00  0.00     0.001 A 
BRANCH  13  21
ATOM     21  S   UNL A   1      31.764  22.954  26.226  1.00  0.00     0.268 S 
ATOM     22  O   UNL A   1      30.371  22.786  25.882  1.00  0.00    -0.201 OA
ATOM     23  O   UNL A   1      32.204  23.134  27.604  1.00  0.00    -0.201 OA
BRANCH  21  24
ATOM     24  C   UNL A   1      32.667  21.582  25.562  1.00  0.00     0.088 A 
ATOM     25  C   UNL A   1      35.046  18.197  24.396  1.00  0.00     0.044 C 
ATOM     26  C   UNL A   1      34.215  19.390  24.764  1.00  0.00    -0.051 A 
ATOM     27  C   UNL A   1      34.828  20.523  25.312  1.00  0.00     0.005 A 
ATOM     28  C   UNL A   1      32.828  19.384  24.576  1.00  0.00     0.005 A 
ATOM     29  C   UNL A   1      34.058  21.615  25.716  1.00  0.00     0.022 A 
ATOM     30  C   UNL A   1      32.053  20.482  24.961  1.00  0.00     0.022 A 
ENDBRANCH  21  24
ENDBRANCH  13  21
ENDBRANCH  10  12
ENDBRANCH   7  10
ENDBRANCH   5   6
BRANCH   5  31
ATOM     31  C   UNL A   1      30.920  28.811  24.750  1.00  0.00     0.092 C 
BRANCH  31  32
ATOM     32  C   UNL A   1      29.985  29.063  23.614  1.00  0.00     0.037 A 
ATOM     33  C   UNL A   1      28.959  28.294  23.107  1.00  0.00     0.134 A 
ATOM     34  N   UNL A   1      29.942  30.226  22.890  1.00  0.00    -0.348 N 
ATOM     35  N   UNL A   1      28.312  28.950  22.101  1.00  0.00    -0.245 NA
ATOM     36  C   UNL A   1      28.944  30.089  21.970  1.00  0.00     0.196 A 
ATOM     37  H   UNL A   1      30.522  31.012  23.011  1.00  0.00     0.167 HD
ENDBRANCH  31  32
ENDBRANCH   5  31
ENDBRANCH   3   5
ENDBRANCH   2   3
ENDBRANCH   1   2
BRANCH   1  38
ATOM     38  C   UNL A   1      33.178  32.912  27.635  1.00  0.00     0.202 C 
BRANCH  38  39
ATOM     39  O   UNL A   1      34.404  33.611  27.648  1.00  0.00    -0.374 OA
BRANCH  39  40
ATOM     40  C   UNL A   1      34.303  34.897  28.245  1.00  0.00     0.202 C 
BRANCH  40  41
ATOM     41  C   UNL A   1      33.517  34.930  29.573  1.00  0.00     0.261 C 
BRANCH  41  42
ATOM     42  O   UNL A   1      34.432  34.766  30.678  1.00  0.00    -0.460 OA
BRANCH  42  43
ATOM     43  C   UNL A   1      34.967  33.526  30.868  1.00  0.00     0.338 C 
ATOM     44  O   UNL A   1      34.340  32.508  31.102  1.00  0.00    -0.246 OA
BRANCH  43  45
ATOM     45  C   UNL A   1      36.436  33.666  31.105  1.00  0.00     0.060 A 
ATOM     46  C   UNL A   1      37.315  33.840  30.020  1.00  0.00     0.016 A 
ATOM     47  C   UNL A   1      36.933  33.214  32.320  1.00  0.00     0.016 A 
ATOM     48  C   UNL A   1      38.627  33.344  30.083  1.00  0.00     0.010 A 
ATOM     49  C   UNL A   1      38.175  32.622  32.331  1.00  0.00     0.010 A 
ATOM     50  C   UNL A   1      39.010  32.619  31.201  1.00  0.00    -0.014 A 
BRANCH  50  51
ATOM     51  C   UNL A   1      40.210  31.778  31.323  1.00  0.00     0.031 A 
ATOM     52  C   UNL A   1      40.230  30.543  30.503  1.00  0.00     0.074 A 
ATOM     53  C   UNL A   1      41.345  32.179  31.964  1.00  0.00     0.049 A 
ATOM     54  N   UNL A   1      40.983  29.532  30.751  1.00  0.00    -0.248 NA
ATOM     55  C   UNL A   1      39.362  30.317  29.349  1.00  0.00     0.031 C 
ATOM     56  C   UNL A   1      42.705  31.651  31.816  1.00  0.00     0.029 A 
ATOM     57  N   UNL A   1      41.536  33.192  32.926  1.00  0.00    -0.354 N 
ATOM     58  C   UNL A   1      40.957  28.715  29.642  1.00  0.00     0.074 A 
ATOM     59  C   UNL A   1      39.834  29.168  28.871  1.00  0.00     0.031 C 
ATOM     60  C   UNL A   1      43.469  32.086  32.838  1.00  0.00     0.029 A 
ATOM     61  C   UNL A   1      42.598  32.806  33.756  1.00  0.00     0.049 A 
ATOM     62  H   UNL A   1      41.016  34.024  33.000  1.00  0.00     0.167 HD
ATOM     63  C   UNL A   1      42.001  27.861  29.436  1.00  0.00     0.037 A 
ATOM     64  C   UNL A   1      42.380  32.611  35.085  1.00  0.00     0.037 A 
ATOM     65  C   UNL A   1      43.008  28.028  30.506  1.00  0.00     0.049 A 
ATOM     66  C   UNL A   1      42.580  31.158  35.386  1.00  0.00     0.074 A 
ATOM     67  C   UNL A   1      44.269  28.599  30.568  1.00  0.00     0.029 A 
ATOM     68  N   UNL A   1      42.612  27.883  31.831  1.00  0.00    -0.354 N 
ATOM     69  N   UNL A   1      42.772  30.284  34.437  1.00  0.00    -0.248 NA
ATOM     70  C   UNL A   1      42.579  30.552  36.704  1.00  0.00     0.031 C 
ATOM     71  C   UNL A   1      44.634  28.742  31.945  1.00  0.00     0.029 A 
ATOM     72  C   UNL A   1      43.600  28.250  32.725  1.00  0.00     0.049 A 
ATOM     73  H   UNL A   1      41.725  27.555  32.104  1.00  0.00     0.167 HD
ATOM     74  C   UNL A   1      43.008  29.060  34.953  1.00  0.00     0.074 A 
ATOM     75  C   UNL A   1      42.777  29.258  36.382  1.00  0.00     0.031 C 
ATOM     76  C   UNL A   1      43.384  28.017  34.153  1.00  0.00     0.037 A 
BRANCH  63  77
ATOM     77  C   UNL A   1      42.235  27.064  28.158  1.00  0.00     0.064 A 
ATOM     78  C   UNL A   1      43.098  27.558  27.158  1.00  0.00     0.173 A 
ATOM     79  C   UNL A   1      41.657  25.812  27.841  1.00  0.00     0.173 A 
ATOM     80  F   UNL A   1      43.805  28.681  27.338  1.00  0.00    -0.203 F 
ATOM     81  C   UNL A   1      43.294  26.907  25.931  1.00  0.00     0.198 A 
ATOM     82  C   UNL A   1      41.809  25.187  26.596  1.00  0.00     0.198 A 
ATOM     83  F   UNL A   1      40.995  25.082  28.741  1.00  0.00    -0.203 F 
ATOM     84  F   UNL A   1      44.141  27.428  25.034  1.00  0.00    -0.200 F 
ATOM     85  C   UNL A   1      42.629  25.735  25.639  1.00  0.00     0.200 A 
ATOM     86  F   UNL A   1      41.171  24.033  26.350  1.00  0.00    -0.200 F 
ATOM     87  F   UNL A   1      42.809  25.119  24.464  1.00  0.00    -0.200 F 
ENDBRANCH  63  77
BRANCH  64  88
ATOM     88  C   UNL A   1      41.380  33.588  35.633  1.00  0.00     0.064 A 
ATOM     89  C   UNL A   1      40.132  33.038  35.990  1.00  0.00     0.173 A 
ATOM     90  C   UNL A   1      41.788  34.716  36.351  1.00  0.00     0.173 A 
ATOM     91  F   UNL A   1      39.612  32.066  35.236  1.00  0.00    -0.203 F 
ATOM     92  C   UNL A   1      39.497  33.372  37.188  1.00  0.00     0.198 A 
ATOM     93  C   UNL A   1      41.098  35.112  37.505  1.00  0.00     0.198 A 
ATOM     94  F   UNL A   1      42.937  35.330  36.040  1.00  0.00    -0.203 F 
ATOM     95  F   UNL A   1      38.452  32.652  37.619  1.00  0.00    -0.200 F 
ATOM     96  C   UNL A   1      40.018  34.378  37.975  1.00  0.00     0.200 A 
ATOM     97  F   UNL A   1      41.545  36.151  38.224  1.00  0.00    -0.200 F 
ATOM     98  F   UNL A   1      39.513  34.609  39.195  1.00  0.00    -0.200 F 
ENDBRANCH  64  88
BRANCH  76  99
ATOM     99  C   UNL A   1      43.506  26.626  34.680  1.00  0.00     0.064 A 
ATOM    100  C   UNL A   1      42.394  25.850  35.020  1.00  0.00     0.173 A 
ATOM    101  C   UNL A   1      44.766  26.007  34.825  1.00  0.00     0.173 A 
ATOM    102  F   UNL A   1      41.177  26.402  35.142  1.00  0.00    -0.203 F 
ATOM    103  C   UNL A   1      42.514  24.483  35.244  1.00  0.00     0.198 A 
ATOM    104  C   UNL A   1      44.889  24.659  35.119  1.00  0.00     0.198 A 
ATOM    105  F   UNL A   1      45.917  26.665  34.658  1.00  0.00    -0.203 F 
ATOM    106  F   UNL A   1      41.411  23.744  35.409  1.00  0.00    -0.200 F 
ATOM    107  C   UNL A   1      43.760  23.884  35.268  1.00  0.00     0.200 A 
ATOM    108  F   UNL A   1      46.110  24.116  35.214  1.00  0.00    -0.200 F 
ATOM    109  F   UNL A   1      43.875  22.562  35.444  1.00  0.00    -0.200 F 
ENDBRANCH  76  99
ENDBRANCH  50  51
ENDBRANCH  43  45
ENDBRANCH  42  43
ENDBRANCH  41  42
ENDBRANCH  40  41
ENDBRANCH  39  40
ENDBRANCH  38  39
ENDBRANCH   1  38
TORSDOF 21
ENDMDL
MODEL 3
REMARK VINA RESULT:     -10.8     11.351     21.187
REMARK SMILES Cc1ccc(S(=O)(=O)n2cc(C(=O)C(=O)N[C@@H](Cc3cnc[nH]3)C(=O)OCCOCCOC(=O)c3ccc(-c4c5nc(c(-c6c(F)c(F)c(F)c(F)c6F)c6ccc([nH]6)c(-c6c(F)c(F)c(F)c(F)c6F)c6nc(c(-c7c(F)c(F)c(F)c(F)c7F)c7ccc4[nH]7)C=C6)C=C5)cc3)c3ccccc32)cc1
REMARK SMILES IDX 27 1 26 2 24 3 25 4 17 5 16 6 14 7 15 8 12 10 13 11 11 12
REMARK SMILES IDX 9 13 10 14 103 15 98 16 102 17 99 18 101 19 100 20 6 21 7 22
REMARK SMILES IDX 8 23 5 24 1 25 2 26 3 27 105 28 4 29 104 30 18 31 19 32
REMARK SMILES IDX 20 33 23 34 21 35 22 36 28 38 29 39 30 40 31 41 32 42 33 43
REMARK SMILES IDX 34 44 35 45 36 46 97 47 37 48 96 49 38 50 39 51 40 52 90 53
REMARK SMILES IDX 41 54 95 55 89 56 91 57 42 58 94 59 88 60 87 61 43 63 75 64
REMARK SMILES IDX 55 65 74 66 56 67 59 68 73 69 92 70 57 71 58 72 72 74 93 75
REMARK SMILES IDX 60 76 44 77 45 78 53 79 46 80 47 81 51 82 54 83 48 84 49 85
REMARK SMILES IDX 52 86 50 87 76 88 77 89 85 90 78 91 79 92 83 93 86 94 80 95
REMARK SMILES IDX 81 96 84 97 82 98 61 99 62 100 70 101 63 102 64 103 68 104
REMARK SMILES IDX 71 105 65 106 66 107 69 108 67 109
REMARK H PARENT 16 9 23 37 91 62 59 73
REMARK Flexibility Score: inf
ROOT
ATOM      1  C   UNL A   1      48.672  38.513  26.979  1.00  0.00     0.261 C 
ENDROOT
BRANCH   1   2
ATOM      2  O   UNL A   1      47.702  39.541  26.828  1.00  0.00    -0.462 OA
BRANCH   2   3
ATOM      3  C   UNL A   1      48.164  40.782  27.188  1.00  0.00     0.329 C 
ATOM      4  O   UNL A   1      49.239  40.995  27.730  1.00  0.00    -0.250 OA
BRANCH   3   5
ATOM      5  C   UNL A   1      47.065  41.816  26.979  1.00  0.00     0.198 C 
BRANCH   5   6
ATOM      6  N   UNL A   1      45.815  41.098  26.661  1.00  0.00    -0.335 N 
ATOM      7  C   UNL A   1      44.848  41.436  25.754  1.00  0.00     0.293 C 
ATOM      8  O   UNL A   1      44.016  40.619  25.381  1.00  0.00    -0.265 OA
ATOM      9  H   UNL A   1      45.656  40.268  27.167  1.00  0.00     0.164 HD
BRANCH   7  10
ATOM     10  C   UNL A   1      44.831  42.856  25.200  1.00  0.00     0.252 C 
ATOM     11  O   UNL A   1      44.795  43.781  26.006  1.00  0.00    -0.283 OA
BRANCH  10  12
ATOM     12  C   UNL A   1      44.850  43.074  23.761  1.00  0.00     0.054 A 
ATOM     13  N   UNL A   1      45.520  43.605  21.708  1.00  0.00    -0.240 N 
ATOM     14  C   UNL A   1      45.949  43.402  22.992  1.00  0.00     0.117 A 
ATOM     15  C   UNL A   1      44.165  43.368  21.593  1.00  0.00     0.065 A 
ATOM     16  C   UNL A   1      43.725  43.025  22.878  1.00  0.00     0.012 A 
ATOM     17  C   UNL A   1      43.271  43.464  20.512  1.00  0.00     0.028 A 
ATOM     18  C   UNL A   1      42.359  42.733  23.077  1.00  0.00     0.011 A 
ATOM     19  C   UNL A   1      41.919  43.201  20.748  1.00  0.00     0.002 A 
ATOM     20  C   UNL A   1      41.467  42.830  22.010  1.00  0.00     0.001 A 
BRANCH  13  21
ATOM     21  S   UNL A   1      46.516  44.233  20.479  1.00  0.00     0.268 S 
ATOM     22  O   UNL A   1      46.299  43.377  19.336  1.00  0.00    -0.201 OA
ATOM     23  O   UNL A   1      47.831  44.395  21.086  1.00  0.00    -0.201 OA
BRANCH  21  24
ATOM     24  C   UNL A   1      45.921  45.854  20.078  1.00  0.00     0.088 A 
ATOM     25  C   UNL A   1      44.032  49.596  19.130  1.00  0.00     0.044 C 
ATOM     26  C   UNL A   1      44.726  48.304  19.443  1.00  0.00    -0.051 A 
ATOM     27  C   UNL A   1      44.494  47.178  18.643  1.00  0.00     0.005 A 
ATOM     28  C   UNL A   1      45.596  48.202  20.534  1.00  0.00     0.005 A 
ATOM     29  C   UNL A   1      45.085  45.955  18.961  1.00  0.00     0.022 A 
ATOM     30  C   UNL A   1      46.206  46.984  20.847  1.00  0.00     0.022 A 
ENDBRANCH  21  24
ENDBRANCH  13  21
ENDBRANCH  10  12
ENDBRANCH   7  10
ENDBRANCH   5   6
BRANCH   5  31
ATOM     31  C   UNL A   1      46.945  42.667  28.250  1.00  0.00     0.092 C 
BRANCH  31  32
ATOM     32  C   UNL A   1      46.075  42.039  29.287  1.00  0.00     0.037 A 
ATOM     33  C   UNL A   1      46.300  40.963  30.119  1.00  0.00     0.134 A 
ATOM     34  N   UNL A   1      44.848  42.522  29.665  1.00  0.00    -0.348 N 
ATOM     35  N   UNL A   1      45.251  40.779  30.971  1.00  0.00    -0.245 NA
ATOM     36  C   UNL A   1      44.381  41.705  30.652  1.00  0.00     0.196 A 
ATOM     37  H   UNL A   1      44.390  43.310  29.293  1.00  0.00     0.167 HD
ENDBRANCH  31  32
ENDBRANCH   5  31
ENDBRANCH   3   5
ENDBRANCH   2   3
ENDBRANCH   1   2
BRANCH   1  38
ATOM     38  C   UNL A   1      48.618  37.538  25.854  1.00  0.00     0.202 C 
BRANCH  38  39
ATOM     39  O   UNL A   1      47.413  36.816  25.996  1.00  0.00    -0.374 OA
BRANCH  39  40
ATOM     40  C   UNL A   1      47.556  35.434  25.695  1.00  0.00     0.202 C 
BRANCH  40  41
ATOM     41  C   UNL A   1      46.980  34.479  26.762  1.00  0.00     0.261 C 
BRANCH  41  42
ATOM     42  O   UNL A   1      46.011  35.186  27.566  1.00  0.00    -0.460 OA
BRANCH  42  43
ATOM     43  C   UNL A   1      44.724  35.215  27.113  1.00  0.00     0.338 C 
ATOM     44  O   UNL A   1      44.138  36.198  26.696  1.00  0.00    -0.246 OA
BRANCH  43  45
ATOM     45  C   UNL A   1      44.035  33.958  27.538  1.00  0.00     0.060 A 
ATOM     46  C   UNL A   1      43.978  33.609  28.900  1.00  0.00     0.016 A 
ATOM     47  C   UNL A   1      43.837  32.980  26.574  1.00  0.00     0.016 A 
ATOM     48  C   UNL A   1      43.960  32.258  29.286  1.00  0.00     0.010 A 
ATOM     49  C   UNL A   1      43.944  31.662  26.957  1.00  0.00     0.010 A 
ATOM     50  C   UNL A   1      44.073  31.285  28.304  1.00  0.00    -0.014 A 
BRANCH  50  51
ATOM     51  C   UNL A   1      44.373  29.862  28.520  1.00  0.00     0.031 A 
ATOM     52  C   UNL A   1      45.626  29.358  27.911  1.00  0.00     0.074 A 
ATOM     53  C   UNL A   1      43.688  29.077  29.400  1.00  0.00     0.049 A 
ATOM     54  N   UNL A   1      45.856  28.116  27.673  1.00  0.00    -0.248 NA
ATOM     55  C   UNL A   1      46.721  30.218  27.468  1.00  0.00     0.031 C 
ATOM     56  C   UNL A   1      44.114  27.813  30.011  1.00  0.00     0.029 A 
ATOM     57  N   UNL A   1      42.408  29.248  29.966  1.00  0.00    -0.354 N 
ATOM     58  C   UNL A   1      47.199  27.990  27.393  1.00  0.00     0.074 A 
ATOM     59  C   UNL A   1      47.653  29.328  27.135  1.00  0.00     0.031 C 
ATOM     60  C   UNL A   1      43.048  27.197  30.559  1.00  0.00     0.029 A 
ATOM     61  C   UNL A   1      41.869  27.977  30.211  1.00  0.00     0.049 A 
ATOM     62  H   UNL A   1      41.971  30.109  30.157  1.00  0.00     0.167 HD
ATOM     63  C   UNL A   1      47.794  26.777  27.580  1.00  0.00     0.037 A 
ATOM     64  C   UNL A   1      40.727  27.595  29.578  1.00  0.00     0.037 A 
ATOM     65  C   UNL A   1      46.808  25.806  28.100  1.00  0.00     0.049 A 
ATOM     66  C   UNL A   1      41.058  26.470  28.647  1.00  0.00     0.074 A 
ATOM     67  C   UNL A   1      46.588  25.216  29.335  1.00  0.00     0.029 A 
ATOM     68  N   UNL A   1      45.638  25.584  27.381  1.00  0.00    -0.354 N 
ATOM     69  N   UNL A   1      42.291  26.100  28.435  1.00  0.00    -0.248 NA
ATOM     70  C   UNL A   1      40.106  25.684  27.887  1.00  0.00     0.031 C 
ATOM     71  C   UNL A   1      45.295  24.600  29.318  1.00  0.00     0.029 A 
ATOM     72  C   UNL A   1      44.729  24.805  28.070  1.00  0.00     0.049 A 
ATOM     73  H   UNL A   1      45.474  25.944  26.479  1.00  0.00     0.167 HD
ATOM     74  C   UNL A   1      42.335  25.021  27.628  1.00  0.00     0.074 A 
ATOM     75  C   UNL A   1      40.940  24.855  27.227  1.00  0.00     0.031 C 
ATOM     76  C   UNL A   1      43.512  24.367  27.387  1.00  0.00     0.037 A 
BRANCH  63  77
ATOM     77  C   UNL A   1      49.297  26.528  27.534  1.00  0.00     0.064 A 
ATOM     78  C   UNL A   1      49.882  25.901  26.414  1.00  0.00     0.173 A 
ATOM     79  C   UNL A   1      50.229  26.875  28.540  1.00  0.00     0.173 A 
ATOM     80  F   UNL A   1      49.159  25.597  25.328  1.00  0.00    -0.203 F 
ATOM     81  C   UNL A   1      51.245  25.578  26.346  1.00  0.00     0.198 A 
ATOM     82  C   UNL A   1      51.580  26.506  28.499  1.00  0.00     0.198 A 
ATOM     83  F   UNL A   1      49.911  27.665  29.567  1.00  0.00    -0.203 F 
ATOM     84  F   UNL A   1      51.733  24.996  25.243  1.00  0.00    -0.200 F 
ATOM     85  C   UNL A   1      52.089  25.856  27.400  1.00  0.00     0.200 A 
ATOM     86  F   UNL A   1      52.384  26.813  29.527  1.00  0.00    -0.200 F 
ATOM     87  F   UNL A   1      53.389  25.538  27.339  1.00  0.00    -0.200 F 
ENDBRANCH  63  77
BRANCH  64  88
ATOM     88  C   UNL A   1      39.772  28.742  29.415  1.00  0.00     0.064 A 
ATOM     89  C   UNL A   1      39.622  29.219  28.097  1.00  0.00     0.173 A 
ATOM     90  C   UNL A   1      38.665  28.891  30.256  1.00  0.00     0.173 A 
ATOM     91  F   UNL A   1      40.691  29.258  27.295  1.00  0.00    -0.203 F 
ATOM     92  C   UNL A   1      38.367  29.507  27.557  1.00  0.00     0.198 A 
ATOM     93  C   UNL A   1      37.421  29.270  29.734  1.00  0.00     0.198 A 
ATOM     94  F   UNL A   1      38.742  28.510  31.538  1.00  0.00    -0.203 F 
ATOM     95  F   UNL A   1      38.230  29.709  26.239  1.00  0.00    -0.200 F 
ATOM     96  C   UNL A   1      37.254  29.477  28.373  1.00  0.00     0.200 A 
ATOM     97  F   UNL A   1      36.353  29.335  30.542  1.00  0.00    -0.200 F 
ATOM     98  F   UNL A   1      36.028  29.602  27.845  1.00  0.00    -0.200 F 
ENDBRANCH  64  88
BRANCH  76  99
ATOM     99  C   UNL A   1      43.608  23.265  26.385  1.00  0.00     0.064 A 
ATOM    100  C   UNL A   1      44.122  23.458  25.100  1.00  0.00     0.173 A 
ATOM    101  C   UNL A   1      43.213  21.948  26.706  1.00  0.00     0.173 A 
ATOM    102  F   UNL A   1      44.310  24.693  24.609  1.00  0.00    -0.203 F 
ATOM    103  C   UNL A   1      44.454  22.379  24.289  1.00  0.00     0.198 A 
ATOM    104  C   UNL A   1      43.480  20.879  25.867  1.00  0.00     0.198 A 
ATOM    105  F   UNL A   1      42.591  21.639  27.849  1.00  0.00    -0.203 F 
ATOM    106  F   UNL A   1      45.091  22.596  23.132  1.00  0.00    -0.200 F 
ATOM    107  C   UNL A   1      44.155  21.088  24.685  1.00  0.00     0.200 A 
ATOM    108  F   UNL A   1      43.111  19.645  26.237  1.00  0.00    -0.200 F 
ATOM    109  F   UNL A   1      44.509  20.045  23.924  1.00  0.00    -0.200 F 
ENDBRANCH  76  99
ENDBRANCH  50  51
ENDBRANCH  43  45
ENDBRANCH  42  43
ENDBRANCH  41  42
ENDBRANCH  40  41
ENDBRANCH  39  40
ENDBRANCH  38  39
ENDBRANCH   1  38
TORSDOF 21
ENDMDL
