MODEL 1
REMARK VINA RESULT:     -11.5      0.000      0.000
REMARK SMILES C[C@@H](C(=O)OCCOCCOC(=O)c1ccc(-c2c3nc(c(-c4c(F)c(F)c(F)c(F)c4F)c4ccc([nH]4)c(-c4c(F)c(F)c(F)c(F)c4F)c4nc(c(-c5c(F)c(F)c(F)c(F)c5F)c5ccc2[nH]5)C=C4)C=C3)cc1)c1ccc(C[C@H]2CCC[C@@H]2O)cc1
REMARK SMILES IDX 7 1 6 2 5 3 3 4 4 5 2 6 1 7 77 8 78 9 89 10 79 11 88 12
REMARK SMILES IDX 80 13 81 14 82 15 83 16 86 17 84 18 85 19 87 20 8 22 9 23
REMARK SMILES IDX 10 24 11 25 12 26 13 27 14 28 15 29 76 30 16 31 75 32 17 33
REMARK SMILES IDX 18 34 19 35 69 36 20 37 74 38 68 39 70 40 21 41 73 42 67 43
REMARK SMILES IDX 66 44 22 46 54 47 34 48 53 49 35 50 38 51 52 52 71 53 36 54
REMARK SMILES IDX 37 55 51 57 72 58 39 59 23 60 24 61 32 62 25 63 26 64 30 65
REMARK SMILES IDX 33 66 27 67 28 68 31 69 29 70 55 71 56 72 64 73 57 74 58 75
REMARK SMILES IDX 62 76 65 77 59 78 60 79 63 80 61 81 40 82 41 83 49 84 42 85
REMARK SMILES IDX 43 86 47 87 50 88 44 89 45 90 48 91 46 92
REMARK H PARENT 87 21 70 45 38 56
REMARK Flexibility Score: inf
ROOT
ATOM      1  C   UNL A   1      33.170  29.831  26.265  1.00  0.00     0.202 C 
ENDROOT
BRANCH   1   2
ATOM      2  C   UNL A   1      33.436  28.346  26.524  1.00  0.00     0.261 C 
BRANCH   2   3
ATOM      3  O   UNL A   1      32.320  27.554  26.082  1.00  0.00    -0.463 OA
BRANCH   3   4
ATOM      4  C   UNL A   1      32.627  26.301  25.650  1.00  0.00     0.313 C 
ATOM      5  O   UNL A   1      33.008  25.397  26.386  1.00  0.00    -0.252 OA
BRANCH   4   6
ATOM      6  C   UNL A   1      32.395  26.119  24.140  1.00  0.00     0.126 C 
ATOM      7  C   UNL A   1      33.628  26.448  23.289  1.00  0.00     0.025 C 
BRANCH   6   8
ATOM      8  C   UNL A   1      31.105  26.816  23.706  1.00  0.00    -0.034 A 
ATOM      9  C   UNL A   1      31.071  27.964  22.901  1.00  0.00     0.005 A 
ATOM     10  C   UNL A   1      29.881  26.307  24.170  1.00  0.00     0.005 A 
ATOM     11  C   UNL A   1      29.858  28.605  22.612  1.00  0.00     0.004 A 
ATOM     12  C   UNL A   1      28.675  26.955  23.895  1.00  0.00     0.004 A 
ATOM     13  C   UNL A   1      28.651  28.130  23.138  1.00  0.00    -0.048 A 
BRANCH  13  14
ATOM     14  C   UNL A   1      27.345  28.857  22.915  1.00  0.00     0.041 C 
BRANCH  14  15
ATOM     15  C   UNL A   1      27.433  30.368  22.637  1.00  0.00     0.022 C 
ATOM     16  C   UNL A   1      27.998  31.236  23.774  1.00  0.00     0.007 C 
ATOM     17  C   UNL A   1      28.250  30.777  21.409  1.00  0.00     0.117 C 
ATOM     18  C   UNL A   1      28.762  32.378  23.098  1.00  0.00     0.003 C 
ATOM     19  C   UNL A   1      28.434  32.273  21.617  1.00  0.00     0.032 C 
BRANCH  17  20
ATOM     20  O   UNL A   1      27.557  30.529  20.200  1.00  0.00    -0.393 OA
ATOM     21  H   UNL A   1      26.799  31.131  20.132  1.00  0.00     0.210 HD
ENDBRANCH  17  20
ENDBRANCH  14  15
ENDBRANCH  13  14
ENDBRANCH   6   8
ENDBRANCH   4   6
ENDBRANCH   3   4
ENDBRANCH   2   3
ENDBRANCH   1   2
BRANCH   1  22
ATOM     22  O   UNL A   1      32.031  30.383  26.924  1.00  0.00    -0.374 OA
BRANCH  22  23
ATOM     23  C   UNL A   1      31.420  31.530  26.332  1.00  0.00     0.202 C 
BRANCH  23  24
ATOM     24  C   UNL A   1      31.907  32.893  26.838  1.00  0.00     0.261 C 
BRANCH  24  25
ATOM     25  O   UNL A   1      32.799  32.778  27.964  1.00  0.00    -0.460 OA
BRANCH  25  26
ATOM     26  C   UNL A   1      33.872  33.601  27.923  1.00  0.00     0.338 C 
ATOM     27  O   UNL A   1      33.872  34.815  27.762  1.00  0.00    -0.246 OA
BRANCH  26  28
ATOM     28  C   UNL A   1      35.102  32.866  28.273  1.00  0.00     0.060 A 
ATOM     29  C   UNL A   1      34.964  31.532  28.678  1.00  0.00     0.016 A 
ATOM     30  C   UNL A   1      36.353  33.488  28.296  1.00  0.00     0.016 A 
ATOM     31  C   UNL A   1      36.067  30.829  29.156  1.00  0.00     0.010 A 
ATOM     32  C   UNL A   1      37.459  32.780  28.786  1.00  0.00     0.010 A 
ATOM     33  C   UNL A   1      37.313  31.460  29.251  1.00  0.00    -0.014 A 
BRANCH  33  34
ATOM     34  C   UNL A   1      38.418  30.784  29.976  1.00  0.00     0.031 A 
ATOM     35  C   UNL A   1      38.646  31.107  31.427  1.00  0.00     0.074 A 
ATOM     36  C   UNL A   1      39.180  29.860  29.364  1.00  0.00     0.049 A 
ATOM     37  N   UNL A   1      39.551  30.641  32.251  1.00  0.00    -0.248 NA
ATOM     38  C   UNL A   1      37.729  32.086  32.032  1.00  0.00     0.031 C 
ATOM     39  C   UNL A   1      39.029  29.425  27.977  1.00  0.00     0.029 A 
ATOM     40  N   UNL A   1      40.234  29.119  29.837  1.00  0.00    -0.354 N 
ATOM     41  C   UNL A   1      39.316  31.272  33.466  1.00  0.00     0.074 A 
ATOM     42  C   UNL A   1      38.201  32.173  33.267  1.00  0.00     0.031 C 
ATOM     43  C   UNL A   1      39.958  28.492  27.711  1.00  0.00     0.029 A 
ATOM     44  C   UNL A   1      40.786  28.285  28.897  1.00  0.00     0.049 A 
ATOM     45  H   UNL A   1      40.563  29.181  30.764  1.00  0.00     0.167 HD
ATOM     46  C   UNL A   1      39.966  31.108  34.642  1.00  0.00     0.037 A 
ATOM     47  C   UNL A   1      41.848  27.460  28.984  1.00  0.00     0.037 A 
ATOM     48  C   UNL A   1      41.068  30.205  34.843  1.00  0.00     0.049 A 
ATOM     49  C   UNL A   1      42.599  27.351  30.286  1.00  0.00     0.074 A 
ATOM     50  C   UNL A   1      41.773  29.951  36.007  1.00  0.00     0.029 A 
ATOM     51  N   UNL A   1      41.631  29.414  33.854  1.00  0.00    -0.354 N 
ATOM     52  N   UNL A   1      42.355  27.933  31.435  1.00  0.00    -0.248 NA
ATOM     53  C   UNL A   1      43.775  26.468  30.301  1.00  0.00     0.031 C 
ATOM     54  C   UNL A   1      42.794  29.041  35.711  1.00  0.00     0.029 A 
ATOM     55  C   UNL A   1      42.692  28.690  34.374  1.00  0.00     0.049 A 
ATOM     56  H   UNL A   1      41.320  29.371  32.921  1.00  0.00     0.167 HD
ATOM     57  C   UNL A   1      43.324  27.465  32.314  1.00  0.00     0.074 A 
ATOM     58  C   UNL A   1      44.156  26.545  31.568  1.00  0.00     0.031 C 
ATOM     59  C   UNL A   1      43.506  27.770  33.622  1.00  0.00     0.037 A 
BRANCH  46  60
ATOM     60  C   UNL A   1      39.517  31.943  35.804  1.00  0.00     0.064 A 
ATOM     61  C   UNL A   1      38.472  31.536  36.644  1.00  0.00     0.173 A 
ATOM     62  C   UNL A   1      40.173  33.146  36.106  1.00  0.00     0.173 A 
ATOM     63  F   UNL A   1      37.804  30.401  36.390  1.00  0.00    -0.203 F 
ATOM     64  C   UNL A   1      38.085  32.314  37.734  1.00  0.00     0.198 A 
ATOM     65  C   UNL A   1      39.802  33.908  37.211  1.00  0.00     0.198 A 
ATOM     66  F   UNL A   1      41.183  33.577  35.336  1.00  0.00    -0.203 F 
ATOM     67  F   UNL A   1      37.057  31.925  38.502  1.00  0.00    -0.200 F 
ATOM     68  C   UNL A   1      38.755  33.494  38.020  1.00  0.00     0.200 A 
ATOM     69  F   UNL A   1      40.458  35.043  37.491  1.00  0.00    -0.200 F 
ATOM     70  F   UNL A   1      38.388  34.236  39.074  1.00  0.00    -0.200 F 
ENDBRANCH  46  60
BRANCH  47  71
ATOM     71  C   UNL A   1      42.271  26.666  27.801  1.00  0.00     0.064 A 
ATOM     72  C   UNL A   1      41.722  25.401  27.548  1.00  0.00     0.173 A 
ATOM     73  C   UNL A   1      43.244  27.146  26.914  1.00  0.00     0.173 A 
ATOM     74  F   UNL A   1      40.808  24.889  28.384  1.00  0.00    -0.203 F 
ATOM     75  C   UNL A   1      42.143  24.640  26.459  1.00  0.00     0.198 A 
ATOM     76  C   UNL A   1      43.646  26.395  25.811  1.00  0.00     0.198 A 
ATOM     77  F   UNL A   1      43.805  28.347  27.116  1.00  0.00    -0.203 F 
ATOM     78  F   UNL A   1      41.634  23.416  26.264  1.00  0.00    -0.200 F 
ATOM     79  C   UNL A   1      43.101  25.140  25.589  1.00  0.00     0.200 A 
ATOM     80  F   UNL A   1      44.565  26.884  24.968  1.00  0.00    -0.200 F 
ATOM     81  F   UNL A   1      43.503  24.408  24.541  1.00  0.00    -0.200 F 
ENDBRANCH  47  71
BRANCH  59  82
ATOM     82  C   UNL A   1      44.622  27.076  34.345  1.00  0.00     0.064 A 
ATOM     83  C   UNL A   1      44.442  25.825  34.954  1.00  0.00     0.173 A 
ATOM     84  C   UNL A   1      45.903  27.649  34.391  1.00  0.00     0.173 A 
ATOM     85  F   UNL A   1      43.233  25.241  34.950  1.00  0.00    -0.203 F 
ATOM     86  C   UNL A   1      45.495  25.185  35.600  1.00  0.00     0.198 A 
ATOM     87  C   UNL A   1      46.961  26.993  35.013  1.00  0.00     0.198 A 
ATOM     88  F   UNL A   1      46.130  28.841  33.819  1.00  0.00    -0.203 F 
ATOM     89  F   UNL A   1      45.289  24.009  36.212  1.00  0.00    -0.200 F 
ATOM     90  C   UNL A   1      46.756  25.765  35.623  1.00  0.00     0.200 A 
ATOM     91  F   UNL A   1      48.180  27.550  35.023  1.00  0.00    -0.200 F 
ATOM     92  F   UNL A   1      47.770  25.143  36.238  1.00  0.00    -0.200 F 
ENDBRANCH  59  82
ENDBRANCH  33  34
ENDBRANCH  26  28
ENDBRANCH  25  26
ENDBRANCH  24  25
ENDBRANCH  23  24
ENDBRANCH  22  23
ENDBRANCH   1  22
TORSDOF 18
ENDMDL
MODEL 2
REMARK VINA RESULT:     -11.5      2.517      4.420
REMARK SMILES C[C@@H](C(=O)OCCOCCOC(=O)c1ccc(-c2c3nc(c(-c4c(F)c(F)c(F)c(F)c4F)c4ccc([nH]4)c(-c4c(F)c(F)c(F)c(F)c4F)c4nc(c(-c5c(F)c(F)c(F)c(F)c5F)c5ccc2[nH]5)C=C4)C=C3)cc1)c1ccc(C[C@H]2CCC[C@@H]2O)cc1
REMARK SMILES IDX 7 1 6 2 5 3 3 4 4 5 2 6 1 7 77 8 78 9 89 10 79 11 88 12
REMARK SMILES IDX 80 13 81 14 82 15 83 16 86 17 84 18 85 19 87 20 8 22 9 23
REMARK SMILES IDX 10 24 11 25 12 26 13 27 14 28 15 29 76 30 16 31 75 32 17 33
REMARK SMILES IDX 18 34 19 35 69 36 20 37 74 38 68 39 70 40 21 41 73 42 67 43
REMARK SMILES IDX 66 44 22 46 54 47 34 48 53 49 35 50 38 51 52 52 71 53 36 54
REMARK SMILES IDX 37 55 51 57 72 58 39 59 23 60 24 61 32 62 25 63 26 64 30 65
REMARK SMILES IDX 33 66 27 67 28 68 31 69 29 70 55 71 56 72 64 73 57 74 58 75
REMARK SMILES IDX 62 76 65 77 59 78 60 79 63 80 61 81 40 82 41 83 49 84 42 85
REMARK SMILES IDX 43 86 47 87 50 88 44 89 45 90 48 91 46 92
REMARK H PARENT 87 21 70 45 38 56
REMARK Flexibility Score: inf
ROOT
ATOM      1  C   UNL A   1      32.454  29.710  27.116  1.00  0.00     0.202 C 
ENDROOT
BRANCH   1   2
ATOM      2  C   UNL A   1      31.683  28.388  27.130  1.00  0.00     0.261 C 
BRANCH   2   3
ATOM      3  O   UNL A   1      32.065  27.575  26.007  1.00  0.00    -0.463 OA
BRANCH   3   4
ATOM      4  C   UNL A   1      32.145  26.239  26.252  1.00  0.00     0.313 C 
ATOM      5  O   UNL A   1      31.286  25.602  26.854  1.00  0.00    -0.252 OA
BRANCH   4   6
ATOM      6  C   UNL A   1      33.405  25.597  25.648  1.00  0.00     0.126 C 
ATOM      7  C   UNL A   1      34.046  26.438  24.537  1.00  0.00     0.025 C 
BRANCH   6   8
ATOM      8  C   UNL A   1      33.140  24.136  25.281  1.00  0.00    -0.034 A 
ATOM      9  C   UNL A   1      32.375  23.734  24.177  1.00  0.00     0.005 A 
ATOM     10  C   UNL A   1      33.658  23.133  26.117  1.00  0.00     0.005 A 
ATOM     11  C   UNL A   1      32.099  22.379  23.947  1.00  0.00     0.004 A 
ATOM     12  C   UNL A   1      33.368  21.784  25.896  1.00  0.00     0.004 A 
ATOM     13  C   UNL A   1      32.560  21.393  24.826  1.00  0.00    -0.048 A 
BRANCH  13  14
ATOM     14  C   UNL A   1      32.197  19.936  24.649  1.00  0.00     0.041 C 
BRANCH  14  15
ATOM     15  C   UNL A   1      33.222  19.053  23.916  1.00  0.00     0.022 C 
ATOM     16  C   UNL A   1      34.495  18.694  24.701  1.00  0.00     0.007 C 
ATOM     17  C   UNL A   1      32.702  17.707  23.404  1.00  0.00     0.117 C 
ATOM     18  C   UNL A   1      34.890  17.284  24.250  1.00  0.00     0.003 C 
ATOM     19  C   UNL A   1      33.986  16.961  23.071  1.00  0.00     0.032 C 
BRANCH  17  20
ATOM     20  O   UNL A   1      31.899  17.849  22.247  1.00  0.00    -0.393 OA
ATOM     21  H   UNL A   1      31.303  17.086  22.171  1.00  0.00     0.210 HD
ENDBRANCH  17  20
ENDBRANCH  14  15
ENDBRANCH  13  14
ENDBRANCH   6   8
ENDBRANCH   4   6
ENDBRANCH   3   4
ENDBRANCH   2   3
ENDBRANCH   1   2
BRANCH   1  22
ATOM     22  O   UNL A   1      32.067  30.646  26.110  1.00  0.00    -0.374 OA
BRANCH  22  23
ATOM     23  C   UNL A   1      31.254  31.749  26.514  1.00  0.00     0.202 C 
BRANCH  23  24
ATOM     24  C   UNL A   1      31.985  33.077  26.746  1.00  0.00     0.261 C 
BRANCH  24  25
ATOM     25  O   UNL A   1      32.686  33.111  28.004  1.00  0.00    -0.460 OA
BRANCH  25  26
ATOM     26  C   UNL A   1      33.784  33.901  28.019  1.00  0.00     0.338 C 
ATOM     27  O   UNL A   1      33.824  35.121  27.913  1.00  0.00    -0.246 OA
BRANCH  26  28
ATOM     28  C   UNL A   1      34.984  33.113  28.358  1.00  0.00     0.060 A 
ATOM     29  C   UNL A   1      34.786  31.828  28.880  1.00  0.00     0.016 A 
ATOM     30  C   UNL A   1      36.272  33.647  28.258  1.00  0.00     0.016 A 
ATOM     31  C   UNL A   1      35.870  31.090  29.351  1.00  0.00     0.010 A 
ATOM     32  C   UNL A   1      37.358  32.906  28.740  1.00  0.00     0.010 A 
ATOM     33  C   UNL A   1      37.158  31.640  29.321  1.00  0.00    -0.014 A 
BRANCH  33  34
ATOM     34  C   UNL A   1      38.260  30.949  30.034  1.00  0.00     0.031 A 
ATOM     35  C   UNL A   1      38.499  31.259  31.487  1.00  0.00     0.074 A 
ATOM     36  C   UNL A   1      39.011  30.024  29.412  1.00  0.00     0.049 A 
ATOM     37  N   UNL A   1      39.404  30.778  32.302  1.00  0.00    -0.248 NA
ATOM     38  C   UNL A   1      37.593  32.240  32.104  1.00  0.00     0.031 C 
ATOM     39  C   UNL A   1      38.850  29.601  28.022  1.00  0.00     0.029 A 
ATOM     40  N   UNL A   1      40.062  29.270  29.873  1.00  0.00    -0.354 N 
ATOM     41  C   UNL A   1      39.180  31.401  33.523  1.00  0.00     0.074 A 
ATOM     42  C   UNL A   1      38.071  32.313  33.338  1.00  0.00     0.031 C 
ATOM     43  C   UNL A   1      39.770  28.662  27.744  1.00  0.00     0.029 A 
ATOM     44  C   UNL A   1      40.602  28.439  28.924  1.00  0.00     0.049 A 
ATOM     45  H   UNL A   1      40.396  29.321  30.799  1.00  0.00     0.167 HD
ATOM     46  C   UNL A   1      39.834  31.223  34.696  1.00  0.00     0.037 A 
ATOM     47  C   UNL A   1      41.657  27.604  28.999  1.00  0.00     0.037 A 
ATOM     48  C   UNL A   1      40.930  30.309  34.884  1.00  0.00     0.049 A 
ATOM     49  C   UNL A   1      42.414  27.478  30.296  1.00  0.00     0.074 A 
ATOM     50  C   UNL A   1      41.639  30.040  36.042  1.00  0.00     0.029 A 
ATOM     51  N   UNL A   1      41.481  29.521  33.886  1.00  0.00    -0.354 N 
ATOM     52  N   UNL A   1      42.180  28.053  31.451  1.00  0.00    -0.248 NA
ATOM     53  C   UNL A   1      43.582  26.586  30.298  1.00  0.00     0.031 C 
ATOM     54  C   UNL A   1      42.650  29.123  35.733  1.00  0.00     0.029 A 
ATOM     55  C   UNL A   1      42.539  28.784  34.394  1.00  0.00     0.049 A 
ATOM     56  H   UNL A   1      41.165  29.488  32.954  1.00  0.00     0.167 HD
ATOM     57  C   UNL A   1      43.149  27.570  32.321  1.00  0.00     0.074 A 
ATOM     58  C   UNL A   1      43.970  26.649  31.564  1.00  0.00     0.031 C 
ATOM     59  C   UNL A   1      43.340  27.863  33.631  1.00  0.00     0.037 A 
BRANCH  46  60
ATOM     60  C   UNL A   1      39.398  32.052  35.866  1.00  0.00     0.064 A 
ATOM     61  C   UNL A   1      38.431  31.597  36.773  1.00  0.00     0.173 A 
ATOM     62  C   UNL A   1      39.991  33.301  36.108  1.00  0.00     0.173 A 
ATOM     63  F   UNL A   1      37.826  30.416  36.579  1.00  0.00    -0.203 F 
ATOM     64  C   UNL A   1      38.058  32.372  37.869  1.00  0.00     0.198 A 
ATOM     65  C   UNL A   1      39.634  34.062  37.218  1.00  0.00     0.198 A 
ATOM     66  F   UNL A   1      40.925  33.780  35.272  1.00  0.00    -0.203 F 
ATOM     67  F   UNL A   1      37.103  31.934  38.702  1.00  0.00    -0.200 F 
ATOM     68  C   UNL A   1      38.663  33.599  38.094  1.00  0.00     0.200 A 
ATOM     69  F   UNL A   1      40.229  35.242  37.440  1.00  0.00    -0.200 F 
ATOM     70  F   UNL A   1      38.309  34.338  39.154  1.00  0.00    -0.200 F 
ENDBRANCH  46  60
BRANCH  47  71
ATOM     71  C   UNL A   1      42.067  26.816  27.808  1.00  0.00     0.064 A 
ATOM     72  C   UNL A   1      41.532  25.543  27.566  1.00  0.00     0.173 A 
ATOM     73  C   UNL A   1      43.015  27.310  26.900  1.00  0.00     0.173 A 
ATOM     74  F   UNL A   1      40.643  25.017  28.421  1.00  0.00    -0.203 F 
ATOM     75  C   UNL A   1      41.942  24.788  26.469  1.00  0.00     0.198 A 
ATOM     76  C   UNL A   1      43.405  26.564  25.790  1.00  0.00     0.198 A 
ATOM     77  F   UNL A   1      43.561  28.520  27.090  1.00  0.00    -0.203 F 
ATOM     78  F   UNL A   1      41.447  23.556  26.285  1.00  0.00    -0.200 F 
ATOM     79  C   UNL A   1      42.874  25.301  25.579  1.00  0.00     0.200 A 
ATOM     80  F   UNL A   1      44.299  27.067  24.928  1.00  0.00    -0.200 F 
ATOM     81  F   UNL A   1      43.265  24.575  24.523  1.00  0.00    -0.200 F 
ENDBRANCH  47  71
BRANCH  59  82
ATOM     82  C   UNL A   1      44.455  27.153  34.343  1.00  0.00     0.064 A 
ATOM     83  C   UNL A   1      45.735  27.715  34.451  1.00  0.00     0.173 A 
ATOM     84  C   UNL A   1      44.226  25.915  34.964  1.00  0.00     0.173 A 
ATOM     85  F   UNL A   1      46.009  28.890  33.863  1.00  0.00    -0.203 F 
ATOM     86  C   UNL A   1      46.751  27.053  35.136  1.00  0.00     0.198 A 
ATOM     87  C   UNL A   1      45.236  25.271  35.672  1.00  0.00     0.198 A 
ATOM     88  F   UNL A   1      43.017  25.338  34.896  1.00  0.00    -0.203 F 
ATOM     89  F   UNL A   1      47.979  27.589  35.190  1.00  0.00    -0.200 F 
ATOM     90  C   UNL A   1      46.499  25.836  35.752  1.00  0.00     0.200 A 
ATOM     91  F   UNL A   1      44.987  24.101  36.276  1.00  0.00    -0.200 F 
ATOM     92  F   UNL A   1      47.476  25.205  36.417  1.00  0.00    -0.200 F 
ENDBRANCH  59  82
ENDBRANCH  33  34
ENDBRANCH  26  28
ENDBRANCH  25  26
ENDBRANCH  24  25
ENDBRANCH  23  24
ENDBRANCH  22  23
ENDBRANCH   1  22
TORSDOF 18
ENDMDL
MODEL 3
REMARK VINA RESULT:     -11.3      4.401      9.811
REMARK SMILES C[C@@H](C(=O)OCCOCCOC(=O)c1ccc(-c2c3nc(c(-c4c(F)c(F)c(F)c(F)c4F)c4ccc([nH]4)c(-c4c(F)c(F)c(F)c(F)c4F)c4nc(c(-c5c(F)c(F)c(F)c(F)c5F)c5ccc2[nH]5)C=C4)C=C3)cc1)c1ccc(C[C@H]2CCC[C@@H]2O)cc1
REMARK SMILES IDX 7 1 6 2 5 3 3 4 4 5 2 6 1 7 77 8 78 9 89 10 79 11 88 12
REMARK SMILES IDX 80 13 81 14 82 15 83 16 86 17 84 18 85 19 87 20 8 22 9 23
REMARK SMILES IDX 10 24 11 25 12 26 13 27 14 28 15 29 76 30 16 31 75 32 17 33
REMARK SMILES IDX 18 34 19 35 69 36 20 37 74 38 68 39 70 40 21 41 73 42 67 43
REMARK SMILES IDX 66 44 22 46 54 47 34 48 53 49 35 50 38 51 52 52 71 53 36 54
REMARK SMILES IDX 37 55 51 57 72 58 39 59 23 60 24 61 32 62 25 63 26 64 30 65
REMARK SMILES IDX 33 66 27 67 28 68 31 69 29 70 55 71 56 72 64 73 57 74 58 75
REMARK SMILES IDX 62 76 65 77 59 78 60 79 63 80 61 81 40 82 41 83 49 84 42 85
REMARK SMILES IDX 43 86 47 87 50 88 44 89 45 90 48 91 46 92
REMARK H PARENT 87 21 70 45 38 56
REMARK Flexibility Score: inf
ROOT
ATOM      1  C   UNL A   1      34.270  21.071  25.809  1.00  0.00     0.202 C 
ENDROOT
BRANCH   1   2
ATOM      2  C   UNL A   1      33.573  21.299  24.465  1.00  0.00     0.261 C 
BRANCH   2   3
ATOM      3  O   UNL A   1      34.313  22.246  23.673  1.00  0.00    -0.463 OA
BRANCH   3   4
ATOM      4  C   UNL A   1      33.654  23.398  23.374  1.00  0.00     0.313 C 
ATOM      5  O   UNL A   1      32.563  23.437  22.814  1.00  0.00    -0.252 OA
BRANCH   4   6
ATOM      6  C   UNL A   1      34.398  24.653  23.861  1.00  0.00     0.126 C 
ATOM      7  C   UNL A   1      35.147  24.444  25.184  1.00  0.00     0.025 C 
BRANCH   6   8
ATOM      8  C   UNL A   1      33.475  25.872  23.828  1.00  0.00    -0.034 A 
ATOM      9  C   UNL A   1      33.548  26.880  22.857  1.00  0.00     0.005 A 
ATOM     10  C   UNL A   1      32.522  26.016  24.849  1.00  0.00     0.005 A 
ATOM     11  C   UNL A   1      32.729  28.016  22.934  1.00  0.00     0.004 A 
ATOM     12  C   UNL A   1      31.718  27.155  24.935  1.00  0.00     0.004 A 
ATOM     13  C   UNL A   1      31.833  28.184  23.996  1.00  0.00    -0.048 A 
BRANCH  13  14
ATOM     14  C   UNL A   1      31.007  29.440  24.149  1.00  0.00     0.041 C 
BRANCH  14  15
ATOM     15  C   UNL A   1      29.800  29.594  23.207  1.00  0.00     0.022 C 
ATOM     16  C   UNL A   1      28.842  28.393  23.128  1.00  0.00     0.007 C 
ATOM     17  C   UNL A   1      28.885  30.790  23.480  1.00  0.00     0.117 C 
ATOM     18  C   UNL A   1      27.443  28.979  22.913  1.00  0.00     0.003 C 
ATOM     19  C   UNL A   1      27.654  30.461  22.649  1.00  0.00     0.032 C 
BRANCH  17  20
ATOM     20  O   UNL A   1      29.458  32.011  23.051  1.00  0.00    -0.393 OA
ATOM     21  H   UNL A   1      29.813  31.904  22.154  1.00  0.00     0.210 HD
ENDBRANCH  17  20
ENDBRANCH  14  15
ENDBRANCH  13  14
ENDBRANCH   6   8
ENDBRANCH   4   6
ENDBRANCH   3   4
ENDBRANCH   2   3
ENDBRANCH   1   2
BRANCH   1  22
ATOM     22  O   UNL A   1      35.695  21.008  25.769  1.00  0.00    -0.374 OA
BRANCH  22  23
ATOM     23  C   UNL A   1      36.286  19.964  24.994  1.00  0.00     0.202 C 
BRANCH  23  24
ATOM     24  C   UNL A   1      37.818  19.953  24.933  1.00  0.00     0.261 C 
BRANCH  24  25
ATOM     25  O   UNL A   1      38.399  21.186  25.400  1.00  0.00    -0.460 OA
BRANCH  25  26
ATOM     26  C   UNL A   1      39.532  21.040  26.125  1.00  0.00     0.338 C 
ATOM     27  O   UNL A   1      40.253  20.051  26.188  1.00  0.00    -0.246 OA
BRANCH  26  28
ATOM     28  C   UNL A   1      39.919  22.321  26.744  1.00  0.00     0.060 A 
ATOM     29  C   UNL A   1      39.259  23.476  26.304  1.00  0.00     0.016 A 
ATOM     30  C   UNL A   1      40.967  22.411  27.664  1.00  0.00     0.016 A 
ATOM     31  C   UNL A   1      39.676  24.730  26.745  1.00  0.00     0.010 A 
ATOM     32  C   UNL A   1      41.389  23.674  28.098  1.00  0.00     0.010 A 
ATOM     33  C   UNL A   1      40.769  24.840  27.613  1.00  0.00    -0.014 A 
BRANCH  33  34
ATOM     34  C   UNL A   1      41.348  26.179  27.886  1.00  0.00     0.031 A 
ATOM     35  C   UNL A   1      42.737  26.488  27.398  1.00  0.00     0.074 A 
ATOM     36  C   UNL A   1      40.633  27.124  28.520  1.00  0.00     0.049 A 
ATOM     37  N   UNL A   1      43.439  27.586  27.527  1.00  0.00    -0.248 NA
ATOM     38  C   UNL A   1      43.426  25.416  26.661  1.00  0.00     0.031 C 
ATOM     39  C   UNL A   1      39.262  26.964  29.001  1.00  0.00     0.029 A 
ATOM     40  N   UNL A   1      40.963  28.410  28.868  1.00  0.00    -0.354 N 
ATOM     41  C   UNL A   1      44.650  27.335  26.894  1.00  0.00     0.074 A 
ATOM     42  C   UNL A   1      44.600  25.975  26.404  1.00  0.00     0.031 C 
ATOM     43  C   UNL A   1      38.868  28.110  29.581  1.00  0.00     0.029 A 
ATOM     44  C   UNL A   1      39.966  29.073  29.539  1.00  0.00     0.049 A 
ATOM     45  H   UNL A   1      41.834  28.819  28.654  1.00  0.00     0.167 HD
ATOM     46  C   UNL A   1      45.706  28.168  26.731  1.00  0.00     0.037 A 
ATOM     47  C   UNL A   1      39.950  30.311  30.070  1.00  0.00     0.037 A 
ATOM     48  C   UNL A   1      45.753  29.524  27.209  1.00  0.00     0.049 A 
ATOM     49  C   UNL A   1      41.167  31.192  29.937  1.00  0.00     0.074 A 
ATOM     50  C   UNL A   1      46.770  30.454  27.067  1.00  0.00     0.029 A 
ATOM     51  N   UNL A   1      44.743  30.144  27.928  1.00  0.00    -0.354 N 
ATOM     52  N   UNL A   1      42.297  30.955  29.317  1.00  0.00    -0.248 NA
ATOM     53  C   UNL A   1      41.101  32.514  30.578  1.00  0.00     0.031 C 
ATOM     54  C   UNL A   1      46.394  31.620  27.742  1.00  0.00     0.029 A 
ATOM     55  C   UNL A   1      45.123  31.434  28.261  1.00  0.00     0.049 A 
ATOM     56  H   UNL A   1      43.883  29.728  28.166  1.00  0.00     0.167 HD
ATOM     57  C   UNL A   1      43.063  32.105  29.467  1.00  0.00     0.074 A 
ATOM     58  C   UNL A   1      42.266  33.042  30.230  1.00  0.00     0.031 C 
ATOM     59  C   UNL A   1      44.314  32.360  29.012  1.00  0.00     0.037 A 
BRANCH  46  60
ATOM     60  C   UNL A   1      46.912  27.627  26.023  1.00  0.00     0.064 A 
ATOM     61  C   UNL A   1      47.030  27.673  24.627  1.00  0.00     0.173 A 
ATOM     62  C   UNL A   1      47.984  27.096  26.757  1.00  0.00     0.173 A 
ATOM     63  F   UNL A   1      46.028  28.158  23.880  1.00  0.00    -0.203 F 
ATOM     64  C   UNL A   1      48.170  27.188  23.989  1.00  0.00     0.198 A 
ATOM     65  C   UNL A   1      49.132  26.636  26.118  1.00  0.00     0.198 A 
ATOM     66  F   UNL A   1      47.922  27.034  28.095  1.00  0.00    -0.203 F 
ATOM     67  F   UNL A   1      48.245  27.206  22.651  1.00  0.00    -0.200 F 
ATOM     68  C   UNL A   1      49.222  26.677  24.734  1.00  0.00     0.200 A 
ATOM     69  F   UNL A   1      50.152  26.153  26.841  1.00  0.00    -0.200 F 
ATOM     70  F   UNL A   1      50.321  26.219  24.119  1.00  0.00    -0.200 F 
ENDBRANCH  46  60
BRANCH  47  71
ATOM     71  C   UNL A   1      38.741  30.800  30.781  1.00  0.00     0.064 A 
ATOM     72  C   UNL A   1      37.683  31.395  30.080  1.00  0.00     0.173 A 
ATOM     73  C   UNL A   1      38.628  30.700  32.175  1.00  0.00     0.173 A 
ATOM     74  F   UNL A   1      37.758  31.537  28.749  1.00  0.00    -0.203 F 
ATOM     75  C   UNL A   1      36.563  31.885  30.749  1.00  0.00     0.198 A 
ATOM     76  C   UNL A   1      37.496  31.168  32.841  1.00  0.00     0.198 A 
ATOM     77  F   UNL A   1      39.615  30.145  32.893  1.00  0.00    -0.203 F 
ATOM     78  F   UNL A   1      35.585  32.489  30.060  1.00  0.00    -0.200 F 
ATOM     79  C   UNL A   1      36.469  31.767  32.128  1.00  0.00     0.200 A 
ATOM     80  F   UNL A   1      37.404  31.044  34.171  1.00  0.00    -0.200 F 
ATOM     81  F   UNL A   1      35.390  32.237  32.770  1.00  0.00    -0.200 F 
ENDBRANCH  47  71
BRANCH  59  82
ATOM     82  C   UNL A   1      44.887  33.719  29.290  1.00  0.00     0.064 A 
ATOM     83  C   UNL A   1      44.644  34.809  28.442  1.00  0.00     0.173 A 
ATOM     84  C   UNL A   1      45.653  33.943  30.445  1.00  0.00     0.173 A 
ATOM     85  F   UNL A   1      43.930  34.643  27.318  1.00  0.00    -0.203 F 
ATOM     86  C   UNL A   1      45.164  36.068  28.728  1.00  0.00     0.198 A 
ATOM     87  C   UNL A   1      46.148  35.210  30.742  1.00  0.00     0.198 A 
ATOM     88  F   UNL A   1      45.910  32.935  31.292  1.00  0.00    -0.203 F 
ATOM     89  F   UNL A   1      44.954  37.087  27.881  1.00  0.00    -0.200 F 
ATOM     90  C   UNL A   1      45.909  36.270  29.881  1.00  0.00     0.200 A 
ATOM     91  F   UNL A   1      46.857  35.404  31.863  1.00  0.00    -0.200 F 
ATOM     92  F   UNL A   1      46.402  37.484  30.159  1.00  0.00    -0.200 F 
ENDBRANCH  59  82
ENDBRANCH  33  34
ENDBRANCH  26  28
ENDBRANCH  25  26
ENDBRANCH  24  25
ENDBRANCH  23  24
ENDBRANCH  22  23
ENDBRANCH   1  22
TORSDOF 18
ENDMDL
