MODEL 1
REMARK VINA RESULT:     -10.9      0.000      0.000
REMARK SMILES CCC(C)(C)NC(=O)[C@@H](C)Oc1ccc(C)nc1C(=O)OCCOCCOC(=O)c1ccc(-c2c3nc(c(-c4c(F)c(F)c(F)c(F)c4F)c4ccc([nH]4)c(-c4c(F)c(F)c(F)c(F)c4F)c4nc(c(-c5c(F)c(F)c(F)c(F)c5F)c5ccc2[nH]5)C=C4)C=C3)cc1
REMARK SMILES IDX 22 1 21 2 19 3 20 4 18 5 12 6 13 7 14 8 17 9 15 10 16 11
REMARK SMILES IDX 11 12 9 13 10 14 7 15 6 16 8 18 3 19 4 20 5 21 2 22 1 23
REMARK SMILES IDX 23 24 24 25 25 26 26 27 27 28 28 29 29 30 30 31 31 32 92 33
REMARK SMILES IDX 32 34 91 35 33 36 34 37 35 38 85 39 36 40 90 41 84 42 86 43
REMARK SMILES IDX 37 44 89 45 83 46 82 47 38 49 70 50 50 51 69 52 51 53 54 54
REMARK SMILES IDX 68 55 87 56 52 57 53 58 67 60 88 61 55 62 39 63 40 64 48 65
REMARK SMILES IDX 41 66 42 67 46 68 49 69 43 70 44 71 47 72 45 73 71 74 72 75
REMARK SMILES IDX 80 76 73 77 74 78 78 79 81 80 75 81 76 82 79 83 77 84 56 85
REMARK SMILES IDX 57 86 65 87 58 88 59 89 63 90 66 91 60 92 61 93 64 94 62 95
REMARK H PARENT 6 17 86 48 54 59
REMARK Flexibility Score: inf
ROOT
ATOM      1  C   UNL A   1      33.774  28.556  26.628  1.00  0.00     0.261 C 
ENDROOT
BRANCH   1   2
ATOM      2  O   UNL A   1      32.872  27.636  25.982  1.00  0.00    -0.458 OA
BRANCH   2   3
ATOM      3  C   UNL A   1      32.991  27.597  24.632  1.00  0.00     0.360 C 
ATOM      4  O   UNL A   1      34.053  27.603  24.021  1.00  0.00    -0.244 OA
BRANCH   3   5
ATOM      5  C   UNL A   1      31.681  27.479  23.920  1.00  0.00     0.190 A 
ATOM      6  C   UNL A   1      30.851  26.361  23.971  1.00  0.00     0.153 A 
ATOM      7  C   UNL A   1      29.497  26.605  23.766  1.00  0.00     0.051 A 
ATOM      8  C   UNL A   1      29.074  27.823  23.232  1.00  0.00     0.027 A 
ATOM      9  N   UNL A   1      31.302  28.651  23.332  1.00  0.00    -0.243 NA
ATOM     10  C   UNL A   1      30.028  28.774  22.920  1.00  0.00     0.039 A 
ATOM     11  C   UNL A   1      29.709  29.956  22.062  1.00  0.00     0.067 C 
BRANCH   6  12
ATOM     12  O   UNL A   1      31.344  25.125  24.235  1.00  0.00    -0.478 OA
BRANCH  12  13
ATOM     13  C   UNL A   1      31.880  24.331  23.170  1.00  0.00     0.259 C 
ATOM     14  C   UNL A   1      31.272  22.917  23.252  1.00  0.00     0.064 C 
BRANCH  13  15
ATOM     15  C   UNL A   1      33.360  24.270  22.631  1.00  0.00     0.261 C 
ATOM     16  N   UNL A   1      34.172  23.186  22.831  1.00  0.00    -0.348 N 
ATOM     17  H   UNL A   1      34.063  22.454  22.183  1.00  0.00     0.164 HD
ATOM     18  O   UNL A   1      33.767  25.135  21.844  1.00  0.00    -0.271 OA
BRANCH  16  19
ATOM     19  C   UNL A   1      35.199  22.953  23.889  1.00  0.00     0.034 C 
ATOM     20  C   UNL A   1      35.267  24.154  24.862  1.00  0.00     0.034 C 
ATOM     21  C   UNL A   1      36.568  22.903  23.165  1.00  0.00     0.034 C 
BRANCH  19  22
ATOM     22  C   UNL A   1      35.066  21.657  24.725  1.00  0.00     0.024 C 
ATOM     23  C   UNL A   1      36.327  21.013  25.255  1.00  0.00     0.006 C 
ENDBRANCH  19  22
ENDBRANCH  16  19
ENDBRANCH  13  15
ENDBRANCH  12  13
ENDBRANCH   6  12
ENDBRANCH   3   5
ENDBRANCH   2   3
ENDBRANCH   1   2
BRANCH   1  24
ATOM     24  C   UNL A   1      33.389  29.994  26.293  1.00  0.00     0.202 C 
BRANCH  24  25
ATOM     25  O   UNL A   1      32.305  30.516  27.059  1.00  0.00    -0.374 OA
BRANCH  25  26
ATOM     26  C   UNL A   1      31.556  31.570  26.447  1.00  0.00     0.202 C 
BRANCH  26  27
ATOM     27  C   UNL A   1      31.781  32.945  27.090  1.00  0.00     0.261 C 
BRANCH  27  28
ATOM     28  O   UNL A   1      33.170  33.326  26.996  1.00  0.00    -0.460 OA
BRANCH  28  29
ATOM     29  C   UNL A   1      33.713  33.794  28.139  1.00  0.00     0.338 C 
ATOM     30  O   UNL A   1      33.227  34.616  28.913  1.00  0.00    -0.246 OA
BRANCH  29  31
ATOM     31  C   UNL A   1      34.925  33.027  28.476  1.00  0.00     0.060 A 
ATOM     32  C   UNL A   1      34.744  31.752  29.029  1.00  0.00     0.016 A 
ATOM     33  C   UNL A   1      36.210  33.549  28.312  1.00  0.00     0.016 A 
ATOM     34  C   UNL A   1      35.840  31.017  29.472  1.00  0.00     0.010 A 
ATOM     35  C   UNL A   1      37.312  32.815  28.770  1.00  0.00     0.010 A 
ATOM     36  C   UNL A   1      37.127  31.563  29.388  1.00  0.00    -0.014 A 
BRANCH  36  37
ATOM     37  C   UNL A   1      38.244  30.899  30.103  1.00  0.00     0.031 A 
ATOM     38  C   UNL A   1      38.487  31.242  31.548  1.00  0.00     0.074 A 
ATOM     39  C   UNL A   1      39.002  29.966  29.499  1.00  0.00     0.049 A 
ATOM     40  N   UNL A   1      39.415  30.808  32.363  1.00  0.00    -0.248 NA
ATOM     41  C   UNL A   1      37.556  32.208  32.154  1.00  0.00     0.031 C 
ATOM     42  C   UNL A   1      38.837  29.506  28.122  1.00  0.00     0.029 A 
ATOM     43  N   UNL A   1      40.067  29.240  29.972  1.00  0.00    -0.354 N 
ATOM     44  C   UNL A   1      39.183  31.451  33.573  1.00  0.00     0.074 A 
ATOM     45  C   UNL A   1      38.047  32.326  33.379  1.00  0.00     0.031 C 
ATOM     46  C   UNL A   1      39.775  28.582  27.858  1.00  0.00     0.029 A 
ATOM     47  C   UNL A   1      40.625  28.408  29.034  1.00  0.00     0.049 A 
ATOM     48  H   UNL A   1      40.399  29.312  30.896  1.00  0.00     0.167 HD
ATOM     49  C   UNL A   1      39.851  31.315  34.744  1.00  0.00     0.037 A 
ATOM     50  C   UNL A   1      41.711  27.613  29.115  1.00  0.00     0.037 A 
ATOM     51  C   UNL A   1      40.974  30.438  34.942  1.00  0.00     0.049 A 
ATOM     52  C   UNL A   1      42.482  27.535  30.408  1.00  0.00     0.074 A 
ATOM     53  C   UNL A   1      41.705  30.220  36.097  1.00  0.00     0.029 A 
ATOM     54  N   UNL A   1      41.532  29.637  33.957  1.00  0.00    -0.354 N 
ATOM     55  N   UNL A   1      42.246  28.131  31.551  1.00  0.00    -0.248 NA
ATOM     56  C   UNL A   1      43.672  26.671  30.420  1.00  0.00     0.031 C 
ATOM     57  C   UNL A   1      42.737  29.324  35.799  1.00  0.00     0.029 A 
ATOM     58  C   UNL A   1      42.616  28.944  34.472  1.00  0.00     0.049 A 
ATOM     59  H   UNL A   1      41.207  29.572  33.031  1.00  0.00     0.167 HD
ATOM     60  C   UNL A   1      43.233  27.691  32.424  1.00  0.00     0.074 A 
ATOM     61  C   UNL A   1      44.068  26.771  31.681  1.00  0.00     0.031 C 
ATOM     62  C   UNL A   1      43.430  28.019  33.725  1.00  0.00     0.037 A 
BRANCH  49  63
ATOM     63  C   UNL A   1      39.397  32.156  35.900  1.00  0.00     0.064 A 
ATOM     64  C   UNL A   1      38.430  31.703  36.809  1.00  0.00     0.173 A 
ATOM     65  C   UNL A   1      39.967  33.419  36.122  1.00  0.00     0.173 A 
ATOM     66  F   UNL A   1      37.845  30.509  36.633  1.00  0.00    -0.203 F 
ATOM     67  C   UNL A   1      38.034  32.493  37.885  1.00  0.00     0.198 A 
ATOM     68  C   UNL A   1      39.589  34.194  37.215  1.00  0.00     0.198 A 
ATOM     69  F   UNL A   1      40.899  33.898  35.284  1.00  0.00    -0.203 F 
ATOM     70  F   UNL A   1      37.076  32.059  38.716  1.00  0.00    -0.200 F 
ATOM     71  C   UNL A   1      38.618  33.734  38.091  1.00  0.00     0.200 A 
ATOM     72  F   UNL A   1      40.163  35.388  37.419  1.00  0.00    -0.200 F 
ATOM     73  F   UNL A   1      38.241  34.490  39.131  1.00  0.00    -0.200 F 
ENDBRANCH  49  63
BRANCH  50  74
ATOM     74  C   UNL A   1      42.149  26.834  27.927  1.00  0.00     0.064 A 
ATOM     75  C   UNL A   1      43.028  27.384  26.983  1.00  0.00     0.173 A 
ATOM     76  C   UNL A   1      41.673  25.535  27.695  1.00  0.00     0.173 A 
ATOM     77  F   UNL A   1      43.487  28.632  27.145  1.00  0.00    -0.203 F 
ATOM     78  C   UNL A   1      43.400  26.670  25.845  1.00  0.00     0.198 A 
ATOM     79  C   UNL A   1      42.068  24.812  26.572  1.00  0.00     0.198 A 
ATOM     80  F   UNL A   1      40.825  24.966  28.565  1.00  0.00    -0.203 F 
ATOM     81  F   UNL A   1      44.203  27.237  24.934  1.00  0.00    -0.200 F 
ATOM     82  C   UNL A   1      42.924  25.383  25.644  1.00  0.00     0.200 A 
ATOM     83  F   UNL A   1      41.612  23.566  26.386  1.00  0.00    -0.200 F 
ATOM     84  F   UNL A   1      43.282  24.698  24.550  1.00  0.00    -0.200 F 
ENDBRANCH  50  74
BRANCH  62  85
ATOM     85  C   UNL A   1      44.563  27.349  34.447  1.00  0.00     0.064 A 
ATOM     86  C   UNL A   1      45.828  27.947  34.550  1.00  0.00     0.173 A 
ATOM     87  C   UNL A   1      44.365  26.116  35.088  1.00  0.00     0.173 A 
ATOM     88  F   UNL A   1      46.073  29.118  33.944  1.00  0.00    -0.203 F 
ATOM     89  C   UNL A   1      46.859  27.325  35.250  1.00  0.00     0.198 A 
ATOM     90  C   UNL A   1      45.389  25.512  35.812  1.00  0.00     0.198 A 
ATOM     91  F   UNL A   1      43.173  25.507  35.027  1.00  0.00    -0.203 F 
ATOM     92  F   UNL A   1      48.072  27.893  35.300  1.00  0.00    -0.200 F 
ATOM     93  C   UNL A   1      46.637  26.112  35.886  1.00  0.00     0.200 A 
ATOM     94  F   UNL A   1      45.168  24.347  36.438  1.00  0.00    -0.200 F 
ATOM     95  F   UNL A   1      47.627  25.520  36.568  1.00  0.00    -0.200 F 
ENDBRANCH  62  85
ENDBRANCH  36  37
ENDBRANCH  29  31
ENDBRANCH  28  29
ENDBRANCH  27  28
ENDBRANCH  26  27
ENDBRANCH  25  26
ENDBRANCH  24  25
ENDBRANCH   1  24
TORSDOF 19
ENDMDL
MODEL 2
REMARK VINA RESULT:     -10.8      1.390      2.511
REMARK SMILES CCC(C)(C)NC(=O)[C@@H](C)Oc1ccc(C)nc1C(=O)OCCOCCOC(=O)c1ccc(-c2c3nc(c(-c4c(F)c(F)c(F)c(F)c4F)c4ccc([nH]4)c(-c4c(F)c(F)c(F)c(F)c4F)c4nc(c(-c5c(F)c(F)c(F)c(F)c5F)c5ccc2[nH]5)C=C4)C=C3)cc1
REMARK SMILES IDX 22 1 21 2 19 3 20 4 18 5 12 6 13 7 14 8 17 9 15 10 16 11
REMARK SMILES IDX 11 12 9 13 10 14 7 15 6 16 8 18 3 19 4 20 5 21 2 22 1 23
REMARK SMILES IDX 23 24 24 25 25 26 26 27 27 28 28 29 29 30 30 31 31 32 92 33
REMARK SMILES IDX 32 34 91 35 33 36 34 37 35 38 85 39 36 40 90 41 84 42 86 43
REMARK SMILES IDX 37 44 89 45 83 46 82 47 38 49 70 50 50 51 69 52 51 53 54 54
REMARK SMILES IDX 68 55 87 56 52 57 53 58 67 60 88 61 55 62 39 63 40 64 48 65
REMARK SMILES IDX 41 66 42 67 46 68 49 69 43 70 44 71 47 72 45 73 71 74 72 75
REMARK SMILES IDX 80 76 73 77 74 78 78 79 81 80 75 81 76 82 79 83 77 84 56 85
REMARK SMILES IDX 57 86 65 87 58 88 59 89 63 90 66 91 60 92 61 93 64 94 62 95
REMARK H PARENT 6 17 86 48 54 59
REMARK Flexibility Score: inf
ROOT
ATOM      1  C   UNL A   1      31.761  27.598  26.725  1.00  0.00     0.261 C 
ENDROOT
BRANCH   1   2
ATOM      2  O   UNL A   1      30.602  26.812  26.385  1.00  0.00    -0.458 OA
BRANCH   2   3
ATOM      3  C   UNL A   1      30.866  25.504  26.147  1.00  0.00     0.360 C 
ATOM      4  O   UNL A   1      30.396  24.567  26.782  1.00  0.00    -0.244 OA
BRANCH   3   5
ATOM      5  C   UNL A   1      31.758  25.279  24.969  1.00  0.00     0.190 A 
ATOM      6  C   UNL A   1      32.860  24.427  24.962  1.00  0.00     0.153 A 
ATOM      7  C   UNL A   1      33.209  23.901  23.723  1.00  0.00     0.051 A 
ATOM      8  C   UNL A   1      32.687  24.452  22.552  1.00  0.00     0.027 A 
ATOM      9  N   UNL A   1      31.287  25.883  23.838  1.00  0.00    -0.243 NA
ATOM     10  C   UNL A   1      31.818  25.523  22.656  1.00  0.00     0.039 A 
ATOM     11  C   UNL A   1      31.468  26.369  21.475  1.00  0.00     0.067 C 
BRANCH   6  12
ATOM     12  O   UNL A   1      33.521  24.117  26.105  1.00  0.00    -0.478 OA
BRANCH  12  13
ATOM     13  C   UNL A   1      33.676  22.745  26.488  1.00  0.00     0.259 C 
ATOM     14  C   UNL A   1      33.171  22.575  27.935  1.00  0.00     0.064 C 
BRANCH  13  15
ATOM     15  C   UNL A   1      34.877  21.767  26.199  1.00  0.00     0.261 C 
ATOM     16  N   UNL A   1      36.173  22.080  26.513  1.00  0.00    -0.348 N 
ATOM     17  H   UNL A   1      36.437  21.892  27.442  1.00  0.00     0.164 HD
ATOM     18  O   UNL A   1      34.654  20.602  25.846  1.00  0.00    -0.271 OA
BRANCH  16  19
ATOM     19  C   UNL A   1      37.243  22.664  25.653  1.00  0.00     0.034 C 
ATOM     20  C   UNL A   1      38.189  21.558  25.126  1.00  0.00     0.034 C 
ATOM     21  C   UNL A   1      38.102  23.565  26.576  1.00  0.00     0.034 C 
BRANCH  19  22
ATOM     22  C   UNL A   1      36.788  23.527  24.451  1.00  0.00     0.024 C 
ATOM     23  C   UNL A   1      36.666  22.864  23.098  1.00  0.00     0.006 C 
ENDBRANCH  19  22
ENDBRANCH  16  19
ENDBRANCH  13  15
ENDBRANCH  12  13
ENDBRANCH   6  12
ENDBRANCH   3   5
ENDBRANCH   2   3
ENDBRANCH   1   2
BRANCH   1  24
ATOM     24  C   UNL A   1      31.775  28.892  25.917  1.00  0.00     0.202 C 
BRANCH  24  25
ATOM     25  O   UNL A   1      31.899  30.081  26.696  1.00  0.00    -0.374 OA
BRANCH  25  26
ATOM     26  C   UNL A   1      31.262  31.247  26.165  1.00  0.00     0.202 C 
BRANCH  26  27
ATOM     27  C   UNL A   1      31.806  32.564  26.732  1.00  0.00     0.261 C 
BRANCH  27  28
ATOM     28  O   UNL A   1      32.799  32.305  27.748  1.00  0.00    -0.460 OA
BRANCH  28  29
ATOM     29  C   UNL A   1      33.789  33.218  27.826  1.00  0.00     0.338 C 
ATOM     30  O   UNL A   1      33.680  34.442  27.783  1.00  0.00    -0.246 OA
BRANCH  29  31
ATOM     31  C   UNL A   1      35.058  32.560  28.186  1.00  0.00     0.060 A 
ATOM     32  C   UNL A   1      35.020  31.180  28.424  1.00  0.00     0.016 A 
ATOM     33  C   UNL A   1      36.250  33.272  28.344  1.00  0.00     0.016 A 
ATOM     34  C   UNL A   1      36.156  30.514  28.875  1.00  0.00     0.010 A 
ATOM     35  C   UNL A   1      37.389  32.604  28.810  1.00  0.00     0.010 A 
ATOM     36  C   UNL A   1      37.336  31.230  29.115  1.00  0.00    -0.014 A 
BRANCH  36  37
ATOM     37  C   UNL A   1      38.447  30.573  29.846  1.00  0.00     0.031 A 
ATOM     38  C   UNL A   1      38.689  30.945  31.284  1.00  0.00     0.074 A 
ATOM     39  C   UNL A   1      39.199  29.622  29.263  1.00  0.00     0.049 A 
ATOM     40  N   UNL A   1      39.612  30.521  32.110  1.00  0.00    -0.248 NA
ATOM     41  C   UNL A   1      37.764  31.929  31.868  1.00  0.00     0.031 C 
ATOM     42  C   UNL A   1      39.033  29.135  27.896  1.00  0.00     0.029 A 
ATOM     43  N   UNL A   1      40.258  28.899  29.753  1.00  0.00    -0.354 N 
ATOM     44  C   UNL A   1      39.382  31.190  33.306  1.00  0.00     0.074 A 
ATOM     45  C   UNL A   1      38.254  32.069  33.091  1.00  0.00     0.031 C 
ATOM     46  C   UNL A   1      39.965  28.198  27.652  1.00  0.00     0.029 A 
ATOM     47  C   UNL A   1      40.812  28.043  28.834  1.00  0.00     0.049 A 
ATOM     48  H   UNL A   1      40.588  28.987  30.677  1.00  0.00     0.167 HD
ATOM     49  C   UNL A   1      40.047  31.073  34.481  1.00  0.00     0.037 A 
ATOM     50  C   UNL A   1      41.891  27.242  28.934  1.00  0.00     0.037 A 
ATOM     51  C   UNL A   1      41.163  30.192  34.700  1.00  0.00     0.049 A 
ATOM     52  C   UNL A   1      42.659  27.185  30.229  1.00  0.00     0.074 A 
ATOM     53  C   UNL A   1      41.889  29.993  35.860  1.00  0.00     0.029 A 
ATOM     54  N   UNL A   1      41.717  29.367  33.732  1.00  0.00    -0.354 N 
ATOM     55  N   UNL A   1      42.425  27.806  31.360  1.00  0.00    -0.248 NA
ATOM     56  C   UNL A   1      43.843  26.313  30.262  1.00  0.00     0.031 C 
ATOM     57  C   UNL A   1      42.915  29.083  35.583  1.00  0.00     0.029 A 
ATOM     58  C   UNL A   1      42.795  28.676  34.264  1.00  0.00     0.049 A 
ATOM     59  H   UNL A   1      41.394  29.285  32.807  1.00  0.00     0.167 HD
ATOM     60  C   UNL A   1      43.407  27.377  32.244  1.00  0.00     0.074 A 
ATOM     61  C   UNL A   1      44.236  26.435  31.522  1.00  0.00     0.031 C 
ATOM     62  C   UNL A   1      43.604  27.731  33.538  1.00  0.00     0.037 A 
BRANCH  49  63
ATOM     63  C   UNL A   1      39.597  31.942  35.618  1.00  0.00     0.064 A 
ATOM     64  C   UNL A   1      40.150  33.212  35.841  1.00  0.00     0.173 A 
ATOM     65  C   UNL A   1      38.572  31.512  36.474  1.00  0.00     0.173 A 
ATOM     66  F   UNL A   1      41.142  33.663  35.059  1.00  0.00    -0.203 F 
ATOM     67  C   UNL A   1      39.708  34.009  36.893  1.00  0.00     0.198 A 
ATOM     68  C   UNL A   1      38.114  32.323  37.509  1.00  0.00     0.198 A 
ATOM     69  F   UNL A   1      38.008  30.307  36.303  1.00  0.00    -0.203 F 
ATOM     70  F   UNL A   1      40.280  35.200  37.115  1.00  0.00    -0.200 F 
ATOM     71  C   UNL A   1      38.686  33.568  37.721  1.00  0.00     0.200 A 
ATOM     72  F   UNL A   1      37.119  31.900  38.300  1.00  0.00    -0.200 F 
ATOM     73  F   UNL A   1      38.258  34.339  38.730  1.00  0.00    -0.200 F 
ENDBRANCH  49  63
BRANCH  50  74
ATOM     74  C   UNL A   1      42.326  26.435  27.763  1.00  0.00     0.064 A 
ATOM     75  C   UNL A   1      43.294  26.916  26.870  1.00  0.00     0.173 A 
ATOM     76  C   UNL A   1      41.759  25.180  27.496  1.00  0.00     0.173 A 
ATOM     77  F   UNL A   1      43.844  28.122  27.066  1.00  0.00    -0.203 F 
ATOM     78  C   UNL A   1      43.665  26.179  25.747  1.00  0.00     0.198 A 
ATOM     79  C   UNL A   1      42.152  24.433  26.389  1.00  0.00     0.198 A 
ATOM     80  F   UNL A   1      40.824  24.677  28.317  1.00  0.00    -0.203 F 
ATOM     81  F   UNL A   1      44.558  26.683  24.883  1.00  0.00    -0.200 F 
ATOM     82  C   UNL A   1      43.098  24.936  25.510  1.00  0.00     0.200 A 
ATOM     83  F   UNL A   1      41.607  23.228  26.169  1.00  0.00    -0.200 F 
ATOM     84  F   UNL A   1      43.456  24.229  24.430  1.00  0.00    -0.200 F 
ENDBRANCH  50  74
BRANCH  62  85
ATOM     85  C   UNL A   1      44.730  27.067  34.277  1.00  0.00     0.064 A 
ATOM     86  C   UNL A   1      44.565  25.831  34.918  1.00  0.00     0.173 A 
ATOM     87  C   UNL A   1      46.006  27.654  34.299  1.00  0.00     0.173 A 
ATOM     88  F   UNL A   1      43.363  25.236  34.937  1.00  0.00    -0.203 F 
ATOM     89  C   UNL A   1      45.629  25.216  35.572  1.00  0.00     0.198 A 
ATOM     90  C   UNL A   1      47.075  27.021  34.928  1.00  0.00     0.198 A 
ATOM     91  F   UNL A   1      46.219  28.831  33.694  1.00  0.00    -0.203 F 
ATOM     92  F   UNL A   1      45.438  24.055  36.214  1.00  0.00    -0.200 F 
ATOM     93  C   UNL A   1      46.884  25.807  35.570  1.00  0.00     0.200 A 
ATOM     94  F   UNL A   1      48.289  27.588  34.913  1.00  0.00    -0.200 F 
ATOM     95  F   UNL A   1      47.910  25.209  36.191  1.00  0.00    -0.200 F 
ENDBRANCH  62  85
ENDBRANCH  36  37
ENDBRANCH  29  31
ENDBRANCH  28  29
ENDBRANCH  27  28
ENDBRANCH  26  27
ENDBRANCH  25  26
ENDBRANCH  24  25
ENDBRANCH   1  24
TORSDOF 19
ENDMDL
MODEL 3
REMARK VINA RESULT:     -10.7      1.210      7.466
REMARK SMILES CCC(C)(C)NC(=O)[C@@H](C)Oc1ccc(C)nc1C(=O)OCCOCCOC(=O)c1ccc(-c2c3nc(c(-c4c(F)c(F)c(F)c(F)c4F)c4ccc([nH]4)c(-c4c(F)c(F)c(F)c(F)c4F)c4nc(c(-c5c(F)c(F)c(F)c(F)c5F)c5ccc2[nH]5)C=C4)C=C3)cc1
REMARK SMILES IDX 22 1 21 2 19 3 20 4 18 5 12 6 13 7 14 8 17 9 15 10 16 11
REMARK SMILES IDX 11 12 9 13 10 14 7 15 6 16 8 18 3 19 4 20 5 21 2 22 1 23
REMARK SMILES IDX 23 24 24 25 25 26 26 27 27 28 28 29 29 30 30 31 31 32 92 33
REMARK SMILES IDX 32 34 91 35 33 36 34 37 35 38 85 39 36 40 90 41 84 42 86 43
REMARK SMILES IDX 37 44 89 45 83 46 82 47 38 49 70 50 50 51 69 52 51 53 54 54
REMARK SMILES IDX 68 55 87 56 52 57 53 58 67 60 88 61 55 62 39 63 40 64 48 65
REMARK SMILES IDX 41 66 42 67 46 68 49 69 43 70 44 71 47 72 45 73 71 74 72 75
REMARK SMILES IDX 80 76 73 77 74 78 78 79 81 80 75 81 76 82 79 83 77 84 56 85
REMARK SMILES IDX 57 86 65 87 58 88 59 89 63 90 66 91 60 92 61 93 64 94 62 95
REMARK H PARENT 6 17 86 48 54 59
REMARK Flexibility Score: inf
ROOT
ATOM      1  C   UNL A   1      33.828  28.457  26.650  1.00  0.00     0.261 C 
ENDROOT
BRANCH   1   2
ATOM      2  O   UNL A   1      32.798  27.689  25.997  1.00  0.00    -0.458 OA
BRANCH   2   3
ATOM      3  C   UNL A   1      32.945  27.590  24.653  1.00  0.00     0.360 C 
ATOM      4  O   UNL A   1      34.020  27.514  24.069  1.00  0.00    -0.244 OA
BRANCH   3   5
ATOM      5  C   UNL A   1      31.648  27.517  23.914  1.00  0.00     0.190 A 
ATOM      6  C   UNL A   1      30.784  26.425  23.938  1.00  0.00     0.153 A 
ATOM      7  C   UNL A   1      29.442  26.710  23.708  1.00  0.00     0.051 A 
ATOM      8  C   UNL A   1      29.067  27.944  23.176  1.00  0.00     0.027 A 
ATOM      9  N   UNL A   1      31.316  28.705  23.328  1.00  0.00    -0.243 NA
ATOM     10  C   UNL A   1      30.055  28.869  22.891  1.00  0.00     0.039 A 
ATOM     11  C   UNL A   1      29.789  30.067  22.037  1.00  0.00     0.067 C 
BRANCH   6  12
ATOM     12  O   UNL A   1      31.234  25.172  24.201  1.00  0.00    -0.478 OA
BRANCH  12  13
ATOM     13  C   UNL A   1      31.774  24.374  23.142  1.00  0.00     0.259 C 
ATOM     14  C   UNL A   1      31.197  22.948  23.253  1.00  0.00     0.064 C 
BRANCH  13  15
ATOM     15  C   UNL A   1      33.249  24.335  22.586  1.00  0.00     0.261 C 
ATOM     16  N   UNL A   1      34.096  23.285  22.819  1.00  0.00    -0.348 N 
ATOM     17  H   UNL A   1      34.001  22.524  22.203  1.00  0.00     0.164 HD
ATOM     18  O   UNL A   1      33.620  25.179  21.760  1.00  0.00    -0.271 OA
BRANCH  16  19
ATOM     19  C   UNL A   1      35.142  23.126  23.872  1.00  0.00     0.034 C 
ATOM     20  C   UNL A   1      36.547  23.000  23.235  1.00  0.00     0.034 C 
ATOM     21  C   UNL A   1      34.858  21.770  24.568  1.00  0.00     0.034 C 
BRANCH  19  22
ATOM     22  C   UNL A   1      35.203  24.211  24.974  1.00  0.00     0.024 C 
ATOM     23  C   UNL A   1      34.172  24.171  26.078  1.00  0.00     0.006 C 
ENDBRANCH  19  22
ENDBRANCH  16  19
ENDBRANCH  13  15
ENDBRANCH  12  13
ENDBRANCH   6  12
ENDBRANCH   3   5
ENDBRANCH   2   3
ENDBRANCH   1   2
BRANCH   1  24
ATOM     24  C   UNL A   1      33.652  29.941  26.343  1.00  0.00     0.202 C 
BRANCH  24  25
ATOM     25  O   UNL A   1      32.928  30.674  27.329  1.00  0.00    -0.374 OA
BRANCH  25  26
ATOM     26  C   UNL A   1      31.741  31.332  26.875  1.00  0.00     0.202 C 
BRANCH  26  27
ATOM     27  C   UNL A   1      31.774  32.856  27.045  1.00  0.00     0.261 C 
BRANCH  27  28
ATOM     28  O   UNL A   1      33.120  33.307  27.307  1.00  0.00    -0.460 OA
BRANCH  28  29
ATOM     29  C   UNL A   1      33.233  34.232  28.283  1.00  0.00     0.338 C 
ATOM     30  O   UNL A   1      32.479  35.177  28.506  1.00  0.00    -0.246 OA
BRANCH  29  31
ATOM     31  C   UNL A   1      34.303  33.851  29.222  1.00  0.00     0.060 A 
ATOM     32  C   UNL A   1      35.605  34.271  28.917  1.00  0.00     0.016 A 
ATOM     33  C   UNL A   1      34.063  33.056  30.345  1.00  0.00     0.016 A 
ATOM     34  C   UNL A   1      36.678  33.855  29.699  1.00  0.00     0.010 A 
ATOM     35  C   UNL A   1      35.145  32.626  31.124  1.00  0.00     0.010 A 
ATOM     36  C   UNL A   1      36.461  32.992  30.780  1.00  0.00    -0.014 A 
BRANCH  36  37
ATOM     37  C   UNL A   1      37.624  32.341  31.433  1.00  0.00     0.031 A 
ATOM     38  C   UNL A   1      38.355  31.252  30.694  1.00  0.00     0.074 A 
ATOM     39  C   UNL A   1      38.059  32.742  32.641  1.00  0.00     0.049 A 
ATOM     40  N   UNL A   1      39.377  30.529  31.075  1.00  0.00    -0.248 NA
ATOM     41  C   UNL A   1      37.863  30.938  29.343  1.00  0.00     0.031 C 
ATOM     42  C   UNL A   1      37.473  33.818  33.435  1.00  0.00     0.029 A 
ATOM     43  N   UNL A   1      39.100  32.283  33.409  1.00  0.00    -0.354 N 
ATOM     44  C   UNL A   1      39.646  29.672  30.015  1.00  0.00     0.074 A 
ATOM     45  C   UNL A   1      38.664  29.943  28.989  1.00  0.00     0.031 C 
ATOM     46  C   UNL A   1      38.157  33.931  34.586  1.00  0.00     0.029 A 
ATOM     47  C   UNL A   1      39.208  32.915  34.623  1.00  0.00     0.049 A 
ATOM     48  H   UNL A   1      39.710  31.567  33.118  1.00  0.00     0.167 HD
ATOM     49  C   UNL A   1      40.632  28.749  29.904  1.00  0.00     0.037 A 
ATOM     50  C   UNL A   1      40.048  32.684  35.651  1.00  0.00     0.037 A 
ATOM     51  C   UNL A   1      41.616  28.484  30.919  1.00  0.00     0.049 A 
ATOM     52  C   UNL A   1      41.090  31.601  35.532  1.00  0.00     0.074 A 
ATOM     53  C   UNL A   1      42.664  27.581  30.891  1.00  0.00     0.029 A 
ATOM     54  N   UNL A   1      41.670  29.122  32.150  1.00  0.00    -0.354 N 
ATOM     55  N   UNL A   1      41.350  30.808  34.521  1.00  0.00    -0.248 NA
ATOM     56  C   UNL A   1      41.956  31.382  36.700  1.00  0.00     0.031 C 
ATOM     57  C   UNL A   1      43.322  27.635  32.123  1.00  0.00     0.029 A 
ATOM     58  C   UNL A   1      42.718  28.611  32.900  1.00  0.00     0.049 A 
ATOM     59  H   UNL A   1      41.056  29.831  32.446  1.00  0.00     0.167 HD
ATOM     60  C   UNL A   1      42.425  30.023  34.916  1.00  0.00     0.074 A 
ATOM     61  C   UNL A   1      42.776  30.439  36.257  1.00  0.00     0.031 C 
ATOM     62  C   UNL A   1      43.065  29.044  34.229  1.00  0.00     0.037 A 
BRANCH  49  63
ATOM     63  C   UNL A   1      40.679  27.936  28.644  1.00  0.00     0.064 A 
ATOM     64  C   UNL A   1      41.454  28.326  27.542  1.00  0.00     0.173 A 
ATOM     65  C   UNL A   1      39.968  26.730  28.554  1.00  0.00     0.173 A 
ATOM     66  F   UNL A   1      42.141  29.477  27.573  1.00  0.00    -0.203 F 
ATOM     67  C   UNL A   1      41.497  27.549  26.387  1.00  0.00     0.198 A 
ATOM     68  C   UNL A   1      40.035  25.942  27.408  1.00  0.00     0.198 A 
ATOM     69  F   UNL A   1      39.214  26.310  29.582  1.00  0.00    -0.203 F 
ATOM     70  F   UNL A   1      42.208  27.962  25.330  1.00  0.00    -0.200 F 
ATOM     71  C   UNL A   1      40.793  26.355  26.324  1.00  0.00     0.200 A 
ATOM     72  F   UNL A   1      39.363  24.783  27.354  1.00  0.00    -0.200 F 
ATOM     73  F   UNL A   1      40.840  25.605  25.214  1.00  0.00    -0.200 F 
ENDBRANCH  49  63
BRANCH  50  74
ATOM     74  C   UNL A   1      39.932  33.486  36.898  1.00  0.00     0.064 A 
ATOM     75  C   UNL A   1      39.047  33.113  37.919  1.00  0.00     0.173 A 
ATOM     76  C   UNL A   1      40.681  34.657  37.079  1.00  0.00     0.173 A 
ATOM     77  F   UNL A   1      38.288  32.017  37.780  1.00  0.00    -0.203 F 
ATOM     78  C   UNL A   1      38.904  33.891  39.066  1.00  0.00     0.198 A 
ATOM     79  C   UNL A   1      40.558  35.418  38.239  1.00  0.00     0.198 A 
ATOM     80  F   UNL A   1      41.538  35.060  36.130  1.00  0.00    -0.203 F 
ATOM     81  F   UNL A   1      38.015  33.538  40.006  1.00  0.00    -0.200 F 
ATOM     82  C   UNL A   1      39.664  35.040  39.228  1.00  0.00     0.200 A 
ATOM     83  F   UNL A   1      41.301  36.523  38.394  1.00  0.00    -0.200 F 
ATOM     84  F   UNL A   1      39.525  35.787  40.331  1.00  0.00    -0.200 F 
ENDBRANCH  50  74
BRANCH  62  85
ATOM     85  C   UNL A   1      44.240  28.384  34.892  1.00  0.00     0.064 A 
ATOM     86  C   UNL A   1      44.094  27.219  35.660  1.00  0.00     0.173 A 
ATOM     87  C   UNL A   1      45.535  28.895  34.713  1.00  0.00     0.173 A 
ATOM     88  F   UNL A   1      42.876  26.699  35.872  1.00  0.00    -0.203 F 
ATOM     89  C   UNL A   1      45.199  26.603  36.242  1.00  0.00     0.198 A 
ATOM     90  C   UNL A   1      46.640  28.259  35.271  1.00  0.00     0.198 A 
ATOM     91  F   UNL A   1      45.730  30.001  33.981  1.00  0.00    -0.203 F 
ATOM     92  F   UNL A   1      45.031  25.515  37.007  1.00  0.00    -0.200 F 
ATOM     93  C   UNL A   1      46.471  27.118  36.041  1.00  0.00     0.200 A 
ATOM     94  F   UNL A   1      47.870  28.750  35.063  1.00  0.00    -0.200 F 
ATOM     95  F   UNL A   1      47.534  26.518  36.593  1.00  0.00    -0.200 F 
ENDBRANCH  62  85
ENDBRANCH  36  37
ENDBRANCH  29  31
ENDBRANCH  28  29
ENDBRANCH  27  28
ENDBRANCH  26  27
ENDBRANCH  25  26
ENDBRANCH  24  25
ENDBRANCH   1  24
TORSDOF 19
ENDMDL
