MODEL 1
REMARK VINA RESULT:     -11.3      0.000      0.000
REMARK SMILES CCNC(=O)c1cccc(-c2ccc(Cl)c(C(=O)OCCOCCOC(=O)c3ccc(-c4c5nc(c(-c6c(F)c(F)c(F)c(F)c6F)c6ccc([nH]6)c(-c6c(F)c(F)c(F)c(F)c6F)c6nc(c(-c7c(F)c(F)c(F)c(F)c7F)c7ccc4[nH]7)C=C6)C=C5)cc3)c2)c1
REMARK SMILES IDX 21 1 20 2 19 3 17 4 18 5 16 6 11 7 12 8 91 9 13 10 14 11
REMARK SMILES IDX 15 12 10 13 6 14 7 15 92 16 8 17 9 18 4 19 3 20 5 22 2 23
REMARK SMILES IDX 1 24 22 25 23 26 24 27 25 28 26 29 27 30 28 31 29 32 90 33
REMARK SMILES IDX 30 34 89 35 31 36 32 37 33 38 83 39 34 40 88 41 82 42 84 43
REMARK SMILES IDX 35 44 87 45 81 46 80 47 36 49 68 50 48 51 67 52 49 53 52 54
REMARK SMILES IDX 66 55 85 56 50 57 51 58 65 60 86 61 53 62 37 63 38 64 46 65
REMARK SMILES IDX 39 66 40 67 44 68 47 69 41 70 42 71 45 72 43 73 69 74 70 75
REMARK SMILES IDX 78 76 71 77 72 78 76 79 79 80 73 81 74 82 77 83 75 84 54 85
REMARK SMILES IDX 55 86 63 87 56 88 57 89 61 90 64 91 58 92 59 93 62 94 60 95
REMARK H PARENT 3 21 84 48 52 59
REMARK Flexibility Score: inf
ROOT
ATOM      1  C   UNL A   1      44.007  20.984  25.211  1.00  0.00     0.202 C 
ENDROOT
BRANCH   1   2
ATOM      2  C   UNL A   1      43.049  20.140  26.055  1.00  0.00     0.261 C 
BRANCH   2   3
ATOM      3  O   UNL A   1      41.693  20.543  25.812  1.00  0.00    -0.460 OA
BRANCH   3   4
ATOM      4  C   UNL A   1      40.889  20.593  26.904  1.00  0.00     0.339 C 
ATOM      5  O   UNL A   1      40.784  19.745  27.770  1.00  0.00    -0.246 OA
BRANCH   4   6
ATOM      6  C   UNL A   1      40.201  21.904  26.916  1.00  0.00     0.079 A 
ATOM      7  C   UNL A   1      38.349  23.294  26.098  1.00  0.00    -0.017 A 
ATOM      8  C   UNL A   1      38.818  24.330  26.922  1.00  0.00     0.010 A 
ATOM      9  C   UNL A   1      39.071  22.086  26.100  1.00  0.00     0.026 A 
ATOM     10  C   UNL A   1      39.965  24.171  27.707  1.00  0.00     0.022 A 
ATOM     11  C   UNL A   1      40.661  22.961  27.706  1.00  0.00     0.055 A 
ATOM     12  Cl  UNL A   1      42.109  22.886  28.641  1.00  0.00    -0.083 Cl
BRANCH   7  13
ATOM     13  C   UNL A   1      37.110  23.437  25.309  1.00  0.00    -0.018 A 
ATOM     14  C   UNL A   1      34.894  24.438  25.047  1.00  0.00     0.040 A 
ATOM     15  C   UNL A   1      34.759  23.851  23.789  1.00  0.00     0.014 A 
ATOM     16  C   UNL A   1      36.038  24.193  25.813  1.00  0.00     0.022 A 
ATOM     17  C   UNL A   1      35.793  23.067  23.282  1.00  0.00     0.001 A 
ATOM     18  C   UNL A   1      36.960  22.873  24.030  1.00  0.00     0.009 A 
BRANCH  14  19
ATOM     19  C   UNL A   1      33.796  25.274  25.578  1.00  0.00     0.251 C 
ATOM     20  N   UNL A   1      32.591  24.712  25.924  1.00  0.00    -0.352 N 
ATOM     21  H   UNL A   1      31.873  25.358  26.116  1.00  0.00     0.163 HD
ATOM     22  O   UNL A   1      33.968  26.483  25.706  1.00  0.00    -0.269 OA
BRANCH  20  23
ATOM     23  C   UNL A   1      32.207  23.315  26.051  1.00  0.00     0.112 C 
ATOM     24  C   UNL A   1      30.831  23.180  26.673  1.00  0.00     0.027 C 
ENDBRANCH  20  23
ENDBRANCH  14  19
ENDBRANCH   7  13
ENDBRANCH   4   6
ENDBRANCH   3   4
ENDBRANCH   2   3
ENDBRANCH   1   2
BRANCH   1  25
ATOM     25  O   UNL A   1      43.442  22.114  24.547  1.00  0.00    -0.374 OA
BRANCH  25  26
ATOM     26  C   UNL A   1      44.320  23.177  24.177  1.00  0.00     0.202 C 
BRANCH  26  27
ATOM     27  C   UNL A   1      45.719  23.176  24.802  1.00  0.00     0.261 C 
BRANCH  27  28
ATOM     28  O   UNL A   1      45.854  24.136  25.865  1.00  0.00    -0.460 OA
BRANCH  28  29
ATOM     29  C   UNL A   1      45.739  25.426  25.469  1.00  0.00     0.338 C 
ATOM     30  O   UNL A   1      46.246  25.951  24.492  1.00  0.00    -0.246 OA
BRANCH  29  31
ATOM     31  C   UNL A   1      44.753  26.129  26.311  1.00  0.00     0.060 A 
ATOM     32  C   UNL A   1      44.868  27.522  26.411  1.00  0.00     0.016 A 
ATOM     33  C   UNL A   1      43.805  25.436  27.064  1.00  0.00     0.016 A 
ATOM     34  C   UNL A   1      44.077  28.222  27.316  1.00  0.00     0.010 A 
ATOM     35  C   UNL A   1      43.014  26.142  27.977  1.00  0.00     0.010 A 
ATOM     36  C   UNL A   1      43.178  27.530  28.139  1.00  0.00    -0.014 A 
BRANCH  36  37
ATOM     37  C   UNL A   1      42.547  28.234  29.282  1.00  0.00     0.031 A 
ATOM     38  C   UNL A   1      43.269  28.267  30.601  1.00  0.00     0.074 A 
ATOM     39  C   UNL A   1      41.370  28.867  29.139  1.00  0.00     0.049 A 
ATOM     40  N   UNL A   1      42.902  28.796  31.740  1.00  0.00    -0.248 NA
ATOM     41  C   UNL A   1      44.587  27.612  30.640  1.00  0.00     0.031 C 
ATOM     42  C   UNL A   1      40.599  28.944  27.902  1.00  0.00     0.029 A 
ATOM     43  N   UNL A   1      40.620  29.564  30.051  1.00  0.00    -0.354 N 
ATOM     44  C   UNL A   1      43.935  28.532  32.629  1.00  0.00     0.074 A 
ATOM     45  C   UNL A   1      44.929  27.764  31.910  1.00  0.00     0.031 C 
ATOM     46  C   UNL A   1      39.476  29.647  28.132  1.00  0.00     0.029 A 
ATOM     47  C   UNL A   1      39.438  30.039  29.540  1.00  0.00     0.049 A 
ATOM     48  H   UNL A   1      40.901  29.709  30.984  1.00  0.00     0.167 HD
ATOM     49  C   UNL A   1      44.053  28.906  33.926  1.00  0.00     0.037 A 
ATOM     50  C   UNL A   1      38.433  30.700  30.148  1.00  0.00     0.037 A 
ATOM     51  C   UNL A   1      43.060  29.668  34.640  1.00  0.00     0.049 A 
ATOM     52  C   UNL A   1      38.553  31.039  31.611  1.00  0.00     0.074 A 
ATOM     53  C   UNL A   1      43.083  30.100  35.954  1.00  0.00     0.029 A 
ATOM     54  N   UNL A   1      41.861  30.105  34.096  1.00  0.00    -0.354 N 
ATOM     55  N   UNL A   1      39.539  30.803  32.442  1.00  0.00    -0.248 NA
ATOM     56  C   UNL A   1      37.416  31.747  32.220  1.00  0.00     0.031 C 
ATOM     57  C   UNL A   1      41.876  30.754  36.220  1.00  0.00     0.029 A 
ATOM     58  C   UNL A   1      41.127  30.786  35.055  1.00  0.00     0.049 A 
ATOM     59  H   UNL A   1      41.574  29.954  33.167  1.00  0.00     0.167 HD
ATOM     60  C   UNL A   1      39.163  31.365  33.655  1.00  0.00     0.074 A 
ATOM     61  C   UNL A   1      37.859  31.961  33.451  1.00  0.00     0.031 C 
ATOM     62  C   UNL A   1      39.838  31.391  34.831  1.00  0.00     0.037 A 
BRANCH  49  63
ATOM     63  C   UNL A   1      45.286  28.469  34.663  1.00  0.00     0.064 A 
ATOM     64  C   UNL A   1      45.330  27.262  35.379  1.00  0.00     0.173 A 
ATOM     65  C   UNL A   1      46.445  29.258  34.640  1.00  0.00     0.173 A 
ATOM     66  F   UNL A   1      44.244  26.476  35.447  1.00  0.00    -0.203 F 
ATOM     67  C   UNL A   1      46.476  26.880  36.072  1.00  0.00     0.198 A 
ATOM     68  C   UNL A   1      47.601  28.857  35.306  1.00  0.00     0.198 A 
ATOM     69  F   UNL A   1      46.461  30.417  33.967  1.00  0.00    -0.203 F 
ATOM     70  F   UNL A   1      46.476  25.752  36.796  1.00  0.00    -0.200 F 
ATOM     71  C   UNL A   1      47.612  27.674  36.029  1.00  0.00     0.200 A 
ATOM     72  F   UNL A   1      48.702  29.619  35.252  1.00  0.00    -0.200 F 
ATOM     73  F   UNL A   1      48.716  27.304  36.693  1.00  0.00    -0.200 F 
ENDBRANCH  49  63
BRANCH  50  74
ATOM     74  C   UNL A   1      37.227  31.092  29.373  1.00  0.00     0.064 A 
ATOM     75  C   UNL A   1      36.240  30.150  29.049  1.00  0.00     0.173 A 
ATOM     76  C   UNL A   1      37.043  32.409  28.928  1.00  0.00     0.173 A 
ATOM     77  F   UNL A   1      36.383  28.872  29.430  1.00  0.00    -0.203 F 
ATOM     78  C   UNL A   1      35.125  30.506  28.292  1.00  0.00     0.198 A 
ATOM     79  C   UNL A   1      35.913  32.771  28.198  1.00  0.00     0.198 A 
ATOM     80  F   UNL A   1      37.957  33.348  29.211  1.00  0.00    -0.203 F 
ATOM     81  F   UNL A   1      34.223  29.576  27.955  1.00  0.00    -0.200 F 
ATOM     82  C   UNL A   1      34.960  31.817  27.873  1.00  0.00     0.200 A 
ATOM     83  F   UNL A   1      35.750  34.041  27.804  1.00  0.00    -0.200 F 
ATOM     84  F   UNL A   1      33.886  32.161  27.148  1.00  0.00    -0.200 F 
ENDBRANCH  50  74
BRANCH  62  85
ATOM     85  C   UNL A   1      39.212  32.141  35.973  1.00  0.00     0.064 A 
ATOM     86  C   UNL A   1      38.305  31.534  36.854  1.00  0.00     0.173 A 
ATOM     87  C   UNL A   1      39.555  33.482  36.208  1.00  0.00     0.173 A 
ATOM     88  F   UNL A   1      37.933  30.258  36.667  1.00  0.00    -0.203 F 
ATOM     89  C   UNL A   1      37.741  32.250  37.907  1.00  0.00     0.198 A 
ATOM     90  C   UNL A   1      39.016  34.185  37.281  1.00  0.00     0.198 A 
ATOM     91  F   UNL A   1      40.425  34.110  35.400  1.00  0.00    -0.203 F 
ATOM     92  F   UNL A   1      36.835  31.665  38.703  1.00  0.00    -0.200 F 
ATOM     93  C   UNL A   1      38.103  33.571  38.124  1.00  0.00     0.200 A 
ATOM     94  F   UNL A   1      39.379  35.456  37.498  1.00  0.00    -0.200 F 
ATOM     95  F   UNL A   1      37.563  34.257  39.141  1.00  0.00    -0.200 F 
ENDBRANCH  62  85
ENDBRANCH  36  37
ENDBRANCH  29  31
ENDBRANCH  28  29
ENDBRANCH  27  28
ENDBRANCH  26  27
ENDBRANCH  25  26
ENDBRANCH   1  25
TORSDOF 17
ENDMDL
MODEL 2
REMARK VINA RESULT:     -11.2      1.064      1.940
REMARK SMILES CCNC(=O)c1cccc(-c2ccc(Cl)c(C(=O)OCCOCCOC(=O)c3ccc(-c4c5nc(c(-c6c(F)c(F)c(F)c(F)c6F)c6ccc([nH]6)c(-c6c(F)c(F)c(F)c(F)c6F)c6nc(c(-c7c(F)c(F)c(F)c(F)c7F)c7ccc4[nH]7)C=C6)C=C5)cc3)c2)c1
REMARK SMILES IDX 21 1 20 2 19 3 17 4 18 5 16 6 11 7 12 8 91 9 13 10 14 11
REMARK SMILES IDX 15 12 10 13 6 14 7 15 92 16 8 17 9 18 4 19 3 20 5 22 2 23
REMARK SMILES IDX 1 24 22 25 23 26 24 27 25 28 26 29 27 30 28 31 29 32 90 33
REMARK SMILES IDX 30 34 89 35 31 36 32 37 33 38 83 39 34 40 88 41 82 42 84 43
REMARK SMILES IDX 35 44 87 45 81 46 80 47 36 49 68 50 48 51 67 52 49 53 52 54
REMARK SMILES IDX 66 55 85 56 50 57 51 58 65 60 86 61 53 62 37 63 38 64 46 65
REMARK SMILES IDX 39 66 40 67 44 68 47 69 41 70 42 71 45 72 43 73 69 74 70 75
REMARK SMILES IDX 78 76 71 77 72 78 76 79 79 80 73 81 74 82 77 83 75 84 54 85
REMARK SMILES IDX 55 86 63 87 56 88 57 89 61 90 64 91 58 92 59 93 62 94 60 95
REMARK H PARENT 3 21 84 48 52 59
REMARK Flexibility Score: inf
ROOT
ATOM      1  C   UNL A   1      44.151  20.281  25.174  1.00  0.00     0.202 C 
ENDROOT
BRANCH   1   2
ATOM      2  C   UNL A   1      43.251  21.049  26.145  1.00  0.00     0.261 C 
BRANCH   2   3
ATOM      3  O   UNL A   1      41.874  20.893  25.769  1.00  0.00    -0.460 OA
BRANCH   3   4
ATOM      4  C   UNL A   1      40.996  20.753  26.795  1.00  0.00     0.339 C 
ATOM      5  O   UNL A   1      40.987  19.868  27.629  1.00  0.00    -0.246 OA
BRANCH   4   6
ATOM      6  C   UNL A   1      40.078  21.915  26.783  1.00  0.00     0.079 A 
ATOM      7  C   UNL A   1      38.000  22.921  25.946  1.00  0.00    -0.017 A 
ATOM      8  C   UNL A   1      38.271  24.044  26.745  1.00  0.00     0.010 A 
ATOM      9  C   UNL A   1      38.932  21.867  25.970  1.00  0.00     0.026 A 
ATOM     10  C   UNL A   1      39.429  24.116  27.527  1.00  0.00     0.022 A 
ATOM     11  C   UNL A   1      40.337  23.055  27.547  1.00  0.00     0.055 A 
ATOM     12  Cl  UNL A   1      41.776  23.269  28.475  1.00  0.00    -0.083 Cl
BRANCH   7  13
ATOM     13  C   UNL A   1      36.754  22.816  25.162  1.00  0.00    -0.018 A 
ATOM     14  C   UNL A   1      34.343  22.413  25.100  1.00  0.00     0.040 A 
ATOM     15  C   UNL A   1      34.310  22.718  23.739  1.00  0.00     0.014 A 
ATOM     16  C   UNL A   1      35.560  22.419  25.787  1.00  0.00     0.022 A 
ATOM     17  C   UNL A   1      35.487  23.081  23.088  1.00  0.00     0.001 A 
ATOM     18  C   UNL A   1      36.693  23.140  23.795  1.00  0.00     0.009 A 
BRANCH  14  19
ATOM     19  C   UNL A   1      33.090  22.035  25.788  1.00  0.00     0.251 C 
ATOM     20  N   UNL A   1      32.609  20.750  25.714  1.00  0.00    -0.352 N 
ATOM     21  H   UNL A   1      31.698  20.629  26.066  1.00  0.00     0.163 HD
ATOM     22  O   UNL A   1      32.475  22.885  26.427  1.00  0.00    -0.269 OA
BRANCH  20  23
ATOM     23  C   UNL A   1      33.233  19.541  25.199  1.00  0.00     0.112 C 
ATOM     24  C   UNL A   1      32.521  19.046  23.955  1.00  0.00     0.027 C 
ENDBRANCH  20  23
ENDBRANCH  14  19
ENDBRANCH   7  13
ENDBRANCH   4   6
ENDBRANCH   3   4
ENDBRANCH   2   3
ENDBRANCH   1   2
BRANCH   1  25
ATOM     25  O   UNL A   1      45.292  20.981  24.677  1.00  0.00    -0.374 OA
BRANCH  25  26
ATOM     26  C   UNL A   1      45.739  22.126  25.402  1.00  0.00     0.202 C 
BRANCH  26  27
ATOM     27  C   UNL A   1      45.924  23.425  24.611  1.00  0.00     0.261 C 
BRANCH  27  28
ATOM     28  O   UNL A   1      44.858  24.365  24.828  1.00  0.00    -0.460 OA
BRANCH  28  29
ATOM     29  C   UNL A   1      45.271  25.635  25.058  1.00  0.00     0.338 C 
ATOM     30  O   UNL A   1      46.206  26.217  24.535  1.00  0.00    -0.246 OA
BRANCH  29  31
ATOM     31  C   UNL A   1      44.319  26.326  25.946  1.00  0.00     0.060 A 
ATOM     32  C   UNL A   1      44.459  27.712  26.089  1.00  0.00     0.016 A 
ATOM     33  C   UNL A   1      43.378  25.624  26.702  1.00  0.00     0.016 A 
ATOM     34  C   UNL A   1      43.702  28.396  27.035  1.00  0.00     0.010 A 
ATOM     35  C   UNL A   1      42.621  26.312  27.657  1.00  0.00     0.010 A 
ATOM     36  C   UNL A   1      42.813  27.691  27.858  1.00  0.00    -0.014 A 
BRANCH  36  37
ATOM     37  C   UNL A   1      42.223  28.367  29.039  1.00  0.00     0.031 A 
ATOM     38  C   UNL A   1      42.968  28.328  30.345  1.00  0.00     0.074 A 
ATOM     39  C   UNL A   1      41.062  29.039  28.942  1.00  0.00     0.049 A 
ATOM     40  N   UNL A   1      42.637  28.823  31.510  1.00  0.00    -0.248 NA
ATOM     41  C   UNL A   1      44.267  27.636  30.334  1.00  0.00     0.031 C 
ATOM     42  C   UNL A   1      40.272  29.186  27.723  1.00  0.00     0.029 A 
ATOM     43  N   UNL A   1      40.348  29.720  29.894  1.00  0.00    -0.354 N 
ATOM     44  C   UNL A   1      43.677  28.495  32.369  1.00  0.00     0.074 A 
ATOM     45  C   UNL A   1      44.635  27.728  31.602  1.00  0.00     0.031 C 
ATOM     46  C   UNL A   1      39.175  29.911  28.001  1.00  0.00     0.029 A 
ATOM     47  C   UNL A   1      39.172  30.249  29.423  1.00  0.00     0.049 A 
ATOM     48  H   UNL A   1      40.650  29.822  30.826  1.00  0.00     0.167 HD
ATOM     49  C   UNL A   1      43.828  28.815  33.677  1.00  0.00     0.037 A 
ATOM     50  C   UNL A   1      38.198  30.913  30.075  1.00  0.00     0.037 A 
ATOM     51  C   UNL A   1      42.870  29.576  34.438  1.00  0.00     0.049 A 
ATOM     52  C   UNL A   1      38.352  31.192  31.548  1.00  0.00     0.074 A 
ATOM     53  C   UNL A   1      42.928  29.956  35.767  1.00  0.00     0.029 A 
ATOM     54  N   UNL A   1      41.675  30.068  33.933  1.00  0.00    -0.354 N 
ATOM     55  N   UNL A   1      39.346  30.895  32.351  1.00  0.00    -0.248 NA
ATOM     56  C   UNL A   1      37.248  31.908  32.204  1.00  0.00     0.031 C 
ATOM     57  C   UNL A   1      41.745  30.633  36.080  1.00  0.00     0.029 A 
ATOM     58  C   UNL A   1      40.978  30.731  34.931  1.00  0.00     0.049 A 
ATOM     59  H   UNL A   1      41.367  29.962  33.005  1.00  0.00     0.167 HD
ATOM     60  C   UNL A   1      39.007  31.421  33.591  1.00  0.00     0.074 A 
ATOM     61  C   UNL A   1      37.718  32.061  33.434  1.00  0.00     0.031 C 
ATOM     62  C   UNL A   1      39.703  31.381  34.754  1.00  0.00     0.037 A 
BRANCH  49  63
ATOM     63  C   UNL A   1      45.061  28.314  34.374  1.00  0.00     0.064 A 
ATOM     64  C   UNL A   1      45.094  27.061  35.005  1.00  0.00     0.173 A 
ATOM     65  C   UNL A   1      46.228  29.090  34.397  1.00  0.00     0.173 A 
ATOM     66  F   UNL A   1      44.001  26.284  35.025  1.00  0.00    -0.203 F 
ATOM     67  C   UNL A   1      46.241  26.620  35.661  1.00  0.00     0.198 A 
ATOM     68  C   UNL A   1      47.383  28.632  35.026  1.00  0.00     0.198 A 
ATOM     69  F   UNL A   1      46.253  30.294  33.806  1.00  0.00    -0.203 F 
ATOM     70  F   UNL A   1      46.232  25.444  36.306  1.00  0.00    -0.200 F 
ATOM     71  C   UNL A   1      47.385  27.402  35.666  1.00  0.00     0.200 A 
ATOM     72  F   UNL A   1      48.493  29.384  35.018  1.00  0.00    -0.200 F 
ATOM     73  F   UNL A   1      48.489  26.975  36.295  1.00  0.00    -0.200 F 
ENDBRANCH  49  63
BRANCH  50  74
ATOM     74  C   UNL A   1      36.990  31.369  29.339  1.00  0.00     0.064 A 
ATOM     75  C   UNL A   1      36.827  32.715  28.982  1.00  0.00     0.173 A 
ATOM     76  C   UNL A   1      35.968  30.473  28.991  1.00  0.00     0.173 A 
ATOM     77  F   UNL A   1      37.765  33.614  29.315  1.00  0.00    -0.203 F 
ATOM     78  C   UNL A   1      35.679  33.151  28.323  1.00  0.00     0.198 A 
ATOM     79  C   UNL A   1      34.834  30.905  28.306  1.00  0.00     0.198 A 
ATOM     80  F   UNL A   1      36.074  29.175  29.309  1.00  0.00    -0.203 F 
ATOM     81  F   UNL A   1      35.526  34.451  28.038  1.00  0.00    -0.200 F 
ATOM     82  C   UNL A   1      34.687  32.246  27.980  1.00  0.00     0.200 A 
ATOM     83  F   UNL A   1      33.883  30.026  27.965  1.00  0.00    -0.200 F 
ATOM     84  F   UNL A   1      33.584  32.665  27.343  1.00  0.00    -0.200 F 
ENDBRANCH  50  74
BRANCH  62  85
ATOM     85  C   UNL A   1      39.119  32.103  35.936  1.00  0.00     0.064 A 
ATOM     86  C   UNL A   1      39.400  33.452  36.198  1.00  0.00     0.173 A 
ATOM     87  C   UNL A   1      38.234  31.438  36.800  1.00  0.00     0.173 A 
ATOM     88  F   UNL A   1      40.249  34.131  35.412  1.00  0.00    -0.203 F 
ATOM     89  C   UNL A   1      38.842  34.099  37.298  1.00  0.00     0.198 A 
ATOM     90  C   UNL A   1      37.652  32.097  37.879  1.00  0.00     0.198 A 
ATOM     91  F   UNL A   1      37.924  30.149  36.591  1.00  0.00    -0.203 F 
ATOM     92  F   UNL A   1      39.167  35.373  37.560  1.00  0.00    -0.200 F 
ATOM     93  C   UNL A   1      37.964  33.424  38.132  1.00  0.00     0.200 A 
ATOM     94  F   UNL A   1      36.791  31.447  38.674  1.00  0.00    -0.200 F 
ATOM     95  F   UNL A   1      37.424  34.050  39.187  1.00  0.00    -0.200 F 
ENDBRANCH  62  85
ENDBRANCH  36  37
ENDBRANCH  29  31
ENDBRANCH  28  29
ENDBRANCH  27  28
ENDBRANCH  26  27
ENDBRANCH  25  26
ENDBRANCH   1  25
TORSDOF 17
ENDMDL
MODEL 3
REMARK VINA RESULT:     -11.1      0.844      7.343
REMARK SMILES CCNC(=O)c1cccc(-c2ccc(Cl)c(C(=O)OCCOCCOC(=O)c3ccc(-c4c5nc(c(-c6c(F)c(F)c(F)c(F)c6F)c6ccc([nH]6)c(-c6c(F)c(F)c(F)c(F)c6F)c6nc(c(-c7c(F)c(F)c(F)c(F)c7F)c7ccc4[nH]7)C=C6)C=C5)cc3)c2)c1
REMARK SMILES IDX 21 1 20 2 19 3 17 4 18 5 16 6 11 7 12 8 91 9 13 10 14 11
REMARK SMILES IDX 15 12 10 13 6 14 7 15 92 16 8 17 9 18 4 19 3 20 5 22 2 23
REMARK SMILES IDX 1 24 22 25 23 26 24 27 25 28 26 29 27 30 28 31 29 32 90 33
REMARK SMILES IDX 30 34 89 35 31 36 32 37 33 38 83 39 34 40 88 41 82 42 84 43
REMARK SMILES IDX 35 44 87 45 81 46 80 47 36 49 68 50 48 51 67 52 49 53 52 54
REMARK SMILES IDX 66 55 85 56 50 57 51 58 65 60 86 61 53 62 37 63 38 64 46 65
REMARK SMILES IDX 39 66 40 67 44 68 47 69 41 70 42 71 45 72 43 73 69 74 70 75
REMARK SMILES IDX 78 76 71 77 72 78 76 79 79 80 73 81 74 82 77 83 75 84 54 85
REMARK SMILES IDX 55 86 63 87 56 88 57 89 61 90 64 91 58 92 59 93 62 94 60 95
REMARK H PARENT 3 21 84 48 52 59
REMARK Flexibility Score: inf
ROOT
ATOM      1  C   UNL A   1      43.350  21.968  25.422  1.00  0.00     0.202 C 
ENDROOT
BRANCH   1   2
ATOM      2  C   UNL A   1      42.822  20.574  25.771  1.00  0.00     0.261 C 
BRANCH   2   3
ATOM      3  O   UNL A   1      41.387  20.563  25.718  1.00  0.00    -0.460 OA
BRANCH   3   4
ATOM      4  C   UNL A   1      40.754  20.725  26.908  1.00  0.00     0.339 C 
ATOM      5  O   UNL A   1      40.816  19.985  27.872  1.00  0.00    -0.246 OA
BRANCH   4   6
ATOM      6  C   UNL A   1      40.018  22.009  26.873  1.00  0.00     0.079 A 
ATOM      7  C   UNL A   1      38.119  23.302  26.005  1.00  0.00    -0.017 A 
ATOM      8  C   UNL A   1      38.548  24.382  26.792  1.00  0.00     0.010 A 
ATOM      9  C   UNL A   1      38.884  22.121  26.050  1.00  0.00     0.026 A 
ATOM     10  C   UNL A   1      39.699  24.293  27.583  1.00  0.00     0.022 A 
ATOM     11  C   UNL A   1      40.438  23.109  27.625  1.00  0.00     0.055 A 
ATOM     12  Cl  UNL A   1      41.886  23.120  28.563  1.00  0.00    -0.083 Cl
BRANCH   7  13
ATOM     13  C   UNL A   1      36.877  23.372  25.211  1.00  0.00    -0.018 A 
ATOM     14  C   UNL A   1      34.577  24.169  24.982  1.00  0.00     0.040 A 
ATOM     15  C   UNL A   1      34.507  23.647  23.690  1.00  0.00     0.014 A 
ATOM     16  C   UNL A   1      35.733  23.989  25.745  1.00  0.00     0.022 A 
ATOM     17  C   UNL A   1      35.616  22.999  23.150  1.00  0.00     0.001 A 
ATOM     18  C   UNL A   1      36.791  22.874  23.899  1.00  0.00     0.009 A 
BRANCH  14  19
ATOM     19  C   UNL A   1      33.399  24.862  25.548  1.00  0.00     0.251 C 
ATOM     20  N   UNL A   1      33.253  26.221  25.411  1.00  0.00    -0.352 N 
ATOM     21  H   UNL A   1      32.528  26.615  25.949  1.00  0.00     0.163 HD
ATOM     22  O   UNL A   1      32.548  24.210  26.147  1.00  0.00    -0.269 OA
BRANCH  20  23
ATOM     23  C   UNL A   1      33.997  27.171  24.599  1.00  0.00     0.112 C 
ATOM     24  C   UNL A   1      33.623  28.599  24.946  1.00  0.00     0.027 C 
ENDBRANCH  20  23
ENDBRANCH  14  19
ENDBRANCH   7  13
ENDBRANCH   4   6
ENDBRANCH   3   4
ENDBRANCH   2   3
ENDBRANCH   1   2
BRANCH   1  25
ATOM     25  O   UNL A   1      44.716  22.046  25.015  1.00  0.00    -0.374 OA
BRANCH  25  26
ATOM     26  C   UNL A   1      45.669  22.521  25.965  1.00  0.00     0.202 C 
BRANCH  26  27
ATOM     27  C   UNL A   1      46.531  23.718  25.550  1.00  0.00     0.261 C 
BRANCH  27  28
ATOM     28  O   UNL A   1      46.322  24.870  26.385  1.00  0.00    -0.460 OA
BRANCH  28  29
ATOM     29  C   UNL A   1      45.744  25.920  25.752  1.00  0.00     0.338 C 
ATOM     30  O   UNL A   1      45.861  26.236  24.580  1.00  0.00    -0.246 OA
BRANCH  29  31
ATOM     31  C   UNL A   1      44.781  26.586  26.648  1.00  0.00     0.060 A 
ATOM     32  C   UNL A   1      44.933  27.964  26.848  1.00  0.00     0.016 A 
ATOM     33  C   UNL A   1      43.819  25.865  27.357  1.00  0.00     0.016 A 
ATOM     34  C   UNL A   1      44.166  28.618  27.806  1.00  0.00     0.010 A 
ATOM     35  C   UNL A   1      43.051  26.524  28.323  1.00  0.00     0.010 A 
ATOM     36  C   UNL A   1      43.253  27.892  28.583  1.00  0.00    -0.014 A 
BRANCH  36  37
ATOM     37  C   UNL A   1      42.646  28.528  29.778  1.00  0.00     0.031 A 
ATOM     38  C   UNL A   1      41.274  29.132  29.660  1.00  0.00     0.074 A 
ATOM     39  C   UNL A   1      43.289  28.533  30.959  1.00  0.00     0.049 A 
ATOM     40  N   UNL A   1      40.560  29.761  30.557  1.00  0.00    -0.248 NA
ATOM     41  C   UNL A   1      40.618  29.010  28.348  1.00  0.00     0.031 C 
ATOM     42  C   UNL A   1      44.600  27.940  31.209  1.00  0.00     0.029 A 
ATOM     43  N   UNL A   1      42.919  29.061  32.169  1.00  0.00    -0.354 N 
ATOM     44  C   UNL A   1      39.378  30.115  29.919  1.00  0.00     0.074 A 
ATOM     45  C   UNL A   1      39.485  29.664  28.548  1.00  0.00     0.031 C 
ATOM     46  C   UNL A   1      44.930  28.142  32.496  1.00  0.00     0.029 A 
ATOM     47  C   UNL A   1      43.867  28.905  33.148  1.00  0.00     0.049 A 
ATOM     48  H   UNL A   1      42.055  29.509  32.322  1.00  0.00     0.167 HD
ATOM     49  C   UNL A   1      38.296  30.749  30.432  1.00  0.00     0.037 A 
ATOM     50  C   UNL A   1      43.880  29.347  34.421  1.00  0.00     0.037 A 
ATOM     51  C   UNL A   1      38.195  31.199  31.796  1.00  0.00     0.049 A 
ATOM     52  C   UNL A   1      42.697  30.115  34.948  1.00  0.00     0.074 A 
ATOM     53  C   UNL A   1      37.142  31.849  32.416  1.00  0.00     0.029 A 
ATOM     54  N   UNL A   1      39.190  31.050  32.751  1.00  0.00    -0.354 N 
ATOM     55  N   UNL A   1      41.576  30.432  34.345  1.00  0.00    -0.248 NA
ATOM     56  C   UNL A   1      42.779  30.583  36.340  1.00  0.00     0.031 C 
ATOM     57  C   UNL A   1      37.520  32.138  33.731  1.00  0.00     0.029 A 
ATOM     58  C   UNL A   1      38.783  31.614  33.950  1.00  0.00     0.049 A 
ATOM     59  H   UNL A   1      40.057  30.610  32.600  1.00  0.00     0.167 HD
ATOM     60  C   UNL A   1      40.805  31.096  35.291  1.00  0.00     0.074 A 
ATOM     61  C   UNL A   1      41.585  31.132  36.512  1.00  0.00     0.031 C 
ATOM     62  C   UNL A   1      39.563  31.624  35.163  1.00  0.00     0.037 A 
BRANCH  49  63
ATOM     63  C   UNL A   1      37.148  31.018  29.502  1.00  0.00     0.064 A 
ATOM     64  C   UNL A   1      36.967  32.271  28.895  1.00  0.00     0.173 A 
ATOM     65  C   UNL A   1      36.225  30.006  29.200  1.00  0.00     0.173 A 
ATOM     66  F   UNL A   1      37.812  33.280  29.161  1.00  0.00    -0.203 F 
ATOM     67  C   UNL A   1      35.886  32.509  28.050  1.00  0.00     0.198 A 
ATOM     68  C   UNL A   1      35.165  30.238  28.328  1.00  0.00     0.198 A 
ATOM     69  F   UNL A   1      36.353  28.789  29.748  1.00  0.00    -0.203 F 
ATOM     70  F   UNL A   1      35.701  33.730  27.527  1.00  0.00    -0.200 F 
ATOM     71  C   UNL A   1      34.990  31.490  27.761  1.00  0.00     0.200 A 
ATOM     72  F   UNL A   1      34.307  29.248  28.039  1.00  0.00    -0.200 F 
ATOM     73  F   UNL A   1      33.953  31.720  26.944  1.00  0.00    -0.200 F 
ENDBRANCH  49  63
BRANCH  50  74
ATOM     74  C   UNL A   1      45.053  29.067  35.292  1.00  0.00     0.064 A 
ATOM     75  C   UNL A   1      46.153  29.936  35.322  1.00  0.00     0.173 A 
ATOM     76  C   UNL A   1      45.105  27.920  36.098  1.00  0.00     0.173 A 
ATOM     77  F   UNL A   1      46.161  31.032  34.550  1.00  0.00    -0.203 F 
ATOM     78  C   UNL A   1      47.268  29.658  36.110  1.00  0.00     0.198 A 
ATOM     79  C   UNL A   1      46.207  27.659  36.908  1.00  0.00     0.198 A 
ATOM     80  F   UNL A   1      44.079  27.057  36.105  1.00  0.00    -0.203 F 
ATOM     81  F   UNL A   1      48.326  30.479  36.082  1.00  0.00    -0.200 F 
ATOM     82  C   UNL A   1      47.292  28.524  36.907  1.00  0.00     0.200 A 
ATOM     83  F   UNL A   1      46.222  26.569  37.686  1.00  0.00    -0.200 F 
ATOM     84  F   UNL A   1      48.363  28.258  37.667  1.00  0.00    -0.200 F 
ENDBRANCH  50  74
BRANCH  62  85
ATOM     85  C   UNL A   1      38.938  32.230  36.388  1.00  0.00     0.064 A 
ATOM     86  C   UNL A   1      38.100  31.494  37.239  1.00  0.00     0.173 A 
ATOM     87  C   UNL A   1      39.214  33.564  36.733  1.00  0.00     0.173 A 
ATOM     88  F   UNL A   1      37.794  30.221  36.950  1.00  0.00    -0.203 F 
ATOM     89  C   UNL A   1      37.537  32.079  38.370  1.00  0.00     0.198 A 
ATOM     90  C   UNL A   1      38.676  34.135  37.882  1.00  0.00     0.198 A 
ATOM     91  F   UNL A   1      40.015  34.311  35.958  1.00  0.00    -0.203 F 
ATOM     92  F   UNL A   1      36.696  31.373  39.139  1.00  0.00    -0.200 F 
ATOM     93  C   UNL A   1      37.831  33.395  38.695  1.00  0.00     0.200 A 
ATOM     94  F   UNL A   1      38.974  35.401  38.202  1.00  0.00    -0.200 F 
ATOM     95  F   UNL A   1      37.292  33.954  39.787  1.00  0.00    -0.200 F 
ENDBRANCH  62  85
ENDBRANCH  36  37
ENDBRANCH  29  31
ENDBRANCH  28  29
ENDBRANCH  27  28
ENDBRANCH  26  27
ENDBRANCH  25  26
ENDBRANCH   1  25
TORSDOF 17
ENDMDL
