MODEL 1
REMARK VINA RESULT:     -11.2      0.000      0.000
REMARK SMILES Cc1ccc(CNC(=O)c2csc(/C=C/C(=O)OCCOCCOC(=O)c3ccc(-c4c5nc(c(-c6c(F)c(F)c(F)c(F)c6F)c6ccc([nH]6)c(-c6c(F)c(F)c(F)c(F)c6F)c6nc(c(-c7c(F)c(F)c(F)c(F)c7F)c7ccc4[nH]7)C=C6)C=C5)cc3)c2)s1
REMARK SMILES IDX 20 1 19 2 18 3 16 4 17 5 15 6 14 7 13 8 10 9 11 10 90 11
REMARK SMILES IDX 12 12 8 13 7 14 9 16 6 17 5 18 1 19 2 20 3 21 91 22 4 23
REMARK SMILES IDX 21 24 22 25 23 26 24 27 25 28 26 29 27 30 28 31 89 32 29 33
REMARK SMILES IDX 88 34 30 35 31 36 32 37 82 38 33 39 87 40 81 41 83 42 34 43
REMARK SMILES IDX 86 44 80 45 79 46 35 48 67 49 47 50 66 51 48 52 51 53 65 54
REMARK SMILES IDX 84 55 49 56 50 57 64 59 85 60 52 61 36 62 37 63 45 64 38 65
REMARK SMILES IDX 39 66 43 67 46 68 40 69 41 70 44 71 42 72 68 73 69 74 77 75
REMARK SMILES IDX 70 76 71 77 75 78 78 79 72 80 73 81 76 82 74 83 53 84 54 85
REMARK SMILES IDX 62 86 55 87 56 88 60 89 63 90 57 91 58 92 61 93 59 94
REMARK H PARENT 7 15 83 47 51 58
REMARK Flexibility Score: inf
ROOT
ATOM      1  C   UNL A   1      40.759  21.372  27.306  1.00  0.00     0.202 C 
ENDROOT
BRANCH   1   2
ATOM      2  C   UNL A   1      40.065  21.715  25.986  1.00  0.00     0.261 C 
BRANCH   2   3
ATOM      3  O   UNL A   1      38.636  21.676  26.135  1.00  0.00    -0.460 OA
BRANCH   3   4
ATOM      4  C   UNL A   1      38.017  22.878  26.072  1.00  0.00     0.330 C 
ATOM      5  O   UNL A   1      38.554  23.964  25.925  1.00  0.00    -0.247 OA
BRANCH   4   6
ATOM      6  C   UNL A   1      36.549  22.756  26.141  1.00  0.00     0.095 C 
ATOM      7  C   UNL A   1      35.725  22.527  25.105  1.00  0.00     0.026 C 
BRANCH   7   8
ATOM      8  C   UNL A   1      34.315  22.380  25.285  1.00  0.00     0.028 A 
ATOM      9  C   UNL A   1      32.061  22.940  25.726  1.00  0.00     0.051 A 
ATOM     10  C   UNL A   1      31.939  21.684  25.165  1.00  0.00     0.079 A 
ATOM     11  C   UNL A   1      33.450  23.258  25.919  1.00  0.00     0.033 A 
ATOM     12  S   UNL A   1      33.440  21.000  24.740  1.00  0.00    -0.144 S 
BRANCH   9  13
ATOM     13  C   UNL A   1      30.887  23.737  26.074  1.00  0.00     0.252 C 
ATOM     14  N   UNL A   1      30.245  24.452  25.097  1.00  0.00    -0.347 N 
ATOM     15  H   UNL A   1      29.524  25.044  25.414  1.00  0.00     0.164 HD
ATOM     16  O   UNL A   1      30.431  23.748  27.215  1.00  0.00    -0.269 OA
BRANCH  14  17
ATOM     17  C   UNL A   1      30.472  24.467  23.669  1.00  0.00     0.163 C 
BRANCH  17  18
ATOM     18  C   UNL A   1      31.659  25.308  23.331  1.00  0.00     0.024 A 
ATOM     19  C   UNL A   1      33.768  28.586  22.885  1.00  0.00     0.056 C 
ATOM     20  C   UNL A   1      33.169  27.222  22.929  1.00  0.00     0.002 A 
ATOM     21  C   UNL A   1      33.656  26.052  22.389  1.00  0.00     0.015 A 
ATOM     22  S   UNL A   1      31.676  26.977  23.725  1.00  0.00    -0.144 S 
ATOM     23  C   UNL A   1      32.789  24.946  22.625  1.00  0.00     0.017 A 
ENDBRANCH  17  18
ENDBRANCH  14  17
ENDBRANCH   9  13
ENDBRANCH   7   8
ENDBRANCH   4   6
ENDBRANCH   3   4
ENDBRANCH   2   3
ENDBRANCH   1   2
BRANCH   1  24
ATOM     24  O   UNL A   1      42.169  21.177  27.221  1.00  0.00    -0.374 OA
BRANCH  24  25
ATOM     25  C   UNL A   1      42.699  20.855  25.932  1.00  0.00     0.202 C 
BRANCH  25  26
ATOM     26  C   UNL A   1      43.712  21.858  25.368  1.00  0.00     0.261 C 
BRANCH  26  27
ATOM     27  O   UNL A   1      43.067  23.067  24.919  1.00  0.00    -0.460 OA
BRANCH  27  28
ATOM     28  C   UNL A   1      43.778  24.201  25.111  1.00  0.00     0.338 C 
ATOM     29  O   UNL A   1      44.787  24.557  24.515  1.00  0.00    -0.246 OA
BRANCH  28  30
ATOM     30  C   UNL A   1      43.070  25.086  26.054  1.00  0.00     0.060 A 
ATOM     31  C   UNL A   1      43.543  26.397  26.189  1.00  0.00     0.016 A 
ATOM     32  C   UNL A   1      42.008  24.631  26.840  1.00  0.00     0.016 A 
ATOM     33  C   UNL A   1      42.987  27.246  27.144  1.00  0.00     0.010 A 
ATOM     34  C   UNL A   1      41.456  25.483  27.804  1.00  0.00     0.010 A 
ATOM     35  C   UNL A   1      41.965  26.782  27.984  1.00  0.00    -0.014 A 
BRANCH  35  36
ATOM     36  C   UNL A   1      41.532  27.610  29.135  1.00  0.00     0.031 A 
ATOM     37  C   UNL A   1      42.286  27.510  30.431  1.00  0.00     0.074 A 
ATOM     38  C   UNL A   1      40.497  28.460  29.020  1.00  0.00     0.049 A 
ATOM     39  N   UNL A   1      42.067  28.119  31.570  1.00  0.00    -0.248 NA
ATOM     40  C   UNL A   1      43.442  26.600  30.447  1.00  0.00     0.031 C 
ATOM     41  C   UNL A   1      39.711  28.674  27.807  1.00  0.00     0.029 A 
ATOM     42  N   UNL A   1      39.927  29.301  29.944  1.00  0.00    -0.354 N 
ATOM     43  C   UNL A   1      43.054  27.665  32.436  1.00  0.00     0.074 A 
ATOM     44  C   UNL A   1      43.854  26.708  31.702  1.00  0.00     0.031 C 
ATOM     45  C   UNL A   1      38.753  29.581  28.064  1.00  0.00     0.029 A 
ATOM     46  C   UNL A   1      38.841  29.989  29.465  1.00  0.00     0.049 A 
ATOM     47  H   UNL A   1      40.267  29.400  30.863  1.00  0.00     0.167 HD
ATOM     48  C   UNL A   1      43.279  28.024  33.722  1.00  0.00     0.037 A 
ATOM     49  C   UNL A   1      38.002  30.836  30.094  1.00  0.00     0.037 A 
ATOM     50  C   UNL A   1      42.485  28.978  34.450  1.00  0.00     0.049 A 
ATOM     51  C   UNL A   1      38.234  31.166  31.546  1.00  0.00     0.074 A 
ATOM     52  C   UNL A   1      42.649  29.423  35.751  1.00  0.00     0.029 A 
ATOM     53  N   UNL A   1      41.372  29.629  33.942  1.00  0.00    -0.354 N 
ATOM     54  N   UNL A   1      39.185  30.755  32.348  1.00  0.00    -0.248 NA
ATOM     55  C   UNL A   1      37.272  32.081  32.178  1.00  0.00     0.031 C 
ATOM     56  C   UNL A   1      41.605  30.309  36.044  1.00  0.00     0.029 A 
ATOM     57  C   UNL A   1      40.822  30.452  34.911  1.00  0.00     0.049 A 
ATOM     58  H   UNL A   1      41.024  29.522  33.027  1.00  0.00     0.167 HD
ATOM     59  C   UNL A   1      38.954  31.378  33.568  1.00  0.00     0.074 A 
ATOM     60  C   UNL A   1      37.778  32.205  33.398  1.00  0.00     0.031 C 
ATOM     61  C   UNL A   1      39.653  31.275  34.725  1.00  0.00     0.037 A 
BRANCH  48  62
ATOM     62  C   UNL A   1      44.421  27.362  34.434  1.00  0.00     0.064 A 
ATOM     63  C   UNL A   1      44.256  26.152  35.123  1.00  0.00     0.173 A 
ATOM     64  C   UNL A   1      45.705  27.928  34.398  1.00  0.00     0.173 A 
ATOM     65  F   UNL A   1      43.046  25.578  35.200  1.00  0.00    -0.203 F 
ATOM     66  C   UNL A   1      45.330  25.544  35.770  1.00  0.00     0.198 A 
ATOM     67  C   UNL A   1      46.780  27.304  35.022  1.00  0.00     0.198 A 
ATOM     68  F   UNL A   1      45.915  29.083  33.749  1.00  0.00    -0.203 F 
ATOM     69  F   UNL A   1      45.140  24.410  36.458  1.00  0.00    -0.200 F 
ATOM     70  C   UNL A   1      46.592  26.116  35.713  1.00  0.00     0.200 A 
ATOM     71  F   UNL A   1      48.001  27.853  34.957  1.00  0.00    -0.200 F 
ATOM     72  F   UNL A   1      47.625  25.527  36.330  1.00  0.00    -0.200 F 
ENDBRANCH  48  62
BRANCH  49  73
ATOM     73  C   UNL A   1      36.857  31.429  29.357  1.00  0.00     0.064 A 
ATOM     74  C   UNL A   1      36.825  32.794  29.044  1.00  0.00     0.173 A 
ATOM     75  C   UNL A   1      35.762  30.643  28.967  1.00  0.00     0.173 A 
ATOM     76  F   UNL A   1      37.837  33.590  29.420  1.00  0.00    -0.203 F 
ATOM     77  C   UNL A   1      35.733  33.356  28.384  1.00  0.00     0.198 A 
ATOM     78  C   UNL A   1      34.684  31.200  28.283  1.00  0.00     0.198 A 
ATOM     79  F   UNL A   1      35.743  29.331  29.244  1.00  0.00    -0.203 F 
ATOM     80  F   UNL A   1      35.708  34.672  28.137  1.00  0.00    -0.200 F 
ATOM     81  C   UNL A   1      34.667  32.558  27.999  1.00  0.00     0.200 A 
ATOM     82  F   UNL A   1      33.660  30.423  27.904  1.00  0.00    -0.200 F 
ATOM     83  F   UNL A   1      33.619  33.097  27.362  1.00  0.00    -0.200 F 
ENDBRANCH  49  73
BRANCH  61  84
ATOM     84  C   UNL A   1      39.186  32.098  35.890  1.00  0.00     0.064 A 
ATOM     85  C   UNL A   1      39.630  33.413  36.087  1.00  0.00     0.173 A 
ATOM     86  C   UNL A   1      38.251  31.576  36.798  1.00  0.00     0.173 A 
ATOM     87  F   UNL A   1      40.535  33.951  35.255  1.00  0.00    -0.203 F 
ATOM     88  C   UNL A   1      39.171  34.170  37.162  1.00  0.00     0.198 A 
ATOM     89  C   UNL A   1      37.774  32.345  37.856  1.00  0.00     0.198 A 
ATOM     90  F   UNL A   1      37.790  30.325  36.651  1.00  0.00    -0.203 F 
ATOM     91  F   UNL A   1      39.642  35.410  37.355  1.00  0.00    -0.200 F 
ATOM     92  C   UNL A   1      38.239  33.638  38.041  1.00  0.00     0.200 A 
ATOM     93  F   UNL A   1      36.864  31.834  38.696  1.00  0.00    -0.200 F 
ATOM     94  F   UNL A   1      37.794  34.370  39.071  1.00  0.00    -0.200 F 
ENDBRANCH  61  84
ENDBRANCH  35  36
ENDBRANCH  28  30
ENDBRANCH  27  28
ENDBRANCH  26  27
ENDBRANCH  25  26
ENDBRANCH  24  25
ENDBRANCH   1  24
TORSDOF 18
ENDMDL
MODEL 2
REMARK VINA RESULT:     -11.1      5.406      8.050
REMARK SMILES Cc1ccc(CNC(=O)c2csc(/C=C/C(=O)OCCOCCOC(=O)c3ccc(-c4c5nc(c(-c6c(F)c(F)c(F)c(F)c6F)c6ccc([nH]6)c(-c6c(F)c(F)c(F)c(F)c6F)c6nc(c(-c7c(F)c(F)c(F)c(F)c7F)c7ccc4[nH]7)C=C6)C=C5)cc3)c2)s1
REMARK SMILES IDX 20 1 19 2 18 3 16 4 17 5 15 6 14 7 13 8 10 9 11 10 90 11
REMARK SMILES IDX 12 12 8 13 7 14 9 16 6 17 5 18 1 19 2 20 3 21 91 22 4 23
REMARK SMILES IDX 21 24 22 25 23 26 24 27 25 28 26 29 27 30 28 31 89 32 29 33
REMARK SMILES IDX 88 34 30 35 31 36 32 37 82 38 33 39 87 40 81 41 83 42 34 43
REMARK SMILES IDX 86 44 80 45 79 46 35 48 67 49 47 50 66 51 48 52 51 53 65 54
REMARK SMILES IDX 84 55 49 56 50 57 64 59 85 60 52 61 36 62 37 63 45 64 38 65
REMARK SMILES IDX 39 66 43 67 46 68 40 69 41 70 44 71 42 72 68 73 69 74 77 75
REMARK SMILES IDX 70 76 71 77 75 78 78 79 72 80 73 81 76 82 74 83 53 84 54 85
REMARK SMILES IDX 62 86 55 87 56 88 60 89 63 90 57 91 58 92 61 93 59 94
REMARK H PARENT 7 15 83 47 51 58
REMARK Flexibility Score: inf
ROOT
ATOM      1  C   UNL A   1      41.696  21.595  26.665  1.00  0.00     0.202 C 
ENDROOT
BRANCH   1   2
ATOM      2  C   UNL A   1      40.675  22.414  27.458  1.00  0.00     0.261 C 
BRANCH   2   3
ATOM      3  O   UNL A   1      39.463  22.586  26.704  1.00  0.00    -0.460 OA
BRANCH   3   4
ATOM      4  C   UNL A   1      38.872  23.797  26.833  1.00  0.00     0.330 C 
ATOM      5  O   UNL A   1      39.210  24.693  27.590  1.00  0.00    -0.247 OA
BRANCH   4   6
ATOM      6  C   UNL A   1      37.754  23.978  25.888  1.00  0.00     0.095 C 
ATOM      7  C   UNL A   1      36.456  23.746  26.145  1.00  0.00     0.026 C 
BRANCH   7   8
ATOM      8  C   UNL A   1      35.441  23.998  25.171  1.00  0.00     0.028 A 
ATOM      9  C   UNL A   1      33.950  23.639  23.372  1.00  0.00     0.051 A 
ATOM     10  C   UNL A   1      33.451  24.801  23.929  1.00  0.00     0.079 A 
ATOM     11  C   UNL A   1      35.183  23.276  24.016  1.00  0.00     0.033 A 
ATOM     12  S   UNL A   1      34.349  25.326  25.278  1.00  0.00    -0.144 S 
BRANCH   9  13
ATOM     13  C   UNL A   1      33.270  22.972  22.264  1.00  0.00     0.252 C 
ATOM     14  N   UNL A   1      32.510  21.859  22.513  1.00  0.00    -0.347 N 
ATOM     15  H   UNL A   1      32.161  21.401  21.715  1.00  0.00     0.164 HD
ATOM     16  O   UNL A   1      33.325  23.409  21.117  1.00  0.00    -0.269 OA
BRANCH  14  17
ATOM     17  C   UNL A   1      32.146  21.258  23.778  1.00  0.00     0.163 C 
BRANCH  17  18
ATOM     18  C   UNL A   1      32.431  19.792  23.768  1.00  0.00     0.024 A 
ATOM     19  C   UNL A   1      33.697  16.337  25.129  1.00  0.00     0.056 C 
ATOM     20  C   UNL A   1      33.187  17.522  24.381  1.00  0.00     0.002 A 
ATOM     21  C   UNL A   1      32.872  17.623  23.043  1.00  0.00     0.015 A 
ATOM     22  S   UNL A   1      32.939  19.000  25.201  1.00  0.00    -0.144 S 
ATOM     23  C   UNL A   1      32.429  18.930  22.689  1.00  0.00     0.017 A 
ENDBRANCH  17  18
ENDBRANCH  14  17
ENDBRANCH   9  13
ENDBRANCH   7   8
ENDBRANCH   4   6
ENDBRANCH   3   4
ENDBRANCH   2   3
ENDBRANCH   1   2
BRANCH   1  24
ATOM     24  O   UNL A   1      41.352  20.225  26.462  1.00  0.00    -0.374 OA
BRANCH  24  25
ATOM     25  C   UNL A   1      42.309  19.251  26.884  1.00  0.00     0.202 C 
BRANCH  25  26
ATOM     26  C   UNL A   1      43.049  18.522  25.757  1.00  0.00     0.261 C 
BRANCH  26  27
ATOM     27  O   UNL A   1      43.259  19.381  24.619  1.00  0.00    -0.460 OA
BRANCH  27  28
ATOM     28  C   UNL A   1      44.554  19.579  24.281  1.00  0.00     0.338 C 
ATOM     29  O   UNL A   1      45.289  18.811  23.673  1.00  0.00    -0.246 OA
BRANCH  28  30
ATOM     30  C   UNL A   1      44.952  20.962  24.598  1.00  0.00     0.060 A 
ATOM     31  C   UNL A   1      45.509  21.202  25.861  1.00  0.00     0.016 A 
ATOM     32  C   UNL A   1      44.729  22.018  23.711  1.00  0.00     0.016 A 
ATOM     33  C   UNL A   1      45.802  22.504  26.260  1.00  0.00     0.010 A 
ATOM     34  C   UNL A   1      45.016  23.326  24.118  1.00  0.00     0.010 A 
ATOM     35  C   UNL A   1      45.522  23.578  25.405  1.00  0.00    -0.014 A 
BRANCH  35  36
ATOM     36  C   UNL A   1      45.629  24.966  25.916  1.00  0.00     0.031 A 
ATOM     37  C   UNL A   1      46.965  25.656  25.882  1.00  0.00     0.074 A 
ATOM     38  C   UNL A   1      44.547  25.615  26.378  1.00  0.00     0.049 A 
ATOM     39  N   UNL A   1      47.293  26.853  26.298  1.00  0.00    -0.248 NA
ATOM     40  C   UNL A   1      48.080  24.892  25.302  1.00  0.00     0.031 C 
ATOM     41  C   UNL A   1      43.193  25.069  26.428  1.00  0.00     0.029 A 
ATOM     42  N   UNL A   1      44.420  26.879  26.900  1.00  0.00    -0.354 N 
ATOM     43  C   UNL A   1      48.650  26.985  26.033  1.00  0.00     0.074 A 
ATOM     44  C   UNL A   1      49.091  25.736  25.449  1.00  0.00     0.031 C 
ATOM     45  C   UNL A   1      42.371  25.990  26.962  1.00  0.00     0.029 A 
ATOM     46  C   UNL A   1      43.147  27.177  27.317  1.00  0.00     0.049 A 
ATOM     47  H   UNL A   1      45.172  27.511  26.969  1.00  0.00     0.167 HD
ATOM     48  C   UNL A   1      49.453  28.055  26.247  1.00  0.00     0.037 A 
ATOM     49  C   UNL A   1      42.669  28.276  27.932  1.00  0.00     0.037 A 
ATOM     50  C   UNL A   1      49.014  29.297  26.825  1.00  0.00     0.049 A 
ATOM     51  C   UNL A   1      43.598  29.427  28.221  1.00  0.00     0.074 A 
ATOM     52  C   UNL A   1      49.748  30.446  27.061  1.00  0.00     0.029 A 
ATOM     53  N   UNL A   1      47.724  29.549  27.265  1.00  0.00    -0.354 N 
ATOM     54  N   UNL A   1      44.872  29.554  27.942  1.00  0.00    -0.248 NA
ATOM     55  C   UNL A   1      43.019  30.588  28.912  1.00  0.00     0.031 C 
ATOM     56  C   UNL A   1      48.913  31.378  27.688  1.00  0.00     0.029 A 
ATOM     57  C   UNL A   1      47.647  30.826  27.797  1.00  0.00     0.049 A 
ATOM     58  H   UNL A   1      46.973  28.914  27.209  1.00  0.00     0.167 HD
ATOM     59  C   UNL A   1      45.241  30.814  28.396  1.00  0.00     0.074 A 
ATOM     60  C   UNL A   1      44.052  31.418  28.960  1.00  0.00     0.031 C 
ATOM     61  C   UNL A   1      46.454  31.416  28.350  1.00  0.00     0.037 A 
BRANCH  48  62
ATOM     62  C   UNL A   1      50.899  27.919  25.873  1.00  0.00     0.064 A 
ATOM     63  C   UNL A   1      51.341  28.120  24.557  1.00  0.00     0.173 A 
ATOM     64  C   UNL A   1      51.860  27.618  26.851  1.00  0.00     0.173 A 
ATOM     65  F   UNL A   1      50.460  28.395  23.584  1.00  0.00    -0.203 F 
ATOM     66  C   UNL A   1      52.690  28.001  24.229  1.00  0.00     0.198 A 
ATOM     67  C   UNL A   1      53.210  27.527  26.524  1.00  0.00     0.198 A 
ATOM     68  F   UNL A   1      51.489  27.420  28.124  1.00  0.00    -0.203 F 
ATOM     69  F   UNL A   1      53.084  28.154  22.957  1.00  0.00    -0.200 F 
ATOM     70  C   UNL A   1      53.623  27.711  25.213  1.00  0.00     0.200 A 
ATOM     71  F   UNL A   1      54.111  27.258  27.478  1.00  0.00    -0.200 F 
ATOM     72  F   UNL A   1      54.921  27.604  24.897  1.00  0.00    -0.200 F 
ENDBRANCH  48  62
BRANCH  49  73
ATOM     73  C   UNL A   1      41.238  28.342  28.326  1.00  0.00     0.064 A 
ATOM     74  C   UNL A   1      40.276  28.896  27.471  1.00  0.00     0.173 A 
ATOM     75  C   UNL A   1      40.808  27.869  29.574  1.00  0.00     0.173 A 
ATOM     76  F   UNL A   1      40.644  29.386  26.278  1.00  0.00    -0.203 F 
ATOM     77  C   UNL A   1      38.939  28.990  27.856  1.00  0.00     0.198 A 
ATOM     78  C   UNL A   1      39.467  27.938  29.947  1.00  0.00     0.198 A 
ATOM     79  F   UNL A   1      41.690  27.331  30.430  1.00  0.00    -0.203 F 
ATOM     80  F   UNL A   1      38.048  29.565  27.038  1.00  0.00    -0.200 F 
ATOM     81  C   UNL A   1      38.536  28.506  29.091  1.00  0.00     0.200 A 
ATOM     82  F   UNL A   1      39.080  27.459  31.138  1.00  0.00    -0.200 F 
ATOM     83  F   UNL A   1      37.251  28.593  29.461  1.00  0.00    -0.200 F 
ENDBRANCH  49  73
BRANCH  61  84
ATOM     84  C   UNL A   1      46.554  32.811  28.896  1.00  0.00     0.064 A 
ATOM     85  C   UNL A   1      46.911  33.055  30.230  1.00  0.00     0.173 A 
ATOM     86  C   UNL A   1      46.331  33.918  28.062  1.00  0.00     0.173 A 
ATOM     87  F   UNL A   1      47.119  32.030  31.071  1.00  0.00    -0.203 F 
ATOM     88  C   UNL A   1      47.019  34.355  30.716  1.00  0.00     0.198 A 
ATOM     89  C   UNL A   1      46.466  35.217  28.544  1.00  0.00     0.198 A 
ATOM     90  F   UNL A   1      45.993  33.739  26.776  1.00  0.00    -0.203 F 
ATOM     91  F   UNL A   1      47.318  34.564  32.005  1.00  0.00    -0.200 F 
ATOM     92  C   UNL A   1      46.804  35.434  29.872  1.00  0.00     0.200 A 
ATOM     93  F   UNL A   1      46.271  36.257  27.723  1.00  0.00    -0.200 F 
ATOM     94  F   UNL A   1      46.916  36.685  30.339  1.00  0.00    -0.200 F 
ENDBRANCH  61  84
ENDBRANCH  35  36
ENDBRANCH  28  30
ENDBRANCH  27  28
ENDBRANCH  26  27
ENDBRANCH  25  26
ENDBRANCH  24  25
ENDBRANCH   1  24
TORSDOF 18
ENDMDL
MODEL 3
REMARK VINA RESULT:     -11.0      5.300      7.725
REMARK SMILES Cc1ccc(CNC(=O)c2csc(/C=C/C(=O)OCCOCCOC(=O)c3ccc(-c4c5nc(c(-c6c(F)c(F)c(F)c(F)c6F)c6ccc([nH]6)c(-c6c(F)c(F)c(F)c(F)c6F)c6nc(c(-c7c(F)c(F)c(F)c(F)c7F)c7ccc4[nH]7)C=C6)C=C5)cc3)c2)s1
REMARK SMILES IDX 20 1 19 2 18 3 16 4 17 5 15 6 14 7 13 8 10 9 11 10 90 11
REMARK SMILES IDX 12 12 8 13 7 14 9 16 6 17 5 18 1 19 2 20 3 21 91 22 4 23
REMARK SMILES IDX 21 24 22 25 23 26 24 27 25 28 26 29 27 30 28 31 89 32 29 33
REMARK SMILES IDX 88 34 30 35 31 36 32 37 82 38 33 39 87 40 81 41 83 42 34 43
REMARK SMILES IDX 86 44 80 45 79 46 35 48 67 49 47 50 66 51 48 52 51 53 65 54
REMARK SMILES IDX 84 55 49 56 50 57 64 59 85 60 52 61 36 62 37 63 45 64 38 65
REMARK SMILES IDX 39 66 43 67 46 68 40 69 41 70 44 71 42 72 68 73 69 74 77 75
REMARK SMILES IDX 70 76 71 77 75 78 78 79 72 80 73 81 76 82 74 83 53 84 54 85
REMARK SMILES IDX 62 86 55 87 56 88 60 89 63 90 57 91 58 92 61 93 59 94
REMARK H PARENT 7 15 83 47 51 58
REMARK Flexibility Score: inf
ROOT
ATOM      1  C   UNL A   1      41.050  21.597  27.636  1.00  0.00     0.202 C 
ENDROOT
BRANCH   1   2
ATOM      2  C   UNL A   1      40.511  22.213  26.343  1.00  0.00     0.261 C 
BRANCH   2   3
ATOM      3  O   UNL A   1      39.081  22.340  26.397  1.00  0.00    -0.460 OA
BRANCH   3   4
ATOM      4  C   UNL A   1      38.610  23.604  26.284  1.00  0.00     0.330 C 
ATOM      5  O   UNL A   1      39.278  24.624  26.215  1.00  0.00    -0.247 OA
BRANCH   4   6
ATOM      6  C   UNL A   1      37.139  23.648  26.187  1.00  0.00     0.095 C 
ATOM      7  C   UNL A   1      36.416  23.504  25.064  1.00  0.00     0.026 C 
BRANCH   7   8
ATOM      8  C   UNL A   1      34.988  23.517  25.083  1.00  0.00     0.028 A 
ATOM      9  C   UNL A   1      32.779  23.936  25.815  1.00  0.00     0.051 A 
ATOM     10  C   UNL A   1      32.578  23.565  24.500  1.00  0.00     0.079 A 
ATOM     11  C   UNL A   1      34.161  23.758  26.170  1.00  0.00     0.033 A 
ATOM     12  S   UNL A   1      34.028  23.185  23.691  1.00  0.00    -0.144 S 
BRANCH   9  13
ATOM     13  C   UNL A   1      31.674  24.390  26.656  1.00  0.00     0.252 C 
ATOM     14  N   UNL A   1      31.404  25.731  26.745  1.00  0.00    -0.347 N 
ATOM     15  H   UNL A   1      30.713  25.978  27.402  1.00  0.00     0.164 HD
ATOM     16  O   UNL A   1      30.950  23.597  27.254  1.00  0.00    -0.269 OA
BRANCH  14  17
ATOM     17  C   UNL A   1      31.985  26.836  26.015  1.00  0.00     0.163 C 
BRANCH  17  18
ATOM     18  C   UNL A   1      31.065  27.297  24.932  1.00  0.00     0.024 A 
ATOM     19  C   UNL A   1      29.406  29.800  22.407  1.00  0.00     0.056 C 
ATOM     20  C   UNL A   1      29.844  28.682  23.291  1.00  0.00     0.002 A 
ATOM     21  C   UNL A   1      29.247  27.455  23.483  1.00  0.00     0.015 A 
ATOM     22  S   UNL A   1      31.255  28.854  24.239  1.00  0.00    -0.144 S 
ATOM     23  C   UNL A   1      29.953  26.652  24.425  1.00  0.00     0.017 A 
ENDBRANCH  17  18
ENDBRANCH  14  17
ENDBRANCH   9  13
ENDBRANCH   7   8
ENDBRANCH   4   6
ENDBRANCH   3   4
ENDBRANCH   2   3
ENDBRANCH   1   2
BRANCH   1  24
ATOM     24  O   UNL A   1      42.123  20.671  27.468  1.00  0.00    -0.374 OA
BRANCH  24  25
ATOM     25  C   UNL A   1      41.774  19.348  27.053  1.00  0.00     0.202 C 
BRANCH  25  26
ATOM     26  C   UNL A   1      42.783  18.662  26.125  1.00  0.00     0.261 C 
BRANCH  26  27
ATOM     27  O   UNL A   1      43.013  19.432  24.929  1.00  0.00    -0.460 OA
BRANCH  27  28
ATOM     28  C   UNL A   1      44.312  19.594  24.592  1.00  0.00     0.338 C 
ATOM     29  O   UNL A   1      45.037  18.791  24.017  1.00  0.00    -0.246 OA
BRANCH  28  30
ATOM     30  C   UNL A   1      44.735  20.980  24.861  1.00  0.00     0.060 A 
ATOM     31  C   UNL A   1      45.296  21.255  26.115  1.00  0.00     0.016 A 
ATOM     32  C   UNL A   1      44.530  22.008  23.936  1.00  0.00     0.016 A 
ATOM     33  C   UNL A   1      45.611  22.565  26.468  1.00  0.00     0.010 A 
ATOM     34  C   UNL A   1      44.839  23.325  24.297  1.00  0.00     0.010 A 
ATOM     35  C   UNL A   1      45.349  23.613  25.575  1.00  0.00    -0.014 A 
BRANCH  35  36
ATOM     36  C   UNL A   1      45.480  25.016  26.036  1.00  0.00     0.031 A 
ATOM     37  C   UNL A   1      46.818  25.695  25.939  1.00  0.00     0.074 A 
ATOM     38  C   UNL A   1      44.416  25.687  26.510  1.00  0.00     0.049 A 
ATOM     39  N   UNL A   1      47.166  26.903  26.306  1.00  0.00    -0.248 NA
ATOM     40  C   UNL A   1      47.911  24.905  25.351  1.00  0.00     0.031 C 
ATOM     41  C   UNL A   1      43.061  25.153  26.619  1.00  0.00     0.029 A 
ATOM     42  N   UNL A   1      44.313  26.968  26.994  1.00  0.00    -0.354 N 
ATOM     43  C   UNL A   1      48.515  27.017  25.995  1.00  0.00     0.074 A 
ATOM     44  C   UNL A   1      48.931  25.747  25.439  1.00  0.00     0.031 C 
ATOM     45  C   UNL A   1      42.262  26.096  27.147  1.00  0.00     0.029 A 
ATOM     46  C   UNL A   1      43.055  27.288  27.439  1.00  0.00     0.049 A 
ATOM     47  H   UNL A   1      45.071  27.597  27.019  1.00  0.00     0.167 HD
ATOM     48  C   UNL A   1      49.331  28.088  26.149  1.00  0.00     0.037 A 
ATOM     49  C   UNL A   1      42.603  28.411  28.032  1.00  0.00     0.037 A 
ATOM     50  C   UNL A   1      48.917  29.351  26.699  1.00  0.00     0.049 A 
ATOM     51  C   UNL A   1      43.547  29.563  28.255  1.00  0.00     0.074 A 
ATOM     52  C   UNL A   1      49.665  30.502  26.875  1.00  0.00     0.029 A 
ATOM     53  N   UNL A   1      47.642  29.626  27.170  1.00  0.00    -0.354 N 
ATOM     54  N   UNL A   1      44.813  29.673  27.933  1.00  0.00    -0.248 NA
ATOM     55  C   UNL A   1      42.996  30.751  28.926  1.00  0.00     0.031 C 
ATOM     56  C   UNL A   1      48.854  31.460  27.496  1.00  0.00     0.029 A 
ATOM     57  C   UNL A   1      47.589  30.920  27.662  1.00  0.00     0.049 A 
ATOM     58  H   UNL A   1      46.887  28.995  27.158  1.00  0.00     0.167 HD
ATOM     59  C   UNL A   1      45.202  30.944  28.334  1.00  0.00     0.074 A 
ATOM     60  C   UNL A   1      44.035  31.575  28.915  1.00  0.00     0.031 C 
ATOM     61  C   UNL A   1      46.417  31.536  28.232  1.00  0.00     0.037 A 
BRANCH  48  62
ATOM     62  C   UNL A   1      50.763  27.930  25.735  1.00  0.00     0.064 A 
ATOM     63  C   UNL A   1      51.158  28.033  24.394  1.00  0.00     0.173 A 
ATOM     64  C   UNL A   1      51.760  27.708  26.699  1.00  0.00     0.173 A 
ATOM     65  F   UNL A   1      50.242  28.230  23.434  1.00  0.00    -0.203 F 
ATOM     66  C   UNL A   1      52.496  27.895  24.028  1.00  0.00     0.198 A 
ATOM     67  C   UNL A   1      53.098  27.597  26.332  1.00  0.00     0.198 A 
ATOM     68  F   UNL A   1      51.434  27.604  27.996  1.00  0.00    -0.203 F 
ATOM     69  F   UNL A   1      52.844  27.954  22.735  1.00  0.00    -0.200 F 
ATOM     70  C   UNL A   1      53.465  27.684  24.997  1.00  0.00     0.200 A 
ATOM     71  F   UNL A   1      54.034  27.404  27.272  1.00  0.00    -0.200 F 
ATOM     72  F   UNL A   1      54.751  27.559  24.645  1.00  0.00    -0.200 F 
ENDBRANCH  48  62
BRANCH  49  73
ATOM     73  C   UNL A   1      41.185  28.499  28.468  1.00  0.00     0.064 A 
ATOM     74  C   UNL A   1      40.799  28.115  29.759  1.00  0.00     0.173 A 
ATOM     75  C   UNL A   1      40.186  28.951  27.594  1.00  0.00     0.173 A 
ATOM     76  F   UNL A   1      41.715  27.651  30.621  1.00  0.00    -0.203 F 
ATOM     77  C   UNL A   1      39.463  28.165  30.155  1.00  0.00     0.198 A 
ATOM     78  C   UNL A   1      38.855  29.026  27.999  1.00  0.00     0.198 A 
ATOM     79  F   UNL A   1      40.503  29.328  26.346  1.00  0.00    -0.203 F 
ATOM     80  F   UNL A   1      39.115  27.750  31.380  1.00  0.00    -0.200 F 
ATOM     81  C   UNL A   1      38.494  28.625  29.277  1.00  0.00     0.200 A 
ATOM     82  F   UNL A   1      37.923  29.481  27.151  1.00  0.00    -0.200 F 
ATOM     83  F   UNL A   1      37.210  28.675  29.658  1.00  0.00    -0.200 F 
ENDBRANCH  49  73
BRANCH  61  84
ATOM     84  C   UNL A   1      46.542  32.947  28.728  1.00  0.00     0.064 A 
ATOM     85  C   UNL A   1      46.947  33.232  30.041  1.00  0.00     0.173 A 
ATOM     86  C   UNL A   1      46.295  34.028  27.867  1.00  0.00     0.173 A 
ATOM     87  F   UNL A   1      47.180  32.234  30.906  1.00  0.00    -0.203 F 
ATOM     88  C   UNL A   1      47.077  34.547  30.480  1.00  0.00     0.198 A 
ATOM     89  C   UNL A   1      46.452  35.341  28.302  1.00  0.00     0.198 A 
ATOM     90  F   UNL A   1      45.912  33.810  26.601  1.00  0.00    -0.203 F 
ATOM     91  F   UNL A   1      47.422  34.796  31.751  1.00  0.00    -0.200 F 
ATOM     92  C   UNL A   1      46.837  35.599  29.609  1.00  0.00     0.200 A 
ATOM     93  F   UNL A   1      46.233  36.356  27.455  1.00  0.00    -0.200 F 
ATOM     94  F   UNL A   1      46.970  36.864  30.031  1.00  0.00    -0.200 F 
ENDBRANCH  61  84
ENDBRANCH  35  36
ENDBRANCH  28  30
ENDBRANCH  27  28
ENDBRANCH  26  27
ENDBRANCH  25  26
ENDBRANCH  24  25
ENDBRANCH   1  24
TORSDOF 18
ENDMDL
