MODEL 1
REMARK VINA RESULT:     -11.4      0.000      0.000
REMARK SMILES C[C@]([NH3+])(Cc1ccc(I)cc1)C(=O)OCCOCCOC(=O)c1ccc(-c2c3nc(c(-c4c(F)c(F)c(F)c(F)c4F)c4ccc([nH]4)c(-c4c(F)c(F)c(F)c(F)c4F)c4nc(c(-c5c(F)c(F)c(F)c(F)c5F)c5ccc2[nH]5)C=C4)C=C3)cc1
REMARK SMILES IDX 17 1 16 2 15 3 14 4 12 5 13 6 2 7 1 8 4 9 5 10 6 11 11 12
REMARK SMILES IDX 7 13 10 14 8 15 9 16 3 17 18 21 19 22 20 23 21 24 22 25
REMARK SMILES IDX 23 26 24 27 85 28 25 29 84 30 26 31 27 32 28 33 78 34 29 35
REMARK SMILES IDX 83 36 77 37 79 38 30 39 82 40 76 41 75 42 31 44 63 45 43 46
REMARK SMILES IDX 62 47 44 48 47 49 61 50 80 51 45 52 46 53 60 55 81 56 48 57
REMARK SMILES IDX 32 58 33 59 41 60 34 61 35 62 39 63 42 64 36 65 37 66 40 67
REMARK SMILES IDX 38 68 64 69 65 70 73 71 66 72 67 73 71 74 74 75 68 76 69 77
REMARK SMILES IDX 72 78 70 79 49 80 50 81 58 82 51 83 52 84 56 85 59 86 53 87
REMARK SMILES IDX 54 88 57 89 55 90
REMARK H PARENT 3 18 3 19 3 20 79 43 47 54
REMARK Flexibility Score: inf
ROOT
ATOM      1  O   UNL A   1      31.061  29.547  24.507  1.00  0.00    -0.374 OA
ENDROOT
BRANCH   1   2
ATOM      2  C   UNL A   1      30.802  28.182  24.182  1.00  0.00     0.202 C 
BRANCH   2   3
ATOM      3  C   UNL A   1      31.048  27.184  25.315  1.00  0.00     0.261 C 
BRANCH   3   4
ATOM      4  O   UNL A   1      31.623  25.941  24.863  1.00  0.00    -0.459 OA
BRANCH   4   5
ATOM      5  C   UNL A   1      31.388  24.850  25.651  1.00  0.00     0.368 C 
ATOM      6  O   UNL A   1      31.399  24.866  26.878  1.00  0.00    -0.245 OA
BRANCH   5   7
ATOM      7  C   UNL A   1      31.267  23.539  24.827  1.00  0.00     0.194 C 
ATOM      8  C   UNL A   1      30.657  22.500  25.791  1.00  0.00     0.092 C 
BRANCH   7   9
ATOM      9  C   UNL A   1      32.616  22.989  24.288  1.00  0.00     0.116 C 
BRANCH   9  10
ATOM     10  C   UNL A   1      32.921  21.502  24.182  1.00  0.00    -0.041 A 
ATOM     11  C   UNL A   1      33.956  20.997  24.991  1.00  0.00     0.005 A 
ATOM     12  C   UNL A   1      32.204  20.595  23.395  1.00  0.00     0.005 A 
ATOM     13  C   UNL A   1      34.274  19.635  25.002  1.00  0.00     0.015 A 
ATOM     14  C   UNL A   1      32.518  19.230  23.400  1.00  0.00     0.015 A 
ATOM     15  C   UNL A   1      33.552  18.755  24.202  1.00  0.00     0.013 A 
ATOM     16  I   UNL A   1      34.026  16.733  24.200  1.00  0.00    -0.044 I 
ENDBRANCH   9  10
ENDBRANCH   7   9
BRANCH   7  17
ATOM     17  N   UNL A   1      30.281  23.736  23.731  1.00  0.00    -0.343 N 
ATOM     18  H   UNL A   1      29.368  23.957  24.130  1.00  0.00     0.345 HD
ATOM     19  H   UNL A   1      30.212  22.882  23.177  1.00  0.00     0.345 HD
ATOM     20  H   UNL A   1      30.585  24.504  23.133  1.00  0.00     0.345 HD
ENDBRANCH   7  17
ENDBRANCH   5   7
ENDBRANCH   4   5
ENDBRANCH   3   4
ENDBRANCH   2   3
ENDBRANCH   1   2
BRANCH   1  21
ATOM     21  C   UNL A   1      32.083  29.787  25.478  1.00  0.00     0.202 C 
BRANCH  21  22
ATOM     22  C   UNL A   1      31.793  30.964  26.407  1.00  0.00     0.261 C 
BRANCH  22  23
ATOM     23  O   UNL A   1      32.693  30.941  27.529  1.00  0.00    -0.460 OA
BRANCH  23  24
ATOM     24  C   UNL A   1      33.469  32.037  27.615  1.00  0.00     0.338 C 
ATOM     25  O   UNL A   1      33.106  33.208  27.677  1.00  0.00    -0.246 OA
BRANCH  24  26
ATOM     26  C   UNL A   1      34.861  31.631  27.837  1.00  0.00     0.060 A 
ATOM     27  C   UNL A   1      35.108  30.267  28.024  1.00  0.00     0.016 A 
ATOM     28  C   UNL A   1      35.878  32.575  28.001  1.00  0.00     0.016 A 
ATOM     29  C   UNL A   1      36.360  29.850  28.464  1.00  0.00     0.010 A 
ATOM     30  C   UNL A   1      37.139  32.150  28.436  1.00  0.00     0.010 A 
ATOM     31  C   UNL A   1      37.366  30.792  28.724  1.00  0.00    -0.014 A 
BRANCH  31  32
ATOM     32  C   UNL A   1      38.578  30.339  29.452  1.00  0.00     0.031 A 
ATOM     33  C   UNL A   1      38.778  30.772  30.880  1.00  0.00     0.074 A 
ATOM     34  C   UNL A   1      39.429  29.468  28.886  1.00  0.00     0.049 A 
ATOM     35  N   UNL A   1      39.663  30.365  31.755  1.00  0.00    -0.248 NA
ATOM     36  C   UNL A   1      37.856  31.797  31.393  1.00  0.00     0.031 C 
ATOM     37  C   UNL A   1      39.339  28.973  27.514  1.00  0.00     0.029 A 
ATOM     38  N   UNL A   1      40.526  28.827  29.407  1.00  0.00    -0.354 N 
ATOM     39  C   UNL A   1      39.394  31.069  32.921  1.00  0.00     0.074 A 
ATOM     40  C   UNL A   1      38.294  31.963  32.633  1.00  0.00     0.031 C 
ATOM     41  C   UNL A   1      40.327  28.087  27.305  1.00  0.00     0.029 A 
ATOM     42  C   UNL A   1      41.119  27.955  28.528  1.00  0.00     0.049 A 
ATOM     43  H   UNL A   1      40.854  28.977  30.322  1.00  0.00     0.167 HD
ATOM     44  C   UNL A   1      39.996  30.966  34.131  1.00  0.00     0.037 A 
ATOM     45  C   UNL A   1      42.169  27.130  28.699  1.00  0.00     0.037 A 
ATOM     46  C   UNL A   1      41.091  30.079  34.421  1.00  0.00     0.049 A 
ATOM     47  C   UNL A   1      42.830  27.042  30.049  1.00  0.00     0.074 A 
ATOM     48  C   UNL A   1      41.762  29.893  35.617  1.00  0.00     0.029 A 
ATOM     49  N   UNL A   1      41.680  29.229  33.496  1.00  0.00    -0.354 N 
ATOM     50  N   UNL A   1      42.533  27.673  31.159  1.00  0.00    -0.248 NA
ATOM     51  C   UNL A   1      43.960  26.110  30.174  1.00  0.00     0.031 C 
ATOM     52  C   UNL A   1      42.780  28.957  35.407  1.00  0.00     0.029 A 
ATOM     53  C   UNL A   1      42.718  28.529  34.089  1.00  0.00     0.049 A 
ATOM     54  H   UNL A   1      41.401  29.137  32.556  1.00  0.00     0.167 HD
ATOM     55  C   UNL A   1      43.421  27.203  32.116  1.00  0.00     0.074 A 
ATOM     56  C   UNL A   1      44.256  26.216  31.461  1.00  0.00     0.031 C 
ATOM     57  C   UNL A   1      43.538  27.554  33.420  1.00  0.00     0.037 A 
BRANCH  44  58
ATOM     58  C   UNL A   1      39.484  31.845  35.232  1.00  0.00     0.064 A 
ATOM     59  C   UNL A   1      39.881  33.186  35.344  1.00  0.00     0.173 A 
ATOM     60  C   UNL A   1      38.565  31.352  36.171  1.00  0.00     0.173 A 
ATOM     61  F   UNL A   1      40.769  33.701  34.479  1.00  0.00    -0.203 F 
ATOM     62  C   UNL A   1      39.392  33.995  36.367  1.00  0.00     0.198 A 
ATOM     63  C   UNL A   1      38.062  32.170  37.179  1.00  0.00     0.198 A 
ATOM     64  F   UNL A   1      38.153  30.078  36.106  1.00  0.00    -0.203 F 
ATOM     65  F   UNL A   1      39.815  35.263  36.477  1.00  0.00    -0.200 F 
ATOM     66  C   UNL A   1      38.479  33.489  37.279  1.00  0.00     0.200 A 
ATOM     67  F   UNL A   1      37.173  31.682  38.055  1.00  0.00    -0.200 F 
ATOM     68  F   UNL A   1      38.008  34.269  38.262  1.00  0.00    -0.200 F 
ENDBRANCH  44  58
BRANCH  45  69
ATOM     69  C   UNL A   1      42.637  26.289  27.568  1.00  0.00     0.064 A 
ATOM     70  C   UNL A   1      42.081  25.025  27.325  1.00  0.00     0.173 A 
ATOM     71  C   UNL A   1      43.650  26.733  26.708  1.00  0.00     0.173 A 
ATOM     72  F   UNL A   1      41.123  24.549  28.134  1.00  0.00    -0.203 F 
ATOM     73  C   UNL A   1      42.531  24.233  26.272  1.00  0.00     0.198 A 
ATOM     74  C   UNL A   1      44.084  25.950  25.641  1.00  0.00     0.198 A 
ATOM     75  F   UNL A   1      44.214  27.936  26.899  1.00  0.00    -0.203 F 
ATOM     76  F   UNL A   1      42.009  23.013  26.084  1.00  0.00    -0.200 F 
ATOM     77  C   UNL A   1      43.528  24.698  25.427  1.00  0.00     0.200 A 
ATOM     78  F   UNL A   1      45.039  26.408  24.820  1.00  0.00    -0.200 F 
ATOM     79  F   UNL A   1      43.957  23.936  24.410  1.00  0.00    -0.200 F 
ENDBRANCH  45  69
BRANCH  57  80
ATOM     80  C   UNL A   1      44.595  26.856  34.225  1.00  0.00     0.064 A 
ATOM     81  C   UNL A   1      45.888  27.385  34.348  1.00  0.00     0.173 A 
ATOM     82  C   UNL A   1      44.307  25.657  34.894  1.00  0.00     0.173 A 
ATOM     83  F   UNL A   1      46.216  28.521  33.717  1.00  0.00    -0.203 F 
ATOM     84  C   UNL A   1      46.864  26.722  35.089  1.00  0.00     0.198 A 
ATOM     85  C   UNL A   1      45.277  25.010  35.654  1.00  0.00     0.198 A 
ATOM     86  F   UNL A   1      43.083  25.115  34.811  1.00  0.00    -0.203 F 
ATOM     87  F   UNL A   1      48.107  27.219  35.154  1.00  0.00    -0.200 F 
ATOM     88  C   UNL A   1      46.556  25.539  35.744  1.00  0.00     0.200 A 
ATOM     89  F   UNL A   1      44.976  23.872  36.294  1.00  0.00    -0.200 F 
ATOM     90  F   UNL A   1      47.497  24.901  36.454  1.00  0.00    -0.200 F 
ENDBRANCH  57  80
ENDBRANCH  31  32
ENDBRANCH  24  26
ENDBRANCH  23  24
ENDBRANCH  22  23
ENDBRANCH  21  22
ENDBRANCH   1  21
TORSDOF 17
ENDMDL
MODEL 2
REMARK VINA RESULT:     -11.3      1.139      2.427
REMARK SMILES C[C@]([NH3+])(Cc1ccc(I)cc1)C(=O)OCCOCCOC(=O)c1ccc(-c2c3nc(c(-c4c(F)c(F)c(F)c(F)c4F)c4ccc([nH]4)c(-c4c(F)c(F)c(F)c(F)c4F)c4nc(c(-c5c(F)c(F)c(F)c(F)c5F)c5ccc2[nH]5)C=C4)C=C3)cc1
REMARK SMILES IDX 17 1 16 2 15 3 14 4 12 5 13 6 2 7 1 8 4 9 5 10 6 11 11 12
REMARK SMILES IDX 7 13 10 14 8 15 9 16 3 17 18 21 19 22 20 23 21 24 22 25
REMARK SMILES IDX 23 26 24 27 85 28 25 29 84 30 26 31 27 32 28 33 78 34 29 35
REMARK SMILES IDX 83 36 77 37 79 38 30 39 82 40 76 41 75 42 31 44 63 45 43 46
REMARK SMILES IDX 62 47 44 48 47 49 61 50 80 51 45 52 46 53 60 55 81 56 48 57
REMARK SMILES IDX 32 58 33 59 41 60 34 61 35 62 39 63 42 64 36 65 37 66 40 67
REMARK SMILES IDX 38 68 64 69 65 70 73 71 66 72 67 73 71 74 74 75 68 76 69 77
REMARK SMILES IDX 72 78 70 79 49 80 50 81 58 82 51 83 52 84 56 85 59 86 53 87
REMARK SMILES IDX 54 88 57 89 55 90
REMARK H PARENT 3 18 3 19 3 20 79 43 47 54
REMARK Flexibility Score: inf
ROOT
ATOM      1  O   UNL A   1      30.987  29.055  24.902  1.00  0.00    -0.374 OA
ENDROOT
BRANCH   1   2
ATOM      2  C   UNL A   1      30.941  28.827  23.495  1.00  0.00     0.202 C 
BRANCH   2   3
ATOM      3  C   UNL A   1      30.282  27.513  23.068  1.00  0.00     0.261 C 
BRANCH   3   4
ATOM      4  O   UNL A   1      29.885  26.688  24.182  1.00  0.00    -0.459 OA
BRANCH   4   5
ATOM      5  C   UNL A   1      30.363  25.409  24.181  1.00  0.00     0.368 C 
ATOM      6  O   UNL A   1      30.435  24.696  23.184  1.00  0.00    -0.245 OA
BRANCH   5   7
ATOM      7  C   UNL A   1      30.655  24.884  25.613  1.00  0.00     0.194 C 
ATOM      8  C   UNL A   1      31.849  25.717  26.124  1.00  0.00     0.092 C 
BRANCH   7   9
ATOM      9  C   UNL A   1      31.029  23.378  25.685  1.00  0.00     0.116 C 
BRANCH   9  10
ATOM     10  C   UNL A   1      32.463  22.877  25.602  1.00  0.00    -0.041 A 
ATOM     11  C   UNL A   1      33.011  22.696  24.317  1.00  0.00     0.005 A 
ATOM     12  C   UNL A   1      33.294  22.649  26.705  1.00  0.00     0.005 A 
ATOM     13  C   UNL A   1      34.336  22.289  24.140  1.00  0.00     0.015 A 
ATOM     14  C   UNL A   1      34.623  22.240  26.534  1.00  0.00     0.015 A 
ATOM     15  C   UNL A   1      35.139  22.060  25.253  1.00  0.00     0.013 A 
ATOM     16  I   UNL A   1      37.105  21.441  25.002  1.00  0.00    -0.044 I 
ENDBRANCH   9  10
ENDBRANCH   7   9
BRANCH   7  17
ATOM     17  N   UNL A   1      29.502  25.202  26.498  1.00  0.00    -0.343 N 
ATOM     18  H   UNL A   1      29.838  25.674  27.338  1.00  0.00     0.345 HD
ATOM     19  H   UNL A   1      29.026  24.339  26.761  1.00  0.00     0.345 HD
ATOM     20  H   UNL A   1      28.851  25.811  26.004  1.00  0.00     0.345 HD
ENDBRANCH   7  17
ENDBRANCH   5   7
ENDBRANCH   4   5
ENDBRANCH   3   4
ENDBRANCH   2   3
ENDBRANCH   1   2
BRANCH   1  21
ATOM     21  C   UNL A   1      32.162  29.697  25.405  1.00  0.00     0.202 C 
BRANCH  21  22
ATOM     22  C   UNL A   1      31.876  30.884  26.324  1.00  0.00     0.261 C 
BRANCH  22  23
ATOM     23  O   UNL A   1      32.748  30.844  27.467  1.00  0.00    -0.460 OA
BRANCH  23  24
ATOM     24  C   UNL A   1      33.504  31.949  27.601  1.00  0.00     0.338 C 
ATOM     25  O   UNL A   1      33.121  33.111  27.697  1.00  0.00    -0.246 OA
BRANCH  24  26
ATOM     26  C   UNL A   1      34.899  31.559  27.830  1.00  0.00     0.060 A 
ATOM     27  C   UNL A   1      35.161  30.197  28.017  1.00  0.00     0.016 A 
ATOM     28  C   UNL A   1      35.905  32.514  28.002  1.00  0.00     0.016 A 
ATOM     29  C   UNL A   1      36.415  29.794  28.463  1.00  0.00     0.010 A 
ATOM     30  C   UNL A   1      37.168  32.102  28.444  1.00  0.00     0.010 A 
ATOM     31  C   UNL A   1      37.409  30.747  28.730  1.00  0.00    -0.014 A 
BRANCH  31  32
ATOM     32  C   UNL A   1      38.622  30.307  29.465  1.00  0.00     0.031 A 
ATOM     33  C   UNL A   1      38.811  30.743  30.893  1.00  0.00     0.074 A 
ATOM     34  C   UNL A   1      39.483  29.442  28.904  1.00  0.00     0.049 A 
ATOM     35  N   UNL A   1      39.696  30.346  31.773  1.00  0.00    -0.248 NA
ATOM     36  C   UNL A   1      37.877  31.761  31.401  1.00  0.00     0.031 C 
ATOM     37  C   UNL A   1      39.404  28.944  27.533  1.00  0.00     0.029 A 
ATOM     38  N   UNL A   1      40.584  28.812  29.431  1.00  0.00    -0.354 N 
ATOM     39  C   UNL A   1      39.415  31.049  32.937  1.00  0.00     0.074 A 
ATOM     40  C   UNL A   1      38.308  31.933  32.642  1.00  0.00     0.031 C 
ATOM     41  C   UNL A   1      40.401  28.067  27.330  1.00  0.00     0.029 A 
ATOM     42  C   UNL A   1      41.189  27.945  28.556  1.00  0.00     0.049 A 
ATOM     43  H   UNL A   1      40.907  28.968  30.347  1.00  0.00     0.167 HD
ATOM     44  C   UNL A   1      40.012  30.954  34.149  1.00  0.00     0.037 A 
ATOM     45  C   UNL A   1      42.246  27.130  28.734  1.00  0.00     0.037 A 
ATOM     46  C   UNL A   1      41.114  30.078  34.445  1.00  0.00     0.049 A 
ATOM     47  C   UNL A   1      42.901  27.050  30.087  1.00  0.00     0.074 A 
ATOM     48  C   UNL A   1      41.782  29.900  35.645  1.00  0.00     0.029 A 
ATOM     49  N   UNL A   1      41.715  29.232  33.525  1.00  0.00    -0.354 N 
ATOM     50  N   UNL A   1      42.593  27.680  31.195  1.00  0.00    -0.248 NA
ATOM     51  C   UNL A   1      44.039  26.129  30.218  1.00  0.00     0.031 C 
ATOM     52  C   UNL A   1      42.809  28.973  35.441  1.00  0.00     0.029 A 
ATOM     53  C   UNL A   1      42.756  28.543  34.124  1.00  0.00     0.049 A 
ATOM     54  H   UNL A   1      41.441  29.136  32.584  1.00  0.00     0.167 HD
ATOM     55  C   UNL A   1      43.482  27.219  32.157  1.00  0.00     0.074 A 
ATOM     56  C   UNL A   1      44.328  26.240  31.507  1.00  0.00     0.031 C 
ATOM     57  C   UNL A   1      43.589  27.574  33.461  1.00  0.00     0.037 A 
BRANCH  44  58
ATOM     58  C   UNL A   1      39.486  31.830  35.247  1.00  0.00     0.064 A 
ATOM     59  C   UNL A   1      38.587  31.343  36.207  1.00  0.00     0.173 A 
ATOM     60  C   UNL A   1      39.906  33.164  35.358  1.00  0.00     0.173 A 
ATOM     61  F   UNL A   1      38.144  30.078  36.135  1.00  0.00    -0.203 F 
ATOM     62  C   UNL A   1      38.112  32.164  37.226  1.00  0.00     0.198 A 
ATOM     63  C   UNL A   1      39.447  33.976  36.392  1.00  0.00     0.198 A 
ATOM     64  F   UNL A   1      40.767  33.677  34.467  1.00  0.00    -0.203 F 
ATOM     65  F   UNL A   1      37.223  31.687  38.110  1.00  0.00    -0.200 F 
ATOM     66  C   UNL A   1      38.547  33.477  37.322  1.00  0.00     0.200 A 
ATOM     67  F   UNL A   1      39.874  35.242  36.488  1.00  0.00    -0.200 F 
ATOM     68  F   UNL A   1      38.091  34.266  38.305  1.00  0.00    -0.200 F 
ENDBRANCH  44  58
BRANCH  45  69
ATOM     69  C   UNL A   1      42.726  26.291  27.606  1.00  0.00     0.064 A 
ATOM     70  C   UNL A   1      43.747  26.735  26.755  1.00  0.00     0.173 A 
ATOM     71  C   UNL A   1      42.173  25.027  27.359  1.00  0.00     0.173 A 
ATOM     72  F   UNL A   1      44.292  27.947  26.939  1.00  0.00    -0.203 F 
ATOM     73  C   UNL A   1      44.186  25.952  25.690  1.00  0.00     0.198 A 
ATOM     74  C   UNL A   1      42.628  24.235  26.309  1.00  0.00     0.198 A 
ATOM     75  F   UNL A   1      41.194  24.557  28.147  1.00  0.00    -0.203 F 
ATOM     76  F   UNL A   1      45.137  26.416  24.867  1.00  0.00    -0.200 F 
ATOM     77  C   UNL A   1      43.631  24.700  25.472  1.00  0.00     0.200 A 
ATOM     78  F   UNL A   1      42.097  23.021  26.108  1.00  0.00    -0.200 F 
ATOM     79  F   UNL A   1      44.058  23.945  24.449  1.00  0.00    -0.200 F 
ENDBRANCH  45  69
BRANCH  57  80
ATOM     80  C   UNL A   1      44.649  26.887  34.271  1.00  0.00     0.064 A 
ATOM     81  C   UNL A   1      44.393  25.680  34.937  1.00  0.00     0.173 A 
ATOM     82  C   UNL A   1      45.937  27.433  34.368  1.00  0.00     0.173 A 
ATOM     83  F   UNL A   1      43.173  25.126  34.885  1.00  0.00    -0.203 F 
ATOM     84  C   UNL A   1      45.382  25.058  35.695  1.00  0.00     0.198 A 
ATOM     85  C   UNL A   1      46.931  26.796  35.106  1.00  0.00     0.198 A 
ATOM     86  F   UNL A   1      46.233  28.583  33.745  1.00  0.00    -0.203 F 
ATOM     87  F   UNL A   1      45.103  23.930  36.363  1.00  0.00    -0.200 F 
ATOM     88  C   UNL A   1      46.650  25.614  35.776  1.00  0.00     0.200 A 
ATOM     89  F   UNL A   1      48.158  27.330  35.175  1.00  0.00    -0.200 F 
ATOM     90  F   UNL A   1      47.600  25.016  36.508  1.00  0.00    -0.200 F 
ENDBRANCH  57  80
ENDBRANCH  31  32
ENDBRANCH  24  26
ENDBRANCH  23  24
ENDBRANCH  22  23
ENDBRANCH  21  22
ENDBRANCH   1  21
TORSDOF 17
ENDMDL
MODEL 3
REMARK VINA RESULT:     -11.3      2.296      3.807
REMARK SMILES C[C@]([NH3+])(Cc1ccc(I)cc1)C(=O)OCCOCCOC(=O)c1ccc(-c2c3nc(c(-c4c(F)c(F)c(F)c(F)c4F)c4ccc([nH]4)c(-c4c(F)c(F)c(F)c(F)c4F)c4nc(c(-c5c(F)c(F)c(F)c(F)c5F)c5ccc2[nH]5)C=C4)C=C3)cc1
REMARK SMILES IDX 17 1 16 2 15 3 14 4 12 5 13 6 2 7 1 8 4 9 5 10 6 11 11 12
REMARK SMILES IDX 7 13 10 14 8 15 9 16 3 17 18 21 19 22 20 23 21 24 22 25
REMARK SMILES IDX 23 26 24 27 85 28 25 29 84 30 26 31 27 32 28 33 78 34 29 35
REMARK SMILES IDX 83 36 77 37 79 38 30 39 82 40 76 41 75 42 31 44 63 45 43 46
REMARK SMILES IDX 62 47 44 48 47 49 61 50 80 51 45 52 46 53 60 55 81 56 48 57
REMARK SMILES IDX 32 58 33 59 41 60 34 61 35 62 39 63 42 64 36 65 37 66 40 67
REMARK SMILES IDX 38 68 64 69 65 70 73 71 66 72 67 73 71 74 74 75 68 76 69 77
REMARK SMILES IDX 72 78 70 79 49 80 50 81 58 82 51 83 52 84 56 85 59 86 53 87
REMARK SMILES IDX 54 88 57 89 55 90
REMARK H PARENT 3 18 3 19 3 20 79 43 47 54
REMARK Flexibility Score: inf
ROOT
ATOM      1  O   UNL A   1      32.345  30.210  27.108  1.00  0.00    -0.374 OA
ENDROOT
BRANCH   1   2
ATOM      2  C   UNL A   1      31.655  28.971  27.260  1.00  0.00     0.202 C 
BRANCH   2   3
ATOM      3  C   UNL A   1      32.491  27.721  26.976  1.00  0.00     0.261 C 
BRANCH   3   4
ATOM      4  O   UNL A   1      31.709  26.510  26.943  1.00  0.00    -0.459 OA
BRANCH   4   5
ATOM      5  C   UNL A   1      31.927  25.684  25.877  1.00  0.00     0.368 C 
ATOM      6  O   UNL A   1      33.011  25.546  25.317  1.00  0.00    -0.245 OA
BRANCH   5   7
ATOM      7  C   UNL A   1      30.615  25.054  25.337  1.00  0.00     0.194 C 
ATOM      8  C   UNL A   1      30.897  23.542  25.226  1.00  0.00     0.092 C 
BRANCH   7   9
ATOM      9  C   UNL A   1      30.170  25.584  23.946  1.00  0.00     0.116 C 
BRANCH   9  10
ATOM     10  C   UNL A   1      29.655  26.998  23.725  1.00  0.00    -0.041 A 
ATOM     11  C   UNL A   1      30.607  28.034  23.692  1.00  0.00     0.005 A 
ATOM     12  C   UNL A   1      28.317  27.331  23.485  1.00  0.00     0.005 A 
ATOM     13  C   UNL A   1      30.236  29.359  23.442  1.00  0.00     0.015 A 
ATOM     14  C   UNL A   1      27.938  28.657  23.235  1.00  0.00     0.015 A 
ATOM     15  C   UNL A   1      28.898  29.665  23.216  1.00  0.00     0.013 A 
ATOM     16  I   UNL A   1      28.333  31.632  22.859  1.00  0.00    -0.044 I 
ENDBRANCH   9  10
ENDBRANCH   7   9
BRANCH   7  17
ATOM     17  N   UNL A   1      29.538  25.214  26.351  1.00  0.00    -0.343 N 
ATOM     18  H   UNL A   1      28.692  25.560  25.897  1.00  0.00     0.345 HD
ATOM     19  H   UNL A   1      29.837  25.880  27.064  1.00  0.00     0.345 HD
ATOM     20  H   UNL A   1      29.345  24.314  26.788  1.00  0.00     0.345 HD
ENDBRANCH   7  17
ENDBRANCH   5   7
ENDBRANCH   4   5
ENDBRANCH   3   4
ENDBRANCH   2   3
ENDBRANCH   1   2
BRANCH   1  21
ATOM     21  C   UNL A   1      31.623  31.265  26.465  1.00  0.00     0.202 C 
BRANCH  21  22
ATOM     22  C   UNL A   1      31.798  32.631  27.127  1.00  0.00     0.261 C 
BRANCH  22  23
ATOM     23  O   UNL A   1      33.165  33.064  27.013  1.00  0.00    -0.460 OA
BRANCH  23  24
ATOM     24  C   UNL A   1      33.701  33.453  28.184  1.00  0.00     0.338 C 
ATOM     25  O   UNL A   1      33.166  34.113  29.070  1.00  0.00    -0.246 OA
BRANCH  24  26
ATOM     26  C   UNL A   1      34.997  32.792  28.369  1.00  0.00     0.060 A 
ATOM     27  C   UNL A   1      34.982  31.468  28.820  1.00  0.00     0.016 A 
ATOM     28  C   UNL A   1      36.198  33.495  28.243  1.00  0.00     0.016 A 
ATOM     29  C   UNL A   1      36.169  30.869  29.231  1.00  0.00     0.010 A 
ATOM     30  C   UNL A   1      37.391  32.885  28.651  1.00  0.00     0.010 A 
ATOM     31  C   UNL A   1      37.371  31.591  29.200  1.00  0.00    -0.014 A 
BRANCH  31  32
ATOM     32  C   UNL A   1      38.548  31.022  29.903  1.00  0.00     0.031 A 
ATOM     33  C   UNL A   1      38.773  31.366  31.351  1.00  0.00     0.074 A 
ATOM     34  C   UNL A   1      39.341  30.126  29.292  1.00  0.00     0.049 A 
ATOM     35  N   UNL A   1      39.626  30.856  32.204  1.00  0.00    -0.248 NA
ATOM     36  C   UNL A   1      37.919  32.422  31.918  1.00  0.00     0.031 C 
ATOM     37  C   UNL A   1      39.222  29.710  27.897  1.00  0.00     0.029 A 
ATOM     38  N   UNL A   1      40.391  29.387  29.778  1.00  0.00    -0.354 N 
ATOM     39  C   UNL A   1      39.401  31.515  33.405  1.00  0.00     0.074 A 
ATOM     40  C   UNL A   1      38.363  32.494  33.164  1.00  0.00     0.031 C 
ATOM     41  C   UNL A   1      40.150  28.772  27.642  1.00  0.00     0.029 A 
ATOM     42  C   UNL A   1      40.927  28.525  28.855  1.00  0.00     0.049 A 
ATOM     43  H   UNL A   1      40.727  29.468  30.700  1.00  0.00     0.167 HD
ATOM     44  C   UNL A   1      39.990  31.310  34.607  1.00  0.00     0.037 A 
ATOM     45  C   UNL A   1      41.920  27.624  28.983  1.00  0.00     0.037 A 
ATOM     46  C   UNL A   1      41.023  30.339  34.850  1.00  0.00     0.049 A 
ATOM     47  C   UNL A   1      42.570  27.423  30.327  1.00  0.00     0.074 A 
ATOM     48  C   UNL A   1      41.678  30.047  36.035  1.00  0.00     0.029 A 
ATOM     49  N   UNL A   1      41.558  29.500  33.883  1.00  0.00    -0.354 N 
ATOM     50  N   UNL A   1      42.312  28.014  31.468  1.00  0.00    -0.248 NA
ATOM     51  C   UNL A   1      43.635  26.413  30.402  1.00  0.00     0.031 C 
ATOM     52  C   UNL A   1      42.632  29.057  35.776  1.00  0.00     0.029 A 
ATOM     53  C   UNL A   1      42.545  28.703  34.438  1.00  0.00     0.049 A 
ATOM     54  H   UNL A   1      41.276  29.476  32.939  1.00  0.00     0.167 HD
ATOM     55  C   UNL A   1      43.164  27.436  32.399  1.00  0.00     0.074 A 
ATOM     56  C   UNL A   1      43.933  26.432  31.693  1.00  0.00     0.031 C 
ATOM     57  C   UNL A   1      43.300  27.711  33.719  1.00  0.00     0.037 A 
BRANCH  44  58
ATOM     58  C   UNL A   1      39.535  32.163  35.753  1.00  0.00     0.064 A 
ATOM     59  C   UNL A   1      38.525  31.736  36.629  1.00  0.00     0.173 A 
ATOM     60  C   UNL A   1      40.131  33.409  35.996  1.00  0.00     0.173 A 
ATOM     61  F   UNL A   1      37.914  30.558  36.430  1.00  0.00    -0.203 F 
ATOM     62  C   UNL A   1      38.116  32.534  37.694  1.00  0.00     0.198 A 
ATOM     63  C   UNL A   1      39.735  34.195  37.075  1.00  0.00     0.198 A 
ATOM     64  F   UNL A   1      41.102  33.862  35.190  1.00  0.00    -0.203 F 
ATOM     65  F   UNL A   1      37.122  32.122  38.496  1.00  0.00    -0.200 F 
ATOM     66  C   UNL A   1      38.724  33.759  37.920  1.00  0.00     0.200 A 
ATOM     67  F   UNL A   1      40.329  35.375  37.298  1.00  0.00    -0.200 F 
ATOM     68  F   UNL A   1      38.331  34.525  38.948  1.00  0.00    -0.200 F 
ENDBRANCH  44  58
BRANCH  45  69
ATOM     69  C   UNL A   1      42.334  26.813  27.810  1.00  0.00     0.064 A 
ATOM     70  C   UNL A   1      43.303  27.279  26.911  1.00  0.00     0.173 A 
ATOM     71  C   UNL A   1      41.767  25.555  27.565  1.00  0.00     0.173 A 
ATOM     72  F   UNL A   1      43.858  28.487  27.091  1.00  0.00    -0.203 F 
ATOM     73  C   UNL A   1      43.679  26.522  25.804  1.00  0.00     0.198 A 
ATOM     74  C   UNL A   1      42.161  24.788  26.471  1.00  0.00     0.198 A 
ATOM     75  F   UNL A   1      40.836  25.065  28.398  1.00  0.00    -0.203 F 
ATOM     76  F   UNL A   1      44.581  27.007  24.938  1.00  0.00    -0.200 F 
ATOM     77  C   UNL A   1      43.112  25.275  25.588  1.00  0.00     0.200 A 
ATOM     78  F   UNL A   1      41.619  23.578  26.273  1.00  0.00    -0.200 F 
ATOM     79  F   UNL A   1      43.479  24.545  24.525  1.00  0.00    -0.200 F 
ENDBRANCH  45  69
BRANCH  57  80
ATOM     80  C   UNL A   1      44.306  26.904  34.486  1.00  0.00     0.064 A 
ATOM     81  C   UNL A   1      43.962  25.684  35.085  1.00  0.00     0.173 A 
ATOM     82  C   UNL A   1      45.632  27.346  34.607  1.00  0.00     0.173 A 
ATOM     83  F   UNL A   1      42.704  25.226  35.009  1.00  0.00    -0.203 F 
ATOM     84  C   UNL A   1      44.902  24.949  35.804  1.00  0.00     0.198 A 
ATOM     85  C   UNL A   1      46.576  26.597  35.304  1.00  0.00     0.198 A 
ATOM     86  F   UNL A   1      46.012  28.504  34.046  1.00  0.00    -0.203 F 
ATOM     87  F   UNL A   1      44.539  23.810  36.410  1.00  0.00    -0.200 F 
ATOM     88  C   UNL A   1      46.208  25.404  35.909  1.00  0.00     0.200 A 
ATOM     89  F   UNL A   1      47.839  27.033  35.397  1.00  0.00    -0.200 F 
ATOM     90  F   UNL A   1      47.111  24.698  36.603  1.00  0.00    -0.200 F 
ENDBRANCH  57  80
ENDBRANCH  31  32
ENDBRANCH  24  26
ENDBRANCH  23  24
ENDBRANCH  22  23
ENDBRANCH  21  22
ENDBRANCH   1  21
TORSDOF 17
ENDMDL
