MODEL 1
REMARK VINA RESULT:     -12.2      0.000      0.000
REMARK SMILES Cc1ccc(Nc2c(F)cccc2Cl)c(CC(=O)OCCOCCOC(=O)c2ccc(-c3c4nc(c(-c5c(F)c(F)c(F)c(F)c5F)c5ccc([nH]5)c(-c5c(F)c(F)c(F)c(F)c5F)c5nc(c(-c6c(F)c(F)c(F)c(F)c6F)c6ccc3[nH]6)C=C5)C=C4)cc2)c1
REMARK SMILES IDX 21 1 20 2 19 3 17 4 18 5 16 6 15 7 1 8 2 9 3 10 91 11 4 12
REMARK SMILES IDX 5 13 6 14 7 16 8 17 13 18 9 19 10 20 12 21 14 22 11 23 22 24
REMARK SMILES IDX 23 25 24 26 25 27 26 28 27 29 28 30 29 31 90 32 30 33 89 34
REMARK SMILES IDX 31 35 32 36 33 37 83 38 34 39 88 40 82 41 84 42 35 43 87 44
REMARK SMILES IDX 81 45 80 46 36 48 68 49 48 50 67 51 49 52 52 53 66 54 85 55
REMARK SMILES IDX 50 56 51 57 65 59 86 60 53 61 37 62 38 63 46 64 39 65 40 66
REMARK SMILES IDX 44 67 47 68 41 69 42 70 45 71 43 72 69 73 70 74 78 75 71 76
REMARK SMILES IDX 72 77 76 78 79 79 73 80 74 81 77 82 75 83 54 84 55 85 63 86
REMARK SMILES IDX 56 87 57 88 61 89 64 90 58 91 59 92 62 93 60 94
REMARK H PARENT 6 15 84 47 52 58
REMARK Flexibility Score: inf
ROOT
ATOM      1  C   UNL A   1      36.612  23.559  24.592  1.00  0.00     0.202 C 
ENDROOT
BRANCH   1   2
ATOM      2  C   UNL A   1      35.150  23.734  24.967  1.00  0.00     0.261 C 
BRANCH   2   3
ATOM      3  O   UNL A   1      34.805  25.094  25.165  1.00  0.00    -0.463 OA
BRANCH   3   4
ATOM      4  C   UNL A   1      33.542  25.518  24.859  1.00  0.00     0.310 C 
ATOM      5  O   UNL A   1      32.493  25.060  25.293  1.00  0.00    -0.252 OA
BRANCH   4   6
ATOM      6  C   UNL A   1      33.605  26.648  23.843  1.00  0.00     0.160 C 
BRANCH   6   7
ATOM      7  C   UNL A   1      33.148  27.946  24.487  1.00  0.00    -0.013 A 
ATOM      8  C   UNL A   1      34.421  29.663  27.663  1.00  0.00     0.044 C 
ATOM      9  C   UNL A   1      33.565  29.320  26.481  1.00  0.00    -0.051 A 
ATOM     10  C   UNL A   1      32.263  29.794  26.387  1.00  0.00     0.005 A 
ATOM     11  C   UNL A   1      34.023  28.461  25.485  1.00  0.00     0.009 A 
ATOM     12  C   UNL A   1      31.421  29.358  25.356  1.00  0.00     0.026 A 
ATOM     13  C   UNL A   1      31.817  28.402  24.400  1.00  0.00     0.042 A 
BRANCH  13  14
ATOM     14  N   UNL A   1      30.893  27.885  23.447  1.00  0.00    -0.352 N 
ATOM     15  H   UNL A   1      31.048  26.956  23.161  1.00  0.00     0.167 HD
BRANCH  14  16
ATOM     16  C   UNL A   1      29.775  28.538  22.857  1.00  0.00     0.094 A 
ATOM     17  C   UNL A   1      29.938  29.659  22.029  1.00  0.00     0.148 A 
ATOM     18  C   UNL A   1      28.451  28.216  23.214  1.00  0.00     0.067 A 
ATOM     19  F   UNL A   1      31.144  29.943  21.514  1.00  0.00    -0.205 F 
ATOM     20  C   UNL A   1      28.888  30.523  21.731  1.00  0.00     0.041 A 
ATOM     21  C   UNL A   1      27.398  29.109  22.972  1.00  0.00     0.023 A 
ATOM     22  Cl  UNL A   1      28.048  26.686  23.914  1.00  0.00    -0.082 Cl
ATOM     23  C   UNL A   1      27.625  30.282  22.256  1.00  0.00     0.005 A 
ENDBRANCH  14  16
ENDBRANCH  13  14
ENDBRANCH   6   7
ENDBRANCH   4   6
ENDBRANCH   3   4
ENDBRANCH   2   3
ENDBRANCH   1   2
BRANCH   1  24
ATOM     24  O   UNL A   1      37.301  23.005  25.695  1.00  0.00    -0.374 OA
BRANCH  24  25
ATOM     25  C   UNL A   1      37.804  21.698  25.485  1.00  0.00     0.202 C 
BRANCH  25  26
ATOM     26  C   UNL A   1      39.280  21.636  25.874  1.00  0.00     0.261 C 
BRANCH  26  27
ATOM     27  O   UNL A   1      39.550  22.495  27.005  1.00  0.00    -0.460 OA
BRANCH  27  28
ATOM     28  C   UNL A   1      40.584  23.359  26.817  1.00  0.00     0.338 C 
ATOM     29  O   UNL A   1      41.762  23.025  26.731  1.00  0.00    -0.246 OA
BRANCH  28  30
ATOM     30  C   UNL A   1      40.117  24.764  26.953  1.00  0.00     0.060 A 
ATOM     31  C   UNL A   1      40.709  25.754  26.147  1.00  0.00     0.016 A 
ATOM     32  C   UNL A   1      39.405  25.122  28.098  1.00  0.00     0.016 A 
ATOM     33  C   UNL A   1      40.764  27.076  26.597  1.00  0.00     0.010 A 
ATOM     34  C   UNL A   1      39.581  26.397  28.598  1.00  0.00     0.010 A 
ATOM     35  C   UNL A   1      40.296  27.368  27.876  1.00  0.00    -0.014 A 
BRANCH  35  36
ATOM     36  C   UNL A   1      40.591  28.590  28.627  1.00  0.00     0.031 A 
ATOM     37  C   UNL A   1      39.566  29.645  28.719  1.00  0.00     0.074 A 
ATOM     38  C   UNL A   1      41.672  28.659  29.439  1.00  0.00     0.049 A 
ATOM     39  N   UNL A   1      39.745  30.747  29.356  1.00  0.00    -0.248 NA
ATOM     40  C   UNL A   1      38.267  29.592  28.051  1.00  0.00     0.031 C 
ATOM     41  C   UNL A   1      41.831  29.441  30.670  1.00  0.00     0.029 A 
ATOM     42  N   UNL A   1      42.879  28.000  29.352  1.00  0.00    -0.354 N 
ATOM     43  C   UNL A   1      38.530  31.358  29.488  1.00  0.00     0.074 A 
ATOM     44  C   UNL A   1      37.673  30.684  28.548  1.00  0.00     0.031 C 
ATOM     45  C   UNL A   1      43.105  29.370  31.089  1.00  0.00     0.029 A 
ATOM     46  C   UNL A   1      43.863  28.688  30.059  1.00  0.00     0.049 A 
ATOM     47  H   UNL A   1      43.026  27.159  28.860  1.00  0.00     0.167 HD
ATOM     48  C   UNL A   1      38.399  32.288  30.473  1.00  0.00     0.037 A 
ATOM     49  C   UNL A   1      44.973  29.175  29.430  1.00  0.00     0.037 A 
ATOM     50  C   UNL A   1      39.716  32.663  31.016  1.00  0.00     0.049 A 
ATOM     51  C   UNL A   1      44.868  30.686  29.279  1.00  0.00     0.074 A 
ATOM     52  C   UNL A   1      40.395  32.472  32.207  1.00  0.00     0.029 A 
ATOM     53  N   UNL A   1      40.670  33.122  30.118  1.00  0.00    -0.354 N 
ATOM     54  N   UNL A   1      43.897  31.388  29.803  1.00  0.00    -0.248 NA
ATOM     55  C   UNL A   1      45.776  31.524  28.504  1.00  0.00     0.031 C 
ATOM     56  C   UNL A   1      41.783  32.770  31.973  1.00  0.00     0.029 A 
ATOM     57  C   UNL A   1      41.937  33.189  30.661  1.00  0.00     0.049 A 
ATOM     58  H   UNL A   1      40.464  33.374  29.189  1.00  0.00     0.167 HD
ATOM     59  C   UNL A   1      43.976  32.688  29.423  1.00  0.00     0.074 A 
ATOM     60  C   UNL A   1      45.169  32.725  28.588  1.00  0.00     0.031 C 
ATOM     61  C   UNL A   1      43.047  33.617  29.807  1.00  0.00     0.037 A 
BRANCH  48  62
ATOM     62  C   UNL A   1      37.085  32.800  31.013  1.00  0.00     0.064 A 
ATOM     63  C   UNL A   1      36.255  33.598  30.198  1.00  0.00     0.173 A 
ATOM     64  C   UNL A   1      36.624  32.631  32.338  1.00  0.00     0.173 A 
ATOM     65  F   UNL A   1      36.579  33.853  28.922  1.00  0.00    -0.203 F 
ATOM     66  C   UNL A   1      35.071  34.174  30.670  1.00  0.00     0.198 A 
ATOM     67  C   UNL A   1      35.412  33.162  32.792  1.00  0.00     0.198 A 
ATOM     68  F   UNL A   1      37.346  32.001  33.272  1.00  0.00    -0.203 F 
ATOM     69  F   UNL A   1      34.349  34.965  29.864  1.00  0.00    -0.200 F 
ATOM     70  C   UNL A   1      34.642  33.945  31.962  1.00  0.00     0.200 A 
ATOM     71  F   UNL A   1      35.016  32.927  34.052  1.00  0.00    -0.200 F 
ATOM     72  F   UNL A   1      33.504  34.490  32.411  1.00  0.00    -0.200 F 
ENDBRANCH  48  62
BRANCH  49  73
ATOM     73  C   UNL A   1      45.492  28.159  28.463  1.00  0.00     0.064 A 
ATOM     74  C   UNL A   1      46.029  26.990  29.054  1.00  0.00     0.173 A 
ATOM     75  C   UNL A   1      44.927  28.034  27.186  1.00  0.00     0.173 A 
ATOM     76  F   UNL A   1      46.574  27.052  30.281  1.00  0.00    -0.203 F 
ATOM     77  C   UNL A   1      45.788  25.730  28.509  1.00  0.00     0.198 A 
ATOM     78  C   UNL A   1      44.720  26.767  26.628  1.00  0.00     0.198 A 
ATOM     79  F   UNL A   1      44.382  29.099  26.581  1.00  0.00    -0.203 F 
ATOM     80  F   UNL A   1      46.078  24.630  29.219  1.00  0.00    -0.200 F 
ATOM     81  C   UNL A   1      45.094  25.619  27.317  1.00  0.00     0.200 A 
ATOM     82  F   UNL A   1      44.011  26.648  25.496  1.00  0.00    -0.200 F 
ATOM     83  F   UNL A   1      44.698  24.414  26.884  1.00  0.00    -0.200 F 
ENDBRANCH  49  73
BRANCH  61  84
ATOM     84  C   UNL A   1      43.126  35.043  29.347  1.00  0.00     0.064 A 
ATOM     85  C   UNL A   1      43.397  36.090  30.239  1.00  0.00     0.173 A 
ATOM     86  C   UNL A   1      42.886  35.415  28.008  1.00  0.00     0.173 A 
ATOM     87  F   UNL A   1      43.513  35.860  31.555  1.00  0.00    -0.203 F 
ATOM     88  C   UNL A   1      43.556  37.402  29.795  1.00  0.00     0.198 A 
ATOM     89  C   UNL A   1      42.968  36.737  27.582  1.00  0.00     0.198 A 
ATOM     90  F   UNL A   1      42.609  34.512  27.058  1.00  0.00    -0.203 F 
ATOM     91  F   UNL A   1      43.934  38.352  30.662  1.00  0.00    -0.200 F 
ATOM     92  C   UNL A   1      43.343  37.725  28.468  1.00  0.00     0.200 A 
ATOM     93  F   UNL A   1      42.710  37.038  26.301  1.00  0.00    -0.200 F 
ATOM     94  F   UNL A   1      43.503  38.983  28.040  1.00  0.00    -0.200 F 
ENDBRANCH  61  84
ENDBRANCH  35  36
ENDBRANCH  28  30
ENDBRANCH  27  28
ENDBRANCH  26  27
ENDBRANCH  25  26
ENDBRANCH  24  25
ENDBRANCH   1  24
TORSDOF 17
ENDMDL
MODEL 2
REMARK VINA RESULT:     -12.0      3.315      9.423
REMARK SMILES Cc1ccc(Nc2c(F)cccc2Cl)c(CC(=O)OCCOCCOC(=O)c2ccc(-c3c4nc(c(-c5c(F)c(F)c(F)c(F)c5F)c5ccc([nH]5)c(-c5c(F)c(F)c(F)c(F)c5F)c5nc(c(-c6c(F)c(F)c(F)c(F)c6F)c6ccc3[nH]6)C=C5)C=C4)cc2)c1
REMARK SMILES IDX 21 1 20 2 19 3 17 4 18 5 16 6 15 7 1 8 2 9 3 10 91 11 4 12
REMARK SMILES IDX 5 13 6 14 7 16 8 17 13 18 9 19 10 20 12 21 14 22 11 23 22 24
REMARK SMILES IDX 23 25 24 26 25 27 26 28 27 29 28 30 29 31 90 32 30 33 89 34
REMARK SMILES IDX 31 35 32 36 33 37 83 38 34 39 88 40 82 41 84 42 35 43 87 44
REMARK SMILES IDX 81 45 80 46 36 48 68 49 48 50 67 51 49 52 52 53 66 54 85 55
REMARK SMILES IDX 50 56 51 57 65 59 86 60 53 61 37 62 38 63 46 64 39 65 40 66
REMARK SMILES IDX 44 67 47 68 41 69 42 70 45 71 43 72 69 73 70 74 78 75 71 76
REMARK SMILES IDX 72 77 76 78 79 79 73 80 74 81 77 82 75 83 54 84 55 85 63 86
REMARK SMILES IDX 56 87 57 88 61 89 64 90 58 91 59 92 62 93 60 94
REMARK H PARENT 6 15 84 47 52 58
REMARK Flexibility Score: inf
ROOT
ATOM      1  C   UNL A   1      32.550  28.229  25.598  1.00  0.00     0.202 C 
ENDROOT
BRANCH   1   2
ATOM      2  C   UNL A   1      33.648  28.310  24.550  1.00  0.00     0.261 C 
BRANCH   2   3
ATOM      3  O   UNL A   1      33.721  27.138  23.756  1.00  0.00    -0.463 OA
BRANCH   3   4
ATOM      4  C   UNL A   1      33.640  27.243  22.396  1.00  0.00     0.310 C 
ATOM      5  O   UNL A   1      34.181  28.088  21.695  1.00  0.00    -0.252 OA
BRANCH   4   6
ATOM      6  C   UNL A   1      32.727  26.158  21.845  1.00  0.00     0.160 C 
BRANCH   6   7
ATOM      7  C   UNL A   1      31.311  26.369  22.354  1.00  0.00    -0.013 A 
ATOM      8  C   UNL A   1      29.441  29.636  23.048  1.00  0.00     0.044 C 
ATOM      9  C   UNL A   1      29.791  28.179  23.026  1.00  0.00    -0.051 A 
ATOM     10  C   UNL A   1      29.149  27.283  23.870  1.00  0.00     0.005 A 
ATOM     11  C   UNL A   1      30.816  27.697  22.216  1.00  0.00     0.009 A 
ATOM     12  C   UNL A   1      29.575  25.951  23.949  1.00  0.00     0.026 A 
ATOM     13  C   UNL A   1      30.682  25.459  23.228  1.00  0.00     0.042 A 
BRANCH  13  14
ATOM     14  N   UNL A   1      31.166  24.136  23.432  1.00  0.00    -0.352 N 
ATOM     15  H   UNL A   1      30.874  23.467  22.771  1.00  0.00     0.167 HD
BRANCH  14  16
ATOM     16  C   UNL A   1      32.016  23.656  24.468  1.00  0.00     0.094 A 
ATOM     17  C   UNL A   1      31.570  23.566  25.794  1.00  0.00     0.148 A 
ATOM     18  C   UNL A   1      33.389  23.424  24.255  1.00  0.00     0.067 A 
ATOM     19  F   UNL A   1      30.257  23.615  26.065  1.00  0.00    -0.205 F 
ATOM     20  C   UNL A   1      32.448  23.450  26.868  1.00  0.00     0.041 A 
ATOM     21  C   UNL A   1      34.288  23.367  25.329  1.00  0.00     0.023 A 
ATOM     22  Cl  UNL A   1      34.026  23.142  22.672  1.00  0.00    -0.082 Cl
ATOM     23  C   UNL A   1      33.818  23.413  26.639  1.00  0.00     0.005 A 
ENDBRANCH  14  16
ENDBRANCH  13  14
ENDBRANCH   6   7
ENDBRANCH   4   6
ENDBRANCH   3   4
ENDBRANCH   2   3
ENDBRANCH   1   2
BRANCH   1  24
ATOM     24  O   UNL A   1      32.994  28.876  26.772  1.00  0.00    -0.374 OA
BRANCH  24  25
ATOM     25  C   UNL A   1      32.300  30.069  27.092  1.00  0.00     0.202 C 
BRANCH  25  26
ATOM     26  C   UNL A   1      33.267  31.252  27.092  1.00  0.00     0.261 C 
BRANCH  26  27
ATOM     27  O   UNL A   1      34.029  31.294  28.320  1.00  0.00    -0.460 OA
BRANCH  27  28
ATOM     28  C   UNL A   1      35.352  31.554  28.147  1.00  0.00     0.338 C 
ATOM     29  O   UNL A   1      35.805  32.623  27.751  1.00  0.00    -0.246 OA
BRANCH  28  30
ATOM     30  C   UNL A   1      36.149  30.305  28.289  1.00  0.00     0.060 A 
ATOM     31  C   UNL A   1      36.271  29.723  29.563  1.00  0.00     0.016 A 
ATOM     32  C   UNL A   1      37.039  29.963  27.270  1.00  0.00     0.016 A 
ATOM     33  C   UNL A   1      37.401  28.962  29.875  1.00  0.00     0.010 A 
ATOM     34  C   UNL A   1      38.212  29.328  27.622  1.00  0.00     0.010 A 
ATOM     35  C   UNL A   1      38.421  28.862  28.932  1.00  0.00    -0.014 A 
BRANCH  35  36
ATOM     36  C   UNL A   1      39.789  28.419  29.209  1.00  0.00     0.031 A 
ATOM     37  C   UNL A   1      40.187  27.043  28.857  1.00  0.00     0.074 A 
ATOM     38  C   UNL A   1      40.752  29.310  29.541  1.00  0.00     0.049 A 
ATOM     39  N   UNL A   1      41.365  26.575  29.068  1.00  0.00    -0.248 NA
ATOM     40  C   UNL A   1      39.281  26.043  28.294  1.00  0.00     0.031 C 
ATOM     41  C   UNL A   1      42.191  29.232  29.267  1.00  0.00     0.029 A 
ATOM     42  N   UNL A   1      40.641  30.525  30.181  1.00  0.00    -0.354 N 
ATOM     43  C   UNL A   1      41.480  25.402  28.377  1.00  0.00     0.074 A 
ATOM     44  C   UNL A   1      40.129  25.042  28.031  1.00  0.00     0.031 C 
ATOM     45  C   UNL A   1      42.827  30.229  29.905  1.00  0.00     0.029 A 
ATOM     46  C   UNL A   1      41.857  30.887  30.757  1.00  0.00     0.049 A 
ATOM     47  H   UNL A   1      39.817  31.064  30.225  1.00  0.00     0.167 HD
ATOM     48  C   UNL A   1      42.736  24.959  28.098  1.00  0.00     0.037 A 
ATOM     49  C   UNL A   1      41.973  31.071  32.105  1.00  0.00     0.037 A 
ATOM     50  C   UNL A   1      43.739  25.707  28.876  1.00  0.00     0.049 A 
ATOM     51  C   UNL A   1      42.709  29.895  32.732  1.00  0.00     0.074 A 
ATOM     52  C   UNL A   1      44.726  26.636  28.600  1.00  0.00     0.029 A 
ATOM     53  N   UNL A   1      43.589  25.728  30.256  1.00  0.00    -0.354 N 
ATOM     54  N   UNL A   1      43.244  28.933  32.027  1.00  0.00    -0.248 NA
ATOM     55  C   UNL A   1      42.860  29.657  34.163  1.00  0.00     0.031 C 
ATOM     56  C   UNL A   1      45.111  27.250  29.842  1.00  0.00     0.029 A 
ATOM     57  C   UNL A   1      44.398  26.661  30.874  1.00  0.00     0.049 A 
ATOM     58  H   UNL A   1      42.970  25.139  30.744  1.00  0.00     0.167 HD
ATOM     59  C   UNL A   1      43.734  27.955  32.830  1.00  0.00     0.074 A 
ATOM     60  C   UNL A   1      43.454  28.447  34.172  1.00  0.00     0.031 C 
ATOM     61  C   UNL A   1      44.308  26.818  32.327  1.00  0.00     0.037 A 
BRANCH  48  62
ATOM     62  C   UNL A   1      43.077  23.915  27.062  1.00  0.00     0.064 A 
ATOM     63  C   UNL A   1      42.714  22.569  27.277  1.00  0.00     0.173 A 
ATOM     64  C   UNL A   1      43.837  24.141  25.892  1.00  0.00     0.173 A 
ATOM     65  F   UNL A   1      42.005  22.209  28.356  1.00  0.00    -0.203 F 
ATOM     66  C   UNL A   1      43.080  21.543  26.399  1.00  0.00     0.198 A 
ATOM     67  C   UNL A   1      44.153  23.123  24.986  1.00  0.00     0.198 A 
ATOM     68  F   UNL A   1      44.359  25.337  25.598  1.00  0.00    -0.203 F 
ATOM     69  F   UNL A   1      42.749  20.276  26.681  1.00  0.00    -0.200 F 
ATOM     70  C   UNL A   1      43.787  21.822  25.246  1.00  0.00     0.200 A 
ATOM     71  F   UNL A   1      44.842  23.417  23.873  1.00  0.00    -0.200 F 
ATOM     72  F   UNL A   1      44.130  20.842  24.400  1.00  0.00    -0.200 F 
ENDBRANCH  48  62
BRANCH  49  73
ATOM     73  C   UNL A   1      40.789  31.829  32.615  1.00  0.00     0.064 A 
ATOM     74  C   UNL A   1      40.670  33.152  32.124  1.00  0.00     0.173 A 
ATOM     75  C   UNL A   1      39.606  31.161  32.959  1.00  0.00     0.173 A 
ATOM     76  F   UNL A   1      41.772  33.835  31.769  1.00  0.00    -0.203 F 
ATOM     77  C   UNL A   1      39.430  33.678  31.762  1.00  0.00     0.198 A 
ATOM     78  C   UNL A   1      38.362  31.712  32.626  1.00  0.00     0.198 A 
ATOM     79  F   UNL A   1      39.649  29.899  33.409  1.00  0.00    -0.203 F 
ATOM     80  F   UNL A   1      39.369  34.820  31.062  1.00  0.00    -0.200 F 
ATOM     81  C   UNL A   1      38.281  32.936  31.974  1.00  0.00     0.200 A 
ATOM     82  F   UNL A   1      37.249  30.981  32.788  1.00  0.00    -0.200 F 
ATOM     83  F   UNL A   1      37.114  33.352  31.464  1.00  0.00    -0.200 F 
ENDBRANCH  49  73
BRANCH  61  84
ATOM     84  C   UNL A   1      44.810  25.728  33.226  1.00  0.00     0.064 A 
ATOM     85  C   UNL A   1      46.156  25.338  33.230  1.00  0.00     0.173 A 
ATOM     86  C   UNL A   1      43.952  25.006  34.083  1.00  0.00     0.173 A 
ATOM     87  F   UNL A   1      47.029  25.872  32.363  1.00  0.00    -0.203 F 
ATOM     88  C   UNL A   1      46.637  24.386  34.127  1.00  0.00     0.198 A 
ATOM     89  C   UNL A   1      44.421  24.001  34.922  1.00  0.00     0.198 A 
ATOM     90  F   UNL A   1      42.643  25.274  34.170  1.00  0.00    -0.203 F 
ATOM     91  F   UNL A   1      47.952  24.130  34.179  1.00  0.00    -0.200 F 
ATOM     92  C   UNL A   1      45.770  23.719  34.974  1.00  0.00     0.200 A 
ATOM     93  F   UNL A   1      43.559  23.331  35.701  1.00  0.00    -0.200 F 
ATOM     94  F   UNL A   1      46.233  22.811  35.842  1.00  0.00    -0.200 F 
ENDBRANCH  61  84
ENDBRANCH  35  36
ENDBRANCH  28  30
ENDBRANCH  27  28
ENDBRANCH  26  27
ENDBRANCH  25  26
ENDBRANCH  24  25
ENDBRANCH   1  24
TORSDOF 17
ENDMDL
MODEL 3
REMARK VINA RESULT:     -12.0      3.802      9.887
REMARK SMILES Cc1ccc(Nc2c(F)cccc2Cl)c(CC(=O)OCCOCCOC(=O)c2ccc(-c3c4nc(c(-c5c(F)c(F)c(F)c(F)c5F)c5ccc([nH]5)c(-c5c(F)c(F)c(F)c(F)c5F)c5nc(c(-c6c(F)c(F)c(F)c(F)c6F)c6ccc3[nH]6)C=C5)C=C4)cc2)c1
REMARK SMILES IDX 21 1 20 2 19 3 17 4 18 5 16 6 15 7 1 8 2 9 3 10 91 11 4 12
REMARK SMILES IDX 5 13 6 14 7 16 8 17 13 18 9 19 10 20 12 21 14 22 11 23 22 24
REMARK SMILES IDX 23 25 24 26 25 27 26 28 27 29 28 30 29 31 90 32 30 33 89 34
REMARK SMILES IDX 31 35 32 36 33 37 83 38 34 39 88 40 82 41 84 42 35 43 87 44
REMARK SMILES IDX 81 45 80 46 36 48 68 49 48 50 67 51 49 52 52 53 66 54 85 55
REMARK SMILES IDX 50 56 51 57 65 59 86 60 53 61 37 62 38 63 46 64 39 65 40 66
REMARK SMILES IDX 44 67 47 68 41 69 42 70 45 71 43 72 69 73 70 74 78 75 71 76
REMARK SMILES IDX 72 77 76 78 79 79 73 80 74 81 77 82 75 83 54 84 55 85 63 86
REMARK SMILES IDX 56 87 57 88 61 89 64 90 58 91 59 92 62 93 60 94
REMARK H PARENT 6 15 84 47 52 58
REMARK Flexibility Score: inf
ROOT
ATOM      1  C   UNL A   1      31.905  28.020  27.358  1.00  0.00     0.202 C 
ENDROOT
BRANCH   1   2
ATOM      2  C   UNL A   1      32.579  27.425  26.133  1.00  0.00     0.261 C 
BRANCH   2   3
ATOM      3  O   UNL A   1      32.654  26.011  26.193  1.00  0.00    -0.463 OA
BRANCH   3   4
ATOM      4  C   UNL A   1      33.197  25.322  25.145  1.00  0.00     0.310 C 
ATOM      5  O   UNL A   1      33.908  25.780  24.260  1.00  0.00    -0.252 OA
BRANCH   4   6
ATOM      6  C   UNL A   1      32.757  23.867  25.197  1.00  0.00     0.160 C 
BRANCH   6   7
ATOM      7  C   UNL A   1      33.915  22.995  25.653  1.00  0.00    -0.013 A 
ATOM      8  C   UNL A   1      37.661  23.779  25.736  1.00  0.00     0.044 C 
ATOM      9  C   UNL A   1      36.368  23.021  25.780  1.00  0.00    -0.051 A 
ATOM     10  C   UNL A   1      36.356  21.635  25.685  1.00  0.00     0.005 A 
ATOM     11  C   UNL A   1      35.146  23.684  25.843  1.00  0.00     0.009 A 
ATOM     12  C   UNL A   1      35.143  20.941  25.584  1.00  0.00     0.026 A 
ATOM     13  C   UNL A   1      33.894  21.590  25.529  1.00  0.00     0.042 A 
BRANCH  13  14
ATOM     14  N   UNL A   1      32.694  20.862  25.295  1.00  0.00    -0.352 N 
ATOM     15  H   UNL A   1      31.878  21.241  25.696  1.00  0.00     0.167 HD
BRANCH  14  16
ATOM     16  C   UNL A   1      32.521  19.658  24.556  1.00  0.00     0.094 A 
ATOM     17  C   UNL A   1      32.688  18.402  25.159  1.00  0.00     0.148 A 
ATOM     18  C   UNL A   1      32.359  19.661  23.157  1.00  0.00     0.067 A 
ATOM     19  F   UNL A   1      32.690  18.295  26.496  1.00  0.00    -0.205 F 
ATOM     20  C   UNL A   1      32.880  17.240  24.416  1.00  0.00     0.041 A 
ATOM     21  C   UNL A   1      32.611  18.509  22.397  1.00  0.00     0.023 A 
ATOM     22  Cl  UNL A   1      31.789  21.058  22.313  1.00  0.00    -0.082 Cl
ATOM     23  C   UNL A   1      32.904  17.303  23.029  1.00  0.00     0.005 A 
ENDBRANCH  14  16
ENDBRANCH  13  14
ENDBRANCH   6   7
ENDBRANCH   4   6
ENDBRANCH   3   4
ENDBRANCH   2   3
ENDBRANCH   1   2
BRANCH   1  24
ATOM     24  O   UNL A   1      31.857  29.424  27.213  1.00  0.00    -0.374 OA
BRANCH  24  25
ATOM     25  C   UNL A   1      33.048  30.012  26.721  1.00  0.00     0.202 C 
BRANCH  25  26
ATOM     26  C   UNL A   1      33.211  31.421  27.289  1.00  0.00     0.261 C 
BRANCH  26  27
ATOM     27  O   UNL A   1      34.096  31.415  28.432  1.00  0.00    -0.460 OA
BRANCH  27  28
ATOM     28  C   UNL A   1      35.402  31.639  28.128  1.00  0.00     0.338 C 
ATOM     29  O   UNL A   1      35.835  32.679  27.641  1.00  0.00    -0.246 OA
BRANCH  28  30
ATOM     30  C   UNL A   1      36.187  30.382  28.257  1.00  0.00     0.060 A 
ATOM     31  C   UNL A   1      36.281  29.770  29.519  1.00  0.00     0.016 A 
ATOM     32  C   UNL A   1      37.095  30.057  27.249  1.00  0.00     0.016 A 
ATOM     33  C   UNL A   1      37.399  28.994  29.836  1.00  0.00     0.010 A 
ATOM     34  C   UNL A   1      38.257  29.405  27.609  1.00  0.00     0.010 A 
ATOM     35  C   UNL A   1      38.437  28.909  28.912  1.00  0.00    -0.014 A 
BRANCH  35  36
ATOM     36  C   UNL A   1      39.797  28.450  29.205  1.00  0.00     0.031 A 
ATOM     37  C   UNL A   1      40.186  27.073  28.849  1.00  0.00     0.074 A 
ATOM     38  C   UNL A   1      40.763  29.329  29.557  1.00  0.00     0.049 A 
ATOM     39  N   UNL A   1      41.356  26.591  29.074  1.00  0.00    -0.248 NA
ATOM     40  C   UNL A   1      39.279  26.086  28.266  1.00  0.00     0.031 C 
ATOM     41  C   UNL A   1      42.206  29.239  29.304  1.00  0.00     0.029 A 
ATOM     42  N   UNL A   1      40.655  30.541  30.205  1.00  0.00    -0.354 N 
ATOM     43  C   UNL A   1      41.470  25.422  28.376  1.00  0.00     0.074 A 
ATOM     44  C   UNL A   1      40.121  25.078  28.008  1.00  0.00     0.031 C 
ATOM     45  C   UNL A   1      42.842  30.224  29.958  1.00  0.00     0.029 A 
ATOM     46  C   UNL A   1      41.866  30.886  30.801  1.00  0.00     0.049 A 
ATOM     47  H   UNL A   1      39.836  31.087  30.241  1.00  0.00     0.167 HD
ATOM     48  C   UNL A   1      42.725  24.969  28.112  1.00  0.00     0.037 A 
ATOM     49  C   UNL A   1      41.965  31.059  32.152  1.00  0.00     0.037 A 
ATOM     50  C   UNL A   1      43.724  25.701  28.910  1.00  0.00     0.049 A 
ATOM     51  C   UNL A   1      42.679  29.871  32.781  1.00  0.00     0.074 A 
ATOM     52  C   UNL A   1      44.724  26.622  28.655  1.00  0.00     0.029 A 
ATOM     53  N   UNL A   1      43.554  25.714  30.288  1.00  0.00    -0.354 N 
ATOM     54  N   UNL A   1      43.215  28.910  32.077  1.00  0.00    -0.248 NA
ATOM     55  C   UNL A   1      42.807  29.622  34.212  1.00  0.00     0.031 C 
ATOM     56  C   UNL A   1      45.097  27.223  29.907  1.00  0.00     0.029 A 
ATOM     57  C   UNL A   1      44.363  26.634  30.924  1.00  0.00     0.049 A 
ATOM     58  H   UNL A   1      42.922  25.128  30.763  1.00  0.00     0.167 HD
ATOM     59  C   UNL A   1      43.683  27.921  32.879  1.00  0.00     0.074 A 
ATOM     60  C   UNL A   1      43.389  28.407  34.221  1.00  0.00     0.031 C 
ATOM     61  C   UNL A   1      44.253  26.782  32.377  1.00  0.00     0.037 A 
BRANCH  48  62
ATOM     62  C   UNL A   1      43.071  23.928  27.074  1.00  0.00     0.064 A 
ATOM     63  C   UNL A   1      42.722  22.579  27.289  1.00  0.00     0.173 A 
ATOM     64  C   UNL A   1      43.823  24.162  25.900  1.00  0.00     0.173 A 
ATOM     65  F   UNL A   1      42.021  22.211  28.372  1.00  0.00    -0.203 F 
ATOM     66  C   UNL A   1      43.093  21.557  26.408  1.00  0.00     0.198 A 
ATOM     67  C   UNL A   1      44.144  23.149  24.992  1.00  0.00     0.198 A 
ATOM     68  F   UNL A   1      44.332  25.363  25.604  1.00  0.00    -0.203 F 
ATOM     69  F   UNL A   1      42.775  20.287  26.692  1.00  0.00    -0.200 F 
ATOM     70  C   UNL A   1      43.791  21.844  25.252  1.00  0.00     0.200 A 
ATOM     71  F   UNL A   1      44.825  23.449  23.876  1.00  0.00    -0.200 F 
ATOM     72  F   UNL A   1      44.139  20.867  24.405  1.00  0.00    -0.200 F 
ENDBRANCH  48  62
BRANCH  49  73
ATOM     73  C   UNL A   1      40.780  31.826  32.650  1.00  0.00     0.064 A 
ATOM     74  C   UNL A   1      40.687  33.157  32.175  1.00  0.00     0.173 A 
ATOM     75  C   UNL A   1      39.583  31.168  32.962  1.00  0.00     0.173 A 
ATOM     76  F   UNL A   1      41.805  33.830  31.851  1.00  0.00    -0.203 F 
ATOM     77  C   UNL A   1      39.462  33.704  31.798  1.00  0.00     0.198 A 
ATOM     78  C   UNL A   1      38.353  31.740  32.614  1.00  0.00     0.198 A 
ATOM     79  F   UNL A   1      39.601  29.900  33.395  1.00  0.00    -0.203 F 
ATOM     80  F   UNL A   1      39.429  34.856  31.113  1.00  0.00    -0.200 F 
ATOM     81  C   UNL A   1      38.300  32.974  31.977  1.00  0.00     0.200 A 
ATOM     82  F   UNL A   1      37.228  31.022  32.744  1.00  0.00    -0.200 F 
ATOM     83  F   UNL A   1      37.148  33.412  31.451  1.00  0.00    -0.200 F 
ENDBRANCH  49  73
BRANCH  61  84
ATOM     84  C   UNL A   1      44.731  25.681  33.276  1.00  0.00     0.064 A 
ATOM     85  C   UNL A   1      43.847  24.954  34.084  1.00  0.00     0.173 A 
ATOM     86  C   UNL A   1      46.097  25.345  33.393  1.00  0.00     0.173 A 
ATOM     87  F   UNL A   1      42.546  25.278  34.144  1.00  0.00    -0.203 F 
ATOM     88  C   UNL A   1      44.280  23.874  34.852  1.00  0.00     0.198 A 
ATOM     89  C   UNL A   1      46.537  24.318  34.220  1.00  0.00     0.198 A 
ATOM     90  F   UNL A   1      47.045  25.968  32.681  1.00  0.00    -0.203 F 
ATOM     91  F   UNL A   1      43.383  23.131  35.515  1.00  0.00    -0.200 F 
ATOM     92  C   UNL A   1      45.624  23.556  34.919  1.00  0.00     0.200 A 
ATOM     93  F   UNL A   1      47.848  24.054  34.310  1.00  0.00    -0.200 F 
ATOM     94  F   UNL A   1      46.039  22.513  35.649  1.00  0.00    -0.200 F 
ENDBRANCH  61  84
ENDBRANCH  35  36
ENDBRANCH  28  30
ENDBRANCH  27  28
ENDBRANCH  26  27
ENDBRANCH  25  26
ENDBRANCH  24  25
ENDBRANCH   1  24
TORSDOF 17
ENDMDL
