MODEL 1
REMARK VINA RESULT:     -10.7      0.000      0.000
REMARK SMILES CC[C@@](C)([NH2+]CC(=O)N[C@]1(C)CCS(=O)(=O)C1)C(=O)OCCOCCOC(=O)c1ccc(-c2c3nc(c(-c4c(F)c(F)c(F)c(F)c4F)c4ccc([nH]4)c(-c4c(F)c(F)c(F)c(F)c4F)c4nc(c(-c5c(F)c(F)c(F)c(F)c5F)c5ccc2[nH]5)C=C4)C=C3)cc1
REMARK SMILES IDX 22 1 21 2 20 3 18 4 19 5 3 6 4 7 2 8 1 9 5 10 6 13 7 14 8 15
REMARK SMILES IDX 9 16 10 18 12 19 17 20 11 21 13 22 14 23 15 24 16 25 23 26
REMARK SMILES IDX 24 27 25 28 26 29 27 30 28 31 29 32 30 33 91 34 31 35 90 36
REMARK SMILES IDX 32 37 33 38 34 39 84 40 35 41 89 42 83 43 85 44 36 45 88 46
REMARK SMILES IDX 82 47 81 48 37 50 69 51 49 52 68 53 50 54 53 55 67 56 86 57
REMARK SMILES IDX 51 58 52 59 66 61 87 62 54 63 38 64 39 65 47 66 40 67 41 68
REMARK SMILES IDX 45 69 48 70 42 71 43 72 46 73 44 74 70 75 71 76 79 77 72 78
REMARK SMILES IDX 73 79 77 80 80 81 74 82 75 83 78 84 76 85 55 86 56 87 64 88
REMARK SMILES IDX 57 89 58 90 62 91 65 92 59 93 60 94 63 95 61 96
REMARK H PARENT 5 11 5 12 9 17 85 49 53 60
REMARK Flexibility Score: inf
ROOT
ATOM      1  C   UNL A   1      34.975  32.932  28.051  1.00  0.00     0.202 C 
ENDROOT
BRANCH   1   2
ATOM      2  C   UNL A   1      34.634  31.508  27.588  1.00  0.00     0.261 C 
BRANCH   2   3
ATOM      3  O   UNL A   1      33.296  31.032  27.876  1.00  0.00    -0.459 OA
BRANCH   3   4
ATOM      4  C   UNL A   1      32.405  30.972  26.831  1.00  0.00     0.367 C 
ATOM      5  O   UNL A   1      31.646  31.906  26.584  1.00  0.00    -0.245 OA
BRANCH   4   6
ATOM      6  C   UNL A   1      32.495  29.643  25.940  1.00  0.00     0.191 C 
ATOM      7  C   UNL A   1      33.789  28.790  25.740  1.00  0.00     0.092 C 
BRANCH   6   8
ATOM      8  C   UNL A   1      31.542  28.670  26.719  1.00  0.00     0.077 C 
ATOM      9  C   UNL A   1      32.306  27.703  27.665  1.00  0.00     0.011 C 
ENDBRANCH   6   8
BRANCH   6  10
ATOM     10  N   UNL A   1      32.051  29.947  24.550  1.00  0.00    -0.325 N 
ATOM     11  H   UNL A   1      32.739  29.546  23.913  1.00  0.00     0.347 HD
ATOM     12  H   UNL A   1      31.971  30.964  24.516  1.00  0.00     0.347 HD
BRANCH  10  13
ATOM     13  C   UNL A   1      30.699  29.441  24.131  1.00  0.00     0.362 C 
BRANCH  13  14
ATOM     14  C   UNL A   1      30.537  28.697  22.774  1.00  0.00     0.275 C 
ATOM     15  O   UNL A   1      30.189  29.358  21.784  1.00  0.00    -0.268 OA
ATOM     16  N   UNL A   1      30.768  27.363  22.517  1.00  0.00    -0.345 N 
ATOM     17  H   UNL A   1      30.692  27.167  21.555  1.00  0.00     0.164 HD
BRANCH  16  18
ATOM     18  C   UNL A   1      31.099  26.131  23.295  1.00  0.00     0.052 C 
ATOM     19  C   UNL A   1      32.435  26.238  24.093  1.00  0.00     0.045 C 
ATOM     20  C   UNL A   1      31.361  24.899  22.420  1.00  0.00     0.165 C 
ATOM     21  C   UNL A   1      30.042  25.926  24.379  1.00  0.00     0.036 C 
ATOM     22  C   UNL A   1      33.643  25.903  23.229  1.00  0.00     0.139 C 
ATOM     23  S   UNL A   1      33.050  24.914  21.896  1.00  0.00     0.152 S 
ATOM     24  O   UNL A   1      33.584  23.570  22.014  1.00  0.00    -0.229 OA
ATOM     25  O   UNL A   1      33.162  25.686  20.680  1.00  0.00    -0.229 OA
ENDBRANCH  16  18
ENDBRANCH  13  14
ENDBRANCH  10  13
ENDBRANCH   6  10
ENDBRANCH   4   6
ENDBRANCH   3   4
ENDBRANCH   2   3
ENDBRANCH   1   2
BRANCH   1  26
ATOM     26  O   UNL A   1      34.057  33.629  28.872  1.00  0.00    -0.374 OA
BRANCH  26  27
ATOM     27  C   UNL A   1      33.949  35.032  28.681  1.00  0.00     0.202 C 
BRANCH  27  28
ATOM     28  C   UNL A   1      32.940  35.835  29.522  1.00  0.00     0.261 C 
BRANCH  28  29
ATOM     29  O   UNL A   1      32.397  35.177  30.686  1.00  0.00    -0.460 OA
BRANCH  29  30
ATOM     30  C   UNL A   1      32.693  35.773  31.867  1.00  0.00     0.338 C 
ATOM     31  O   UNL A   1      32.119  36.716  32.389  1.00  0.00    -0.246 OA
BRANCH  30  32
ATOM     32  C   UNL A   1      33.819  35.094  32.533  1.00  0.00     0.060 A 
ATOM     33  C   UNL A   1      35.103  35.648  32.451  1.00  0.00     0.016 A 
ATOM     34  C   UNL A   1      33.635  33.816  33.063  1.00  0.00     0.016 A 
ATOM     35  C   UNL A   1      36.212  34.911  32.882  1.00  0.00     0.010 A 
ATOM     36  C   UNL A   1      34.747  33.082  33.494  1.00  0.00     0.010 A 
ATOM     37  C   UNL A   1      36.045  33.613  33.385  1.00  0.00    -0.014 A 
BRANCH  37  38
ATOM     38  C   UNL A   1      37.218  32.774  33.753  1.00  0.00     0.031 A 
ATOM     39  C   UNL A   1      37.983  33.062  35.017  1.00  0.00     0.074 A 
ATOM     40  C   UNL A   1      37.630  31.791  32.931  1.00  0.00     0.049 A 
ATOM     41  N   UNL A   1      39.116  32.554  35.436  1.00  0.00    -0.248 NA
ATOM     42  C   UNL A   1      37.397  34.054  35.932  1.00  0.00     0.031 C 
ATOM     43  C   UNL A   1      36.958  31.393  31.694  1.00  0.00     0.029 A 
ATOM     44  N   UNL A   1      38.731  30.972  32.993  1.00  0.00    -0.354 N 
ATOM     45  C   UNL A   1      39.392  33.182  36.645  1.00  0.00     0.074 A 
ATOM     46  C   UNL A   1      38.310  34.112  36.893  1.00  0.00     0.031 C 
ATOM     47  C   UNL A   1      37.679  30.430  31.096  1.00  0.00     0.029 A 
ATOM     48  C   UNL A   1      38.888  30.181  31.879  1.00  0.00     0.049 A 
ATOM     49  H   UNL A   1      39.347  30.952  33.761  1.00  0.00     0.167 HD
ATOM     50  C   UNL A   1      40.455  33.001  37.465  1.00  0.00     0.037 A 
ATOM     51  C   UNL A   1      39.913  29.388  31.507  1.00  0.00     0.037 A 
ATOM     52  C   UNL A   1      41.519  32.060  37.223  1.00  0.00     0.049 A 
ATOM     53  C   UNL A   1      41.116  29.261  32.408  1.00  0.00     0.074 A 
ATOM     54  C   UNL A   1      42.600  31.755  38.033  1.00  0.00     0.029 A 
ATOM     55  N   UNL A   1      41.646  31.285  36.080  1.00  0.00    -0.354 N 
ATOM     56  N   UNL A   1      41.339  29.813  33.576  1.00  0.00    -0.248 NA
ATOM     57  C   UNL A   1      42.214  28.403  31.935  1.00  0.00     0.031 C 
ATOM     58  C   UNL A   1      43.421  30.855  37.348  1.00  0.00     0.029 A 
ATOM     59  C   UNL A   1      42.817  30.544  36.141  1.00  0.00     0.049 A 
ATOM     60  H   UNL A   1      41.003  31.264  35.336  1.00  0.00     0.167 HD
ATOM     61  C   UNL A   1      42.585  29.352  33.985  1.00  0.00     0.074 A 
ATOM     62  C   UNL A   1      43.060  28.456  32.954  1.00  0.00     0.031 C 
ATOM     63  C   UNL A   1      43.276  29.650  35.111  1.00  0.00     0.037 A 
BRANCH  50  64
ATOM     64  C   UNL A   1      40.560  33.851  38.699  1.00  0.00     0.064 A 
ATOM     65  C   UNL A   1      41.267  35.061  38.709  1.00  0.00     0.173 A 
ATOM     66  C   UNL A   1      39.845  33.498  39.856  1.00  0.00     0.173 A 
ATOM     67  F   UNL A   1      41.968  35.443  37.631  1.00  0.00    -0.203 F 
ATOM     68  C   UNL A   1      41.261  35.883  39.835  1.00  0.00     0.198 A 
ATOM     69  C   UNL A   1      39.819  34.335  40.967  1.00  0.00     0.198 A 
ATOM     70  F   UNL A   1      39.144  32.355  39.893  1.00  0.00    -0.203 F 
ATOM     71  F   UNL A   1      41.959  37.027  39.830  1.00  0.00    -0.200 F 
ATOM     72  C   UNL A   1      40.528  35.526  40.957  1.00  0.00     0.200 A 
ATOM     73  F   UNL A   1      39.094  33.996  42.043  1.00  0.00    -0.200 F 
ATOM     74  F   UNL A   1      40.503  36.331  42.028  1.00  0.00    -0.200 F 
ENDBRANCH  50  64
BRANCH  51  75
ATOM     75  C   UNL A   1      39.885  28.696  30.189  1.00  0.00     0.064 A 
ATOM     76  C   UNL A   1      39.317  27.423  30.049  1.00  0.00     0.173 A 
ATOM     77  C   UNL A   1      40.478  29.271  29.054  1.00  0.00     0.173 A 
ATOM     78  F   UNL A   1      38.758  26.818  31.108  1.00  0.00    -0.203 F 
ATOM     79  C   UNL A   1      39.373  26.737  28.835  1.00  0.00     0.198 A 
ATOM     80  C   UNL A   1      40.499  28.603  27.833  1.00  0.00     0.198 A 
ATOM     81  F   UNL A   1      41.034  30.489  29.130  1.00  0.00    -0.203 F 
ATOM     82  F   UNL A   1      38.882  25.494  28.748  1.00  0.00    -0.200 F 
ATOM     83  C   UNL A   1      39.960  27.329  27.728  1.00  0.00     0.200 A 
ATOM     84  F   UNL A   1      41.047  29.189  26.760  1.00  0.00    -0.200 F 
ATOM     85  F   UNL A   1      40.015  26.671  26.563  1.00  0.00    -0.200 F 
ENDBRANCH  51  75
BRANCH  63  86
ATOM     86  C   UNL A   1      44.610  28.984  35.308  1.00  0.00     0.064 A 
ATOM     87  C   UNL A   1      44.730  27.768  35.996  1.00  0.00     0.173 A 
ATOM     88  C   UNL A   1      45.772  29.542  34.754  1.00  0.00     0.173 A 
ATOM     89  F   UNL A   1      43.652  27.201  36.561  1.00  0.00    -0.203 F 
ATOM     90  C   UNL A   1      45.968  27.146  36.141  1.00  0.00     0.198 A 
ATOM     91  C   UNL A   1      47.003  28.899  34.870  1.00  0.00     0.198 A 
ATOM     92  F   UNL A   1      45.713  30.700  34.080  1.00  0.00    -0.203 F 
ATOM     93  F   UNL A   1      46.066  26.008  36.842  1.00  0.00    -0.200 F 
ATOM     94  C   UNL A   1      47.101  27.706  35.569  1.00  0.00     0.200 A 
ATOM     95  F   UNL A   1      48.093  29.434  34.303  1.00  0.00    -0.200 F 
ATOM     96  F   UNL A   1      48.289  27.098  35.697  1.00  0.00    -0.200 F 
ENDBRANCH  63  86
ENDBRANCH  37  38
ENDBRANCH  30  32
ENDBRANCH  29  30
ENDBRANCH  28  29
ENDBRANCH  27  28
ENDBRANCH  26  27
ENDBRANCH   1  26
TORSDOF 19
ENDMDL
MODEL 2
REMARK VINA RESULT:     -10.6      6.157     10.815
REMARK SMILES CC[C@@](C)([NH2+]CC(=O)N[C@]1(C)CCS(=O)(=O)C1)C(=O)OCCOCCOC(=O)c1ccc(-c2c3nc(c(-c4c(F)c(F)c(F)c(F)c4F)c4ccc([nH]4)c(-c4c(F)c(F)c(F)c(F)c4F)c4nc(c(-c5c(F)c(F)c(F)c(F)c5F)c5ccc2[nH]5)C=C4)C=C3)cc1
REMARK SMILES IDX 22 1 21 2 20 3 18 4 19 5 3 6 4 7 2 8 1 9 5 10 6 13 7 14 8 15
REMARK SMILES IDX 9 16 10 18 12 19 17 20 11 21 13 22 14 23 15 24 16 25 23 26
REMARK SMILES IDX 24 27 25 28 26 29 27 30 28 31 29 32 30 33 91 34 31 35 90 36
REMARK SMILES IDX 32 37 33 38 34 39 84 40 35 41 89 42 83 43 85 44 36 45 88 46
REMARK SMILES IDX 82 47 81 48 37 50 69 51 49 52 68 53 50 54 53 55 67 56 86 57
REMARK SMILES IDX 51 58 52 59 66 61 87 62 54 63 38 64 39 65 47 66 40 67 41 68
REMARK SMILES IDX 45 69 48 70 42 71 43 72 46 73 44 74 70 75 71 76 79 77 72 78
REMARK SMILES IDX 73 79 77 80 80 81 74 82 75 83 78 84 76 85 55 86 56 87 64 88
REMARK SMILES IDX 57 89 58 90 62 91 65 92 59 93 60 94 63 95 61 96
REMARK H PARENT 5 11 5 12 9 17 85 49 53 60
REMARK Flexibility Score: inf
ROOT
ATOM      1  C   UNL A   1      37.557  22.329  25.619  1.00  0.00     0.202 C 
ENDROOT
BRANCH   1   2
ATOM      2  C   UNL A   1      36.958  23.687  25.228  1.00  0.00     0.261 C 
BRANCH   2   3
ATOM      3  O   UNL A   1      35.526  23.727  25.006  1.00  0.00    -0.459 OA
BRANCH   3   4
ATOM      4  C   UNL A   1      35.069  23.400  23.750  1.00  0.00     0.367 C 
ATOM      5  O   UNL A   1      35.829  23.353  22.787  1.00  0.00    -0.245 OA
BRANCH   4   6
ATOM      6  C   UNL A   1      33.514  23.022  23.673  1.00  0.00     0.191 C 
ATOM      7  C   UNL A   1      32.818  22.353  22.444  1.00  0.00     0.092 C 
BRANCH   6   8
ATOM      8  C   UNL A   1      33.394  21.928  24.791  1.00  0.00     0.077 C 
ATOM      9  C   UNL A   1      31.947  21.391  24.961  1.00  0.00     0.011 C 
ENDBRANCH   6   8
BRANCH   6  10
ATOM     10  N   UNL A   1      32.695  24.243  23.925  1.00  0.00    -0.325 N 
ATOM     11  H   UNL A   1      33.300  24.931  24.373  1.00  0.00     0.347 HD
ATOM     12  H   UNL A   1      31.911  23.921  24.493  1.00  0.00     0.347 HD
BRANCH  10  13
ATOM     13  C   UNL A   1      32.061  24.905  22.734  1.00  0.00     0.362 C 
BRANCH  13  14
ATOM     14  C   UNL A   1      32.487  26.348  22.333  1.00  0.00     0.275 C 
ATOM     15  O   UNL A   1      33.443  26.478  21.553  1.00  0.00    -0.268 OA
ATOM     16  N   UNL A   1      31.901  27.533  22.722  1.00  0.00    -0.345 N 
ATOM     17  H   UNL A   1      32.296  28.299  22.245  1.00  0.00     0.164 HD
BRANCH  16  18
ATOM     18  C   UNL A   1      30.834  27.977  23.668  1.00  0.00     0.052 C 
ATOM     19  C   UNL A   1      31.178  29.297  24.423  1.00  0.00     0.045 C 
ATOM     20  C   UNL A   1      30.598  27.008  24.833  1.00  0.00     0.165 C 
ATOM     21  C   UNL A   1      29.577  28.329  22.872  1.00  0.00     0.036 C 
ATOM     22  C   UNL A   1      32.033  29.041  25.657  1.00  0.00     0.139 C 
ATOM     23  S   UNL A   1      31.759  27.362  26.119  1.00  0.00     0.152 S 
ATOM     24  O   UNL A   1      31.068  27.317  27.394  1.00  0.00    -0.229 OA
ATOM     25  O   UNL A   1      32.978  26.626  25.874  1.00  0.00    -0.229 OA
ENDBRANCH  16  18
ENDBRANCH  13  14
ENDBRANCH  10  13
ENDBRANCH   6  10
ENDBRANCH   4   6
ENDBRANCH   3   4
ENDBRANCH   2   3
ENDBRANCH   1   2
BRANCH   1  26
ATOM     26  O   UNL A   1      37.816  21.372  24.611  1.00  0.00    -0.374 OA
BRANCH  26  27
ATOM     27  C   UNL A   1      37.723  20.002  24.974  1.00  0.00     0.202 C 
BRANCH  27  28
ATOM     28  C   UNL A   1      39.002  19.226  25.337  1.00  0.00     0.261 C 
BRANCH  28  29
ATOM     29  O   UNL A   1      39.867  19.828  26.323  1.00  0.00    -0.460 OA
BRANCH  29  30
ATOM     30  C   UNL A   1      41.191  19.610  26.127  1.00  0.00     0.338 C 
ATOM     31  O   UNL A   1      41.723  18.600  25.694  1.00  0.00    -0.246 OA
BRANCH  30  32
ATOM     32  C   UNL A   1      41.978  20.810  26.462  1.00  0.00     0.060 A 
ATOM     33  C   UNL A   1      42.305  21.069  27.799  1.00  0.00     0.016 A 
ATOM     34  C   UNL A   1      42.216  21.772  25.479  1.00  0.00     0.016 A 
ATOM     35  C   UNL A   1      42.854  22.305  28.158  1.00  0.00     0.010 A 
ATOM     36  C   UNL A   1      42.765  23.008  25.842  1.00  0.00     0.010 A 
ATOM     37  C   UNL A   1      43.066  23.294  27.186  1.00  0.00    -0.014 A 
BRANCH  37  38
ATOM     38  C   UNL A   1      43.552  24.649  27.561  1.00  0.00     0.031 A 
ATOM     39  C   UNL A   1      42.583  25.684  28.068  1.00  0.00     0.074 A 
ATOM     40  C   UNL A   1      44.849  24.971  27.397  1.00  0.00     0.049 A 
ATOM     41  N   UNL A   1      42.775  26.959  28.298  1.00  0.00    -0.248 NA
ATOM     42  C   UNL A   1      41.215  25.223  28.353  1.00  0.00     0.031 C 
ATOM     43  C   UNL A   1      45.891  24.051  26.944  1.00  0.00     0.029 A 
ATOM     44  N   UNL A   1      45.504  26.167  27.559  1.00  0.00    -0.354 N 
ATOM     45  C   UNL A   1      41.551  27.458  28.727  1.00  0.00     0.074 A 
ATOM     46  C   UNL A   1      40.619  26.350  28.722  1.00  0.00     0.031 C 
ATOM     47  C   UNL A   1      47.048  24.725  26.830  1.00  0.00     0.029 A 
ATOM     48  C   UNL A   1      46.817  26.131  27.151  1.00  0.00     0.049 A 
ATOM     49  H   UNL A   1      45.075  26.972  27.930  1.00  0.00     0.167 HD
ATOM     50  C   UNL A   1      41.237  28.727  29.084  1.00  0.00     0.037 A 
ATOM     51  C   UNL A   1      47.714  27.128  27.003  1.00  0.00     0.037 A 
ATOM     52  C   UNL A   1      42.173  29.823  29.105  1.00  0.00     0.049 A 
ATOM     53  C   UNL A   1      47.313  28.542  27.341  1.00  0.00     0.074 A 
ATOM     54  C   UNL A   1      41.963  31.127  29.521  1.00  0.00     0.029 A 
ATOM     55  N   UNL A   1      43.489  29.748  28.678  1.00  0.00    -0.354 N 
ATOM     56  N   UNL A   1      46.172  28.993  27.802  1.00  0.00    -0.248 NA
ATOM     57  C   UNL A   1      48.326  29.588  27.132  1.00  0.00     0.031 C 
ATOM     58  C   UNL A   1      43.127  31.858  29.273  1.00  0.00     0.029 A 
ATOM     59  C   UNL A   1      44.086  30.996  28.768  1.00  0.00     0.049 A 
ATOM     60  H   UNL A   1      43.934  28.931  28.356  1.00  0.00     0.167 HD
ATOM     61  C   UNL A   1      46.338  30.363  27.959  1.00  0.00     0.074 A 
ATOM     62  C   UNL A   1      47.696  30.669  27.569  1.00  0.00     0.031 C 
ATOM     63  C   UNL A   1      45.442  31.287  28.384  1.00  0.00     0.037 A 
BRANCH  50  64
ATOM     64  C   UNL A   1      39.815  29.034  29.457  1.00  0.00     0.064 A 
ATOM     65  C   UNL A   1      38.869  29.446  28.507  1.00  0.00     0.173 A 
ATOM     66  C   UNL A   1      39.369  28.802  30.769  1.00  0.00     0.173 A 
ATOM     67  F   UNL A   1      39.244  29.684  27.241  1.00  0.00    -0.203 F 
ATOM     68  C   UNL A   1      37.532  29.622  28.859  1.00  0.00     0.198 A 
ATOM     69  C   UNL A   1      38.028  28.952  31.109  1.00  0.00     0.198 A 
ATOM     70  F   UNL A   1      40.231  28.397  31.713  1.00  0.00    -0.203 F 
ATOM     71  F   UNL A   1      36.649  30.034  27.940  1.00  0.00    -0.200 F 
ATOM     72  C   UNL A   1      37.110  29.363  30.155  1.00  0.00     0.200 A 
ATOM     73  F   UNL A   1      37.620  28.683  32.358  1.00  0.00    -0.200 F 
ATOM     74  F   UNL A   1      35.819  29.508  30.483  1.00  0.00    -0.200 F 
ENDBRANCH  50  64
BRANCH  51  75
ATOM     75  C   UNL A   1      49.066  26.842  26.449  1.00  0.00     0.064 A 
ATOM     76  C   UNL A   1      49.334  26.976  25.080  1.00  0.00     0.173 A 
ATOM     77  C   UNL A   1      50.103  26.374  27.271  1.00  0.00     0.173 A 
ATOM     78  F   UNL A   1      48.371  27.397  24.247  1.00  0.00    -0.203 F 
ATOM     79  C   UNL A   1      50.574  26.621  24.549  1.00  0.00     0.198 A 
ATOM     80  C   UNL A   1      51.354  26.056  26.746  1.00  0.00     0.198 A 
ATOM     81  F   UNL A   1      49.904  26.228  28.589  1.00  0.00    -0.203 F 
ATOM     82  F   UNL A   1      50.780  26.695  23.228  1.00  0.00    -0.200 F 
ATOM     83  C   UNL A   1      51.583  26.165  25.383  1.00  0.00     0.200 A 
ATOM     84  F   UNL A   1      52.332  25.638  27.560  1.00  0.00    -0.200 F 
ATOM     85  F   UNL A   1      52.774  25.823  24.873  1.00  0.00    -0.200 F 
ENDBRANCH  51  75
BRANCH  63  86
ATOM     86  C   UNL A   1      45.903  32.715  28.476  1.00  0.00     0.064 A 
ATOM     87  C   UNL A   1      45.731  33.614  27.412  1.00  0.00     0.173 A 
ATOM     88  C   UNL A   1      46.475  33.204  29.661  1.00  0.00     0.173 A 
ATOM     89  F   UNL A   1      45.206  33.193  26.251  1.00  0.00    -0.203 F 
ATOM     90  C   UNL A   1      46.133  34.942  27.525  1.00  0.00     0.198 A 
ATOM     91  C   UNL A   1      46.843  34.541  29.782  1.00  0.00     0.198 A 
ATOM     92  F   UNL A   1      46.656  32.389  30.711  1.00  0.00    -0.203 F 
ATOM     93  F   UNL A   1      46.001  35.771  26.480  1.00  0.00    -0.200 F 
ATOM     94  C   UNL A   1      46.679  35.407  28.713  1.00  0.00     0.200 A 
ATOM     95  F   UNL A   1      47.355  34.992  30.936  1.00  0.00    -0.200 F 
ATOM     96  F   UNL A   1      47.051  36.691  28.823  1.00  0.00    -0.200 F 
ENDBRANCH  63  86
ENDBRANCH  37  38
ENDBRANCH  30  32
ENDBRANCH  29  30
ENDBRANCH  28  29
ENDBRANCH  27  28
ENDBRANCH  26  27
ENDBRANCH   1  26
TORSDOF 19
ENDMDL
MODEL 3
REMARK VINA RESULT:     -10.5      2.268      7.929
REMARK SMILES CC[C@@](C)([NH2+]CC(=O)N[C@]1(C)CCS(=O)(=O)C1)C(=O)OCCOCCOC(=O)c1ccc(-c2c3nc(c(-c4c(F)c(F)c(F)c(F)c4F)c4ccc([nH]4)c(-c4c(F)c(F)c(F)c(F)c4F)c4nc(c(-c5c(F)c(F)c(F)c(F)c5F)c5ccc2[nH]5)C=C4)C=C3)cc1
REMARK SMILES IDX 22 1 21 2 20 3 18 4 19 5 3 6 4 7 2 8 1 9 5 10 6 13 7 14 8 15
REMARK SMILES IDX 9 16 10 18 12 19 17 20 11 21 13 22 14 23 15 24 16 25 23 26
REMARK SMILES IDX 24 27 25 28 26 29 27 30 28 31 29 32 30 33 91 34 31 35 90 36
REMARK SMILES IDX 32 37 33 38 34 39 84 40 35 41 89 42 83 43 85 44 36 45 88 46
REMARK SMILES IDX 82 47 81 48 37 50 69 51 49 52 68 53 50 54 53 55 67 56 86 57
REMARK SMILES IDX 51 58 52 59 66 61 87 62 54 63 38 64 39 65 47 66 40 67 41 68
REMARK SMILES IDX 45 69 48 70 42 71 43 72 46 73 44 74 70 75 71 76 79 77 72 78
REMARK SMILES IDX 73 79 77 80 80 81 74 82 75 83 78 84 76 85 55 86 56 87 64 88
REMARK SMILES IDX 57 89 58 90 62 91 65 92 59 93 60 94 63 95 61 96
REMARK H PARENT 5 11 5 12 9 17 85 49 53 60
REMARK Flexibility Score: inf
ROOT
ATOM      1  C   UNL A   1      32.511  30.494  26.539  1.00  0.00     0.202 C 
ENDROOT
BRANCH   1   2
ATOM      2  C   UNL A   1      32.312  28.992  26.788  1.00  0.00     0.261 C 
BRANCH   2   3
ATOM      3  O   UNL A   1      31.438  28.290  25.869  1.00  0.00    -0.459 OA
BRANCH   3   4
ATOM      4  C   UNL A   1      31.173  26.966  26.131  1.00  0.00     0.367 C 
ATOM      5  O   UNL A   1      31.340  26.492  27.251  1.00  0.00    -0.245 OA
BRANCH   4   6
ATOM      6  C   UNL A   1      30.571  26.140  24.896  1.00  0.00     0.191 C 
ATOM      7  C   UNL A   1      29.442  26.653  23.945  1.00  0.00     0.092 C 
BRANCH   6   8
ATOM      8  C   UNL A   1      31.816  26.029  23.948  1.00  0.00     0.077 C 
ATOM      9  C   UNL A   1      31.457  26.242  22.452  1.00  0.00     0.011 C 
ENDBRANCH   6   8
BRANCH   6  10
ATOM     10  N   UNL A   1      30.057  24.827  25.384  1.00  0.00    -0.325 N 
ATOM     11  H   UNL A   1      29.113  24.712  25.016  1.00  0.00     0.347 HD
ATOM     12  H   UNL A   1      30.122  24.881  26.401  1.00  0.00     0.347 HD
BRANCH  10  13
ATOM     13  C   UNL A   1      30.840  23.599  25.013  1.00  0.00     0.362 C 
BRANCH  13  14
ATOM     14  C   UNL A   1      31.834  22.976  26.036  1.00  0.00     0.275 C 
ATOM     15  O   UNL A   1      31.716  23.293  27.230  1.00  0.00    -0.268 OA
ATOM     16  N   UNL A   1      32.838  22.067  25.783  1.00  0.00    -0.345 N 
ATOM     17  H   UNL A   1      33.254  21.753  26.618  1.00  0.00     0.164 HD
BRANCH  16  18
ATOM     18  C   UNL A   1      33.471  21.428  24.590  1.00  0.00     0.052 C 
ATOM     19  C   UNL A   1      34.791  20.665  24.917  1.00  0.00     0.045 C 
ATOM     20  C   UNL A   1      33.949  22.430  23.532  1.00  0.00     0.165 C 
ATOM     21  C   UNL A   1      32.542  20.338  24.057  1.00  0.00     0.036 C 
ATOM     22  C   UNL A   1      35.996  21.595  24.940  1.00  0.00     0.139 C 
ATOM     23  S   UNL A   1      35.564  23.002  23.970  1.00  0.00     0.152 S 
ATOM     24  O   UNL A   1      36.384  23.036  22.773  1.00  0.00    -0.229 OA
ATOM     25  O   UNL A   1      35.441  24.136  24.855  1.00  0.00    -0.229 OA
ENDBRANCH  16  18
ENDBRANCH  13  14
ENDBRANCH  10  13
ENDBRANCH   6  10
ENDBRANCH   4   6
ENDBRANCH   3   4
ENDBRANCH   2   3
ENDBRANCH   1   2
BRANCH   1  26
ATOM     26  O   UNL A   1      31.409  31.276  26.122  1.00  0.00    -0.374 OA
BRANCH  26  27
ATOM     27  C   UNL A   1      31.408  32.648  26.489  1.00  0.00     0.202 C 
BRANCH  27  28
ATOM     28  C   UNL A   1      32.562  33.205  27.344  1.00  0.00     0.261 C 
BRANCH  28  29
ATOM     29  O   UNL A   1      32.199  33.836  28.589  1.00  0.00    -0.460 OA
BRANCH  29  30
ATOM     30  C   UNL A   1      32.905  34.955  28.887  1.00  0.00     0.338 C 
ATOM     31  O   UNL A   1      32.589  36.113  28.669  1.00  0.00    -0.246 OA
BRANCH  30  32
ATOM     32  C   UNL A   1      34.154  34.619  29.594  1.00  0.00     0.060 A 
ATOM     33  C   UNL A   1      35.372  34.675  28.906  1.00  0.00     0.016 A 
ATOM     34  C   UNL A   1      34.092  34.060  30.872  1.00  0.00     0.016 A 
ATOM     35  C   UNL A   1      36.531  34.151  29.489  1.00  0.00     0.010 A 
ATOM     36  C   UNL A   1      35.253  33.537  31.453  1.00  0.00     0.010 A 
ATOM     37  C   UNL A   1      36.475  33.556  30.758  1.00  0.00    -0.014 A 
BRANCH  37  38
ATOM     38  C   UNL A   1      37.672  32.902  31.354  1.00  0.00     0.031 A 
ATOM     39  C   UNL A   1      38.310  31.725  30.664  1.00  0.00     0.074 A 
ATOM     40  C   UNL A   1      38.154  33.326  32.537  1.00  0.00     0.049 A 
ATOM     41  N   UNL A   1      39.253  30.923  31.091  1.00  0.00    -0.248 NA
ATOM     42  C   UNL A   1      37.819  31.406  29.314  1.00  0.00     0.031 C 
ATOM     43  C   UNL A   1      37.646  34.471  33.289  1.00  0.00     0.029 A 
ATOM     44  N   UNL A   1      39.156  32.821  33.330  1.00  0.00    -0.354 N 
ATOM     45  C   UNL A   1      39.451  29.992  30.079  1.00  0.00     0.074 A 
ATOM     46  C   UNL A   1      38.526  30.324  29.016  1.00  0.00     0.031 C 
ATOM     47  C   UNL A   1      38.315  34.562  34.451  1.00  0.00     0.029 A 
ATOM     48  C   UNL A   1      39.261  33.452  34.547  1.00  0.00     0.049 A 
ATOM     49  H   UNL A   1      39.743  32.080  33.053  1.00  0.00     0.167 HD
ATOM     50  C   UNL A   1      40.321  28.953  30.047  1.00  0.00     0.037 A 
ATOM     51  C   UNL A   1      39.995  33.139  35.634  1.00  0.00     0.037 A 
ATOM     52  C   UNL A   1      41.252  28.639  31.101  1.00  0.00     0.049 A 
ATOM     53  C   UNL A   1      40.901  31.934  35.595  1.00  0.00     0.074 A 
ATOM     54  C   UNL A   1      42.221  27.650  31.127  1.00  0.00     0.029 A 
ATOM     55  N   UNL A   1      41.321  29.296  32.320  1.00  0.00    -0.354 N 
ATOM     56  N   UNL A   1      41.124  31.096  34.611  1.00  0.00    -0.248 NA
ATOM     57  C   UNL A   1      41.656  31.629  36.820  1.00  0.00     0.031 C 
ATOM     58  C   UNL A   1      42.822  27.658  32.389  1.00  0.00     0.029 A 
ATOM     59  C   UNL A   1      42.278  28.697  33.125  1.00  0.00     0.049 A 
ATOM     60  H   UNL A   1      40.771  30.071  32.577  1.00  0.00     0.167 HD
ATOM     61  C   UNL A   1      42.057  30.185  35.091  1.00  0.00     0.074 A 
ATOM     62  C   UNL A   1      42.378  30.584  36.442  1.00  0.00     0.031 C 
ATOM     63  C   UNL A   1      42.594  29.108  34.467  1.00  0.00     0.037 A 
BRANCH  50  64
ATOM     64  C   UNL A   1      40.304  28.042  28.854  1.00  0.00     0.064 A 
ATOM     65  C   UNL A   1      41.046  28.318  27.697  1.00  0.00     0.173 A 
ATOM     66  C   UNL A   1      39.620  26.816  28.918  1.00  0.00     0.173 A 
ATOM     67  F   UNL A   1      41.714  29.475  27.584  1.00  0.00    -0.203 F 
ATOM     68  C   UNL A   1      41.097  27.405  26.646  1.00  0.00     0.198 A 
ATOM     69  C   UNL A   1      39.696  25.895  27.878  1.00  0.00     0.198 A 
ATOM     70  F   UNL A   1      38.904  26.499  30.008  1.00  0.00    -0.203 F 
ATOM     71  F   UNL A   1      41.797  27.697  25.541  1.00  0.00    -0.200 F 
ATOM     72  C   UNL A   1      40.434  26.190  26.742  1.00  0.00     0.200 A 
ATOM     73  F   UNL A   1      39.070  24.715  27.982  1.00  0.00    -0.200 F 
ATOM     74  F   UNL A   1      40.507  25.303  25.740  1.00  0.00    -0.200 F 
ENDBRANCH  50  64
BRANCH  51  75
ATOM     75  C   UNL A   1      39.862  33.939  36.883  1.00  0.00     0.064 A 
ATOM     76  C   UNL A   1      40.679  35.052  37.124  1.00  0.00     0.173 A 
ATOM     77  C   UNL A   1      38.953  33.571  37.887  1.00  0.00     0.173 A 
ATOM     78  F   UNL A   1      41.580  35.431  36.207  1.00  0.00    -0.203 F 
ATOM     79  C   UNL A   1      40.617  35.744  38.333  1.00  0.00     0.198 A 
ATOM     80  C   UNL A   1      38.864  34.287  39.079  1.00  0.00     0.198 A 
ATOM     81  F   UNL A   1      38.144  32.516  37.710  1.00  0.00    -0.203 F 
ATOM     82  F   UNL A   1      41.457  36.762  38.563  1.00  0.00    -0.200 F 
ATOM     83  C   UNL A   1      39.707  35.364  39.308  1.00  0.00     0.200 A 
ATOM     84  F   UNL A   1      37.967  33.929  40.008  1.00  0.00    -0.200 F 
ATOM     85  F   UNL A   1      39.648  36.028  40.469  1.00  0.00    -0.200 F 
ENDBRANCH  51  75
BRANCH  63  86
ATOM     86  C   UNL A   1      43.606  28.296  35.226  1.00  0.00     0.064 A 
ATOM     87  C   UNL A   1      44.975  28.605  35.188  1.00  0.00     0.173 A 
ATOM     88  C   UNL A   1      43.198  27.231  36.043  1.00  0.00     0.173 A 
ATOM     89  F   UNL A   1      45.421  29.603  34.409  1.00  0.00    -0.203 F 
ATOM     90  C   UNL A   1      45.897  27.865  35.924  1.00  0.00     0.198 A 
ATOM     91  C   UNL A   1      44.118  26.516  36.804  1.00  0.00     0.198 A 
ATOM     92  F   UNL A   1      41.901  26.897  36.121  1.00  0.00    -0.203 F 
ATOM     93  F   UNL A   1      47.203  28.150  35.836  1.00  0.00    -0.200 F 
ATOM     94  C   UNL A   1      45.467  26.828  36.739  1.00  0.00     0.200 A 
ATOM     95  F   UNL A   1      43.699  25.525  37.604  1.00  0.00    -0.200 F 
ATOM     96  F   UNL A   1      46.355  26.127  37.458  1.00  0.00    -0.200 F 
ENDBRANCH  63  86
ENDBRANCH  37  38
ENDBRANCH  30  32
ENDBRANCH  29  30
ENDBRANCH  28  29
ENDBRANCH  27  28
ENDBRANCH  26  27
ENDBRANCH   1  26
TORSDOF 19
ENDMDL
