MODEL 1
REMARK VINA RESULT:     -12.4      0.000      0.000
REMARK SMILES CCOc1cc2c(cc1OCC)[C@@H](C(=O)OCCOCCOC(=O)c1ccc(-c3c4nc(c(-c5c(F)c(F)c(F)c(F)c5F)c5ccc([nH]5)c(-c5c(F)c(F)c(F)c(F)c5F)c5nc(c(-c6c(F)c(F)c(F)c(F)c6F)c6ccc3[nH]6)C=C5)C=C4)cc1)[C@H](c1ccc(F)cc1Cl)N(C)C2=O
REMARK SMILES IDX 19 1 18 2 17 3 16 4 14 5 15 6 13 7 4 8 5 9 9 10 6 11 8 12
REMARK SMILES IDX 7 13 99 14 97 15 100 16 88 17 98 18 3 19 2 20 1 21 10 22
REMARK SMILES IDX 11 23 12 24 89 25 90 26 95 27 91 28 94 29 96 30 92 31 93 32
REMARK SMILES IDX 20 33 21 34 22 35 23 36 24 37 25 38 26 39 87 40 27 41 86 42
REMARK SMILES IDX 28 43 29 44 30 45 80 46 31 47 85 48 79 49 81 50 32 51 84 52
REMARK SMILES IDX 78 53 77 54 33 56 65 57 45 58 64 59 46 60 49 61 63 62 82 63
REMARK SMILES IDX 47 64 48 65 62 67 83 68 50 69 34 70 35 71 43 72 36 73 37 74
REMARK SMILES IDX 41 75 44 76 38 77 39 78 42 79 40 80 66 81 67 82 75 83 68 84
REMARK SMILES IDX 69 85 73 86 76 87 70 88 71 89 74 90 72 91 51 92 52 93 60 94
REMARK SMILES IDX 53 95 54 96 58 97 61 98 55 99 56 100 59 101 57 102
REMARK H PARENT 81 55 49 66
REMARK Flexibility Score: inf
ROOT
ATOM      1  O   UNL A   1      30.904  27.342  27.272  1.00  0.00    -0.374 OA
ENDROOT
BRANCH   1   2
ATOM      2  C   UNL A   1      31.013  26.523  26.112  1.00  0.00     0.202 C 
BRANCH   2   3
ATOM      3  C   UNL A   1      30.224  25.214  26.120  1.00  0.00     0.261 C 
BRANCH   3   4
ATOM      4  O   UNL A   1      30.950  24.141  25.496  1.00  0.00    -0.463 OA
BRANCH   4   5
ATOM      5  C   UNL A   1      31.809  23.463  26.298  1.00  0.00     0.316 C 
ATOM      6  O   UNL A   1      31.560  23.107  27.445  1.00  0.00    -0.251 OA
BRANCH   5   7
ATOM      7  C   UNL A   1      33.170  23.236  25.665  1.00  0.00     0.157 C 
ATOM      8  C   UNL A   1      33.152  24.495  21.566  1.00  0.00     0.161 A 
ATOM      9  C   UNL A   1      32.940  23.150  21.904  1.00  0.00     0.064 A 
ATOM     10  C   UNL A   1      33.349  25.449  22.577  1.00  0.00     0.161 A 
ATOM     11  C   UNL A   1      32.892  22.753  23.232  1.00  0.00     0.048 A 
ATOM     12  C   UNL A   1      33.340  25.028  23.908  1.00  0.00     0.056 A 
ATOM     13  C   UNL A   1      33.137  23.687  24.235  1.00  0.00    -0.015 A 
ATOM     14  C   UNL A   1      32.591  21.336  23.579  1.00  0.00     0.254 C 
ATOM     15  N   UNL A   1      33.015  20.906  24.836  1.00  0.00    -0.333 N 
ATOM     16  O   UNL A   1      31.994  20.624  22.778  1.00  0.00    -0.269 OA
ATOM     17  C   UNL A   1      33.759  21.792  25.732  1.00  0.00     0.135 C 
ATOM     18  C   UNL A   1      32.755  19.531  25.222  1.00  0.00     0.147 C 
BRANCH   8  19
ATOM     19  O   UNL A   1      33.275  24.823  20.243  1.00  0.00    -0.490 OA
BRANCH  19  20
ATOM     20  C   UNL A   1      32.206  25.634  19.737  1.00  0.00     0.226 C 
ATOM     21  C   UNL A   1      31.842  25.271  18.305  1.00  0.00     0.049 C 
ENDBRANCH  19  20
ENDBRANCH   8  19
BRANCH  10  22
ATOM     22  O   UNL A   1      33.562  26.793  22.495  1.00  0.00    -0.490 OA
BRANCH  22  23
ATOM     23  C   UNL A   1      33.385  27.631  23.627  1.00  0.00     0.226 C 
ATOM     24  C   UNL A   1      33.272  29.081  23.197  1.00  0.00     0.049 C 
ENDBRANCH  22  23
ENDBRANCH  10  22
BRANCH  17  25
ATOM     25  C   UNL A   1      35.299  21.828  25.516  1.00  0.00    -0.005 A 
ATOM     26  C   UNL A   1      35.871  20.621  25.029  1.00  0.00     0.010 A 
ATOM     27  C   UNL A   1      36.205  22.875  25.809  1.00  0.00     0.049 A 
ATOM     28  C   UNL A   1      37.253  20.432  24.945  1.00  0.00     0.040 A 
ATOM     29  C   UNL A   1      37.592  22.679  25.711  1.00  0.00     0.060 A 
ATOM     30  Cl  UNL A   1      35.786  24.479  26.287  1.00  0.00    -0.084 Cl
ATOM     31  C   UNL A   1      38.101  21.460  25.304  1.00  0.00     0.124 A 
ATOM     32  F   UNL A   1      39.427  21.282  25.248  1.00  0.00    -0.207 F 
ENDBRANCH  17  25
ENDBRANCH   5   7
ENDBRANCH   4   5
ENDBRANCH   3   4
ENDBRANCH   2   3
ENDBRANCH   1   2
BRANCH   1  33
ATOM     33  C   UNL A   1      31.940  28.292  27.515  1.00  0.00     0.202 C 
BRANCH  33  34
ATOM     34  C   UNL A   1      31.762  29.680  26.893  1.00  0.00     0.261 C 
BRANCH  34  35
ATOM     35  O   UNL A   1      33.014  30.230  26.443  1.00  0.00    -0.460 OA
BRANCH  35  36
ATOM     36  C   UNL A   1      33.465  31.285  27.160  1.00  0.00     0.338 C 
ATOM     37  O   UNL A   1      32.827  32.269  27.514  1.00  0.00    -0.246 OA
BRANCH  36  38
ATOM     38  C   UNL A   1      34.834  31.020  27.635  1.00  0.00     0.060 A 
ATOM     39  C   UNL A   1      35.224  29.685  27.804  1.00  0.00     0.016 A 
ATOM     40  C   UNL A   1      35.701  32.060  27.975  1.00  0.00     0.016 A 
ATOM     41  C   UNL A   1      36.465  29.382  28.363  1.00  0.00     0.010 A 
ATOM     42  C   UNL A   1      36.947  31.756  28.529  1.00  0.00     0.010 A 
ATOM     43  C   UNL A   1      37.316  30.418  28.765  1.00  0.00    -0.014 A 
BRANCH  43  44
ATOM     44  C   UNL A   1      38.503  30.129  29.608  1.00  0.00     0.031 A 
ATOM     45  C   UNL A   1      39.533  29.168  29.083  1.00  0.00     0.074 A 
ATOM     46  C   UNL A   1      38.661  30.698  30.815  1.00  0.00     0.049 A 
ATOM     47  N   UNL A   1      40.567  28.641  29.686  1.00  0.00    -0.248 NA
ATOM     48  C   UNL A   1      39.363  28.730  27.688  1.00  0.00     0.031 C 
ATOM     49  C   UNL A   1      37.764  31.684  31.410  1.00  0.00     0.029 A 
ATOM     50  N   UNL A   1      39.632  30.504  31.768  1.00  0.00    -0.354 N 
ATOM     51  C   UNL A   1      41.153  27.794  28.756  1.00  0.00     0.074 A 
ATOM     52  C   UNL A   1      40.349  27.856  27.555  1.00  0.00     0.031 C 
ATOM     53  C   UNL A   1      38.214  31.996  32.638  1.00  0.00     0.029 A 
ATOM     54  C   UNL A   1      39.400  31.193  32.933  1.00  0.00     0.049 A 
ATOM     55  H   UNL A   1      40.417  29.926  31.629  1.00  0.00     0.167 HD
ATOM     56  C   UNL A   1      42.264  27.032  28.892  1.00  0.00     0.037 A 
ATOM     57  C   UNL A   1      40.049  31.144  34.113  1.00  0.00     0.037 A 
ATOM     58  C   UNL A   1      43.068  26.984  30.083  1.00  0.00     0.049 A 
ATOM     59  C   UNL A   1      41.238  30.229  34.268  1.00  0.00     0.074 A 
ATOM     60  C   UNL A   1      44.224  26.262  30.315  1.00  0.00     0.029 A 
ATOM     61  N   UNL A   1      42.791  27.686  31.248  1.00  0.00    -0.354 N 
ATOM     62  N   UNL A   1      41.795  29.436  33.384  1.00  0.00    -0.248 NA
ATOM     63  C   UNL A   1      41.887  30.197  35.588  1.00  0.00     0.031 C 
ATOM     64  C   UNL A   1      44.618  26.483  31.638  1.00  0.00     0.029 A 
ATOM     65  C   UNL A   1      43.742  27.393  32.211  1.00  0.00     0.049 A 
ATOM     66  H   UNL A   1      42.032  28.301  31.372  1.00  0.00     0.167 HD
ATOM     67  C   UNL A   1      42.874  28.842  34.026  1.00  0.00     0.074 A 
ATOM     68  C   UNL A   1      42.899  29.368  35.375  1.00  0.00     0.031 C 
ATOM     69  C   UNL A   1      43.767  27.946  33.541  1.00  0.00     0.037 A 
BRANCH  56  70
ATOM     70  C   UNL A   1      42.660  26.163  27.733  1.00  0.00     0.064 A 
ATOM     71  C   UNL A   1      42.055  24.919  27.498  1.00  0.00     0.173 A 
ATOM     72  C   UNL A   1      43.636  26.600  26.824  1.00  0.00     0.173 A 
ATOM     73  F   UNL A   1      41.126  24.449  28.345  1.00  0.00    -0.203 F 
ATOM     74  C   UNL A   1      42.431  24.134  26.412  1.00  0.00     0.198 A 
ATOM     75  C   UNL A   1      43.987  25.827  25.722  1.00  0.00     0.198 A 
ATOM     76  F   UNL A   1      44.242  27.784  26.999  1.00  0.00    -0.203 F 
ATOM     77  F   UNL A   1      41.876  22.928  26.235  1.00  0.00    -0.200 F 
ATOM     78  C   UNL A   1      43.390  24.591  25.521  1.00  0.00     0.200 A 
ATOM     79  F   UNL A   1      44.903  26.277  24.854  1.00  0.00    -0.200 F 
ATOM     80  F   UNL A   1      43.745  23.838  24.470  1.00  0.00    -0.200 F 
ENDBRANCH  56  70
BRANCH  57  81
ATOM     81  C   UNL A   1      39.574  31.968  35.257  1.00  0.00     0.064 A 
ATOM     82  C   UNL A   1      38.663  31.453  36.189  1.00  0.00     0.173 A 
ATOM     83  C   UNL A   1      40.003  33.292  35.430  1.00  0.00     0.173 A 
ATOM     84  F   UNL A   1      38.200  30.202  36.051  1.00  0.00    -0.203 F 
ATOM     85  C   UNL A   1      38.187  32.235  37.240  1.00  0.00     0.198 A 
ATOM     86  C   UNL A   1      39.551  34.063  36.499  1.00  0.00     0.198 A 
ATOM     87  F   UNL A   1      40.868  33.838  34.563  1.00  0.00    -0.203 F 
ATOM     88  F   UNL A   1      37.278  31.733  38.088  1.00  0.00    -0.200 F 
ATOM     89  C   UNL A   1      38.637  33.537  37.398  1.00  0.00     0.200 A 
ATOM     90  F   UNL A   1      39.998  35.317  36.656  1.00  0.00    -0.200 F 
ATOM     91  F   UNL A   1      38.182  34.288  38.411  1.00  0.00    -0.200 F 
ENDBRANCH  57  81
BRANCH  69  92
ATOM     92  C   UNL A   1      44.889  27.514  34.442  1.00  0.00     0.064 A 
ATOM     93  C   UNL A   1      44.805  26.354  35.224  1.00  0.00     0.173 A 
ATOM     94  C   UNL A   1      46.098  28.228  34.451  1.00  0.00     0.173 A 
ATOM     95  F   UNL A   1      43.668  25.644  35.259  1.00  0.00    -0.203 F 
ATOM     96  C   UNL A   1      45.887  25.931  35.993  1.00  0.00     0.198 A 
ATOM     97  C   UNL A   1      47.186  27.786  35.197  1.00  0.00     0.198 A 
ATOM     98  F   UNL A   1      46.232  29.340  33.712  1.00  0.00    -0.203 F 
ATOM     99  F   UNL A   1      45.774  24.837  36.758  1.00  0.00    -0.200 F 
ATOM    100  C   UNL A   1      47.079  26.639  35.969  1.00  0.00     0.200 A 
ATOM    101  F   UNL A   1      48.343  28.462  35.159  1.00  0.00    -0.200 F 
ATOM    102  F   UNL A   1      48.125  26.219  36.694  1.00  0.00    -0.200 F 
ENDBRANCH  69  92
ENDBRANCH  43  44
ENDBRANCH  36  38
ENDBRANCH  35  36
ENDBRANCH  34  35
ENDBRANCH  33  34
ENDBRANCH   1  33
TORSDOF 19
ENDMDL
MODEL 2
REMARK VINA RESULT:     -12.0      0.650      2.010
REMARK SMILES CCOc1cc2c(cc1OCC)[C@@H](C(=O)OCCOCCOC(=O)c1ccc(-c3c4nc(c(-c5c(F)c(F)c(F)c(F)c5F)c5ccc([nH]5)c(-c5c(F)c(F)c(F)c(F)c5F)c5nc(c(-c6c(F)c(F)c(F)c(F)c6F)c6ccc3[nH]6)C=C5)C=C4)cc1)[C@H](c1ccc(F)cc1Cl)N(C)C2=O
REMARK SMILES IDX 19 1 18 2 17 3 16 4 14 5 15 6 13 7 4 8 5 9 9 10 6 11 8 12
REMARK SMILES IDX 7 13 99 14 97 15 100 16 88 17 98 18 3 19 2 20 1 21 10 22
REMARK SMILES IDX 11 23 12 24 89 25 90 26 95 27 91 28 94 29 96 30 92 31 93 32
REMARK SMILES IDX 20 33 21 34 22 35 23 36 24 37 25 38 26 39 87 40 27 41 86 42
REMARK SMILES IDX 28 43 29 44 30 45 80 46 31 47 85 48 79 49 81 50 32 51 84 52
REMARK SMILES IDX 78 53 77 54 33 56 65 57 45 58 64 59 46 60 49 61 63 62 82 63
REMARK SMILES IDX 47 64 48 65 62 67 83 68 50 69 34 70 35 71 43 72 36 73 37 74
REMARK SMILES IDX 41 75 44 76 38 77 39 78 42 79 40 80 66 81 67 82 75 83 68 84
REMARK SMILES IDX 69 85 73 86 76 87 70 88 71 89 74 90 72 91 51 92 52 93 60 94
REMARK SMILES IDX 53 95 54 96 58 97 61 98 55 99 56 100 59 101 57 102
REMARK H PARENT 81 55 49 66
REMARK Flexibility Score: inf
ROOT
ATOM      1  O   UNL A   1      31.115  27.576  27.145  1.00  0.00    -0.374 OA
ENDROOT
BRANCH   1   2
ATOM      2  C   UNL A   1      31.395  26.238  26.743  1.00  0.00     0.202 C 
BRANCH   2   3
ATOM      3  C   UNL A   1      30.229  25.441  26.157  1.00  0.00     0.261 C 
BRANCH   3   4
ATOM      4  O   UNL A   1      30.670  24.231  25.516  1.00  0.00    -0.463 OA
BRANCH   4   5
ATOM      5  C   UNL A   1      31.419  23.397  26.280  1.00  0.00     0.316 C 
ATOM      6  O   UNL A   1      31.042  22.881  27.328  1.00  0.00    -0.251 OA
BRANCH   5   7
ATOM      7  C   UNL A   1      32.830  23.203  25.752  1.00  0.00     0.157 C 
ATOM      8  C   UNL A   1      33.091  24.456  21.660  1.00  0.00     0.161 A 
ATOM      9  C   UNL A   1      32.887  23.106  21.985  1.00  0.00     0.064 A 
ATOM     10  C   UNL A   1      33.187  25.416  22.680  1.00  0.00     0.161 A 
ATOM     11  C   UNL A   1      32.748  22.710  23.307  1.00  0.00     0.048 A 
ATOM     12  C   UNL A   1      33.088  24.996  24.008  1.00  0.00     0.056 A 
ATOM     13  C   UNL A   1      32.894  23.651  24.323  1.00  0.00    -0.015 A 
ATOM     14  C   UNL A   1      32.456  21.287  23.634  1.00  0.00     0.254 C 
ATOM     15  N   UNL A   1      32.795  20.869  24.922  1.00  0.00    -0.333 N 
ATOM     16  O   UNL A   1      31.940  20.559  22.793  1.00  0.00    -0.269 OA
ATOM     17  C   UNL A   1      33.447  21.774  25.868  1.00  0.00     0.135 C 
ATOM     18  C   UNL A   1      32.541  19.488  25.291  1.00  0.00     0.147 C 
BRANCH   8  19
ATOM     19  O   UNL A   1      33.305  24.785  20.350  1.00  0.00    -0.490 OA
BRANCH  19  20
ATOM     20  C   UNL A   1      32.291  25.624  19.781  1.00  0.00     0.226 C 
ATOM     21  C   UNL A   1      32.021  25.288  18.321  1.00  0.00     0.049 C 
ENDBRANCH  19  20
ENDBRANCH   8  19
BRANCH  10  22
ATOM     22  O   UNL A   1      33.372  26.765  22.611  1.00  0.00    -0.490 OA
BRANCH  22  23
ATOM     23  C   UNL A   1      33.747  27.511  23.758  1.00  0.00     0.226 C 
ATOM     24  C   UNL A   1      34.067  28.943  23.374  1.00  0.00     0.049 C 
ENDBRANCH  22  23
ENDBRANCH  10  22
BRANCH  17  25
ATOM     25  C   UNL A   1      34.998  21.848  25.770  1.00  0.00    -0.005 A 
ATOM     26  C   UNL A   1      35.575  23.075  26.197  1.00  0.00     0.010 A 
ATOM     27  C   UNL A   1      35.892  20.885  25.246  1.00  0.00     0.049 A 
ATOM     28  C   UNL A   1      36.929  23.365  26.013  1.00  0.00     0.040 A 
ATOM     29  C   UNL A   1      37.254  21.182  25.075  1.00  0.00     0.060 A 
ATOM     30  Cl  UNL A   1      35.494  19.274  24.776  1.00  0.00    -0.084 Cl
ATOM     31  C   UNL A   1      37.754  22.419  25.437  1.00  0.00     0.124 A 
ATOM     32  F   UNL A   1      39.048  22.696  25.237  1.00  0.00    -0.207 F 
ENDBRANCH  17  25
ENDBRANCH   5   7
ENDBRANCH   4   5
ENDBRANCH   3   4
ENDBRANCH   2   3
ENDBRANCH   1   2
BRANCH   1  33
ATOM     33  C   UNL A   1      31.517  28.630  26.272  1.00  0.00     0.202 C 
BRANCH  33  34
ATOM     34  C   UNL A   1      31.776  29.996  26.914  1.00  0.00     0.261 C 
BRANCH  34  35
ATOM     35  O   UNL A   1      33.013  30.576  26.459  1.00  0.00    -0.460 OA
BRANCH  35  36
ATOM     36  C   UNL A   1      33.489  31.583  27.227  1.00  0.00     0.338 C 
ATOM     37  O   UNL A   1      32.878  32.569  27.619  1.00  0.00    -0.246 OA
BRANCH  36  38
ATOM     38  C   UNL A   1      34.844  31.253  27.703  1.00  0.00     0.060 A 
ATOM     39  C   UNL A   1      35.138  29.908  27.966  1.00  0.00     0.016 A 
ATOM     40  C   UNL A   1      35.789  32.248  27.954  1.00  0.00     0.016 A 
ATOM     41  C   UNL A   1      36.364  29.556  28.530  1.00  0.00     0.010 A 
ATOM     42  C   UNL A   1      37.020  31.894  28.513  1.00  0.00     0.010 A 
ATOM     43  C   UNL A   1      37.295  30.553  28.844  1.00  0.00    -0.014 A 
BRANCH  43  44
ATOM     44  C   UNL A   1      38.473  30.240  29.690  1.00  0.00     0.031 A 
ATOM     45  C   UNL A   1      39.501  29.282  29.155  1.00  0.00     0.074 A 
ATOM     46  C   UNL A   1      38.625  30.784  30.910  1.00  0.00     0.049 A 
ATOM     47  N   UNL A   1      40.527  28.737  29.756  1.00  0.00    -0.248 NA
ATOM     48  C   UNL A   1      39.340  28.873  27.750  1.00  0.00     0.031 C 
ATOM     49  C   UNL A   1      37.728  31.764  31.517  1.00  0.00     0.029 A 
ATOM     50  N   UNL A   1      39.586  30.564  31.866  1.00  0.00    -0.354 N 
ATOM     51  C   UNL A   1      41.115  27.905  28.814  1.00  0.00     0.074 A 
ATOM     52  C   UNL A   1      40.321  27.996  27.608  1.00  0.00     0.031 C 
ATOM     53  C   UNL A   1      38.171  32.048  32.754  1.00  0.00     0.029 A 
ATOM     54  C   UNL A   1      39.348  31.231  33.043  1.00  0.00     0.049 A 
ATOM     55  H   UNL A   1      40.369  29.985  31.722  1.00  0.00     0.167 HD
ATOM     56  C   UNL A   1      42.220  27.134  28.944  1.00  0.00     0.037 A 
ATOM     57  C   UNL A   1      39.987  31.156  34.228  1.00  0.00     0.037 A 
ATOM     58  C   UNL A   1      43.013  27.057  30.141  1.00  0.00     0.049 A 
ATOM     59  C   UNL A   1      41.169  30.229  34.374  1.00  0.00     0.074 A 
ATOM     60  C   UNL A   1      44.163  26.323  30.368  1.00  0.00     0.029 A 
ATOM     61  N   UNL A   1      42.732  27.737  31.317  1.00  0.00    -0.354 N 
ATOM     62  N   UNL A   1      41.729  29.451  33.479  1.00  0.00    -0.248 NA
ATOM     63  C   UNL A   1      41.806  30.168  35.698  1.00  0.00     0.031 C 
ATOM     64  C   UNL A   1      44.547  26.515  31.699  1.00  0.00     0.029 A 
ATOM     65  C   UNL A   1      43.672  27.418  32.282  1.00  0.00     0.049 A 
ATOM     66  H   UNL A   1      41.975  28.354  31.447  1.00  0.00     0.167 HD
ATOM     67  C   UNL A   1      42.799  28.837  34.119  1.00  0.00     0.074 A 
ATOM     68  C   UNL A   1      42.815  29.336  35.477  1.00  0.00     0.031 C 
ATOM     69  C   UNL A   1      43.690  27.944  33.623  1.00  0.00     0.037 A 
BRANCH  56  70
ATOM     70  C   UNL A   1      42.620  26.285  27.771  1.00  0.00     0.064 A 
ATOM     71  C   UNL A   1      43.584  26.709  26.844  1.00  0.00     0.173 A 
ATOM     72  C   UNL A   1      42.054  25.013  27.594  1.00  0.00     0.173 A 
ATOM     73  F   UNL A   1      44.145  27.923  26.960  1.00  0.00    -0.203 F 
ATOM     74  C   UNL A   1      43.947  25.902  25.769  1.00  0.00     0.198 A 
ATOM     75  C   UNL A   1      42.442  24.197  26.537  1.00  0.00     0.198 A 
ATOM     76  F   UNL A   1      41.131  24.558  28.454  1.00  0.00    -0.203 F 
ATOM     77  F   UNL A   1      44.832  26.348  24.868  1.00  0.00    -0.200 F 
ATOM     78  C   UNL A   1      43.382  24.644  25.620  1.00  0.00     0.200 A 
ATOM     79  F   UNL A   1      41.905  22.976  26.403  1.00  0.00    -0.200 F 
ATOM     80  F   UNL A   1      43.739  23.865  24.590  1.00  0.00    -0.200 F 
ENDBRANCH  56  70
BRANCH  57  81
ATOM     81  C   UNL A   1      39.508  31.960  35.383  1.00  0.00     0.064 A 
ATOM     82  C   UNL A   1      39.985  33.258  35.607  1.00  0.00     0.173 A 
ATOM     83  C   UNL A   1      38.579  31.441  36.298  1.00  0.00     0.173 A 
ATOM     84  F   UNL A   1      40.895  33.789  34.777  1.00  0.00    -0.203 F 
ATOM     85  C   UNL A   1      39.567  34.000  36.710  1.00  0.00     0.198 A 
ATOM     86  C   UNL A   1      38.137  32.195  37.383  1.00  0.00     0.198 A 
ATOM     87  F   UNL A   1      38.096  30.201  36.136  1.00  0.00    -0.203 F 
ATOM     88  F   UNL A   1      40.077  35.220  36.928  1.00  0.00    -0.200 F 
ATOM     89  C   UNL A   1      38.637  33.470  37.593  1.00  0.00     0.200 A 
ATOM     90  F   UNL A   1      37.230  31.685  38.228  1.00  0.00    -0.200 F 
ATOM     91  F   UNL A   1      38.233  34.186  38.652  1.00  0.00    -0.200 F 
ENDBRANCH  57  81
BRANCH  69  92
ATOM     92  C   UNL A   1      44.801  27.488  34.524  1.00  0.00     0.064 A 
ATOM     93  C   UNL A   1      45.999  28.206  34.643  1.00  0.00     0.173 A 
ATOM     94  C   UNL A   1      44.624  26.362  35.345  1.00  0.00     0.173 A 
ATOM     95  F   UNL A   1      46.222  29.281  33.873  1.00  0.00    -0.203 F 
ATOM     96  C   UNL A   1      46.985  27.806  35.543  1.00  0.00     0.198 A 
ATOM     97  C   UNL A   1      45.598  25.983  36.263  1.00  0.00     0.198 A 
ATOM     98  F   UNL A   1      43.491  25.647  35.274  1.00  0.00    -0.203 F 
ATOM     99  F   UNL A   1      48.136  28.488  35.619  1.00  0.00    -0.200 F 
ATOM    100  C   UNL A   1      46.779  26.704  36.360  1.00  0.00     0.200 A 
ATOM    101  F   UNL A   1      45.390  24.928  37.063  1.00  0.00    -0.200 F 
ATOM    102  F   UNL A   1      47.720  26.334  37.239  1.00  0.00    -0.200 F 
ENDBRANCH  69  92
ENDBRANCH  43  44
ENDBRANCH  36  38
ENDBRANCH  35  36
ENDBRANCH  34  35
ENDBRANCH  33  34
ENDBRANCH   1  33
TORSDOF 19
ENDMDL
MODEL 3
REMARK VINA RESULT:     -11.7      2.323      7.204
REMARK SMILES CCOc1cc2c(cc1OCC)[C@@H](C(=O)OCCOCCOC(=O)c1ccc(-c3c4nc(c(-c5c(F)c(F)c(F)c(F)c5F)c5ccc([nH]5)c(-c5c(F)c(F)c(F)c(F)c5F)c5nc(c(-c6c(F)c(F)c(F)c(F)c6F)c6ccc3[nH]6)C=C5)C=C4)cc1)[C@H](c1ccc(F)cc1Cl)N(C)C2=O
REMARK SMILES IDX 19 1 18 2 17 3 16 4 14 5 15 6 13 7 4 8 5 9 9 10 6 11 8 12
REMARK SMILES IDX 7 13 99 14 97 15 100 16 88 17 98 18 3 19 2 20 1 21 10 22
REMARK SMILES IDX 11 23 12 24 89 25 90 26 95 27 91 28 94 29 96 30 92 31 93 32
REMARK SMILES IDX 20 33 21 34 22 35 23 36 24 37 25 38 26 39 87 40 27 41 86 42
REMARK SMILES IDX 28 43 29 44 30 45 80 46 31 47 85 48 79 49 81 50 32 51 84 52
REMARK SMILES IDX 78 53 77 54 33 56 65 57 45 58 64 59 46 60 49 61 63 62 82 63
REMARK SMILES IDX 47 64 48 65 62 67 83 68 50 69 34 70 35 71 43 72 36 73 37 74
REMARK SMILES IDX 41 75 44 76 38 77 39 78 42 79 40 80 66 81 67 82 75 83 68 84
REMARK SMILES IDX 69 85 73 86 76 87 70 88 71 89 74 90 72 91 51 92 52 93 60 94
REMARK SMILES IDX 53 95 54 96 58 97 61 98 55 99 56 100 59 101 57 102
REMARK H PARENT 81 55 49 66
REMARK Flexibility Score: inf
ROOT
ATOM      1  O   UNL A   1      30.781  27.429  26.440  1.00  0.00    -0.374 OA
ENDROOT
BRANCH   1   2
ATOM      2  C   UNL A   1      31.231  26.077  26.442  1.00  0.00     0.202 C 
BRANCH   2   3
ATOM      3  C   UNL A   1      30.239  25.024  25.948  1.00  0.00     0.261 C 
BRANCH   3   4
ATOM      4  O   UNL A   1      30.902  23.859  25.428  1.00  0.00    -0.463 OA
BRANCH   4   5
ATOM      5  C   UNL A   1      31.791  23.263  26.262  1.00  0.00     0.316 C 
ATOM      6  O   UNL A   1      31.557  22.954  27.427  1.00  0.00    -0.251 OA
BRANCH   5   7
ATOM      7  C   UNL A   1      33.161  23.066  25.639  1.00  0.00     0.157 C 
ATOM      8  C   UNL A   1      33.150  24.342  21.545  1.00  0.00     0.161 A 
ATOM      9  C   UNL A   1      32.962  22.991  21.877  1.00  0.00     0.064 A 
ATOM     10  C   UNL A   1      33.320  25.295  22.562  1.00  0.00     0.161 A 
ATOM     11  C   UNL A   1      32.912  22.588  23.203  1.00  0.00     0.048 A 
ATOM     12  C   UNL A   1      33.309  24.868  23.892  1.00  0.00     0.056 A 
ATOM     13  C   UNL A   1      33.131  23.522  24.212  1.00  0.00    -0.015 A 
ATOM     14  C   UNL A   1      32.636  21.164  23.541  1.00  0.00     0.254 C 
ATOM     15  N   UNL A   1      33.059  20.737  24.800  1.00  0.00    -0.333 N 
ATOM     16  O   UNL A   1      32.060  20.443  22.733  1.00  0.00    -0.269 OA
ATOM     17  C   UNL A   1      33.778  21.634  25.705  1.00  0.00     0.135 C 
ATOM     18  C   UNL A   1      32.824  19.355  25.178  1.00  0.00     0.147 C 
BRANCH   8  19
ATOM     19  O   UNL A   1      33.277  24.678  20.226  1.00  0.00    -0.490 OA
BRANCH  19  20
ATOM     20  C   UNL A   1      32.292  25.610  19.759  1.00  0.00     0.226 C 
ATOM     21  C   UNL A   1      31.795  25.267  18.362  1.00  0.00     0.049 C 
ENDBRANCH  19  20
ENDBRANCH   8  19
BRANCH  10  22
ATOM     22  O   UNL A   1      33.506  26.644  22.488  1.00  0.00    -0.490 OA
BRANCH  22  23
ATOM     23  C   UNL A   1      33.717  27.418  23.658  1.00  0.00     0.226 C 
ATOM     24  C   UNL A   1      33.706  28.896  23.321  1.00  0.00     0.049 C 
ENDBRANCH  22  23
ENDBRANCH  10  22
BRANCH  17  25
ATOM     25  C   UNL A   1      35.319  21.701  25.502  1.00  0.00    -0.005 A 
ATOM     26  C   UNL A   1      35.918  20.510  25.008  1.00  0.00     0.010 A 
ATOM     27  C   UNL A   1      36.202  22.762  25.812  1.00  0.00     0.049 A 
ATOM     28  C   UNL A   1      37.303  20.348  24.932  1.00  0.00     0.040 A 
ATOM     29  C   UNL A   1      37.593  22.594  25.723  1.00  0.00     0.060 A 
ATOM     30  Cl  UNL A   1      35.749  24.353  26.302  1.00  0.00    -0.084 Cl
ATOM     31  C   UNL A   1      38.129  21.390  25.308  1.00  0.00     0.124 A 
ATOM     32  F   UNL A   1      39.458  21.237  25.260  1.00  0.00    -0.207 F 
ENDBRANCH  17  25
ENDBRANCH   5   7
ENDBRANCH   4   5
ENDBRANCH   3   4
ENDBRANCH   2   3
ENDBRANCH   1   2
BRANCH   1  33
ATOM     33  C   UNL A   1      31.769  28.458  26.432  1.00  0.00     0.202 C 
BRANCH  33  34
ATOM     34  C   UNL A   1      32.705  28.525  27.643  1.00  0.00     0.261 C 
BRANCH  34  35
ATOM     35  O   UNL A   1      34.076  28.716  27.249  1.00  0.00    -0.460 OA
BRANCH  35  36
ATOM     36  C   UNL A   1      34.578  29.946  27.505  1.00  0.00     0.338 C 
ATOM     37  O   UNL A   1      33.994  31.019  27.415  1.00  0.00    -0.246 OA
BRANCH  36  38
ATOM     38  C   UNL A   1      35.921  29.826  28.099  1.00  0.00     0.060 A 
ATOM     39  C   UNL A   1      37.027  30.119  27.289  1.00  0.00     0.016 A 
ATOM     40  C   UNL A   1      36.101  29.370  29.405  1.00  0.00     0.016 A 
ATOM     41  C   UNL A   1      38.320  29.907  27.764  1.00  0.00     0.010 A 
ATOM     42  C   UNL A   1      37.398  29.165  29.884  1.00  0.00     0.010 A 
ATOM     43  C   UNL A   1      38.510  29.391  29.051  1.00  0.00    -0.014 A 
BRANCH  43  44
ATOM     44  C   UNL A   1      39.845  28.899  29.472  1.00  0.00     0.031 A 
ATOM     45  C   UNL A   1      40.670  29.766  30.382  1.00  0.00     0.074 A 
ATOM     46  C   UNL A   1      40.321  27.714  29.052  1.00  0.00     0.049 A 
ATOM     47  N   UNL A   1      41.915  29.631  30.763  1.00  0.00    -0.248 NA
ATOM     48  C   UNL A   1      40.001  30.959  30.926  1.00  0.00     0.031 C 
ATOM     49  C   UNL A   1      39.598  26.761  28.215  1.00  0.00     0.029 A 
ATOM     50  N   UNL A   1      41.544  27.125  29.259  1.00  0.00    -0.354 N 
ATOM     51  C   UNL A   1      42.183  30.731  31.566  1.00  0.00     0.074 A 
ATOM     52  C   UNL A   1      40.983  31.537  31.601  1.00  0.00     0.031 C 
ATOM     53  C   UNL A   1      40.399  25.711  27.962  1.00  0.00     0.029 A 
ATOM     54  C   UNL A   1      41.706  25.945  28.575  1.00  0.00     0.049 A 
ATOM     55  H   UNL A   1      42.239  27.511  29.842  1.00  0.00     0.167 HD
ATOM     56  C   UNL A   1      43.329  31.039  32.217  1.00  0.00     0.037 A 
ATOM     57  C   UNL A   1      42.798  25.169  28.429  1.00  0.00     0.037 A 
ATOM     58  C   UNL A   1      44.516  30.226  32.189  1.00  0.00     0.049 A 
ATOM     59  C   UNL A   1      44.089  25.573  29.099  1.00  0.00     0.074 A 
ATOM     60  C   UNL A   1      45.722  30.439  32.831  1.00  0.00     0.029 A 
ATOM     61  N   UNL A   1      44.644  29.046  31.472  1.00  0.00    -0.354 N 
ATOM     62  N   UNL A   1      44.337  26.608  29.865  1.00  0.00    -0.248 NA
ATOM     63  C   UNL A   1      45.254  24.702  28.879  1.00  0.00     0.031 C 
ATOM     64  C   UNL A   1      46.599  29.416  32.459  1.00  0.00     0.029 A 
ATOM     65  C   UNL A   1      45.919  28.532  31.635  1.00  0.00     0.049 A 
ATOM     66  H   UNL A   1      43.934  28.633  30.927  1.00  0.00     0.167 HD
ATOM     67  C   UNL A   1      45.669  26.494  30.245  1.00  0.00     0.074 A 
ATOM     68  C   UNL A   1      46.177  25.287  29.629  1.00  0.00     0.031 C 
ATOM     69  C   UNL A   1      46.402  27.314  31.037  1.00  0.00     0.037 A 
BRANCH  56  70
ATOM     70  C   UNL A   1      43.368  32.325  32.990  1.00  0.00     0.064 A 
ATOM     71  C   UNL A   1      43.785  33.530  32.404  1.00  0.00     0.173 A 
ATOM     72  C   UNL A   1      42.947  32.358  34.328  1.00  0.00     0.173 A 
ATOM     73  F   UNL A   1      44.211  33.551  31.132  1.00  0.00    -0.203 F 
ATOM     74  C   UNL A   1      43.804  34.714  33.138  1.00  0.00     0.198 A 
ATOM     75  C   UNL A   1      42.938  33.548  35.049  1.00  0.00     0.198 A 
ATOM     76  F   UNL A   1      42.535  31.234  34.935  1.00  0.00    -0.203 F 
ATOM     77  F   UNL A   1      44.253  35.842  32.573  1.00  0.00    -0.200 F 
ATOM     78  C   UNL A   1      43.373  34.723  34.456  1.00  0.00     0.200 A 
ATOM     79  F   UNL A   1      42.507  33.558  36.318  1.00  0.00    -0.200 F 
ATOM     80  F   UNL A   1      43.384  35.865  35.158  1.00  0.00    -0.200 F 
ENDBRANCH  56  70
BRANCH  57  81
ATOM     81  C   UNL A   1      42.732  23.942  27.591  1.00  0.00     0.064 A 
ATOM     82  C   UNL A   1      42.339  22.714  28.139  1.00  0.00     0.173 A 
ATOM     83  C   UNL A   1      43.078  23.967  26.232  1.00  0.00     0.173 A 
ATOM     84  F   UNL A   1      42.024  22.631  29.440  1.00  0.00    -0.203 F 
ATOM     85  C   UNL A   1      42.312  21.555  27.366  1.00  0.00     0.198 A 
ATOM     86  C   UNL A   1      43.021  22.814  25.452  1.00  0.00     0.198 A 
ATOM     87  F   UNL A   1      43.470  25.114  25.659  1.00  0.00    -0.203 F 
ATOM     88  F   UNL A   1      41.980  20.384  27.928  1.00  0.00    -0.200 F 
ATOM     89  C   UNL A   1      42.646  21.607  26.021  1.00  0.00     0.200 A 
ATOM     90  F   UNL A   1      43.334  22.871  24.150  1.00  0.00    -0.200 F 
ATOM     91  F   UNL A   1      42.617  20.493  25.277  1.00  0.00    -0.200 F 
ENDBRANCH  57  81
BRANCH  69  92
ATOM     92  C   UNL A   1      47.817  26.913  31.342  1.00  0.00     0.064 A 
ATOM     93  C   UNL A   1      48.904  27.431  30.625  1.00  0.00     0.173 A 
ATOM     94  C   UNL A   1      48.089  26.065  32.428  1.00  0.00     0.173 A 
ATOM     95  F   UNL A   1      48.697  28.235  29.572  1.00  0.00    -0.203 F 
ATOM     96  C   UNL A   1      50.212  27.105  30.976  1.00  0.00     0.198 A 
ATOM     97  C   UNL A   1      49.397  25.766  32.794  1.00  0.00     0.198 A 
ATOM     98  F   UNL A   1      47.083  25.551  33.152  1.00  0.00    -0.203 F 
ATOM     99  F   UNL A   1      51.236  27.586  30.257  1.00  0.00    -0.200 F 
ATOM    100  C   UNL A   1      50.458  26.284  32.067  1.00  0.00     0.200 A 
ATOM    101  F   UNL A   1      49.633  24.986  33.859  1.00  0.00    -0.200 F 
ATOM    102  F   UNL A   1      51.718  25.989  32.415  1.00  0.00    -0.200 F 
ENDBRANCH  69  92
ENDBRANCH  43  44
ENDBRANCH  36  38
ENDBRANCH  35  36
ENDBRANCH  34  35
ENDBRANCH  33  34
ENDBRANCH   1  33
TORSDOF 19
ENDMDL
