MODEL 1
REMARK VINA RESULT:     -12.0      0.000      0.000
REMARK SMILES O=C(COc1ccccc1Br)Nc1cccc(C(=O)Nc2ccc(C(=O)OCCOCCOC(=O)c3ccc(-c4c5nc(c(-c6c(F)c(F)c(F)c(F)c6F)c6ccc([nH]6)c(-c6c(F)c(F)c(F)c(F)c6F)c6nc(c(-c7c(F)c(F)c(F)c(F)c7F)c7ccc4[nH]7)C=C6)C=C5)cc3)cc2)c1
REMARK SMILES IDX 28 1 27 2 25 3 26 4 24 5 21 6 22 7 100 8 23 9 99 10 20 11
REMARK SMILES IDX 18 12 19 13 17 15 13 16 14 17 101 18 15 19 16 20 12 21 1 22
REMARK SMILES IDX 2 23 3 25 4 26 5 27 6 28 10 29 7 30 9 31 11 32 8 33 29 34
REMARK SMILES IDX 30 35 31 36 32 37 33 38 34 39 35 40 36 41 37 42 98 43 38 44
REMARK SMILES IDX 97 45 39 46 40 47 41 48 91 49 42 50 96 51 90 52 92 53 43 54
REMARK SMILES IDX 95 55 89 56 88 57 44 59 76 60 56 61 75 62 57 63 60 64 74 65
REMARK SMILES IDX 93 66 58 67 59 68 73 70 94 71 61 72 45 73 46 74 54 75 47 76
REMARK SMILES IDX 48 77 52 78 55 79 49 80 50 81 53 82 51 83 77 84 78 85 86 86
REMARK SMILES IDX 79 87 80 88 84 89 87 90 81 91 82 92 85 93 83 94 62 95 63 96
REMARK SMILES IDX 71 97 64 98 65 99 69 100 72 101 66 102 67 103 70 104 68 105
REMARK H PARENT 20 14 12 24 92 58 60 69
REMARK Flexibility Score: inf
ROOT
ATOM      1  C   UNL A   1      41.320  20.871  26.570  1.00  0.00     0.261 C 
ENDROOT
BRANCH   1   2
ATOM      2  O   UNL A   1      40.015  20.826  25.973  1.00  0.00    -0.460 OA
BRANCH   2   3
ATOM      3  C   UNL A   1      39.258  21.926  26.237  1.00  0.00     0.338 C 
ATOM      4  O   UNL A   1      39.656  22.943  26.787  1.00  0.00    -0.246 OA
BRANCH   3   5
ATOM      5  C   UNL A   1      37.871  21.797  25.721  1.00  0.00     0.060 A 
ATOM      6  C   UNL A   1      35.145  21.331  25.436  1.00  0.00     0.041 A 
ATOM      7  C   UNL A   1      35.579  22.527  26.007  1.00  0.00     0.027 A 
ATOM      8  C   UNL A   1      36.061  20.488  24.798  1.00  0.00     0.027 A 
ATOM      9  C   UNL A   1      36.944  22.742  26.177  1.00  0.00     0.018 A 
ATOM     10  C   UNL A   1      37.436  20.720  24.941  1.00  0.00     0.018 A 
BRANCH   6  11
ATOM     11  N   UNL A   1      33.808  20.987  25.666  1.00  0.00    -0.322 N 
ATOM     12  C   UNL A   1      32.634  21.546  25.193  1.00  0.00     0.255 C 
ATOM     13  O   UNL A   1      31.570  21.083  25.612  1.00  0.00    -0.269 OA
ATOM     14  H   UNL A   1      33.680  20.217  26.266  1.00  0.00     0.170 HD
BRANCH  12  15
ATOM     15  C   UNL A   1      32.577  22.621  24.154  1.00  0.00     0.042 A 
ATOM     16  C   UNL A   1      31.688  24.684  23.210  1.00  0.00     0.042 A 
ATOM     17  C   UNL A   1      32.439  24.469  22.053  1.00  0.00     0.026 A 
ATOM     18  C   UNL A   1      31.837  23.805  24.286  1.00  0.00     0.040 A 
ATOM     19  C   UNL A   1      33.298  23.375  21.963  1.00  0.00     0.003 A 
ATOM     20  C   UNL A   1      33.348  22.443  22.999  1.00  0.00     0.014 A 
BRANCH  16  21
ATOM     21  N   UNL A   1      30.766  25.751  23.193  1.00  0.00    -0.323 N 
ATOM     22  O   UNL A   1      29.830  25.668  25.325  1.00  0.00    -0.271 OA
ATOM     23  C   UNL A   1      29.876  26.117  24.186  1.00  0.00     0.262 C 
ATOM     24  H   UNL A   1      30.755  26.301  22.375  1.00  0.00     0.170 HD
BRANCH  23  25
ATOM     25  C   UNL A   1      28.869  27.164  23.714  1.00  0.00     0.329 C 
BRANCH  25  26
ATOM     26  O   UNL A   1      29.398  28.015  22.694  1.00  0.00    -0.483 OA
BRANCH  26  27
ATOM     27  C   UNL A   1      29.113  29.325  22.989  1.00  0.00     0.134 A 
ATOM     28  C   UNL A   1      27.995  29.919  22.394  1.00  0.00     0.047 A 
ATOM     29  C   UNL A   1      29.931  30.072  23.844  1.00  0.00     0.060 A 
ATOM     30  C   UNL A   1      27.649  31.231  22.717  1.00  0.00     0.004 A 
ATOM     31  C   UNL A   1      29.569  31.378  24.181  1.00  0.00     0.019 A 
ATOM     32  Br  UNL A   1      31.550  29.388  24.552  1.00  0.00    -0.047 Br
ATOM     33  C   UNL A   1      28.425  31.952  23.625  1.00  0.00     0.001 A 
ENDBRANCH  26  27
ENDBRANCH  25  26
ENDBRANCH  23  25
ENDBRANCH  16  21
ENDBRANCH  12  15
ENDBRANCH   6  11
ENDBRANCH   3   5
ENDBRANCH   2   3
ENDBRANCH   1   2
BRANCH   1  34
ATOM     34  C   UNL A   1      42.335  19.897  25.963  1.00  0.00     0.202 C 
BRANCH  34  35
ATOM     35  O   UNL A   1      43.725  20.178  26.051  1.00  0.00    -0.374 OA
BRANCH  35  36
ATOM     36  C   UNL A   1      44.395  20.751  24.936  1.00  0.00     0.202 C 
BRANCH  36  37
ATOM     37  C   UNL A   1      45.069  22.122  25.078  1.00  0.00     0.261 C 
BRANCH  37  38
ATOM     38  O   UNL A   1      44.416  23.033  25.978  1.00  0.00    -0.460 OA
BRANCH  38  39
ATOM     39  C   UNL A   1      44.492  24.331  25.597  1.00  0.00     0.338 C 
ATOM     40  O   UNL A   1      45.079  24.790  24.626  1.00  0.00    -0.246 OA
BRANCH  39  41
ATOM     41  C   UNL A   1      43.645  25.179  26.452  1.00  0.00     0.060 A 
ATOM     42  C   UNL A   1      43.977  26.535  26.560  1.00  0.00     0.016 A 
ATOM     43  C   UNL A   1      42.652  24.622  27.259  1.00  0.00     0.016 A 
ATOM     44  C   UNL A   1      43.352  27.331  27.518  1.00  0.00     0.010 A 
ATOM     45  C   UNL A   1      42.034  25.419  28.228  1.00  0.00     0.010 A 
ATOM     46  C   UNL A   1      42.411  26.764  28.389  1.00  0.00    -0.014 A 
BRANCH  46  47
ATOM     47  C   UNL A   1      41.945  27.539  29.564  1.00  0.00     0.031 A 
ATOM     48  C   UNL A   1      40.703  28.379  29.439  1.00  0.00     0.074 A 
ATOM     49  C   UNL A   1      42.597  27.469  30.738  1.00  0.00     0.049 A 
ATOM     50  N   UNL A   1      40.139  29.166  30.320  1.00  0.00    -0.248 NA
ATOM     51  C   UNL A   1      39.999  28.322  28.147  1.00  0.00     0.031 C 
ATOM     52  C   UNL A   1      43.783  26.657  30.996  1.00  0.00     0.029 A 
ATOM     53  N   UNL A   1      42.352  28.101  31.931  1.00  0.00    -0.354 N 
ATOM     54  C   UNL A   1      39.017  29.694  29.693  1.00  0.00     0.074 A 
ATOM     55  C   UNL A   1      38.994  29.161  28.348  1.00  0.00     0.031 C 
ATOM     56  C   UNL A   1      44.177  26.855  32.266  1.00  0.00     0.029 A 
ATOM     57  C   UNL A   1      43.286  27.825  32.899  1.00  0.00     0.049 A 
ATOM     58  H   UNL A   1      41.582  28.695  32.079  1.00  0.00     0.167 HD
ATOM     59  C   UNL A   1      38.086  30.536  30.199  1.00  0.00     0.037 A 
ATOM     60  C   UNL A   1      43.416  28.321  34.145  1.00  0.00     0.037 A 
ATOM     61  C   UNL A   1      38.110  31.071  31.534  1.00  0.00     0.049 A 
ATOM     62  C   UNL A   1      42.404  29.314  34.657  1.00  0.00     0.074 A 
ATOM     63  C   UNL A   1      37.216  31.941  32.133  1.00  0.00     0.029 A 
ATOM     64  N   UNL A   1      39.082  30.782  32.479  1.00  0.00    -0.354 N 
ATOM     65  N   UNL A   1      41.344  29.799  34.061  1.00  0.00    -0.248 NA
ATOM     66  C   UNL A   1      42.607  29.822  36.023  1.00  0.00     0.031 C 
ATOM     67  C   UNL A   1      37.666  32.207  33.430  1.00  0.00     0.029 A 
ATOM     68  C   UNL A   1      38.817  31.469  33.652  1.00  0.00     0.049 A 
ATOM     69  H   UNL A   1      39.846  30.180  32.337  1.00  0.00     0.167 HD
ATOM     70  C   UNL A   1      40.740  30.646  34.981  1.00  0.00     0.074 A 
ATOM     71  C   UNL A   1      41.545  30.599  36.183  1.00  0.00     0.031 C 
ATOM     72  C   UNL A   1      39.621  31.397  34.844  1.00  0.00     0.037 A 
BRANCH  59  73
ATOM     73  C   UNL A   1      36.959  30.944  29.298  1.00  0.00     0.064 A 
ATOM     74  C   UNL A   1      35.919  30.057  28.981  1.00  0.00     0.173 A 
ATOM     75  C   UNL A   1      36.886  32.251  28.794  1.00  0.00     0.173 A 
ATOM     76  F   UNL A   1      35.951  28.793  29.428  1.00  0.00    -0.203 F 
ATOM     77  C   UNL A   1      34.854  30.462  28.181  1.00  0.00     0.198 A 
ATOM     78  C   UNL A   1      35.808  32.658  28.013  1.00  0.00     0.198 A 
ATOM     79  F   UNL A   1      37.853  33.137  29.073  1.00  0.00    -0.203 F 
ATOM     80  F   UNL A   1      33.887  29.588  27.866  1.00  0.00    -0.200 F 
ATOM     81  C   UNL A   1      34.795  31.762  27.704  1.00  0.00     0.200 A 
ATOM     82  F   UNL A   1      35.747  33.919  27.562  1.00  0.00    -0.200 F 
ATOM     83  F   UNL A   1      33.762  32.154  26.944  1.00  0.00    -0.200 F 
ENDBRANCH  59  73
BRANCH  60  84
ATOM     84  C   UNL A   1      44.565  27.910  34.993  1.00  0.00     0.064 A 
ATOM     85  C   UNL A   1      45.788  28.592  34.938  1.00  0.00     0.173 A 
ATOM     86  C   UNL A   1      44.471  26.802  35.849  1.00  0.00     0.173 A 
ATOM     87  F   UNL A   1      45.933  29.642  34.116  1.00  0.00    -0.203 F 
ATOM     88  C   UNL A   1      46.883  28.166  35.688  1.00  0.00     0.198 A 
ATOM     89  C   UNL A   1      45.557  26.395  36.619  1.00  0.00     0.198 A 
ATOM     90  F   UNL A   1      43.322  26.117  35.937  1.00  0.00    -0.203 F 
ATOM     91  F   UNL A   1      48.056  28.803  35.577  1.00  0.00    -0.200 F 
ATOM     92  C   UNL A   1      46.766  27.070  36.531  1.00  0.00     0.200 A 
ATOM     93  F   UNL A   1      45.436  25.343  37.440  1.00  0.00    -0.200 F 
ATOM     94  F   UNL A   1      47.819  26.659  37.249  1.00  0.00    -0.200 F 
ENDBRANCH  60  84
BRANCH  72  95
ATOM     95  C   UNL A   1      39.177  32.198  36.033  1.00  0.00     0.064 A 
ATOM     96  C   UNL A   1      38.291  31.670  36.984  1.00  0.00     0.173 A 
ATOM     97  C   UNL A   1      39.676  33.492  36.244  1.00  0.00     0.173 A 
ATOM     98  F   UNL A   1      37.776  30.443  36.818  1.00  0.00    -0.203 F 
ATOM     99  C   UNL A   1      37.905  32.418  38.092  1.00  0.00     0.198 A 
ATOM    100  C   UNL A   1      39.306  34.228  37.366  1.00  0.00     0.198 A 
ATOM    101  F   UNL A   1      40.530  34.038  35.366  1.00  0.00    -0.203 F 
ATOM    102  F   UNL A   1      37.026  31.910  38.968  1.00  0.00    -0.200 F 
ATOM    103  C   UNL A   1      38.418  33.693  38.286  1.00  0.00     0.200 A 
ATOM    104  F   UNL A   1      39.811  35.454  37.558  1.00  0.00    -0.200 F 
ATOM    105  F   UNL A   1      38.048  34.410  39.357  1.00  0.00    -0.200 F 
ENDBRANCH  72  95
ENDBRANCH  46  47
ENDBRANCH  39  41
ENDBRANCH  38  39
ENDBRANCH  37  38
ENDBRANCH  36  37
ENDBRANCH  35  36
ENDBRANCH  34  35
ENDBRANCH   1  34
TORSDOF 20
ENDMDL
MODEL 2
REMARK VINA RESULT:     -11.7      5.051      7.952
REMARK SMILES O=C(COc1ccccc1Br)Nc1cccc(C(=O)Nc2ccc(C(=O)OCCOCCOC(=O)c3ccc(-c4c5nc(c(-c6c(F)c(F)c(F)c(F)c6F)c6ccc([nH]6)c(-c6c(F)c(F)c(F)c(F)c6F)c6nc(c(-c7c(F)c(F)c(F)c(F)c7F)c7ccc4[nH]7)C=C6)C=C5)cc3)cc2)c1
REMARK SMILES IDX 28 1 27 2 25 3 26 4 24 5 21 6 22 7 100 8 23 9 99 10 20 11
REMARK SMILES IDX 18 12 19 13 17 15 13 16 14 17 101 18 15 19 16 20 12 21 1 22
REMARK SMILES IDX 2 23 3 25 4 26 5 27 6 28 10 29 7 30 9 31 11 32 8 33 29 34
REMARK SMILES IDX 30 35 31 36 32 37 33 38 34 39 35 40 36 41 37 42 98 43 38 44
REMARK SMILES IDX 97 45 39 46 40 47 41 48 91 49 42 50 96 51 90 52 92 53 43 54
REMARK SMILES IDX 95 55 89 56 88 57 44 59 76 60 56 61 75 62 57 63 60 64 74 65
REMARK SMILES IDX 93 66 58 67 59 68 73 70 94 71 61 72 45 73 46 74 54 75 47 76
REMARK SMILES IDX 48 77 52 78 55 79 49 80 50 81 53 82 51 83 77 84 78 85 86 86
REMARK SMILES IDX 79 87 80 88 84 89 87 90 81 91 82 92 85 93 83 94 62 95 63 96
REMARK SMILES IDX 71 97 64 98 65 99 69 100 72 101 66 102 67 103 70 104 68 105
REMARK H PARENT 20 14 12 24 92 58 60 69
REMARK Flexibility Score: inf
ROOT
ATOM      1  C   UNL A   1      36.216  22.157  25.358  1.00  0.00     0.261 C 
ENDROOT
BRANCH   1   2
ATOM      2  O   UNL A   1      35.378  23.289  25.082  1.00  0.00    -0.460 OA
BRANCH   2   3
ATOM      3  C   UNL A   1      34.057  22.978  24.987  1.00  0.00     0.338 C 
ATOM      4  O   UNL A   1      33.454  22.216  25.731  1.00  0.00    -0.246 OA
BRANCH   3   5
ATOM      5  C   UNL A   1      33.376  23.722  23.896  1.00  0.00     0.060 A 
ATOM      6  C   UNL A   1      32.043  25.626  22.371  1.00  0.00     0.041 A 
ATOM      7  C   UNL A   1      33.421  25.735  22.549  1.00  0.00     0.027 A 
ATOM      8  C   UNL A   1      31.380  24.454  22.748  1.00  0.00     0.027 A 
ATOM      9  C   UNL A   1      34.080  24.797  23.339  1.00  0.00     0.018 A 
ATOM     10  C   UNL A   1      32.049  23.493  23.517  1.00  0.00     0.018 A 
BRANCH   6  11
ATOM     11  N   UNL A   1      31.383  26.783  21.940  1.00  0.00    -0.322 N 
ATOM     12  C   UNL A   1      30.875  27.855  22.651  1.00  0.00     0.255 C 
ATOM     13  O   UNL A   1      30.271  28.727  22.019  1.00  0.00    -0.269 OA
ATOM     14  H   UNL A   1      31.260  26.844  20.965  1.00  0.00     0.170 HD
BRANCH  12  15
ATOM     15  C   UNL A   1      31.076  28.058  24.119  1.00  0.00     0.042 A 
ATOM     16  C   UNL A   1      31.812  29.343  26.053  1.00  0.00     0.042 A 
ATOM     17  C   UNL A   1      31.568  28.238  26.871  1.00  0.00     0.026 A 
ATOM     18  C   UNL A   1      31.476  29.270  24.699  1.00  0.00     0.040 A 
ATOM     19  C   UNL A   1      31.026  27.071  26.336  1.00  0.00     0.003 A 
ATOM     20  C   UNL A   1      30.805  26.973  24.962  1.00  0.00     0.014 A 
BRANCH  16  21
ATOM     21  N   UNL A   1      32.454  30.452  26.642  1.00  0.00    -0.323 N 
ATOM     22  O   UNL A   1      34.583  29.632  27.118  1.00  0.00    -0.271 OA
ATOM     23  C   UNL A   1      33.725  30.505  27.185  1.00  0.00     0.262 C 
ATOM     24  H   UNL A   1      31.934  31.289  26.671  1.00  0.00     0.170 HD
BRANCH  23  25
ATOM     25  C   UNL A   1      33.982  31.802  27.951  1.00  0.00     0.329 C 
BRANCH  25  26
ATOM     26  O   UNL A   1      35.329  31.906  28.418  1.00  0.00    -0.483 OA
BRANCH  26  27
ATOM     27  C   UNL A   1      35.333  32.166  29.767  1.00  0.00     0.134 A 
ATOM     28  C   UNL A   1      34.799  33.378  30.218  1.00  0.00     0.047 A 
ATOM     29  C   UNL A   1      35.880  31.259  30.680  1.00  0.00     0.060 A 
ATOM     30  C   UNL A   1      34.740  33.646  31.586  1.00  0.00     0.004 A 
ATOM     31  C   UNL A   1      35.799  31.521  32.049  1.00  0.00     0.019 A 
ATOM     32  Br  UNL A   1      36.769  29.678  30.129  1.00  0.00    -0.047 Br
ATOM     33  C   UNL A   1      35.221  32.708  32.500  1.00  0.00     0.001 A 
ENDBRANCH  26  27
ENDBRANCH  25  26
ENDBRANCH  23  25
ENDBRANCH  16  21
ENDBRANCH  12  15
ENDBRANCH   6  11
ENDBRANCH   3   5
ENDBRANCH   2   3
ENDBRANCH   1   2
BRANCH   1  34
ATOM     34  C   UNL A   1      37.706  22.378  25.076  1.00  0.00     0.202 C 
BRANCH  34  35
ATOM     35  O   UNL A   1      38.675  21.977  26.034  1.00  0.00    -0.374 OA
BRANCH  35  36
ATOM     36  C   UNL A   1      39.308  22.960  26.843  1.00  0.00     0.202 C 
BRANCH  36  37
ATOM     37  C   UNL A   1      38.710  24.370  26.932  1.00  0.00     0.261 C 
BRANCH  37  38
ATOM     38  O   UNL A   1      39.352  25.247  27.873  1.00  0.00    -0.460 OA
BRANCH  38  39
ATOM     39  C   UNL A   1      40.136  26.191  27.298  1.00  0.00     0.338 C 
ATOM     40  O   UNL A   1      40.570  26.204  26.154  1.00  0.00    -0.246 OA
BRANCH  39  41
ATOM     41  C   UNL A   1      40.331  27.334  28.204  1.00  0.00     0.060 A 
ATOM     42  C   UNL A   1      39.772  28.564  27.835  1.00  0.00     0.016 A 
ATOM     43  C   UNL A   1      41.184  27.242  29.305  1.00  0.00     0.016 A 
ATOM     44  C   UNL A   1      40.108  29.721  28.535  1.00  0.00     0.010 A 
ATOM     45  C   UNL A   1      41.530  28.406  29.999  1.00  0.00     0.010 A 
ATOM     46  C   UNL A   1      41.026  29.654  29.592  1.00  0.00    -0.014 A 
BRANCH  46  47
ATOM     47  C   UNL A   1      41.577  30.908  30.160  1.00  0.00     0.031 A 
ATOM     48  C   UNL A   1      40.919  31.511  31.371  1.00  0.00     0.074 A 
ATOM     49  C   UNL A   1      42.669  31.484  29.628  1.00  0.00     0.049 A 
ATOM     50  N   UNL A   1      41.205  32.619  32.007  1.00  0.00    -0.248 NA
ATOM     51  C   UNL A   1      39.789  30.764  31.945  1.00  0.00     0.031 C 
ATOM     52  C   UNL A   1      43.420  30.972  28.485  1.00  0.00     0.029 A 
ATOM     53  N   UNL A   1      43.329  32.634  29.980  1.00  0.00    -0.354 N 
ATOM     54  C   UNL A   1      40.296  32.699  33.055  1.00  0.00     0.074 A 
ATOM     55  C   UNL A   1      39.430  31.545  32.954  1.00  0.00     0.031 C 
ATOM     56  C   UNL A   1      44.430  31.816  28.215  1.00  0.00     0.029 A 
ATOM     57  C   UNL A   1      44.380  32.939  29.150  1.00  0.00     0.049 A 
ATOM     58  H   UNL A   1      43.075  33.188  30.752  1.00  0.00     0.167 HD
ATOM     59  C   UNL A   1      40.201  33.644  34.019  1.00  0.00     0.037 A 
ATOM     60  C   UNL A   1      45.190  34.015  29.135  1.00  0.00     0.037 A 
ATOM     61  C   UNL A   1      41.057  34.796  34.119  1.00  0.00     0.049 A 
ATOM     62  C   UNL A   1      45.016  35.088  30.179  1.00  0.00     0.074 A 
ATOM     63  C   UNL A   1      41.030  35.815  35.055  1.00  0.00     0.029 A 
ATOM     64  N   UNL A   1      42.099  35.079  33.249  1.00  0.00    -0.354 N 
ATOM     65  N   UNL A   1      44.160  35.151  31.168  1.00  0.00    -0.248 NA
ATOM     66  C   UNL A   1      45.928  36.240  30.104  1.00  0.00     0.031 C 
ATOM     67  C   UNL A   1      42.034  36.734  34.731  1.00  0.00     0.029 A 
ATOM     68  C   UNL A   1      42.712  36.264  33.618  1.00  0.00     0.049 A 
ATOM     69  H   UNL A   1      42.362  34.521  32.483  1.00  0.00     0.167 HD
ATOM     70  C   UNL A   1      44.444  36.328  31.847  1.00  0.00     0.074 A 
ATOM     71  C   UNL A   1      45.562  36.945  31.165  1.00  0.00     0.031 C 
ATOM     72  C   UNL A   1      43.834  36.854  32.937  1.00  0.00     0.037 A 
BRANCH  59  73
ATOM     73  C   UNL A   1      39.121  33.480  35.046  1.00  0.00     0.064 A 
ATOM     74  C   UNL A   1      39.394  32.947  36.315  1.00  0.00     0.173 A 
ATOM     75  C   UNL A   1      37.813  33.913  34.782  1.00  0.00     0.173 A 
ATOM     76  F   UNL A   1      40.626  32.507  36.610  1.00  0.00    -0.203 F 
ATOM     77  C   UNL A   1      38.393  32.842  37.276  1.00  0.00     0.198 A 
ATOM     78  C   UNL A   1      36.821  33.826  35.754  1.00  0.00     0.198 A 
ATOM     79  F   UNL A   1      37.503  34.434  33.585  1.00  0.00    -0.203 F 
ATOM     80  F   UNL A   1      38.669  32.301  38.472  1.00  0.00    -0.200 F 
ATOM     81  C   UNL A   1      37.110  33.288  36.998  1.00  0.00     0.200 A 
ATOM     82  F   UNL A   1      35.583  34.269  35.487  1.00  0.00    -0.200 F 
ATOM     83  F   UNL A   1      36.150  33.198  37.930  1.00  0.00    -0.200 F 
ENDBRANCH  59  73
BRANCH  60  84
ATOM     84  C   UNL A   1      46.229  34.150  28.082  1.00  0.00     0.064 A 
ATOM     85  C   UNL A   1      47.566  33.810  28.332  1.00  0.00     0.173 A 
ATOM     86  C   UNL A   1      45.910  34.658  26.813  1.00  0.00     0.173 A 
ATOM     87  F   UNL A   1      47.923  33.345  29.538  1.00  0.00    -0.203 F 
ATOM     88  C   UNL A   1      48.549  33.997  27.362  1.00  0.00     0.198 A 
ATOM     89  C   UNL A   1      46.889  34.818  25.836  1.00  0.00     0.198 A 
ATOM     90  F   UNL A   1      44.646  34.997  26.524  1.00  0.00    -0.203 F 
ATOM     91  F   UNL A   1      49.828  33.714  27.645  1.00  0.00    -0.200 F 
ATOM     92  C   UNL A   1      48.209  34.497  26.113  1.00  0.00     0.200 A 
ATOM     93  F   UNL A   1      46.554  35.290  24.627  1.00  0.00    -0.200 F 
ATOM     94  F   UNL A   1      49.155  34.679  25.183  1.00  0.00    -0.200 F 
ENDBRANCH  60  84
BRANCH  72  95
ATOM     95  C   UNL A   1      44.385  38.138  33.484  1.00  0.00     0.064 A 
ATOM     96  C   UNL A   1      45.359  38.148  34.493  1.00  0.00     0.173 A 
ATOM     97  C   UNL A   1      43.963  39.371  32.964  1.00  0.00     0.173 A 
ATOM     98  F   UNL A   1      45.784  36.995  35.032  1.00  0.00    -0.203 F 
ATOM     99  C   UNL A   1      45.875  39.347  34.976  1.00  0.00     0.198 A 
ATOM    100  C   UNL A   1      44.500  40.567  33.432  1.00  0.00     0.198 A 
ATOM    101  F   UNL A   1      43.038  39.414  31.994  1.00  0.00    -0.203 F 
ATOM    102  F   UNL A   1      46.776  39.335  35.968  1.00  0.00    -0.200 F 
ATOM    103  C   UNL A   1      45.451  40.555  34.440  1.00  0.00     0.200 A 
ATOM    104  F   UNL A   1      44.097  41.732  32.906  1.00  0.00    -0.200 F 
ATOM    105  F   UNL A   1      45.953  41.708  34.903  1.00  0.00    -0.200 F 
ENDBRANCH  72  95
ENDBRANCH  46  47
ENDBRANCH  39  41
ENDBRANCH  38  39
ENDBRANCH  37  38
ENDBRANCH  36  37
ENDBRANCH  35  36
ENDBRANCH  34  35
ENDBRANCH   1  34
TORSDOF 20
ENDMDL
MODEL 3
REMARK VINA RESULT:     -11.7      4.201      8.779
REMARK SMILES O=C(COc1ccccc1Br)Nc1cccc(C(=O)Nc2ccc(C(=O)OCCOCCOC(=O)c3ccc(-c4c5nc(c(-c6c(F)c(F)c(F)c(F)c6F)c6ccc([nH]6)c(-c6c(F)c(F)c(F)c(F)c6F)c6nc(c(-c7c(F)c(F)c(F)c(F)c7F)c7ccc4[nH]7)C=C6)C=C5)cc3)cc2)c1
REMARK SMILES IDX 28 1 27 2 25 3 26 4 24 5 21 6 22 7 100 8 23 9 99 10 20 11
REMARK SMILES IDX 18 12 19 13 17 15 13 16 14 17 101 18 15 19 16 20 12 21 1 22
REMARK SMILES IDX 2 23 3 25 4 26 5 27 6 28 10 29 7 30 9 31 11 32 8 33 29 34
REMARK SMILES IDX 30 35 31 36 32 37 33 38 34 39 35 40 36 41 37 42 98 43 38 44
REMARK SMILES IDX 97 45 39 46 40 47 41 48 91 49 42 50 96 51 90 52 92 53 43 54
REMARK SMILES IDX 95 55 89 56 88 57 44 59 76 60 56 61 75 62 57 63 60 64 74 65
REMARK SMILES IDX 93 66 58 67 59 68 73 70 94 71 61 72 45 73 46 74 54 75 47 76
REMARK SMILES IDX 48 77 52 78 55 79 49 80 50 81 53 82 51 83 77 84 78 85 86 86
REMARK SMILES IDX 79 87 80 88 84 89 87 90 81 91 82 92 85 93 83 94 62 95 63 96
REMARK SMILES IDX 71 97 64 98 65 99 69 100 72 101 66 102 67 103 70 104 68 105
REMARK H PARENT 20 14 12 24 92 58 60 69
REMARK Flexibility Score: inf
ROOT
ATOM      1  C   UNL A   1      40.727  26.262  28.742  1.00  0.00     0.261 C 
ENDROOT
BRANCH   1   2
ATOM      2  O   UNL A   1      39.481  26.973  28.796  1.00  0.00    -0.460 OA
BRANCH   2   3
ATOM      3  C   UNL A   1      39.174  27.438  30.038  1.00  0.00     0.338 C 
ATOM      4  O   UNL A   1      38.489  26.852  30.864  1.00  0.00    -0.246 OA
BRANCH   3   5
ATOM      5  C   UNL A   1      39.823  28.742  30.331  1.00  0.00     0.060 A 
ATOM      6  C   UNL A   1      40.348  31.391  30.992  1.00  0.00     0.041 A 
ATOM      7  C   UNL A   1      40.140  30.460  32.009  1.00  0.00     0.027 A 
ATOM      8  C   UNL A   1      40.530  30.958  29.675  1.00  0.00     0.027 A 
ATOM      9  C   UNL A   1      39.846  29.142  31.673  1.00  0.00     0.018 A 
ATOM     10  C   UNL A   1      40.265  29.624  29.338  1.00  0.00     0.018 A 
BRANCH   6  11
ATOM     11  N   UNL A   1      40.224  32.738  31.353  1.00  0.00    -0.322 N 
ATOM     12  C   UNL A   1      39.102  33.518  31.567  1.00  0.00     0.255 C 
ATOM     13  O   UNL A   1      39.276  34.715  31.816  1.00  0.00    -0.269 OA
ATOM     14  H   UNL A   1      41.079  33.210  31.475  1.00  0.00     0.170 HD
BRANCH  12  15
ATOM     15  C   UNL A   1      37.704  32.988  31.590  1.00  0.00     0.042 A 
ATOM     16  C   UNL A   1      35.732  32.017  30.539  1.00  0.00     0.042 A 
ATOM     17  C   UNL A   1      35.020  32.195  31.727  1.00  0.00     0.026 A 
ATOM     18  C   UNL A   1      37.093  32.331  30.512  1.00  0.00     0.040 A 
ATOM     19  C   UNL A   1      35.653  32.708  32.858  1.00  0.00     0.003 A 
ATOM     20  C   UNL A   1      36.982  33.126  32.782  1.00  0.00     0.014 A 
BRANCH  16  21
ATOM     21  N   UNL A   1      35.004  31.590  29.409  1.00  0.00    -0.323 N 
ATOM     22  O   UNL A   1      36.100  29.627  28.795  1.00  0.00    -0.271 OA
ATOM     23  C   UNL A   1      35.268  30.504  28.594  1.00  0.00     0.262 C 
ATOM     24  H   UNL A   1      34.215  32.129  29.172  1.00  0.00     0.170 HD
BRANCH  23  25
ATOM     25  C   UNL A   1      34.413  30.499  27.328  1.00  0.00     0.329 C 
BRANCH  25  26
ATOM     26  O   UNL A   1      34.657  29.358  26.503  1.00  0.00    -0.483 OA
BRANCH  26  27
ATOM     27  C   UNL A   1      33.481  28.683  26.285  1.00  0.00     0.134 A 
ATOM     28  C   UNL A   1      32.725  28.278  27.390  1.00  0.00     0.047 A 
ATOM     29  C   UNL A   1      33.049  28.376  24.991  1.00  0.00     0.060 A 
ATOM     30  C   UNL A   1      31.500  27.639  27.199  1.00  0.00     0.004 A 
ATOM     31  C   UNL A   1      31.812  27.756  24.803  1.00  0.00     0.019 A 
ATOM     32  Br  UNL A   1      34.100  28.743  23.457  1.00  0.00    -0.047 Br
ATOM     33  C   UNL A   1      31.036  27.397  25.906  1.00  0.00     0.001 A 
ENDBRANCH  26  27
ENDBRANCH  25  26
ENDBRANCH  23  25
ENDBRANCH  16  21
ENDBRANCH  12  15
ENDBRANCH   6  11
ENDBRANCH   3   5
ENDBRANCH   2   3
ENDBRANCH   1   2
BRANCH   1  34
ATOM     34  C   UNL A   1      40.676  24.939  27.970  1.00  0.00     0.202 C 
BRANCH  34  35
ATOM     35  O   UNL A   1      41.882  24.320  27.548  1.00  0.00    -0.374 OA
BRANCH  35  36
ATOM     36  C   UNL A   1      41.919  23.636  26.302  1.00  0.00     0.202 C 
BRANCH  36  37
ATOM     37  C   UNL A   1      43.223  23.602  25.493  1.00  0.00     0.261 C 
BRANCH  37  38
ATOM     38  O   UNL A   1      43.515  24.800  24.754  1.00  0.00    -0.460 OA
BRANCH  38  39
ATOM     39  C   UNL A   1      44.718  25.349  25.049  1.00  0.00     0.338 C 
ATOM     40  O   UNL A   1      45.821  24.965  24.685  1.00  0.00    -0.246 OA
BRANCH  39  41
ATOM     41  C   UNL A   1      44.552  26.604  25.801  1.00  0.00     0.060 A 
ATOM     42  C   UNL A   1      45.656  27.090  26.513  1.00  0.00     0.016 A 
ATOM     43  C   UNL A   1      43.297  27.198  25.939  1.00  0.00     0.016 A 
ATOM     44  C   UNL A   1      45.497  28.142  27.412  1.00  0.00     0.010 A 
ATOM     45  C   UNL A   1      43.137  28.247  26.851  1.00  0.00     0.010 A 
ATOM     46  C   UNL A   1      44.226  28.695  27.620  1.00  0.00    -0.014 A 
BRANCH  46  47
ATOM     47  C   UNL A   1      44.012  29.627  28.754  1.00  0.00     0.031 A 
ATOM     48  C   UNL A   1      43.803  29.063  30.132  1.00  0.00     0.074 A 
ATOM     49  C   UNL A   1      44.040  30.958  28.566  1.00  0.00     0.049 A 
ATOM     50  N   UNL A   1      43.558  29.686  31.257  1.00  0.00    -0.248 NA
ATOM     51  C   UNL A   1      43.883  27.599  30.262  1.00  0.00     0.031 C 
ATOM     52  C   UNL A   1      44.279  31.624  27.288  1.00  0.00     0.029 A 
ATOM     53  N   UNL A   1      43.857  31.986  29.456  1.00  0.00    -0.354 N 
ATOM     54  C   UNL A   1      43.459  28.695  32.226  1.00  0.00     0.074 A 
ATOM     55  C   UNL A   1      43.640  27.426  31.553  1.00  0.00     0.031 C 
ATOM     56  C   UNL A   1      44.209  32.954  27.472  1.00  0.00     0.029 A 
ATOM     57  C   UNL A   1      43.895  33.229  28.873  1.00  0.00     0.049 A 
ATOM     58  H   UNL A   1      43.713  31.847  30.419  1.00  0.00     0.167 HD
ATOM     59  C   UNL A   1      43.246  28.832  33.555  1.00  0.00     0.037 A 
ATOM     60  C   UNL A   1      43.676  34.445  29.409  1.00  0.00     0.037 A 
ATOM     61  C   UNL A   1      43.060  30.091  34.225  1.00  0.00     0.049 A 
ATOM     62  C   UNL A   1      43.370  34.563  30.880  1.00  0.00     0.074 A 
ATOM     63  C   UNL A   1      42.827  30.330  35.568  1.00  0.00     0.029 A 
ATOM     64  N   UNL A   1      43.087  31.327  33.597  1.00  0.00    -0.354 N 
ATOM     65  N   UNL A   1      43.287  33.622  31.787  1.00  0.00    -0.248 NA
ATOM     66  C   UNL A   1      43.135  35.919  31.402  1.00  0.00     0.031 C 
ATOM     67  C   UNL A   1      42.679  31.709  35.748  1.00  0.00     0.029 A 
ATOM     68  C   UNL A   1      42.861  32.331  34.524  1.00  0.00     0.049 A 
ATOM     69  H   UNL A   1      43.243  31.469  32.637  1.00  0.00     0.167 HD
ATOM     70  C   UNL A   1      43.017  34.268  32.986  1.00  0.00     0.074 A 
ATOM     71  C   UNL A   1      42.962  35.685  32.694  1.00  0.00     0.031 C 
ATOM     72  C   UNL A   1      42.827  33.737  34.218  1.00  0.00     0.037 A 
BRANCH  59  73
ATOM     73  C   UNL A   1      43.194  27.582  34.381  1.00  0.00     0.064 A 
ATOM     74  C   UNL A   1      41.986  26.905  34.608  1.00  0.00     0.173 A 
ATOM     75  C   UNL A   1      44.370  27.023  34.903  1.00  0.00     0.173 A 
ATOM     76  F   UNL A   1      40.834  27.408  34.140  1.00  0.00    -0.203 F 
ATOM     77  C   UNL A   1      41.957  25.720  35.338  1.00  0.00     0.198 A 
ATOM     78  C   UNL A   1      44.338  25.826  35.614  1.00  0.00     0.198 A 
ATOM     79  F   UNL A   1      45.550  27.630  34.711  1.00  0.00    -0.203 F 
ATOM     80  F   UNL A   1      40.787  25.106  35.567  1.00  0.00    -0.200 F 
ATOM     81  C   UNL A   1      43.133  25.178  35.833  1.00  0.00     0.200 A 
ATOM     82  F   UNL A   1      45.478  25.298  36.083  1.00  0.00    -0.200 F 
ATOM     83  F   UNL A   1      43.104  24.030  36.526  1.00  0.00    -0.200 F 
ENDBRANCH  59  73
BRANCH  60  84
ATOM     84  C   UNL A   1      43.710  35.655  28.547  1.00  0.00     0.064 A 
ATOM     85  C   UNL A   1      44.915  36.317  28.272  1.00  0.00     0.173 A 
ATOM     86  C   UNL A   1      42.531  36.195  28.012  1.00  0.00     0.173 A 
ATOM     87  F   UNL A   1      46.065  35.852  28.783  1.00  0.00    -0.203 F 
ATOM     88  C   UNL A   1      44.936  37.486  27.515  1.00  0.00     0.198 A 
ATOM     89  C   UNL A   1      42.557  37.349  27.233  1.00  0.00     0.198 A 
ATOM     90  F   UNL A   1      41.353  35.599  28.246  1.00  0.00    -0.203 F 
ATOM     91  F   UNL A   1      46.095  38.128  27.311  1.00  0.00    -0.200 F 
ATOM     92  C   UNL A   1      43.758  38.000  26.992  1.00  0.00     0.200 A 
ATOM     93  F   UNL A   1      41.418  37.834  26.720  1.00  0.00    -0.200 F 
ATOM     94  F   UNL A   1      43.779  39.126  26.268  1.00  0.00    -0.200 F 
ENDBRANCH  60  84
BRANCH  72  95
ATOM     95  C   UNL A   1      42.585  34.690  35.351  1.00  0.00     0.064 A 
ATOM     96  C   UNL A   1      43.640  35.196  36.124  1.00  0.00     0.173 A 
ATOM     97  C   UNL A   1      41.285  35.135  35.639  1.00  0.00     0.173 A 
ATOM     98  F   UNL A   1      44.898  34.790  35.895  1.00  0.00    -0.203 F 
ATOM     99  C   UNL A   1      43.400  36.096  37.158  1.00  0.00     0.198 A 
ATOM    100  C   UNL A   1      41.052  36.054  36.659  1.00  0.00     0.198 A 
ATOM    101  F   UNL A   1      40.243  34.685  34.925  1.00  0.00    -0.203 F 
ATOM    102  F   UNL A   1      44.419  36.536  37.910  1.00  0.00    -0.200 F 
ATOM    103  C   UNL A   1      42.108  36.530  37.420  1.00  0.00     0.200 A 
ATOM    104  F   UNL A   1      39.806  36.480  36.903  1.00  0.00    -0.200 F 
ATOM    105  F   UNL A   1      41.881  37.400  38.414  1.00  0.00    -0.200 F 
ENDBRANCH  72  95
ENDBRANCH  46  47
ENDBRANCH  39  41
ENDBRANCH  38  39
ENDBRANCH  37  38
ENDBRANCH  36  37
ENDBRANCH  35  36
ENDBRANCH  34  35
ENDBRANCH   1  34
TORSDOF 20
ENDMDL
