MODEL 1
REMARK VINA RESULT:     -11.8      0.000      0.000
REMARK SMILES O=C(Cn1nc(-c2ccco2)ccc1=O)OCCOCCOC(=O)c1ccc(-c2c3nc(c(-c4c(F)c(F)c(F)c(F)c4F)c4ccc([nH]4)c(-c4c(F)c(F)c(F)c(F)c4F)c4nc(c(-c5c(F)c(F)c(F)c(F)c5F)c5ccc2[nH]5)C=C4)C=C3)cc1
REMARK SMILES IDX 19 1 18 2 17 3 16 4 2 5 1 6 3 7 4 8 5 9 14 10 6 11 13 12
REMARK SMILES IDX 15 13 12 14 7 15 8 16 11 17 9 18 10 19 20 20 21 21 22 22
REMARK SMILES IDX 23 23 24 24 25 25 26 26 87 27 27 28 86 29 28 30 29 31 30 32
REMARK SMILES IDX 80 33 31 34 85 35 79 36 81 37 32 38 84 39 78 40 77 41 33 43
REMARK SMILES IDX 65 44 45 45 64 46 46 47 49 48 63 49 82 50 47 51 48 52 62 54
REMARK SMILES IDX 83 55 50 56 34 57 35 58 43 59 36 60 37 61 41 62 44 63 38 64
REMARK SMILES IDX 39 65 42 66 40 67 66 68 67 69 75 70 68 71 69 72 73 73 76 74
REMARK SMILES IDX 70 75 71 76 74 77 72 78 51 79 52 80 60 81 53 82 54 83 58 84
REMARK SMILES IDX 61 85 55 86 56 87 59 88 57 89
REMARK H PARENT 81 42 49 53
REMARK Flexibility Score: inf
ROOT
ATOM      1  O   UNL A   1      31.816  28.060  26.257  1.00  0.00    -0.374 OA
ENDROOT
BRANCH   1   2
ATOM      2  C   UNL A   1      31.467  26.831  25.646  1.00  0.00     0.202 C 
BRANCH   2   3
ATOM      3  C   UNL A   1      32.125  25.557  26.170  1.00  0.00     0.261 C 
BRANCH   3   4
ATOM      4  O   UNL A   1      31.303  24.713  26.979  1.00  0.00    -0.462 OA
BRANCH   4   5
ATOM      5  C   UNL A   1      30.748  23.530  26.633  1.00  0.00     0.328 C 
ATOM      6  O   UNL A   1      30.040  22.958  27.470  1.00  0.00    -0.250 OA
BRANCH   5   7
ATOM      7  C   UNL A   1      31.131  22.775  25.364  1.00  0.00     0.270 C 
BRANCH   7   8
ATOM      8  N   UNL A   1      32.357  22.002  25.236  1.00  0.00    -0.218 N 
ATOM      9  N   UNL A   1      32.192  20.626  25.339  1.00  0.00    -0.166 NA
ATOM     10  C   UNL A   1      33.436  22.532  24.534  1.00  0.00     0.267 A 
ATOM     11  C   UNL A   1      33.236  19.884  25.122  1.00  0.00     0.126 A 
ATOM     12  C   UNL A   1      34.669  21.712  24.600  1.00  0.00     0.076 A 
ATOM     13  O   UNL A   1      33.474  23.649  24.031  1.00  0.00    -0.268 OA
ATOM     14  C   UNL A   1      34.599  20.426  24.945  1.00  0.00     0.040 A 
BRANCH  11  15
ATOM     15  C   UNL A   1      33.050  18.471  24.915  1.00  0.00     0.154 A 
ATOM     16  C   UNL A   1      33.514  17.663  23.894  1.00  0.00     0.052 A 
ATOM     17  O   UNL A   1      32.435  17.706  25.865  1.00  0.00    -0.463 OA
ATOM     18  C   UNL A   1      33.187  16.336  24.248  1.00  0.00     0.043 A 
ATOM     19  C   UNL A   1      32.502  16.417  25.437  1.00  0.00     0.196 A 
ENDBRANCH  11  15
ENDBRANCH   7   8
ENDBRANCH   5   7
ENDBRANCH   4   5
ENDBRANCH   3   4
ENDBRANCH   2   3
ENDBRANCH   1   2
BRANCH   1  20
ATOM     20  C   UNL A   1      32.144  29.170  25.416  1.00  0.00     0.202 C 
BRANCH  20  21
ATOM     21  C   UNL A   1      31.855  30.588  25.923  1.00  0.00     0.261 C 
BRANCH  21  22
ATOM     22  O   UNL A   1      32.428  30.814  27.222  1.00  0.00    -0.460 OA
BRANCH  22  23
ATOM     23  C   UNL A   1      33.195  31.920  27.348  1.00  0.00     0.338 C 
ATOM     24  O   UNL A   1      32.838  33.087  27.287  1.00  0.00    -0.246 OA
BRANCH  23  25
ATOM     25  C   UNL A   1      34.531  31.508  27.812  1.00  0.00     0.060 A 
ATOM     26  C   UNL A   1      35.542  32.451  27.983  1.00  0.00     0.016 A 
ATOM     27  C   UNL A   1      34.752  30.156  28.111  1.00  0.00     0.016 A 
ATOM     28  C   UNL A   1      36.771  32.043  28.495  1.00  0.00     0.010 A 
ATOM     29  C   UNL A   1      35.982  29.748  28.624  1.00  0.00     0.010 A 
ATOM     30  C   UNL A   1      36.988  30.697  28.850  1.00  0.00    -0.014 A 
BRANCH  30  31
ATOM     31  C   UNL A   1      38.195  30.344  29.632  1.00  0.00     0.031 A 
ATOM     32  C   UNL A   1      38.407  30.840  31.026  1.00  0.00     0.074 A 
ATOM     33  C   UNL A   1      39.097  29.534  29.046  1.00  0.00     0.049 A 
ATOM     34  N   UNL A   1      39.348  30.510  31.874  1.00  0.00    -0.248 NA
ATOM     35  C   UNL A   1      37.454  31.834  31.535  1.00  0.00     0.031 C 
ATOM     36  C   UNL A   1      38.999  29.034  27.672  1.00  0.00     0.029 A 
ATOM     37  N   UNL A   1      40.248  28.968  29.526  1.00  0.00    -0.354 N 
ATOM     38  C   UNL A   1      39.085  31.232  33.029  1.00  0.00     0.074 A 
ATOM     39  C   UNL A   1      37.931  32.062  32.753  1.00  0.00     0.031 C 
ATOM     40  C   UNL A   1      40.017  28.194  27.438  1.00  0.00     0.029 A 
ATOM     41  C   UNL A   1      40.856  28.123  28.630  1.00  0.00     0.049 A 
ATOM     42  H   UNL A   1      40.605  29.150  30.426  1.00  0.00     0.167 HD
ATOM     43  C   UNL A   1      39.740  31.179  34.214  1.00  0.00     0.037 A 
ATOM     44  C   UNL A   1      41.959  27.363  28.759  1.00  0.00     0.037 A 
ATOM     45  C   UNL A   1      40.897  30.354  34.465  1.00  0.00     0.049 A 
ATOM     46  C   UNL A   1      42.687  27.358  30.074  1.00  0.00     0.074 A 
ATOM     47  C   UNL A   1      41.611  30.209  35.641  1.00  0.00     0.029 A 
ATOM     48  N   UNL A   1      41.515  29.545  33.521  1.00  0.00    -0.354 N 
ATOM     49  N   UNL A   1      42.385  27.982  31.186  1.00  0.00    -0.248 NA
ATOM     50  C   UNL A   1      43.905  26.541  30.154  1.00  0.00     0.031 C 
ATOM     51  C   UNL A   1      42.694  29.360  35.395  1.00  0.00     0.029 A 
ATOM     52  C   UNL A   1      42.620  28.924  34.081  1.00  0.00     0.049 A 
ATOM     53  H   UNL A   1      41.213  29.429  32.591  1.00  0.00     0.167 HD
ATOM     54  C   UNL A   1      43.359  27.617  32.104  1.00  0.00     0.074 A 
ATOM     55  C   UNL A   1      44.252  26.701  31.424  1.00  0.00     0.031 C 
ATOM     56  C   UNL A   1      43.500  28.010  33.393  1.00  0.00     0.037 A 
BRANCH  43  57
ATOM     57  C   UNL A   1      39.222  32.019  35.346  1.00  0.00     0.064 A 
ATOM     58  C   UNL A   1      38.372  31.481  36.323  1.00  0.00     0.173 A 
ATOM     59  C   UNL A   1      39.658  33.343  35.514  1.00  0.00     0.173 A 
ATOM     60  F   UNL A   1      37.924  30.222  36.209  1.00  0.00    -0.203 F 
ATOM     61  C   UNL A   1      37.969  32.239  37.420  1.00  0.00     0.198 A 
ATOM     62  C   UNL A   1      39.277  34.088  36.627  1.00  0.00     0.198 A 
ATOM     63  F   UNL A   1      40.481  33.904  34.614  1.00  0.00    -0.203 F 
ATOM     64  F   UNL A   1      37.138  31.711  38.329  1.00  0.00    -0.200 F 
ATOM     65  C   UNL A   1      38.431  33.537  37.577  1.00  0.00     0.200 A 
ATOM     66  F   UNL A   1      39.740  35.337  36.786  1.00  0.00    -0.200 F 
ATOM     67  F   UNL A   1      38.062  34.257  38.646  1.00  0.00    -0.200 F 
ENDBRANCH  43  57
BRANCH  44  68
ATOM     68  C   UNL A   1      42.405  26.518  27.621  1.00  0.00     0.064 A 
ATOM     69  C   UNL A   1      43.392  26.966  26.734  1.00  0.00     0.173 A 
ATOM     70  C   UNL A   1      41.878  25.233  27.416  1.00  0.00     0.173 A 
ATOM     71  F   UNL A   1      43.917  28.192  26.879  1.00  0.00    -0.203 F 
ATOM     72  C   UNL A   1      43.826  26.167  25.677  1.00  0.00     0.198 A 
ATOM     73  C   UNL A   1      42.336  24.424  26.380  1.00  0.00     0.198 A 
ATOM     74  F   UNL A   1      40.936  24.754  28.243  1.00  0.00    -0.203 F 
ATOM     75  F   UNL A   1      44.745  26.635  24.821  1.00  0.00    -0.200 F 
ATOM     76  C   UNL A   1      43.305  24.894  25.507  1.00  0.00     0.200 A 
ATOM     77  F   UNL A   1      41.843  23.187  26.232  1.00  0.00    -0.200 F 
ATOM     78  F   UNL A   1      43.734  24.121  24.500  1.00  0.00    -0.200 F 
ENDBRANCH  44  68
BRANCH  56  79
ATOM     79  C   UNL A   1      44.655  27.446  34.171  1.00  0.00     0.064 A 
ATOM     80  C   UNL A   1      45.862  28.147  34.302  1.00  0.00     0.173 A 
ATOM     81  C   UNL A   1      44.522  26.231  34.859  1.00  0.00     0.173 A 
ATOM     82  F   UNL A   1      46.044  29.306  33.653  1.00  0.00    -0.203 F 
ATOM     83  C   UNL A   1      46.898  27.646  35.085  1.00  0.00     0.198 A 
ATOM     84  C   UNL A   1      45.548  25.749  35.668  1.00  0.00     0.198 A 
ATOM     85  F   UNL A   1      43.385  25.523  34.772  1.00  0.00    -0.203 F 
ATOM     86  F   UNL A   1      48.057  28.316  35.169  1.00  0.00    -0.200 F 
ATOM     87  C   UNL A   1      46.737  26.455  35.777  1.00  0.00     0.200 A 
ATOM     88  F   UNL A   1      45.382  24.607  36.350  1.00  0.00    -0.200 F 
ATOM     89  F   UNL A   1      47.726  25.987  36.550  1.00  0.00    -0.200 F 
ENDBRANCH  56  79
ENDBRANCH  30  31
ENDBRANCH  23  25
ENDBRANCH  22  23
ENDBRANCH  21  22
ENDBRANCH  20  21
ENDBRANCH   1  20
TORSDOF 16
ENDMDL
MODEL 2
REMARK VINA RESULT:     -11.4      1.033      2.269
REMARK SMILES O=C(Cn1nc(-c2ccco2)ccc1=O)OCCOCCOC(=O)c1ccc(-c2c3nc(c(-c4c(F)c(F)c(F)c(F)c4F)c4ccc([nH]4)c(-c4c(F)c(F)c(F)c(F)c4F)c4nc(c(-c5c(F)c(F)c(F)c(F)c5F)c5ccc2[nH]5)C=C4)C=C3)cc1
REMARK SMILES IDX 19 1 18 2 17 3 16 4 2 5 1 6 3 7 4 8 5 9 14 10 6 11 13 12
REMARK SMILES IDX 15 13 12 14 7 15 8 16 11 17 9 18 10 19 20 20 21 21 22 22
REMARK SMILES IDX 23 23 24 24 25 25 26 26 87 27 27 28 86 29 28 30 29 31 30 32
REMARK SMILES IDX 80 33 31 34 85 35 79 36 81 37 32 38 84 39 78 40 77 41 33 43
REMARK SMILES IDX 65 44 45 45 64 46 46 47 49 48 63 49 82 50 47 51 48 52 62 54
REMARK SMILES IDX 83 55 50 56 34 57 35 58 43 59 36 60 37 61 41 62 44 63 38 64
REMARK SMILES IDX 39 65 42 66 40 67 66 68 67 69 75 70 68 71 69 72 73 73 76 74
REMARK SMILES IDX 70 75 71 76 74 77 72 78 51 79 52 80 60 81 53 82 54 83 58 84
REMARK SMILES IDX 61 85 55 86 56 87 59 88 57 89
REMARK H PARENT 81 42 49 53
REMARK Flexibility Score: inf
ROOT
ATOM      1  O   UNL A   1      32.280  27.722  25.822  1.00  0.00    -0.374 OA
ENDROOT
BRANCH   1   2
ATOM      2  C   UNL A   1      33.097  26.595  26.083  1.00  0.00     0.202 C 
BRANCH   2   3
ATOM      3  C   UNL A   1      33.155  25.492  25.029  1.00  0.00     0.261 C 
BRANCH   3   4
ATOM      4  O   UNL A   1      32.485  24.273  25.358  1.00  0.00    -0.462 OA
BRANCH   4   5
ATOM      5  C   UNL A   1      32.412  23.676  26.569  1.00  0.00     0.328 C 
ATOM      6  O   UNL A   1      31.401  23.880  27.251  1.00  0.00    -0.250 OA
BRANCH   5   7
ATOM      7  C   UNL A   1      33.596  22.962  27.213  1.00  0.00     0.270 C 
BRANCH   7   8
ATOM      8  N   UNL A   1      34.503  22.097  26.475  1.00  0.00    -0.218 N 
ATOM      9  N   UNL A   1      33.927  20.935  25.979  1.00  0.00    -0.166 NA
ATOM     10  C   UNL A   1      35.630  22.641  25.865  1.00  0.00     0.267 A 
ATOM     11  C   UNL A   1      34.664  20.182  25.218  1.00  0.00     0.126 A 
ATOM     12  C   UNL A   1      36.545  21.640  25.270  1.00  0.00     0.076 A 
ATOM     13  O   UNL A   1      35.971  23.817  25.928  1.00  0.00    -0.268 OA
ATOM     14  C   UNL A   1      36.107  20.409  25.001  1.00  0.00     0.040 A 
BRANCH  11  15
ATOM     15  C   UNL A   1      34.029  19.148  24.443  1.00  0.00     0.154 A 
ATOM     16  C   UNL A   1      34.436  17.847  24.211  1.00  0.00     0.052 A 
ATOM     17  O   UNL A   1      32.787  19.344  23.910  1.00  0.00    -0.463 OA
ATOM     18  C   UNL A   1      33.382  17.209  23.523  1.00  0.00     0.043 A 
ATOM     19  C   UNL A   1      32.416  18.170  23.332  1.00  0.00     0.196 A 
ENDBRANCH  11  15
ENDBRANCH   7   8
ENDBRANCH   5   7
ENDBRANCH   4   5
ENDBRANCH   3   4
ENDBRANCH   2   3
ENDBRANCH   1   2
BRANCH   1  20
ATOM     20  C   UNL A   1      31.776  28.469  26.934  1.00  0.00     0.202 C 
BRANCH  20  21
ATOM     21  C   UNL A   1      31.827  30.000  26.875  1.00  0.00     0.261 C 
BRANCH  21  22
ATOM     22  O   UNL A   1      33.132  30.473  26.500  1.00  0.00    -0.460 OA
BRANCH  22  23
ATOM     23  C   UNL A   1      33.634  31.482  27.248  1.00  0.00     0.338 C 
ATOM     24  O   UNL A   1      33.050  32.478  27.646  1.00  0.00    -0.246 OA
BRANCH  23  25
ATOM     25  C   UNL A   1      34.972  31.087  27.720  1.00  0.00     0.060 A 
ATOM     26  C   UNL A   1      35.936  32.053  28.004  1.00  0.00     0.016 A 
ATOM     27  C   UNL A   1      35.244  29.724  27.911  1.00  0.00     0.016 A 
ATOM     28  C   UNL A   1      37.166  31.653  28.521  1.00  0.00     0.010 A 
ATOM     29  C   UNL A   1      36.474  29.325  28.429  1.00  0.00     0.010 A 
ATOM     30  C   UNL A   1      37.431  30.292  28.768  1.00  0.00    -0.014 A 
BRANCH  30  31
ATOM     31  C   UNL A   1      38.627  29.923  29.558  1.00  0.00     0.031 A 
ATOM     32  C   UNL A   1      38.862  30.457  30.934  1.00  0.00     0.074 A 
ATOM     33  C   UNL A   1      39.498  29.062  28.997  1.00  0.00     0.049 A 
ATOM     34  N   UNL A   1      39.795  30.123  31.791  1.00  0.00    -0.248 NA
ATOM     35  C   UNL A   1      37.947  31.501  31.413  1.00  0.00     0.031 C 
ATOM     36  C   UNL A   1      39.377  28.520  27.641  1.00  0.00     0.029 A 
ATOM     37  N   UNL A   1      40.631  28.473  29.493  1.00  0.00    -0.354 N 
ATOM     38  C   UNL A   1      39.562  30.892  32.921  1.00  0.00     0.074 A 
ATOM     39  C   UNL A   1      38.436  31.752  32.621  1.00  0.00     0.031 C 
ATOM     40  C   UNL A   1      40.364  27.638  27.433  1.00  0.00     0.029 A 
ATOM     41  C   UNL A   1      41.205  27.577  28.624  1.00  0.00     0.049 A 
ATOM     42  H   UNL A   1      40.998  28.672  30.385  1.00  0.00     0.167 HD
ATOM     43  C   UNL A   1      40.219  30.855  34.105  1.00  0.00     0.037 A 
ATOM     44  C   UNL A   1      42.281  26.784  28.776  1.00  0.00     0.037 A 
ATOM     45  C   UNL A   1      41.347  30.000  34.380  1.00  0.00     0.049 A 
ATOM     46  C   UNL A   1      43.014  26.797  30.087  1.00  0.00     0.074 A 
ATOM     47  C   UNL A   1      42.061  29.869  35.559  1.00  0.00     0.029 A 
ATOM     48  N   UNL A   1      41.933  29.138  33.462  1.00  0.00    -0.354 N 
ATOM     49  N   UNL A   1      42.738  27.468  31.179  1.00  0.00    -0.248 NA
ATOM     50  C   UNL A   1      44.203  25.941  30.191  1.00  0.00     0.031 C 
ATOM     51  C   UNL A   1      43.112  28.975  35.338  1.00  0.00     0.029 A 
ATOM     52  C   UNL A   1      43.018  28.498  34.040  1.00  0.00     0.049 A 
ATOM     53  H   UNL A   1      41.624  29.002  32.538  1.00  0.00     0.167 HD
ATOM     54  C   UNL A   1      43.702  27.100  32.106  1.00  0.00     0.074 A 
ATOM     55  C   UNL A   1      44.560  26.132  31.454  1.00  0.00     0.031 C 
ATOM     56  C   UNL A   1      43.863  27.531  33.381  1.00  0.00     0.037 A 
BRANCH  43  57
ATOM     57  C   UNL A   1      39.736  31.751  35.209  1.00  0.00     0.064 A 
ATOM     58  C   UNL A   1      40.200  33.068  35.336  1.00  0.00     0.173 A 
ATOM     59  C   UNL A   1      38.727  31.326  36.088  1.00  0.00     0.173 A 
ATOM     60  F   UNL A   1      41.166  33.524  34.524  1.00  0.00    -0.203 F 
ATOM     61  C   UNL A   1      39.681  33.923  36.306  1.00  0.00     0.198 A 
ATOM     62  C   UNL A   1      38.189  32.191  37.037  1.00  0.00     0.198 A 
ATOM     63  F   UNL A   1      38.238  30.079  36.004  1.00  0.00    -0.203 F 
ATOM     64  F   UNL A   1      40.157  35.170  36.422  1.00  0.00    -0.200 F 
ATOM     65  C   UNL A   1      38.668  33.488  37.147  1.00  0.00     0.200 A 
ATOM     66  F   UNL A   1      37.197  31.774  37.837  1.00  0.00    -0.200 F 
ATOM     67  F   UNL A   1      38.153  34.319  38.064  1.00  0.00    -0.200 F 
ENDBRANCH  43  57
BRANCH  44  68
ATOM     68  C   UNL A   1      42.692  25.886  27.665  1.00  0.00     0.064 A 
ATOM     69  C   UNL A   1      42.098  24.628  27.498  1.00  0.00     0.173 A 
ATOM     70  C   UNL A   1      43.662  26.278  26.730  1.00  0.00     0.173 A 
ATOM     71  F   UNL A   1      41.176  24.201  28.373  1.00  0.00    -0.203 F 
ATOM     72  C   UNL A   1      42.466  23.792  26.445  1.00  0.00     0.198 A 
ATOM     73  C   UNL A   1      44.005  25.456  25.660  1.00  0.00     0.198 A 
ATOM     74  F   UNL A   1      44.255  27.477  26.841  1.00  0.00    -0.203 F 
ATOM     75  F   UNL A   1      41.908  22.579  26.330  1.00  0.00    -0.200 F 
ATOM     76  C   UNL A   1      43.412  24.211  25.523  1.00  0.00     0.200 A 
ATOM     77  F   UNL A   1      44.906  25.873  24.760  1.00  0.00    -0.200 F 
ATOM     78  F   UNL A   1      43.755  23.412  24.502  1.00  0.00    -0.200 F 
ENDBRANCH  44  68
BRANCH  56  79
ATOM     79  C   UNL A   1      45.000  26.953  34.173  1.00  0.00     0.064 A 
ATOM     80  C   UNL A   1      44.853  25.766  34.906  1.00  0.00     0.173 A 
ATOM     81  C   UNL A   1      46.270  27.547  34.132  1.00  0.00     0.173 A 
ATOM     82  F   UNL A   1      43.657  25.167  34.989  1.00  0.00    -0.203 F 
ATOM     83  C   UNL A   1      45.935  25.202  35.577  1.00  0.00     0.198 A 
ATOM     84  C   UNL A   1      47.357  26.963  34.777  1.00  0.00     0.198 A 
ATOM     85  F   UNL A   1      46.466  28.680  33.440  1.00  0.00    -0.203 F 
ATOM     86  F   UNL A   1      45.764  24.086  36.300  1.00  0.00    -0.200 F 
ATOM     87  C   UNL A   1      47.187  25.793  35.502  1.00  0.00     0.200 A 
ATOM     88  F   UNL A   1      48.570  27.526  34.687  1.00  0.00    -0.200 F 
ATOM     89  F   UNL A   1      48.232  25.235  36.128  1.00  0.00    -0.200 F 
ENDBRANCH  56  79
ENDBRANCH  30  31
ENDBRANCH  23  25
ENDBRANCH  22  23
ENDBRANCH  21  22
ENDBRANCH  20  21
ENDBRANCH   1  20
TORSDOF 16
ENDMDL
MODEL 3
REMARK VINA RESULT:     -11.4      4.299     10.159
REMARK SMILES O=C(Cn1nc(-c2ccco2)ccc1=O)OCCOCCOC(=O)c1ccc(-c2c3nc(c(-c4c(F)c(F)c(F)c(F)c4F)c4ccc([nH]4)c(-c4c(F)c(F)c(F)c(F)c4F)c4nc(c(-c5c(F)c(F)c(F)c(F)c5F)c5ccc2[nH]5)C=C4)C=C3)cc1
REMARK SMILES IDX 19 1 18 2 17 3 16 4 2 5 1 6 3 7 4 8 5 9 14 10 6 11 13 12
REMARK SMILES IDX 15 13 12 14 7 15 8 16 11 17 9 18 10 19 20 20 21 21 22 22
REMARK SMILES IDX 23 23 24 24 25 25 26 26 87 27 27 28 86 29 28 30 29 31 30 32
REMARK SMILES IDX 80 33 31 34 85 35 79 36 81 37 32 38 84 39 78 40 77 41 33 43
REMARK SMILES IDX 65 44 45 45 64 46 46 47 49 48 63 49 82 50 47 51 48 52 62 54
REMARK SMILES IDX 83 55 50 56 34 57 35 58 43 59 36 60 37 61 41 62 44 63 38 64
REMARK SMILES IDX 39 65 42 66 40 67 66 68 67 69 75 70 68 71 69 72 73 73 76 74
REMARK SMILES IDX 70 75 71 76 74 77 72 78 51 79 52 80 60 81 53 82 54 83 58 84
REMARK SMILES IDX 61 85 55 86 56 87 59 88 57 89
REMARK H PARENT 81 42 49 53
REMARK Flexibility Score: inf
ROOT
ATOM      1  O   UNL A   1      35.431  23.064  23.795  1.00  0.00    -0.374 OA
ENDROOT
BRANCH   1   2
ATOM      2  C   UNL A   1      35.173  24.011  24.816  1.00  0.00     0.202 C 
BRANCH   2   3
ATOM      3  C   UNL A   1      33.977  23.768  25.733  1.00  0.00     0.261 C 
BRANCH   3   4
ATOM      4  O   UNL A   1      33.220  24.925  26.098  1.00  0.00    -0.462 OA
BRANCH   4   5
ATOM      5  C   UNL A   1      31.937  24.967  26.522  1.00  0.00     0.328 C 
ATOM      6  O   UNL A   1      31.533  24.035  27.227  1.00  0.00    -0.250 OA
BRANCH   5   7
ATOM      7  C   UNL A   1      30.923  25.976  25.994  1.00  0.00     0.270 C 
BRANCH   7   8
ATOM      8  N   UNL A   1      31.224  27.387  25.807  1.00  0.00    -0.218 N 
ATOM      9  N   UNL A   1      30.729  27.939  24.633  1.00  0.00    -0.166 NA
ATOM     10  C   UNL A   1      31.470  28.192  26.916  1.00  0.00     0.267 A 
ATOM     11  C   UNL A   1      30.874  29.219  24.469  1.00  0.00     0.126 A 
ATOM     12  C   UNL A   1      31.906  29.569  26.586  1.00  0.00     0.076 A 
ATOM     13  O   UNL A   1      31.501  27.805  28.078  1.00  0.00    -0.268 OA
ATOM     14  C   UNL A   1      31.676  30.070  25.371  1.00  0.00     0.040 A 
BRANCH  11  15
ATOM     15  C   UNL A   1      30.118  29.875  23.433  1.00  0.00     0.154 A 
ATOM     16  C   UNL A   1      30.130  29.663  22.067  1.00  0.00     0.052 A 
ATOM     17  O   UNL A   1      29.143  30.776  23.751  1.00  0.00    -0.463 OA
ATOM     18  C   UNL A   1      29.094  30.455  21.526  1.00  0.00     0.043 A 
ATOM     19  C   UNL A   1      28.546  31.140  22.585  1.00  0.00     0.196 A 
ENDBRANCH  11  15
ENDBRANCH   7   8
ENDBRANCH   5   7
ENDBRANCH   4   5
ENDBRANCH   3   4
ENDBRANCH   2   3
ENDBRANCH   1   2
BRANCH   1  20
ATOM     20  C   UNL A   1      36.740  22.492  23.712  1.00  0.00     0.202 C 
BRANCH  20  21
ATOM     21  C   UNL A   1      37.078  21.295  24.608  1.00  0.00     0.261 C 
BRANCH  21  22
ATOM     22  O   UNL A   1      37.565  21.715  25.894  1.00  0.00    -0.460 OA
BRANCH  22  23
ATOM     23  C   UNL A   1      38.884  21.524  26.120  1.00  0.00     0.338 C 
ATOM     24  O   UNL A   1      39.581  20.599  25.733  1.00  0.00    -0.246 OA
BRANCH  23  25
ATOM     25  C   UNL A   1      39.432  22.747  26.731  1.00  0.00     0.060 A 
ATOM     26  C   UNL A   1      40.533  22.681  27.582  1.00  0.00     0.016 A 
ATOM     27  C   UNL A   1      38.845  23.980  26.411  1.00  0.00     0.016 A 
ATOM     28  C   UNL A   1      41.075  23.862  28.084  1.00  0.00     0.010 A 
ATOM     29  C   UNL A   1      39.389  25.161  26.913  1.00  0.00     0.010 A 
ATOM     30  C   UNL A   1      40.529  25.109  27.727  1.00  0.00    -0.014 A 
BRANCH  30  31
ATOM     31  C   UNL A   1      41.278  26.344  28.053  1.00  0.00     0.031 A 
ATOM     32  C   UNL A   1      42.685  26.559  27.597  1.00  0.00     0.074 A 
ATOM     33  C   UNL A   1      40.635  27.288  28.766  1.00  0.00     0.049 A 
ATOM     34  N   UNL A   1      43.419  27.639  27.697  1.00  0.00    -0.248 NA
ATOM     35  C   UNL A   1      43.362  25.425  26.956  1.00  0.00     0.031 C 
ATOM     36  C   UNL A   1      39.274  27.151  29.293  1.00  0.00     0.029 A 
ATOM     37  N   UNL A   1      41.015  28.548  29.146  1.00  0.00    -0.354 N 
ATOM     38  C   UNL A   1      44.633  27.327  27.105  1.00  0.00     0.074 A 
ATOM     39  C   UNL A   1      44.559  25.938  26.701  1.00  0.00     0.031 C 
ATOM     40  C   UNL A   1      38.916  28.301  29.882  1.00  0.00     0.029 A 
ATOM     41  C   UNL A   1      40.028  29.241  29.804  1.00  0.00     0.049 A 
ATOM     42  H   UNL A   1      41.909  28.920  28.966  1.00  0.00     0.167 HD
ATOM     43  C   UNL A   1      45.696  28.141  26.900  1.00  0.00     0.037 A 
ATOM     44  C   UNL A   1      40.016  30.501  30.278  1.00  0.00     0.037 A 
ATOM     45  C   UNL A   1      45.755  29.519  27.322  1.00  0.00     0.049 A 
ATOM     46  C   UNL A   1      41.227  31.366  30.072  1.00  0.00     0.074 A 
ATOM     47  C   UNL A   1      46.776  30.435  27.134  1.00  0.00     0.029 A 
ATOM     48  N   UNL A   1      44.756  30.177  28.028  1.00  0.00    -0.354 N 
ATOM     49  N   UNL A   1      42.341  31.087  29.440  1.00  0.00    -0.248 NA
ATOM     50  C   UNL A   1      41.180  32.719  30.639  1.00  0.00     0.031 C 
ATOM     51  C   UNL A   1      46.421  31.625  27.775  1.00  0.00     0.029 A 
ATOM     52  C   UNL A   1      45.151  31.476  28.309  1.00  0.00     0.049 A 
ATOM     53  H   UNL A   1      43.894  29.780  28.290  1.00  0.00     0.167 HD
ATOM     54  C   UNL A   1      43.117  32.235  29.512  1.00  0.00     0.074 A 
ATOM     55  C   UNL A   1      42.338  33.220  30.234  1.00  0.00     0.031 C 
ATOM     56  C   UNL A   1      44.364  32.449  29.026  1.00  0.00     0.037 A 
BRANCH  43  57
ATOM     57  C   UNL A   1      46.886  27.582  26.174  1.00  0.00     0.064 A 
ATOM     58  C   UNL A   1      47.003  27.685  24.780  1.00  0.00     0.173 A 
ATOM     59  C   UNL A   1      47.964  27.030  26.883  1.00  0.00     0.173 A 
ATOM     60  F   UNL A   1      46.001  28.202  24.055  1.00  0.00    -0.203 F 
ATOM     61  C   UNL A   1      48.150  27.247  24.122  1.00  0.00     0.198 A 
ATOM     62  C   UNL A   1      49.121  26.620  26.225  1.00  0.00     0.198 A 
ATOM     63  F   UNL A   1      47.909  26.917  28.219  1.00  0.00    -0.203 F 
ATOM     64  F   UNL A   1      48.230  27.334  22.788  1.00  0.00    -0.200 F 
ATOM     65  C   UNL A   1      49.212  26.726  24.846  1.00  0.00     0.200 A 
ATOM     66  F   UNL A   1      50.154  26.134  26.929  1.00  0.00    -0.200 F 
ATOM     67  F   UNL A   1      50.325  26.327  24.214  1.00  0.00    -0.200 F 
ENDBRANCH  43  57
BRANCH  44  68
ATOM     68  C   UNL A   1      38.798  31.018  30.952  1.00  0.00     0.064 A 
ATOM     69  C   UNL A   1      38.665  30.960  32.346  1.00  0.00     0.173 A 
ATOM     70  C   UNL A   1      37.755  31.609  30.222  1.00  0.00     0.173 A 
ATOM     71  F   UNL A   1      39.628  30.392  33.088  1.00  0.00    -0.203 F 
ATOM     72  C   UNL A   1      37.532  31.464  32.983  1.00  0.00     0.198 A 
ATOM     73  C   UNL A   1      36.639  32.141  30.862  1.00  0.00     0.198 A 
ATOM     74  F   UNL A   1      37.836  31.696  28.886  1.00  0.00    -0.203 F 
ATOM     75  F   UNL A   1      37.415  31.363  34.314  1.00  0.00    -0.200 F 
ATOM     76  C   UNL A   1      36.525  32.062  32.241  1.00  0.00     0.200 A 
ATOM     77  F   UNL A   1      35.677  32.735  30.143  1.00  0.00    -0.200 F 
ATOM     78  F   UNL A   1      35.442  32.558  32.856  1.00  0.00    -0.200 F 
ENDBRANCH  44  68
BRANCH  56  79
ATOM     79  C   UNL A   1      44.972  33.806  29.241  1.00  0.00     0.064 A 
ATOM     80  C   UNL A   1      44.778  34.849  28.324  1.00  0.00     0.173 A 
ATOM     81  C   UNL A   1      45.684  34.088  30.416  1.00  0.00     0.173 A 
ATOM     82  F   UNL A   1      44.116  34.628  27.179  1.00  0.00    -0.203 F 
ATOM     83  C   UNL A   1      45.286  36.122  28.571  1.00  0.00     0.198 A 
ATOM     84  C   UNL A   1      46.162  35.369  30.675  1.00  0.00     0.198 A 
ATOM     85  F   UNL A   1      45.892  33.126  31.330  1.00  0.00    -0.203 F 
ATOM     86  F   UNL A   1      45.119  37.095  27.665  1.00  0.00    -0.200 F 
ATOM     87  C   UNL A   1      45.966  36.384  29.751  1.00  0.00     0.200 A 
ATOM     88  F   UNL A   1      46.803  35.625  31.825  1.00  0.00    -0.200 F 
ATOM     89  F   UNL A   1      46.432  37.616  29.997  1.00  0.00    -0.200 F 
ENDBRANCH  56  79
ENDBRANCH  30  31
ENDBRANCH  23  25
ENDBRANCH  22  23
ENDBRANCH  21  22
ENDBRANCH  20  21
ENDBRANCH   1  20
TORSDOF 16
ENDMDL
