MODEL 1
REMARK VINA RESULT:     -10.5      0.000      0.000
REMARK SMILES Cc1noc(C)c1C[NH2+][C@H](C)[C@H](C)C(=O)OCCOCCOC(=O)c1ccc(-c2c3nc(c(-c4c(F)c(F)c(F)c(F)c4F)c4ccc([nH]4)c(-c4c(F)c(F)c(F)c(F)c4F)c4nc(c(-c5c(F)c(F)c(F)c(F)c5F)c5ccc2[nH]5)C=C4)C=C3)cc1
REMARK SMILES IDX 18 1 17 2 16 3 14 4 15 5 12 6 13 7 10 8 11 9 9 10 8 13 7 14
REMARK SMILES IDX 1 15 2 16 3 17 4 18 5 19 6 20 19 21 20 22 21 23 22 24 23 25
REMARK SMILES IDX 24 26 25 27 26 28 87 29 27 30 86 31 28 32 29 33 30 34 80 35
REMARK SMILES IDX 31 36 85 37 79 38 81 39 32 40 84 41 78 42 77 43 33 45 65 46
REMARK SMILES IDX 45 47 64 48 46 49 49 50 63 51 82 52 47 53 48 54 62 56 83 57
REMARK SMILES IDX 50 58 34 59 35 60 43 61 36 62 37 63 41 64 44 65 38 66 39 67
REMARK SMILES IDX 42 68 40 69 66 70 67 71 75 72 68 73 69 74 73 75 76 76 70 77
REMARK SMILES IDX 71 78 74 79 72 80 51 81 52 82 60 83 53 84 54 85 58 86 61 87
REMARK SMILES IDX 55 88 56 89 59 90 57 91
REMARK H PARENT 9 11 9 12 81 44 49 55
REMARK Flexibility Score: inf
ROOT
ATOM      1  C   UNL A   1      30.641  29.552  24.013  1.00  0.00     0.202 C 
ENDROOT
BRANCH   1   2
ATOM      2  C   UNL A   1      30.099  28.401  23.161  1.00  0.00     0.261 C 
BRANCH   2   3
ATOM      3  O   UNL A   1      31.083  27.924  22.225  1.00  0.00    -0.463 OA
BRANCH   3   4
ATOM      4  C   UNL A   1      31.571  26.684  22.477  1.00  0.00     0.314 C 
ATOM      5  O   UNL A   1      30.887  25.692  22.702  1.00  0.00    -0.252 OA
BRANCH   4   6
ATOM      6  C   UNL A   1      33.089  26.627  22.466  1.00  0.00     0.154 C 
ATOM      7  C   UNL A   1      33.749  28.017  22.364  1.00  0.00     0.026 C 
BRANCH   6   8
ATOM      8  C   UNL A   1      33.659  25.789  23.640  1.00  0.00     0.193 C 
ATOM      9  C   UNL A   1      33.509  26.469  25.012  1.00  0.00     0.076 C 
BRANCH   8  10
ATOM     10  N   UNL A   1      33.127  24.421  23.800  1.00  0.00    -0.339 N 
ATOM     11  H   UNL A   1      33.091  24.227  24.801  1.00  0.00     0.346 HD
ATOM     12  H   UNL A   1      32.231  24.446  23.312  1.00  0.00     0.346 HD
BRANCH  10  13
ATOM     13  C   UNL A   1      33.837  23.316  23.176  1.00  0.00     0.303 C 
BRANCH  13  14
ATOM     14  C   UNL A   1      34.030  22.269  24.210  1.00  0.00     0.071 A 
ATOM     15  C   UNL A   1      32.383  20.432  23.371  1.00  0.00     0.071 C 
ATOM     16  C   UNL A   1      33.385  21.005  24.300  1.00  0.00     0.090 A 
ATOM     17  N   UNL A   1      33.796  20.317  25.370  1.00  0.00    -0.085 NA
ATOM     18  O   UNL A   1      34.728  21.122  25.998  1.00  0.00    -0.361 OA
ATOM     19  C   UNL A   1      34.868  22.283  25.306  1.00  0.00     0.142 A 
ATOM     20  C   UNL A   1      35.836  23.255  25.848  1.00  0.00     0.091 C 
ENDBRANCH  13  14
ENDBRANCH  10  13
ENDBRANCH   8  10
ENDBRANCH   6   8
ENDBRANCH   4   6
ENDBRANCH   3   4
ENDBRANCH   2   3
ENDBRANCH   1   2
BRANCH   1  21
ATOM     21  O   UNL A   1      31.253  29.189  25.250  1.00  0.00    -0.374 OA
BRANCH  21  22
ATOM     22  C   UNL A   1      32.358  29.975  25.692  1.00  0.00     0.202 C 
BRANCH  22  23
ATOM     23  C   UNL A   1      32.009  31.270  26.436  1.00  0.00     0.261 C 
BRANCH  23  24
ATOM     24  O   UNL A   1      32.741  31.393  27.669  1.00  0.00    -0.460 OA
BRANCH  24  25
ATOM     25  C   UNL A   1      33.619  32.422  27.699  1.00  0.00     0.338 C 
ATOM     26  O   UNL A   1      33.364  33.617  27.626  1.00  0.00    -0.246 OA
BRANCH  25  27
ATOM     27  C   UNL A   1      34.977  31.937  28.012  1.00  0.00     0.060 A 
ATOM     28  C   UNL A   1      35.128  30.557  28.198  1.00  0.00     0.016 A 
ATOM     29  C   UNL A   1      36.055  32.801  28.211  1.00  0.00     0.016 A 
ATOM     30  C   UNL A   1      36.339  30.044  28.653  1.00  0.00     0.010 A 
ATOM     31  C   UNL A   1      37.273  32.284  28.674  1.00  0.00     0.010 A 
ATOM     32  C   UNL A   1      37.403  30.909  28.941  1.00  0.00    -0.014 A 
BRANCH  32  33
ATOM     33  C   UNL A   1      38.576  30.369  29.672  1.00  0.00     0.031 A 
ATOM     34  C   UNL A   1      38.793  30.776  31.104  1.00  0.00     0.074 A 
ATOM     35  C   UNL A   1      39.387  29.463  29.099  1.00  0.00     0.049 A 
ATOM     36  N   UNL A   1      39.697  30.364  31.958  1.00  0.00    -0.248 NA
ATOM     37  C   UNL A   1      37.866  31.780  31.648  1.00  0.00     0.031 C 
ATOM     38  C   UNL A   1      39.264  28.968  27.730  1.00  0.00     0.029 A 
ATOM     39  N   UNL A   1      40.468  28.789  29.607  1.00  0.00    -0.354 N 
ATOM     40  C   UNL A   1      39.441  31.050  33.138  1.00  0.00     0.074 A 
ATOM     41  C   UNL A   1      38.324  31.933  32.882  1.00  0.00     0.031 C 
ATOM     42  C   UNL A   1      40.233  28.064  27.506  1.00  0.00     0.029 A 
ATOM     43  C   UNL A   1      41.049  27.927  28.711  1.00  0.00     0.049 A 
ATOM     44  H   UNL A   1      40.797  28.911  30.527  1.00  0.00     0.167 HD
ATOM     45  C   UNL A   1      40.069  30.942  34.333  1.00  0.00     0.037 A 
ATOM     46  C   UNL A   1      42.120  27.122  28.849  1.00  0.00     0.037 A 
ATOM     47  C   UNL A   1      41.180  30.065  34.592  1.00  0.00     0.049 A 
ATOM     48  C   UNL A   1      42.832  27.056  30.176  1.00  0.00     0.074 A 
ATOM     49  C   UNL A   1      41.873  29.874  35.774  1.00  0.00     0.029 A 
ATOM     50  N   UNL A   1      41.765  29.235  33.648  1.00  0.00    -0.354 N 
ATOM     51  N   UNL A   1      42.558  27.680  31.296  1.00  0.00    -0.248 NA
ATOM     52  C   UNL A   1      43.994  26.160  30.258  1.00  0.00     0.031 C 
ATOM     53  C   UNL A   1      42.906  28.959  35.534  1.00  0.00     0.029 A 
ATOM     54  C   UNL A   1      42.825  28.546  34.214  1.00  0.00     0.049 A 
ATOM     55  H   UNL A   1      41.470  29.148  32.712  1.00  0.00     0.167 HD
ATOM     56  C   UNL A   1      43.498  27.238  32.219  1.00  0.00     0.074 A 
ATOM     57  C   UNL A   1      44.336  26.277  31.533  1.00  0.00     0.031 C 
ATOM     58  C   UNL A   1      43.653  27.595  33.518  1.00  0.00     0.037 A 
BRANCH  45  59
ATOM     59  C   UNL A   1      39.576  31.812  35.451  1.00  0.00     0.064 A 
ATOM     60  C   UNL A   1      40.059  33.117  35.635  1.00  0.00     0.173 A 
ATOM     61  C   UNL A   1      38.590  31.346  36.333  1.00  0.00     0.173 A 
ATOM     62  F   UNL A   1      41.014  33.603  34.828  1.00  0.00    -0.203 F 
ATOM     63  C   UNL A   1      39.589  33.914  36.675  1.00  0.00     0.198 A 
ATOM     64  C   UNL A   1      38.103  32.155  37.356  1.00  0.00     0.198 A 
ATOM     65  F   UNL A   1      38.094  30.107  36.199  1.00  0.00    -0.203 F 
ATOM     66  F   UNL A   1      40.095  35.142  36.859  1.00  0.00    -0.200 F 
ATOM     67  C   UNL A   1      38.608  33.436  37.530  1.00  0.00     0.200 A 
ATOM     68  F   UNL A   1      37.148  31.695  38.176  1.00  0.00    -0.200 F 
ATOM     69  F   UNL A   1      38.153  34.206  38.528  1.00  0.00    -0.200 F 
ENDBRANCH  45  59
BRANCH  46  70
ATOM     70  C   UNL A   1      42.583  26.302  27.701  1.00  0.00     0.064 A 
ATOM     71  C   UNL A   1      43.573  26.772  26.826  1.00  0.00     0.173 A 
ATOM     72  C   UNL A   1      42.030  25.040  27.444  1.00  0.00     0.173 A 
ATOM     73  F   UNL A   1      44.114  27.984  27.017  1.00  0.00    -0.203 F 
ATOM     74  C   UNL A   1      43.979  26.016  25.729  1.00  0.00     0.198 A 
ATOM     75  C   UNL A   1      42.455  24.274  26.361  1.00  0.00     0.198 A 
ATOM     76  F   UNL A   1      41.077  24.548  28.249  1.00  0.00    -0.203 F 
ATOM     77  F   UNL A   1      44.896  26.507  24.883  1.00  0.00    -0.200 F 
ATOM     78  C   UNL A   1      43.424  24.766  25.500  1.00  0.00     0.200 A 
ATOM     79  F   UNL A   1      41.924  23.063  26.150  1.00  0.00    -0.200 F 
ATOM     80  F   UNL A   1      43.818  24.039  24.445  1.00  0.00    -0.200 F 
ENDBRANCH  46  70
BRANCH  58  81
ATOM     81  C   UNL A   1      44.757  26.926  34.285  1.00  0.00     0.064 A 
ATOM     82  C   UNL A   1      46.037  27.491  34.373  1.00  0.00     0.173 A 
ATOM     83  C   UNL A   1      44.525  25.715  34.955  1.00  0.00     0.173 A 
ATOM     84  F   UNL A   1      46.313  28.641  33.738  1.00  0.00    -0.203 F 
ATOM     85  C   UNL A   1      47.055  26.852  35.076  1.00  0.00     0.198 A 
ATOM     86  C   UNL A   1      45.537  25.094  35.681  1.00  0.00     0.198 A 
ATOM     87  F   UNL A   1      43.316  25.137  34.908  1.00  0.00    -0.203 F 
ATOM     88  F   UNL A   1      48.285  27.383  35.101  1.00  0.00    -0.200 F 
ATOM     89  C   UNL A   1      46.803  25.657  35.733  1.00  0.00     0.200 A 
ATOM     90  F   UNL A   1      45.290  23.944  36.324  1.00  0.00    -0.200 F 
ATOM     91  F   UNL A   1      47.785  25.042  36.408  1.00  0.00    -0.200 F 
ENDBRANCH  58  81
ENDBRANCH  32  33
ENDBRANCH  25  27
ENDBRANCH  24  25
ENDBRANCH  23  24
ENDBRANCH  22  23
ENDBRANCH  21  22
ENDBRANCH   1  21
TORSDOF 18
ENDMDL
MODEL 2
REMARK VINA RESULT:     -10.4      4.271     10.178
REMARK SMILES Cc1noc(C)c1C[NH2+][C@H](C)[C@H](C)C(=O)OCCOCCOC(=O)c1ccc(-c2c3nc(c(-c4c(F)c(F)c(F)c(F)c4F)c4ccc([nH]4)c(-c4c(F)c(F)c(F)c(F)c4F)c4nc(c(-c5c(F)c(F)c(F)c(F)c5F)c5ccc2[nH]5)C=C4)C=C3)cc1
REMARK SMILES IDX 18 1 17 2 16 3 14 4 15 5 12 6 13 7 10 8 11 9 9 10 8 13 7 14
REMARK SMILES IDX 1 15 2 16 3 17 4 18 5 19 6 20 19 21 20 22 21 23 22 24 23 25
REMARK SMILES IDX 24 26 25 27 26 28 87 29 27 30 86 31 28 32 29 33 30 34 80 35
REMARK SMILES IDX 31 36 85 37 79 38 81 39 32 40 84 41 78 42 77 43 33 45 65 46
REMARK SMILES IDX 45 47 64 48 46 49 49 50 63 51 82 52 47 53 48 54 62 56 83 57
REMARK SMILES IDX 50 58 34 59 35 60 43 61 36 62 37 63 41 64 44 65 38 66 39 67
REMARK SMILES IDX 42 68 40 69 66 70 67 71 75 72 68 73 69 74 73 75 76 76 70 77
REMARK SMILES IDX 71 78 74 79 72 80 51 81 52 82 60 83 53 84 54 85 58 86 61 87
REMARK SMILES IDX 55 88 56 89 59 90 57 91
REMARK H PARENT 9 11 9 12 81 44 49 55
REMARK Flexibility Score: inf
ROOT
ATOM      1  C   UNL A   1      35.668  21.988  25.864  1.00  0.00     0.202 C 
ENDROOT
BRANCH   1   2
ATOM      2  C   UNL A   1      34.804  21.863  24.606  1.00  0.00     0.261 C 
BRANCH   2   3
ATOM      3  O   UNL A   1      34.005  20.667  24.627  1.00  0.00    -0.463 OA
BRANCH   3   4
ATOM      4  C   UNL A   1      32.668  20.864  24.744  1.00  0.00     0.314 C 
ATOM      5  O   UNL A   1      31.848  19.989  24.997  1.00  0.00    -0.252 OA
BRANCH   4   6
ATOM      6  C   UNL A   1      32.258  22.310  24.517  1.00  0.00     0.154 C 
ATOM      7  C   UNL A   1      31.731  22.577  23.093  1.00  0.00     0.026 C 
BRANCH   6   8
ATOM      8  C   UNL A   1      31.287  22.828  25.611  1.00  0.00     0.193 C 
ATOM      9  C   UNL A   1      32.001  23.372  26.861  1.00  0.00     0.076 C 
BRANCH   8  10
ATOM     10  N   UNL A   1      30.323  23.870  25.204  1.00  0.00    -0.339 N 
ATOM     11  H   UNL A   1      30.373  23.945  24.188  1.00  0.00     0.346 HD
ATOM     12  H   UNL A   1      29.435  23.549  25.591  1.00  0.00     0.346 HD
BRANCH  10  13
ATOM     13  C   UNL A   1      30.475  25.213  25.740  1.00  0.00     0.303 C 
BRANCH  13  14
ATOM     14  C   UNL A   1      30.720  26.126  24.595  1.00  0.00     0.071 A 
ATOM     15  C   UNL A   1      28.279  26.697  23.884  1.00  0.00     0.071 C 
ATOM     16  C   UNL A   1      29.755  26.771  23.775  1.00  0.00     0.090 A 
ATOM     17  N   UNL A   1      30.333  27.517  22.828  1.00  0.00    -0.085 NA
ATOM     18  O   UNL A   1      31.694  27.377  23.019  1.00  0.00    -0.361 OA
ATOM     19  C   UNL A   1      31.924  26.549  24.072  1.00  0.00     0.142 A 
ATOM     20  C   UNL A   1      33.338  26.298  24.410  1.00  0.00     0.091 C 
ENDBRANCH  13  14
ENDBRANCH  10  13
ENDBRANCH   8  10
ENDBRANCH   6   8
ENDBRANCH   4   6
ENDBRANCH   3   4
ENDBRANCH   2   3
ENDBRANCH   1   2
BRANCH   1  21
ATOM     21  O   UNL A   1      37.049  21.661  25.717  1.00  0.00    -0.374 OA
BRANCH  21  22
ATOM     22  C   UNL A   1      37.370  20.478  24.986  1.00  0.00     0.202 C 
BRANCH  22  23
ATOM     23  C   UNL A   1      38.683  19.785  25.368  1.00  0.00     0.261 C 
BRANCH  23  24
ATOM     24  O   UNL A   1      39.769  20.722  25.487  1.00  0.00    -0.460 OA
BRANCH  24  25
ATOM     25  C   UNL A   1      40.473  20.620  26.639  1.00  0.00     0.338 C 
ATOM     26  O   UNL A   1      40.986  19.613  27.107  1.00  0.00    -0.246 OA
BRANCH  25  27
ATOM     27  C   UNL A   1      40.711  21.955  27.220  1.00  0.00     0.060 A 
ATOM     28  C   UNL A   1      40.129  23.046  26.562  1.00  0.00     0.016 A 
ATOM     29  C   UNL A   1      41.551  22.155  28.318  1.00  0.00     0.016 A 
ATOM     30  C   UNL A   1      40.441  24.344  26.955  1.00  0.00     0.010 A 
ATOM     31  C   UNL A   1      41.868  23.463  28.710  1.00  0.00     0.010 A 
ATOM     32  C   UNL A   1      41.349  24.562  27.999  1.00  0.00    -0.014 A 
BRANCH  32  33
ATOM     33  C   UNL A   1      41.864  25.936  28.214  1.00  0.00     0.031 A 
ATOM     34  C   UNL A   1      43.207  26.310  27.648  1.00  0.00     0.074 A 
ATOM     35  C   UNL A   1      41.110  26.864  28.829  1.00  0.00     0.049 A 
ATOM     36  N   UNL A   1      43.812  27.471  27.640  1.00  0.00    -0.248 NA
ATOM     37  C   UNL A   1      43.969  25.231  27.001  1.00  0.00     0.031 C 
ATOM     38  C   UNL A   1      39.783  26.634  29.394  1.00  0.00     0.029 A 
ATOM     39  N   UNL A   1      41.353  28.194  29.067  1.00  0.00    -0.354 N 
ATOM     40  C   UNL A   1      45.018  27.263  26.983  1.00  0.00     0.074 A 
ATOM     41  C   UNL A   1      45.078  25.859  26.640  1.00  0.00     0.031 C 
ATOM     42  C   UNL A   1      39.325  27.786  29.913  1.00  0.00     0.029 A 
ATOM     43  C   UNL A   1      40.332  28.830  29.726  1.00  0.00     0.049 A 
ATOM     44  H   UNL A   1      42.182  28.648  28.791  1.00  0.00     0.167 HD
ATOM     45  C   UNL A   1      45.982  28.164  26.677  1.00  0.00     0.037 A 
ATOM     46  C   UNL A   1      40.224  30.109  30.134  1.00  0.00     0.037 A 
ATOM     47  C   UNL A   1      45.926  29.562  27.015  1.00  0.00     0.049 A 
ATOM     48  C   UNL A   1      41.332  31.082  29.823  1.00  0.00     0.074 A 
ATOM     49  C   UNL A   1      46.846  30.557  26.735  1.00  0.00     0.029 A 
ATOM     50  N   UNL A   1      44.891  30.162  27.718  1.00  0.00    -0.354 N 
ATOM     51  N   UNL A   1      42.450  30.884  29.167  1.00  0.00    -0.248 NA
ATOM     52  C   UNL A   1      41.153  32.460  30.299  1.00  0.00     0.031 C 
ATOM     53  C   UNL A   1      46.388  31.751  27.305  1.00  0.00     0.029 A 
ATOM     54  C   UNL A   1      45.161  31.508  27.900  1.00  0.00     0.049 A 
ATOM     55  H   UNL A   1      44.084  29.698  28.040  1.00  0.00     0.167 HD
ATOM     56  C   UNL A   1      43.097  32.113  29.134  1.00  0.00     0.074 A 
ATOM     57  C   UNL A   1      42.236  33.056  29.816  1.00  0.00     0.031 C 
ATOM     58  C   UNL A   1      44.295  32.434  28.586  1.00  0.00     0.037 A 
BRANCH  45  59
ATOM     59  C   UNL A   1      47.192  27.658  25.950  1.00  0.00     0.064 A 
ATOM     60  C   UNL A   1      47.259  27.651  24.549  1.00  0.00     0.173 A 
ATOM     61  C   UNL A   1      48.310  27.202  26.664  1.00  0.00     0.173 A 
ATOM     62  F   UNL A   1      46.209  28.063  23.821  1.00  0.00    -0.203 F 
ATOM     63  C   UNL A   1      48.391  27.182  23.888  1.00  0.00     0.198 A 
ATOM     64  C   UNL A   1      49.452  26.758  26.000  1.00  0.00     0.198 A 
ATOM     65  F   UNL A   1      48.299  27.191  28.005  1.00  0.00    -0.203 F 
ATOM     66  F   UNL A   1      48.417  27.143  22.548  1.00  0.00    -0.200 F 
ATOM     67  C   UNL A   1      49.488  26.743  24.613  1.00  0.00     0.200 A 
ATOM     68  F   UNL A   1      50.514  26.342  26.703  1.00  0.00    -0.200 F 
ATOM     69  F   UNL A   1      50.579  26.296  23.976  1.00  0.00    -0.200 F 
ENDBRANCH  45  59
BRANCH  46  70
ATOM     70  C   UNL A   1      39.016  30.551  30.875  1.00  0.00     0.064 A 
ATOM     71  C   UNL A   1      38.959  30.486  32.274  1.00  0.00     0.173 A 
ATOM     72  C   UNL A   1      37.886  31.028  30.196  1.00  0.00     0.173 A 
ATOM     73  F   UNL A   1      40.005  30.013  32.965  1.00  0.00    -0.203 F 
ATOM     74  C   UNL A   1      37.810  30.867  32.965  1.00  0.00     0.198 A 
ATOM     75  C   UNL A   1      36.747  31.433  30.889  1.00  0.00     0.198 A 
ATOM     76  F   UNL A   1      37.890  31.106  28.857  1.00  0.00    -0.203 F 
ATOM     77  F   UNL A   1      37.765  30.755  34.299  1.00  0.00    -0.200 F 
ATOM     78  C   UNL A   1      36.707  31.345  32.272  1.00  0.00     0.200 A 
ATOM     79  F   UNL A   1      35.689  31.904  30.217  1.00  0.00    -0.200 F 
ATOM     80  F   UNL A   1      35.604  31.714  32.938  1.00  0.00    -0.200 F 
ENDBRANCH  46  70
BRANCH  58  81
ATOM     81  C   UNL A   1      44.732  33.867  28.685  1.00  0.00     0.064 A 
ATOM     82  C   UNL A   1      44.349  34.818  27.728  1.00  0.00     0.173 A 
ATOM     83  C   UNL A   1      45.527  34.296  29.758  1.00  0.00     0.173 A 
ATOM     84  F   UNL A   1      43.601  34.455  26.675  1.00  0.00    -0.203 F 
ATOM     85  C   UNL A   1      44.774  36.141  27.824  1.00  0.00     0.198 A 
ATOM     86  C   UNL A   1      45.926  35.625  29.867  1.00  0.00     0.198 A 
ATOM     87  F   UNL A   1      45.913  33.427  30.703  1.00  0.00    -0.203 F 
ATOM     88  F   UNL A   1      44.442  37.021  26.870  1.00  0.00    -0.200 F 
ATOM     89  C   UNL A   1      45.558  36.544  28.896  1.00  0.00     0.200 A 
ATOM     90  F   UNL A   1      46.673  36.016  30.908  1.00  0.00    -0.200 F 
ATOM     91  F   UNL A   1      45.967  37.817  28.986  1.00  0.00    -0.200 F 
ENDBRANCH  58  81
ENDBRANCH  32  33
ENDBRANCH  25  27
ENDBRANCH  24  25
ENDBRANCH  23  24
ENDBRANCH  22  23
ENDBRANCH  21  22
ENDBRANCH   1  21
TORSDOF 18
ENDMDL
MODEL 3
REMARK VINA RESULT:     -10.4      4.279     10.199
REMARK SMILES Cc1noc(C)c1C[NH2+][C@H](C)[C@H](C)C(=O)OCCOCCOC(=O)c1ccc(-c2c3nc(c(-c4c(F)c(F)c(F)c(F)c4F)c4ccc([nH]4)c(-c4c(F)c(F)c(F)c(F)c4F)c4nc(c(-c5c(F)c(F)c(F)c(F)c5F)c5ccc2[nH]5)C=C4)C=C3)cc1
REMARK SMILES IDX 18 1 17 2 16 3 14 4 15 5 12 6 13 7 10 8 11 9 9 10 8 13 7 14
REMARK SMILES IDX 1 15 2 16 3 17 4 18 5 19 6 20 19 21 20 22 21 23 22 24 23 25
REMARK SMILES IDX 24 26 25 27 26 28 87 29 27 30 86 31 28 32 29 33 30 34 80 35
REMARK SMILES IDX 31 36 85 37 79 38 81 39 32 40 84 41 78 42 77 43 33 45 65 46
REMARK SMILES IDX 45 47 64 48 46 49 49 50 63 51 82 52 47 53 48 54 62 56 83 57
REMARK SMILES IDX 50 58 34 59 35 60 43 61 36 62 37 63 41 64 44 65 38 66 39 67
REMARK SMILES IDX 42 68 40 69 66 70 67 71 75 72 68 73 69 74 73 75 76 76 70 77
REMARK SMILES IDX 71 78 74 79 72 80 51 81 52 82 60 83 53 84 54 85 58 86 61 87
REMARK SMILES IDX 55 88 56 89 59 90 57 91
REMARK H PARENT 9 11 9 12 81 44 49 55
REMARK Flexibility Score: inf
ROOT
ATOM      1  C   UNL A   1      35.043  21.479  26.144  1.00  0.00     0.202 C 
ENDROOT
BRANCH   1   2
ATOM      2  C   UNL A   1      34.490  22.880  26.419  1.00  0.00     0.261 C 
BRANCH   2   3
ATOM      3  O   UNL A   1      33.164  23.043  25.882  1.00  0.00    -0.463 OA
BRANCH   3   4
ATOM      4  C   UNL A   1      32.161  23.011  26.794  1.00  0.00     0.314 C 
ATOM      5  O   UNL A   1      32.313  22.854  28.000  1.00  0.00    -0.252 OA
BRANCH   4   6
ATOM      6  C   UNL A   1      30.785  23.184  26.173  1.00  0.00     0.154 C 
ATOM      7  C   UNL A   1      29.646  22.634  27.054  1.00  0.00     0.026 C 
BRANCH   6   8
ATOM      8  C   UNL A   1      30.522  24.642  25.712  1.00  0.00     0.193 C 
ATOM      9  C   UNL A   1      29.184  25.213  26.211  1.00  0.00     0.076 C 
BRANCH   8  10
ATOM     10  N   UNL A   1      31.551  25.644  26.058  1.00  0.00    -0.339 N 
ATOM     11  H   UNL A   1      32.067  25.280  26.859  1.00  0.00     0.346 HD
ATOM     12  H   UNL A   1      32.080  25.763  25.194  1.00  0.00     0.346 HD
BRANCH  10  13
ATOM     13  C   UNL A   1      31.127  26.992  26.399  1.00  0.00     0.303 C 
BRANCH  13  14
ATOM     14  C   UNL A   1      31.755  27.918  25.422  1.00  0.00     0.071 A 
ATOM     15  C   UNL A   1      34.040  28.391  26.583  1.00  0.00     0.071 C 
ATOM     16  C   UNL A   1      33.031  28.538  25.508  1.00  0.00     0.090 A 
ATOM     17  N   UNL A   1      33.270  29.320  24.449  1.00  0.00    -0.085 NA
ATOM     18  O   UNL A   1      32.150  29.217  23.647  1.00  0.00    -0.361 OA
ATOM     19  C   UNL A   1      31.249  28.381  24.225  1.00  0.00     0.142 A 
ATOM     20  C   UNL A   1      29.991  28.161  23.486  1.00  0.00     0.091 C 
ENDBRANCH  13  14
ENDBRANCH  10  13
ENDBRANCH   8  10
ENDBRANCH   6   8
ENDBRANCH   4   6
ENDBRANCH   3   4
ENDBRANCH   2   3
ENDBRANCH   1   2
BRANCH   1  21
ATOM     21  O   UNL A   1      36.305  21.417  25.482  1.00  0.00    -0.374 OA
BRANCH  21  22
ATOM     22  C   UNL A   1      36.728  20.146  24.993  1.00  0.00     0.202 C 
BRANCH  22  23
ATOM     23  C   UNL A   1      38.236  19.872  25.042  1.00  0.00     0.261 C 
BRANCH  23  24
ATOM     24  O   UNL A   1      38.984  21.054  25.381  1.00  0.00    -0.460 OA
BRANCH  24  25
ATOM     25  C   UNL A   1      39.915  20.870  26.347  1.00  0.00     0.338 C 
ATOM     26  O   UNL A   1      40.530  19.843  26.596  1.00  0.00    -0.246 OA
BRANCH  25  27
ATOM     27  C   UNL A   1      40.249  22.152  26.996  1.00  0.00     0.060 A 
ATOM     28  C   UNL A   1      39.594  23.294  26.517  1.00  0.00     0.016 A 
ATOM     29  C   UNL A   1      41.235  22.260  27.978  1.00  0.00     0.016 A 
ATOM     30  C   UNL A   1      39.974  24.555  26.966  1.00  0.00     0.010 A 
ATOM     31  C   UNL A   1      41.620  23.531  28.427  1.00  0.00     0.010 A 
ATOM     32  C   UNL A   1      41.022  24.685  27.887  1.00  0.00    -0.014 A 
BRANCH  32  33
ATOM     33  C   UNL A   1      41.578  26.037  28.140  1.00  0.00     0.031 A 
ATOM     34  C   UNL A   1      42.942  26.377  27.602  1.00  0.00     0.074 A 
ATOM     35  C   UNL A   1      40.847  26.977  28.762  1.00  0.00     0.049 A 
ATOM     36  N   UNL A   1      43.586  27.517  27.628  1.00  0.00    -0.248 NA
ATOM     37  C   UNL A   1      43.677  25.286  26.944  1.00  0.00     0.031 C 
ATOM     38  C   UNL A   1      39.504  26.779  29.303  1.00  0.00     0.029 A 
ATOM     39  N   UNL A   1      41.130  28.292  29.032  1.00  0.00    -0.354 N 
ATOM     40  C   UNL A   1      44.794  27.282  26.985  1.00  0.00     0.074 A 
ATOM     41  C   UNL A   1      44.812  25.884  26.613  1.00  0.00     0.031 C 
ATOM     42  C   UNL A   1      39.076  27.935  29.839  1.00  0.00     0.029 A 
ATOM     43  C   UNL A   1      40.121  28.948  29.690  1.00  0.00     0.049 A 
ATOM     44  H   UNL A   1      41.977  28.724  28.779  1.00  0.00     0.167 HD
ATOM     45  C   UNL A   1      45.792  28.156  26.713  1.00  0.00     0.037 A 
ATOM     46  C   UNL A   1      40.049  30.221  30.123  1.00  0.00     0.037 A 
ATOM     47  C   UNL A   1      45.778  29.547  27.080  1.00  0.00     0.049 A 
ATOM     48  C   UNL A   1      41.194  31.163  29.850  1.00  0.00     0.074 A 
ATOM     49  C   UNL A   1      46.735  30.517  26.835  1.00  0.00     0.029 A 
ATOM     50  N   UNL A   1      44.753  30.167  27.780  1.00  0.00    -0.354 N 
ATOM     51  N   UNL A   1      42.315  30.940  29.207  1.00  0.00    -0.248 NA
ATOM     52  C   UNL A   1      41.054  32.536  30.352  1.00  0.00     0.031 C 
ATOM     53  C   UNL A   1      46.308  31.713  27.424  1.00  0.00     0.029 A 
ATOM     54  C   UNL A   1      45.064  31.500  27.995  1.00  0.00     0.049 A 
ATOM     55  H   UNL A   1      43.926  29.724  28.079  1.00  0.00     0.167 HD
ATOM     56  C   UNL A   1      43.002  32.148  29.210  1.00  0.00     0.074 A 
ATOM     57  C   UNL A   1      42.163  33.105  29.899  1.00  0.00     0.031 C 
ATOM     58  C   UNL A   1      44.219  32.439  28.687  1.00  0.00     0.037 A 
BRANCH  45  59
ATOM     59  C   UNL A   1      46.996  27.625  25.994  1.00  0.00     0.064 A 
ATOM     60  C   UNL A   1      48.077  27.060  26.687  1.00  0.00     0.173 A 
ATOM     61  C   UNL A   1      47.059  27.655  24.593  1.00  0.00     0.173 A 
ATOM     62  F   UNL A   1      48.072  27.021  28.028  1.00  0.00    -0.203 F 
ATOM     63  C   UNL A   1      49.186  26.566  26.006  1.00  0.00     0.198 A 
ATOM     64  C   UNL A   1      48.158  27.138  23.912  1.00  0.00     0.198 A 
ATOM     65  F   UNL A   1      46.051  28.183  23.882  1.00  0.00    -0.203 F 
ATOM     66  F   UNL A   1      50.227  26.070  26.690  1.00  0.00    -0.200 F 
ATOM     67  C   UNL A   1      49.223  26.600  24.620  1.00  0.00     0.200 A 
ATOM     68  F   UNL A   1      48.188  27.163  22.573  1.00  0.00    -0.200 F 
ATOM     69  F   UNL A   1      50.290  26.121  23.965  1.00  0.00    -0.200 F 
ENDBRANCH  45  59
BRANCH  46  70
ATOM     70  C   UNL A   1      38.845  30.688  30.855  1.00  0.00     0.064 A 
ATOM     71  C   UNL A   1      38.787  30.652  32.255  1.00  0.00     0.173 A 
ATOM     72  C   UNL A   1      37.719  31.161  30.167  1.00  0.00     0.173 A 
ATOM     73  F   UNL A   1      39.830  30.184  32.956  1.00  0.00    -0.203 F 
ATOM     74  C   UNL A   1      37.642  31.057  32.938  1.00  0.00     0.198 A 
ATOM     75  C   UNL A   1      36.583  31.590  30.852  1.00  0.00     0.198 A 
ATOM     76  F   UNL A   1      37.723  31.212  28.827  1.00  0.00    -0.203 F 
ATOM     77  F   UNL A   1      37.596  30.971  34.274  1.00  0.00    -0.200 F 
ATOM     78  C   UNL A   1      36.543  31.530  32.236  1.00  0.00     0.200 A 
ATOM     79  F   UNL A   1      35.529  32.056  30.170  1.00  0.00    -0.200 F 
ATOM     80  F   UNL A   1      35.443  31.921  32.894  1.00  0.00    -0.200 F 
ENDBRANCH  46  70
BRANCH  58  81
ATOM     81  C   UNL A   1      44.702  33.854  28.823  1.00  0.00     0.064 A 
ATOM     82  C   UNL A   1      45.498  34.257  29.905  1.00  0.00     0.173 A 
ATOM     83  C   UNL A   1      44.381  34.813  27.850  1.00  0.00     0.173 A 
ATOM     84  F   UNL A   1      45.820  33.381  30.870  1.00  0.00    -0.203 F 
ATOM     85  C   UNL A   1      45.926  35.576  30.027  1.00  0.00     0.198 A 
ATOM     86  C   UNL A   1      44.836  36.124  27.960  1.00  0.00     0.198 A 
ATOM     87  F   UNL A   1      43.630  34.476  26.792  1.00  0.00    -0.203 F 
ATOM     88  F   UNL A   1      46.640  35.952  31.098  1.00  0.00    -0.200 F 
ATOM     89  C   UNL A   1      45.600  36.507  29.052  1.00  0.00     0.200 A 
ATOM     90  F   UNL A   1      44.529  37.020  27.011  1.00  0.00    -0.200 F 
ATOM     91  F   UNL A   1      46.012  37.777  29.171  1.00  0.00    -0.200 F 
ENDBRANCH  58  81
ENDBRANCH  32  33
ENDBRANCH  25  27
ENDBRANCH  24  25
ENDBRANCH  23  24
ENDBRANCH  22  23
ENDBRANCH  21  22
ENDBRANCH   1  21
TORSDOF 18
ENDMDL
