MODEL 1
REMARK VINA RESULT:     -13.3      0.000      0.000
REMARK SMILES O=C(CC[NH+]1CCN(C(=O)c2n[nH]c3ccccc23)CC1)OCCOCCOC(=O)c1ccc(-c2c3nc(c(-c4c(F)c(F)c(F)c(F)c4F)c4ccc([nH]4)c(-c4c(F)c(F)c(F)c(F)c4F)c4nc(c(-c5c(F)c(F)c(F)c(F)c5F)c5ccc2[nH]5)C=C4)C=C3)cc1
REMARK SMILES IDX 24 1 23 2 22 3 2 4 1 5 3 6 4 7 5 8 6 9 21 10 7 12 20 13 8 14
REMARK SMILES IDX 9 15 10 16 11 17 12 18 19 19 13 20 14 21 18 22 15 24 17 25
REMARK SMILES IDX 16 26 25 27 26 28 27 29 28 30 29 31 30 32 31 33 32 34 93 35
REMARK SMILES IDX 33 36 92 37 34 38 35 39 36 40 86 41 37 42 91 43 85 44 87 45
REMARK SMILES IDX 38 46 90 47 84 48 83 49 39 51 71 52 51 53 70 54 52 55 55 56
REMARK SMILES IDX 69 57 88 58 53 59 54 60 68 62 89 63 56 64 40 65 41 66 49 67
REMARK SMILES IDX 42 68 43 69 47 70 50 71 44 72 45 73 48 74 46 75 72 76 73 77
REMARK SMILES IDX 81 78 74 79 75 80 79 81 82 82 76 83 77 84 80 85 78 86 57 87
REMARK SMILES IDX 58 88 66 89 59 90 60 91 64 92 67 93 61 94 62 95 65 96 63 97
REMARK H PARENT 5 11 13 23 87 50 55 61
REMARK Flexibility Score: inf
ROOT
ATOM      1  C   UNL A   1      34.787  24.549  24.611  1.00  0.00     0.202 C 
ENDROOT
BRANCH   1   2
ATOM      2  C   UNL A   1      33.652  25.266  25.505  1.00  0.00     0.261 C 
BRANCH   2   3
ATOM      3  O   UNL A   1      32.265  26.540  25.082  1.00  0.00    -0.463 OA
BRANCH   3   4
ATOM      4  C   UNL A   1      31.013  27.094  24.672  1.00  0.00     0.311 C 
ATOM      5  O   UNL A   1      29.984  26.424  24.717  1.00  0.00    -0.252 OA
BRANCH   4   6
ATOM      6  C   UNL A   1      30.980  28.532  24.144  1.00  0.00     0.184 C 
BRANCH   6   7
ATOM      7  C   UNL A   1      32.170  29.349  24.568  1.00  0.00     0.274 C 
BRANCH   7   8
ATOM      8  N   UNL A   1      31.998  29.632  25.982  1.00  0.00    -0.332 N 
ATOM      9  C   UNL A   1      33.771  29.737  26.602  1.00  0.00     0.284 C 
ATOM     10  C   UNL A   1      30.995  31.240  26.023  1.00  0.00     0.284 C 
ATOM     11  H   UNL A   1      31.496  28.964  26.567  1.00  0.00     0.348 HD
ATOM     12  C   UNL A   1      34.407  31.330  27.539  1.00  0.00     0.181 C 
ATOM     13  C   UNL A   1      31.668  32.833  26.968  1.00  0.00     0.181 C 
ATOM     14  N   UNL A   1      33.278  32.760  27.832  1.00  0.00    -0.326 N 
ATOM     15  C   UNL A   1      33.897  33.780  28.666  1.00  0.00     0.275 C 
ATOM     16  O   UNL A   1      35.138  33.702  28.712  1.00  0.00    -0.267 OA
BRANCH  15  17
ATOM     17  C   UNL A   1      33.278  34.888  29.574  1.00  0.00     0.157 A 
ATOM     18  N   UNL A   1      32.740  35.933  28.892  1.00  0.00    -0.169 NA
ATOM     19  C   UNL A   1      33.569  35.406  30.974  1.00  0.00     0.033 A 
ATOM     20  N   UNL A   1      32.905  37.017  29.667  1.00  0.00    -0.277 N 
ATOM     21  C   UNL A   1      33.318  36.780  30.941  1.00  0.00     0.066 A 
ATOM     22  C   UNL A   1      34.056  35.009  32.251  1.00  0.00     0.013 A 
ATOM     23  H   UNL A   1      32.739  37.927  29.332  1.00  0.00     0.190 HD
ATOM     24  C   UNL A   1      33.531  37.676  32.025  1.00  0.00     0.028 A 
ATOM     25  C   UNL A   1      34.238  35.844  33.368  1.00  0.00     0.001 A 
ATOM     26  C   UNL A   1      33.980  37.185  33.251  1.00  0.00     0.002 A 
ENDBRANCH  15  17
ENDBRANCH   7   8
ENDBRANCH   6   7
ENDBRANCH   4   6
ENDBRANCH   3   4
ENDBRANCH   2   3
ENDBRANCH   1   2
BRANCH   1  27
ATOM     27  O   UNL A   1      35.115  23.172  24.655  1.00  0.00    -0.374 OA
BRANCH  27  28
ATOM     28  C   UNL A   1      35.594  22.429  25.747  1.00  0.00     0.202 C 
BRANCH  28  29
ATOM     29  C   UNL A   1      36.829  21.543  25.714  1.00  0.00     0.261 C 
BRANCH  29  30
ATOM     30  O   UNL A   1      38.052  22.150  25.300  1.00  0.00    -0.460 OA
BRANCH  30  31
ATOM     31  C   UNL A   1      39.178  21.828  25.966  1.00  0.00     0.338 C 
ATOM     32  O   UNL A   1      39.669  20.690  25.993  1.00  0.00    -0.246 OA
BRANCH  31  33
ATOM     33  C   UNL A   1      39.616  22.928  26.882  1.00  0.00     0.060 A 
ATOM     34  C   UNL A   1      39.270  24.211  26.493  1.00  0.00     0.016 A 
ATOM     35  C   UNL A   1      40.599  22.771  27.871  1.00  0.00     0.016 A 
ATOM     36  C   UNL A   1      40.029  25.288  26.933  1.00  0.00     0.010 A 
ATOM     37  C   UNL A   1      41.394  23.833  28.295  1.00  0.00     0.010 A 
ATOM     38  C   UNL A   1      41.134  25.095  27.777  1.00  0.00    -0.014 A 
BRANCH  38  39
ATOM     39  C   UNL A   1      41.868  26.275  28.242  1.00  0.00     0.031 A 
ATOM     40  C   UNL A   1      43.242  26.594  27.762  1.00  0.00     0.074 A 
ATOM     41  C   UNL A   1      41.183  27.104  29.042  1.00  0.00     0.049 A 
ATOM     42  N   UNL A   1      43.832  27.758  27.696  1.00  0.00    -0.248 NA
ATOM     43  C   UNL A   1      44.069  25.469  27.309  1.00  0.00     0.031 C 
ATOM     44  C   UNL A   1      39.886  26.796  29.645  1.00  0.00     0.029 A 
ATOM     45  N   UNL A   1      41.462  28.373  29.449  1.00  0.00    -0.354 N 
ATOM     46  C   UNL A   1      45.080  27.518  27.137  1.00  0.00     0.074 A 
ATOM     47  C   UNL A   1      45.188  26.086  26.943  1.00  0.00     0.031 C 
ATOM     48  C   UNL A   1      39.463  27.863  30.330  1.00  0.00     0.029 A 
ATOM     49  C   UNL A   1      40.442  28.932  30.169  1.00  0.00     0.049 A 
ATOM     50  H   UNL A   1      42.306  28.838  29.246  1.00  0.00     0.167 HD
ATOM     51  C   UNL A   1      46.024  28.435  26.816  1.00  0.00     0.037 A 
ATOM     52  C   UNL A   1      40.286  30.194  30.596  1.00  0.00     0.037 A 
ATOM     53  C   UNL A   1      45.878  29.845  27.102  1.00  0.00     0.049 A 
ATOM     54  C   UNL A   1      41.284  31.209  30.138  1.00  0.00     0.074 A 
ATOM     55  C   UNL A   1      46.720  30.894  26.780  1.00  0.00     0.029 A 
ATOM     56  N   UNL A   1      44.818  30.392  27.815  1.00  0.00    -0.354 N 
ATOM     57  N   UNL A   1      42.382  31.029  29.442  1.00  0.00    -0.248 NA
ATOM     58  C   UNL A   1      40.990  32.605  30.465  1.00  0.00     0.031 C 
ATOM     59  C   UNL A   1      46.193  32.065  27.342  1.00  0.00     0.029 A 
ATOM     60  C   UNL A   1      44.996  31.757  27.969  1.00  0.00     0.049 A 
ATOM     61  H   UNL A   1      44.050  29.881  28.162  1.00  0.00     0.167 HD
ATOM     62  C   UNL A   1      42.921  32.289  29.250  1.00  0.00     0.074 A 
ATOM     63  C   UNL A   1      41.996  33.226  29.863  1.00  0.00     0.031 C 
ATOM     64  C   UNL A   1      44.076  32.646  28.634  1.00  0.00     0.037 A 
BRANCH  51  65
ATOM     65  C   UNL A   1      47.270  27.972  26.114  1.00  0.00     0.064 A 
ATOM     66  C   UNL A   1      48.411  27.579  26.833  1.00  0.00     0.173 A 
ATOM     67  C   UNL A   1      47.298  27.815  24.719  1.00  0.00     0.173 A 
ATOM     68  F   UNL A   1      48.445  27.708  28.168  1.00  0.00    -0.203 F 
ATOM     69  C   UNL A   1      49.528  27.053  26.185  1.00  0.00     0.198 A 
ATOM     70  C   UNL A   1      48.409  27.267  24.076  1.00  0.00     0.198 A 
ATOM     71  F   UNL A   1      46.238  28.168  23.977  1.00  0.00    -0.203 F 
ATOM     72  F   UNL A   1      50.610  26.702  26.895  1.00  0.00    -0.200 F 
ATOM     73  C   UNL A   1      49.522  26.887  24.809  1.00  0.00     0.200 A 
ATOM     74  F   UNL A   1      48.395  27.096  22.747  1.00  0.00    -0.200 F 
ATOM     75  F   UNL A   1      50.588  26.361  24.190  1.00  0.00    -0.200 F 
ENDBRANCH  51  65
BRANCH  52  76
ATOM     76  C   UNL A   1      39.076  30.523  31.381  1.00  0.00     0.064 A 
ATOM     77  C   UNL A   1      39.116  30.604  32.778  1.00  0.00     0.173 A 
ATOM     78  C   UNL A   1      37.893  30.907  30.731  1.00  0.00     0.173 A 
ATOM     79  F   UNL A   1      40.232  30.264  33.438  1.00  0.00    -0.203 F 
ATOM     80  C   UNL A   1      38.013  31.054  33.499  1.00  0.00     0.198 A 
ATOM     81  C   UNL A   1      36.802  31.381  31.451  1.00  0.00     0.198 A 
ATOM     82  F   UNL A   1      37.825  30.882  29.392  1.00  0.00    -0.203 F 
ATOM     83  F   UNL A   1      38.072  31.120  34.835  1.00  0.00    -0.200 F 
ATOM     84  C   UNL A   1      36.861  31.451  32.835  1.00  0.00     0.200 A 
ATOM     85  F   UNL A   1      35.705  31.798  30.804  1.00  0.00    -0.200 F 
ATOM     86  F   UNL A   1      35.813  31.916  33.528  1.00  0.00    -0.200 F 
ENDBRANCH  52  76
BRANCH  64  87
ATOM     87  C   UNL A   1      44.399  34.109  28.655  1.00  0.00     0.064 A 
ATOM     88  C   UNL A   1      43.924  34.969  27.653  1.00  0.00     0.173 A 
ATOM     89  C   UNL A   1      45.217  34.647  29.658  1.00  0.00     0.173 A 
ATOM     90  F   UNL A   1      43.151  34.492  26.665  1.00  0.00    -0.203 F 
ATOM     91  C   UNL A   1      44.299  36.307  27.626  1.00  0.00     0.198 A 
ATOM     92  C   UNL A   1      45.566  35.994  29.644  1.00  0.00     0.198 A 
ATOM     93  F   UNL A   1      45.690  33.864  30.639  1.00  0.00    -0.203 F 
ATOM     94  F   UNL A   1      43.897  37.093  26.619  1.00  0.00    -0.200 F 
ATOM     95  C   UNL A   1      45.120  36.818  28.621  1.00  0.00     0.200 A 
ATOM     96  F   UNL A   1      46.352  36.491  30.610  1.00  0.00    -0.200 F 
ATOM     97  F   UNL A   1      45.495  38.104  28.584  1.00  0.00    -0.200 F 
ENDBRANCH  64  87
ENDBRANCH  38  39
ENDBRANCH  31  33
ENDBRANCH  30  31
ENDBRANCH  29  30
ENDBRANCH  28  29
ENDBRANCH  27  28
ENDBRANCH   1  27
TORSDOF 17
ENDMDL
MODEL 2
REMARK VINA RESULT:     -13.2      5.229     10.902
REMARK SMILES O=C(CC[NH+]1CCN(C(=O)c2n[nH]c3ccccc23)CC1)OCCOCCOC(=O)c1ccc(-c2c3nc(c(-c4c(F)c(F)c(F)c(F)c4F)c4ccc([nH]4)c(-c4c(F)c(F)c(F)c(F)c4F)c4nc(c(-c5c(F)c(F)c(F)c(F)c5F)c5ccc2[nH]5)C=C4)C=C3)cc1
REMARK SMILES IDX 24 1 23 2 22 3 2 4 1 5 3 6 4 7 5 8 6 9 21 10 7 12 20 13 8 14
REMARK SMILES IDX 9 15 10 16 11 17 12 18 19 19 13 20 14 21 18 22 15 24 17 25
REMARK SMILES IDX 16 26 25 27 26 28 27 29 28 30 29 31 30 32 31 33 32 34 93 35
REMARK SMILES IDX 33 36 92 37 34 38 35 39 36 40 86 41 37 42 91 43 85 44 87 45
REMARK SMILES IDX 38 46 90 47 84 48 83 49 39 51 71 52 51 53 70 54 52 55 55 56
REMARK SMILES IDX 69 57 88 58 53 59 54 60 68 62 89 63 56 64 40 65 41 66 49 67
REMARK SMILES IDX 42 68 43 69 47 70 50 71 44 72 45 73 48 74 46 75 72 76 73 77
REMARK SMILES IDX 81 78 74 79 75 80 79 81 82 82 76 83 77 84 80 85 78 86 57 87
REMARK SMILES IDX 58 88 66 89 59 90 60 91 64 92 67 93 61 94 62 95 65 96 63 97
REMARK H PARENT 5 11 13 23 87 50 55 61
REMARK Flexibility Score: inf
ROOT
ATOM      1  C   UNL A   1      35.520  32.431  28.771  1.00  0.00     0.202 C 
ENDROOT
BRANCH   1   2
ATOM      2  C   UNL A   1      34.796  31.240  27.960  1.00  0.00     0.261 C 
BRANCH   2   3
ATOM      3  O   UNL A   1      33.000  31.020  27.286  1.00  0.00    -0.463 OA
BRANCH   3   4
ATOM      4  C   UNL A   1      31.819  31.181  26.497  1.00  0.00     0.311 C 
ATOM      5  O   UNL A   1      31.074  32.142  26.671  1.00  0.00    -0.252 OA
BRANCH   4   6
ATOM      6  C   UNL A   1      31.480  30.115  25.450  1.00  0.00     0.184 C 
BRANCH   6   7
ATOM      7  C   UNL A   1      32.400  28.926  25.493  1.00  0.00     0.274 C 
BRANCH   7   8
ATOM      8  N   UNL A   1      31.639  27.793  24.997  1.00  0.00    -0.332 N 
ATOM      9  C   UNL A   1      32.660  27.220  23.525  1.00  0.00     0.284 C 
ATOM     10  C   UNL A   1      31.545  26.605  26.471  1.00  0.00     0.284 C 
ATOM     11  H   UNL A   1      30.680  27.936  24.681  1.00  0.00     0.348 HD
ATOM     12  C   UNL A   1      33.293  25.375  23.408  1.00  0.00     0.181 C 
ATOM     13  C   UNL A   1      32.201  24.753  26.325  1.00  0.00     0.181 C 
ATOM     14  N   UNL A   1      32.899  24.161  24.741  1.00  0.00    -0.326 N 
ATOM     15  C   UNL A   1      33.336  22.816  24.399  1.00  0.00     0.275 C 
ATOM     16  O   UNL A   1      34.193  22.783  23.498  1.00  0.00    -0.267 OA
BRANCH  15  17
ATOM     17  C   UNL A   1      32.855  21.416  24.895  1.00  0.00     0.157 A 
ATOM     18  N   UNL A   1      33.045  21.200  26.223  1.00  0.00    -0.169 NA
ATOM     19  C   UNL A   1      32.742  20.039  24.259  1.00  0.00     0.033 A 
ATOM     20  N   UNL A   1      33.272  19.884  26.365  1.00  0.00    -0.277 N 
ATOM     21  C   UNL A   1      33.038  19.118  25.266  1.00  0.00     0.066 A 
ATOM     22  C   UNL A   1      32.511  19.379  23.018  1.00  0.00     0.013 A 
ATOM     23  H   UNL A   1      33.591  19.499  27.212  1.00  0.00     0.190 HD
ATOM     24  C   UNL A   1      33.117  17.710  25.087  1.00  0.00     0.028 A 
ATOM     25  C   UNL A   1      32.530  17.990  22.799  1.00  0.00     0.001 A 
ATOM     26  C   UNL A   1      32.841  17.153  23.839  1.00  0.00     0.002 A 
ENDBRANCH  15  17
ENDBRANCH   7   8
ENDBRANCH   6   7
ENDBRANCH   4   6
ENDBRANCH   3   4
ENDBRANCH   2   3
ENDBRANCH   1   2
BRANCH   1  27
ATOM     27  O   UNL A   1      34.901  33.637  29.179  1.00  0.00    -0.374 OA
BRANCH  27  28
ATOM     28  C   UNL A   1      34.105  34.506  28.414  1.00  0.00     0.202 C 
BRANCH  28  29
ATOM     29  C   UNL A   1      33.230  35.608  28.990  1.00  0.00     0.261 C 
BRANCH  29  30
ATOM     30  O   UNL A   1      32.517  35.311  30.189  1.00  0.00    -0.460 OA
BRANCH  30  31
ATOM     31  C   UNL A   1      32.775  36.056  31.282  1.00  0.00     0.338 C 
ATOM     32  O   UNL A   1      32.531  37.268  31.371  1.00  0.00    -0.246 OA
BRANCH  31  33
ATOM     33  C   UNL A   1      33.628  35.321  32.267  1.00  0.00     0.060 A 
ATOM     34  C   UNL A   1      34.958  35.706  32.320  1.00  0.00     0.016 A 
ATOM     35  C   UNL A   1      33.263  34.100  32.855  1.00  0.00     0.016 A 
ATOM     36  C   UNL A   1      35.916  34.805  32.765  1.00  0.00     0.010 A 
ATOM     37  C   UNL A   1      34.211  33.169  33.270  1.00  0.00     0.010 A 
ATOM     38  C   UNL A   1      35.554  33.511  33.173  1.00  0.00    -0.014 A 
BRANCH  38  39
ATOM     39  C   UNL A   1      36.604  32.621  33.674  1.00  0.00     0.031 A 
ATOM     40  C   UNL A   1      37.248  31.590  32.810  1.00  0.00     0.074 A 
ATOM     41  C   UNL A   1      37.024  32.866  34.922  1.00  0.00     0.049 A 
ATOM     42  N   UNL A   1      38.438  31.063  32.920  1.00  0.00    -0.248 NA
ATOM     43  C   UNL A   1      36.457  31.072  31.688  1.00  0.00     0.031 C 
ATOM     44  C   UNL A   1      36.362  33.773  35.860  1.00  0.00     0.029 A 
ATOM     45  N   UNL A   1      38.116  32.408  35.596  1.00  0.00    -0.354 N 
ATOM     46  C   UNL A   1      38.566  30.192  31.847  1.00  0.00     0.074 A 
ATOM     47  C   UNL A   1      37.307  30.213  31.132  1.00  0.00     0.031 C 
ATOM     48  C   UNL A   1      37.078  33.829  36.988  1.00  0.00     0.029 A 
ATOM     49  C   UNL A   1      38.263  32.995  36.823  1.00  0.00     0.049 A 
ATOM     50  H   UNL A   1      38.732  31.728  35.238  1.00  0.00     0.167 HD
ATOM     51  C   UNL A   1      39.658  29.464  31.509  1.00  0.00     0.037 A 
ATOM     52  C   UNL A   1      39.282  32.920  37.691  1.00  0.00     0.037 A 
ATOM     53  C   UNL A   1      40.863  29.438  32.308  1.00  0.00     0.049 A 
ATOM     54  C   UNL A   1      40.517  32.201  37.251  1.00  0.00     0.074 A 
ATOM     55  C   UNL A   1      42.064  28.800  32.058  1.00  0.00     0.029 A 
ATOM     56  N   UNL A   1      40.996  30.065  33.542  1.00  0.00    -0.354 N 
ATOM     57  N   UNL A   1      40.727  31.524  36.146  1.00  0.00    -0.248 NA
ATOM     58  C   UNL A   1      41.676  32.290  38.141  1.00  0.00     0.031 C 
ATOM     59  C   UNL A   1      42.903  28.999  33.163  1.00  0.00     0.029 A 
ATOM     60  C   UNL A   1      42.246  29.807  34.079  1.00  0.00     0.049 A 
ATOM     61  H   UNL A   1      40.300  30.614  33.972  1.00  0.00     0.167 HD
ATOM     62  C   UNL A   1      42.041  31.096  36.206  1.00  0.00     0.074 A 
ATOM     63  C   UNL A   1      42.591  31.637  37.437  1.00  0.00     0.031 C 
ATOM     64  C   UNL A   1      42.734  30.320  35.334  1.00  0.00     0.037 A 
BRANCH  51  65
ATOM     65  C   UNL A   1      39.625  28.664  30.236  1.00  0.00     0.064 A 
ATOM     66  C   UNL A   1      40.122  29.188  29.031  1.00  0.00     0.173 A 
ATOM     67  C   UNL A   1      39.194  27.329  30.233  1.00  0.00     0.173 A 
ATOM     68  F   UNL A   1      40.545  30.460  28.971  1.00  0.00    -0.203 F 
ATOM     69  C   UNL A   1      40.184  28.410  27.876  1.00  0.00     0.198 A 
ATOM     70  C   UNL A   1      39.279  26.545  29.081  1.00  0.00     0.198 A 
ATOM     71  F   UNL A   1      38.713  26.770  31.353  1.00  0.00    -0.203 F 
ATOM     72  F   UNL A   1      40.647  28.940  26.735  1.00  0.00    -0.200 F 
ATOM     73  C   UNL A   1      39.773  27.086  27.904  1.00  0.00     0.200 A 
ATOM     74  F   UNL A   1      38.893  25.262  29.115  1.00  0.00    -0.200 F 
ATOM     75  F   UNL A   1      39.854  26.332  26.799  1.00  0.00    -0.200 F 
ENDBRANCH  51  65
BRANCH  52  76
ATOM     76  C   UNL A   1      39.167  33.654  38.970  1.00  0.00     0.064 A 
ATOM     77  C   UNL A   1      39.525  35.004  39.068  1.00  0.00     0.173 A 
ATOM     78  C   UNL A   1      38.554  33.052  40.080  1.00  0.00     0.173 A 
ATOM     79  F   UNL A   1      40.097  35.624  38.025  1.00  0.00    -0.203 F 
ATOM     80  C   UNL A   1      39.280  35.726  40.233  1.00  0.00     0.198 A 
ATOM     81  C   UNL A   1      38.287  33.782  41.234  1.00  0.00     0.198 A 
ATOM     82  F   UNL A   1      38.160  31.772  40.016  1.00  0.00    -0.203 F 
ATOM     83  F   UNL A   1      39.635  37.015  40.306  1.00  0.00    -0.200 F 
ATOM     84  C   UNL A   1      38.652  35.117  41.311  1.00  0.00     0.200 A 
ATOM     85  F   UNL A   1      37.647  33.200  42.258  1.00  0.00    -0.200 F 
ATOM     86  F   UNL A   1      38.386  35.822  42.419  1.00  0.00    -0.200 F 
ENDBRANCH  52  76
BRANCH  64  87
ATOM     87  C   UNL A   1      44.139  29.988  35.735  1.00  0.00     0.064 A 
ATOM     88  C   UNL A   1      44.418  28.865  36.529  1.00  0.00     0.173 A 
ATOM     89  C   UNL A   1      45.206  30.813  35.357  1.00  0.00     0.173 A 
ATOM     90  F   UNL A   1      43.423  28.056  36.928  1.00  0.00    -0.203 F 
ATOM     91  C   UNL A   1      45.710  28.609  36.974  1.00  0.00     0.198 A 
ATOM     92  C   UNL A   1      46.503  30.537  35.779  1.00  0.00     0.198 A 
ATOM     93  F   UNL A   1      44.989  31.895  34.593  1.00  0.00    -0.203 F 
ATOM     94  F   UNL A   1      45.942  27.576  37.794  1.00  0.00    -0.200 F 
ATOM     95  C   UNL A   1      46.751  29.446  36.598  1.00  0.00     0.200 A 
ATOM     96  F   UNL A   1      47.511  31.340  35.409  1.00  0.00    -0.200 F 
ATOM     97  F   UNL A   1      47.993  29.209  37.042  1.00  0.00    -0.200 F 
ENDBRANCH  64  87
ENDBRANCH  38  39
ENDBRANCH  31  33
ENDBRANCH  30  31
ENDBRANCH  29  30
ENDBRANCH  28  29
ENDBRANCH  27  28
ENDBRANCH   1  27
TORSDOF 17
ENDMDL
MODEL 3
REMARK VINA RESULT:     -12.1      4.928     10.300
REMARK SMILES O=C(CC[NH+]1CCN(C(=O)c2n[nH]c3ccccc23)CC1)OCCOCCOC(=O)c1ccc(-c2c3nc(c(-c4c(F)c(F)c(F)c(F)c4F)c4ccc([nH]4)c(-c4c(F)c(F)c(F)c(F)c4F)c4nc(c(-c5c(F)c(F)c(F)c(F)c5F)c5ccc2[nH]5)C=C4)C=C3)cc1
REMARK SMILES IDX 24 1 23 2 22 3 2 4 1 5 3 6 4 7 5 8 6 9 21 10 7 12 20 13 8 14
REMARK SMILES IDX 9 15 10 16 11 17 12 18 19 19 13 20 14 21 18 22 15 24 17 25
REMARK SMILES IDX 16 26 25 27 26 28 27 29 28 30 29 31 30 32 31 33 32 34 93 35
REMARK SMILES IDX 33 36 92 37 34 38 35 39 36 40 86 41 37 42 91 43 85 44 87 45
REMARK SMILES IDX 38 46 90 47 84 48 83 49 39 51 71 52 51 53 70 54 52 55 55 56
REMARK SMILES IDX 69 57 88 58 53 59 54 60 68 62 89 63 56 64 40 65 41 66 49 67
REMARK SMILES IDX 42 68 43 69 47 70 50 71 44 72 45 73 48 74 46 75 72 76 73 77
REMARK SMILES IDX 81 78 74 79 75 80 79 81 82 82 76 83 77 84 80 85 78 86 57 87
REMARK SMILES IDX 58 88 66 89 59 90 60 91 64 92 67 93 61 94 62 95 65 96 63 97
REMARK H PARENT 5 11 13 23 87 50 55 61
REMARK Flexibility Score: inf
ROOT
ATOM      1  C   UNL A   1      35.290  30.449  27.546  1.00  0.00     0.202 C 
ENDROOT
BRANCH   1   2
ATOM      2  C   UNL A   1      34.738  29.062  26.936  1.00  0.00     0.261 C 
BRANCH   2   3
ATOM      3  O   UNL A   1      32.958  28.418  26.553  1.00  0.00    -0.463 OA
BRANCH   3   4
ATOM      4  C   UNL A   1      31.727  28.159  25.875  1.00  0.00     0.311 C 
ATOM      5  O   UNL A   1      31.193  29.027  25.188  1.00  0.00    -0.252 OA
BRANCH   4   6
ATOM      6  C   UNL A   1      31.066  26.787  26.044  1.00  0.00     0.184 C 
BRANCH   6   7
ATOM      7  C   UNL A   1      31.746  25.698  25.259  1.00  0.00     0.274 C 
BRANCH   7   8
ATOM      8  N   UNL A   1      32.780  25.150  26.119  1.00  0.00    -0.332 N 
ATOM      9  C   UNL A   1      32.252  23.353  26.305  1.00  0.00     0.284 C 
ATOM     10  C   UNL A   1      34.394  25.461  25.177  1.00  0.00     0.284 C 
ATOM     11  H   UNL A   1      32.911  25.539  27.052  1.00  0.00     0.348 HD
ATOM     12  C   UNL A   1      33.478  21.902  25.844  1.00  0.00     0.181 C 
ATOM     13  C   UNL A   1      35.605  23.975  24.718  1.00  0.00     0.181 C 
ATOM     14  N   UNL A   1      35.175  22.269  25.219  1.00  0.00    -0.326 N 
ATOM     15  C   UNL A   1      35.974  21.061  25.071  1.00  0.00     0.275 C 
ATOM     16  O   UNL A   1      35.298  20.019  25.020  1.00  0.00    -0.267 OA
BRANCH  15  17
ATOM     17  C   UNL A   1      37.519  20.840  25.057  1.00  0.00     0.157 A 
ATOM     18  N   UNL A   1      37.898  19.575  24.733  1.00  0.00    -0.169 NA
ATOM     19  C   UNL A   1      38.691  21.449  25.810  1.00  0.00     0.033 A 
ATOM     20  N   UNL A   1      39.036  19.338  25.403  1.00  0.00    -0.277 N 
ATOM     21  C   UNL A   1      39.610  20.415  26.002  1.00  0.00     0.066 A 
ATOM     22  C   UNL A   1      39.140  22.650  26.427  1.00  0.00     0.013 A 
ATOM     23  H   UNL A   1      39.430  18.438  25.459  1.00  0.00     0.190 HD
ATOM     24  C   UNL A   1      40.828  20.529  26.729  1.00  0.00     0.028 A 
ATOM     25  C   UNL A   1      40.355  22.829  27.114  1.00  0.00     0.001 A 
ATOM     26  C   UNL A   1      41.198  21.760  27.271  1.00  0.00     0.002 A 
ENDBRANCH  15  17
ENDBRANCH   7   8
ENDBRANCH   6   7
ENDBRANCH   4   6
ENDBRANCH   3   4
ENDBRANCH   2   3
ENDBRANCH   1   2
BRANCH   1  27
ATOM     27  O   UNL A   1      34.571  31.302  28.418  1.00  0.00    -0.374 OA
BRANCH  27  28
ATOM     28  C   UNL A   1      33.615  32.277  28.087  1.00  0.00     0.202 C 
BRANCH  28  29
ATOM     29  C   UNL A   1      33.758  33.762  28.379  1.00  0.00     0.261 C 
BRANCH  29  30
ATOM     30  O   UNL A   1      32.721  34.376  29.142  1.00  0.00    -0.460 OA
BRANCH  30  31
ATOM     31  C   UNL A   1      33.065  35.329  30.031  1.00  0.00     0.338 C 
ATOM     32  O   UNL A   1      32.814  36.535  29.890  1.00  0.00    -0.246 OA
BRANCH  31  33
ATOM     33  C   UNL A   1      34.013  34.808  31.065  1.00  0.00     0.060 A 
ATOM     34  C   UNL A   1      35.360  34.955  30.779  1.00  0.00     0.016 A 
ATOM     35  C   UNL A   1      33.640  33.917  32.085  1.00  0.00     0.016 A 
ATOM     36  C   UNL A   1      36.282  34.090  31.354  1.00  0.00     0.010 A 
ATOM     37  C   UNL A   1      34.543  33.018  32.643  1.00  0.00     0.010 A 
ATOM     38  C   UNL A   1      35.868  33.075  32.231  1.00  0.00    -0.014 A 
BRANCH  38  39
ATOM     39  C   UNL A   1      36.893  32.222  32.839  1.00  0.00     0.031 A 
ATOM     40  C   UNL A   1      37.595  31.156  32.071  1.00  0.00     0.074 A 
ATOM     41  C   UNL A   1      37.234  32.535  34.096  1.00  0.00     0.049 A 
ATOM     42  N   UNL A   1      38.780  30.647  32.279  1.00  0.00    -0.248 NA
ATOM     43  C   UNL A   1      36.877  30.573  30.930  1.00  0.00     0.031 C 
ATOM     44  C   UNL A   1      36.509  33.482  34.944  1.00  0.00     0.029 A 
ATOM     45  N   UNL A   1      38.286  32.123  34.858  1.00  0.00    -0.354 N 
ATOM     46  C   UNL A   1      38.980  29.724  31.262  1.00  0.00     0.074 A 
ATOM     47  C   UNL A   1      37.766  29.696  30.472  1.00  0.00     0.031 C 
ATOM     48  C   UNL A   1      37.155  33.602  36.110  1.00  0.00     0.029 A 
ATOM     49  C   UNL A   1      38.353  32.774  36.059  1.00  0.00     0.049 A 
ATOM     50  H   UNL A   1      38.928  31.432  34.573  1.00  0.00     0.167 HD
ATOM     51  C   UNL A   1      40.095  28.991  31.028  1.00  0.00     0.037 A 
ATOM     52  C   UNL A   1      39.318  32.753  36.991  1.00  0.00     0.037 A 
ATOM     53  C   UNL A   1      41.249  29.018  31.899  1.00  0.00     0.049 A 
ATOM     54  C   UNL A   1      40.583  32.025  36.663  1.00  0.00     0.074 A 
ATOM     55  C   UNL A   1      42.468  28.380  31.755  1.00  0.00     0.029 A 
ATOM     56  N   UNL A   1      41.302  29.708  33.104  1.00  0.00    -0.354 N 
ATOM     57  N   UNL A   1      40.865  31.295  35.609  1.00  0.00    -0.248 NA
ATOM     58  C   UNL A   1      41.685  32.171  37.616  1.00  0.00     0.031 C 
ATOM     59  C   UNL A   1      43.237  28.644  32.897  1.00  0.00     0.029 A 
ATOM     60  C   UNL A   1      42.520  29.491  33.729  1.00  0.00     0.049 A 
ATOM     61  H   UNL A   1      40.578  30.271  33.463  1.00  0.00     0.167 HD
ATOM     62  C   UNL A   1      42.176  30.884  35.771  1.00  0.00     0.074 A 
ATOM     63  C   UNL A   1      42.646  31.492  37.004  1.00  0.00     0.031 C 
ATOM     64  C   UNL A   1      42.926  30.072  34.983  1.00  0.00     0.037 A 
BRANCH  51  65
ATOM     65  C   UNL A   1      40.145  28.127  29.799  1.00  0.00     0.064 A 
ATOM     66  C   UNL A   1      39.430  26.920  29.725  1.00  0.00     0.173 A 
ATOM     67  C   UNL A   1      40.822  28.550  28.644  1.00  0.00     0.173 A 
ATOM     68  F   UNL A   1      38.765  26.463  30.796  1.00  0.00    -0.203 F 
ATOM     69  C   UNL A   1      39.395  26.172  28.549  1.00  0.00     0.198 A 
ATOM     70  C   UNL A   1      40.767  27.811  27.462  1.00  0.00     0.198 A 
ATOM     71  F   UNL A   1      41.520  29.696  28.651  1.00  0.00    -0.203 F 
ATOM     72  F   UNL A   1      38.719  25.015  28.511  1.00  0.00    -0.200 F 
ATOM     73  C   UNL A   1      40.055  26.623  27.415  1.00  0.00     0.200 A 
ATOM     74  F   UNL A   1      41.394  28.256  26.365  1.00  0.00    -0.200 F 
ATOM     75  F   UNL A   1      40.001  25.914  26.279  1.00  0.00    -0.200 F 
ENDBRANCH  51  65
BRANCH  52  76
ATOM     76  C   UNL A   1      39.121  33.550  38.221  1.00  0.00     0.064 A 
ATOM     77  C   UNL A   1      39.546  34.881  38.300  1.00  0.00     0.173 A 
ATOM     78  C   UNL A   1      38.367  33.034  39.286  1.00  0.00     0.173 A 
ATOM     79  F   UNL A   1      40.253  35.421  37.297  1.00  0.00    -0.203 F 
ATOM     80  C   UNL A   1      39.229  35.668  39.404  1.00  0.00     0.198 A 
ATOM     81  C   UNL A   1      38.030  33.829  40.376  1.00  0.00     0.198 A 
ATOM     82  F   UNL A   1      37.906  31.776  39.233  1.00  0.00    -0.203 F 
ATOM     83  F   UNL A   1      39.650  36.938  39.461  1.00  0.00    -0.200 F 
ATOM     84  C   UNL A   1      38.463  35.144  40.436  1.00  0.00     0.200 A 
ATOM     85  F   UNL A   1      37.258  33.330  41.353  1.00  0.00    -0.200 F 
ATOM     86  F   UNL A   1      38.130  35.913  41.482  1.00  0.00    -0.200 F 
ENDBRANCH  52  76
BRANCH  64  87
ATOM     87  C   UNL A   1      44.306  29.775  35.485  1.00  0.00     0.064 A 
ATOM     88  C   UNL A   1      44.552  28.670  36.314  1.00  0.00     0.173 A 
ATOM     89  C   UNL A   1      45.381  30.617  35.168  1.00  0.00     0.173 A 
ATOM     90  F   UNL A   1      43.549  27.846  36.656  1.00  0.00    -0.203 F 
ATOM     91  C   UNL A   1      45.815  28.448  36.850  1.00  0.00     0.198 A 
ATOM     92  C   UNL A   1      46.651  30.375  35.682  1.00  0.00     0.198 A 
ATOM     93  F   UNL A   1      45.195  31.683  34.374  1.00  0.00    -0.203 F 
ATOM     94  F   UNL A   1      46.010  27.431  37.700  1.00  0.00    -0.200 F 
ATOM     95  C   UNL A   1      46.863  29.301  36.534  1.00  0.00     0.200 A 
ATOM     96  F   UNL A   1      47.665  31.193  35.371  1.00  0.00    -0.200 F 
ATOM     97  F   UNL A   1      48.076  29.096  37.066  1.00  0.00    -0.200 F 
ENDBRANCH  64  87
ENDBRANCH  38  39
ENDBRANCH  31  33
ENDBRANCH  30  31
ENDBRANCH  29  30
ENDBRANCH  28  29
ENDBRANCH  27  28
ENDBRANCH   1  27
TORSDOF 17
ENDMDL
