MODEL 1
REMARK VINA RESULT:     -11.8      0.000      0.000
REMARK SMILES Cc1c(NC(=O)C(F)(F)F)cccc1C(=O)OCCOCCOC(=O)c1ccc(-c2c3nc(c(-c4c(F)c(F)c(F)c(F)c4F)c4ccc([nH]4)c(-c4c(F)c(F)c(F)c(F)c4F)c4nc(c(-c5c(F)c(F)c(F)c(F)c5F)c5ccc2[nH]5)C=C4)C=C3)cc1
REMARK SMILES IDX 20 1 19 2 18 3 17 4 15 5 16 6 14 7 1 8 2 9 3 10 11 11 13 12
REMARK SMILES IDX 12 13 4 14 5 15 6 17 7 18 8 19 9 20 10 21 21 22 22 23 23 24
REMARK SMILES IDX 24 25 25 26 26 27 27 28 88 29 28 30 87 31 29 32 30 33 31 34
REMARK SMILES IDX 81 35 32 36 86 37 80 38 82 39 33 40 85 41 79 42 78 43 34 45
REMARK SMILES IDX 66 46 46 47 65 48 47 49 50 50 64 51 83 52 48 53 49 54 63 56
REMARK SMILES IDX 84 57 51 58 35 59 36 60 44 61 37 62 38 63 42 64 45 65 39 66
REMARK SMILES IDX 40 67 43 68 41 69 67 70 68 71 76 72 69 73 70 74 74 75 77 76
REMARK SMILES IDX 71 77 72 78 75 79 73 80 52 81 53 82 61 83 54 84 55 85 59 86
REMARK SMILES IDX 62 87 56 88 57 89 60 90 58 91
REMARK H PARENT 4 16 82 44 50 55
REMARK Flexibility Score: inf
ROOT
ATOM      1  O   UNL A   1      36.610  22.200  25.440  1.00  0.00    -0.374 OA
ENDROOT
BRANCH   1   2
ATOM      2  C   UNL A   1      36.052  23.293  26.147  1.00  0.00     0.202 C 
BRANCH   2   3
ATOM      3  C   UNL A   1      35.434  24.157  25.095  1.00  0.00     0.261 C 
BRANCH   3   4
ATOM      4  O   UNL A   1      34.541  23.425  24.241  1.00  0.00    -0.460 OA
BRANCH   4   5
ATOM      5  C   UNL A   1      33.282  23.177  24.652  1.00  0.00     0.338 C 
ATOM      6  O   UNL A   1      32.571  23.926  25.287  1.00  0.00    -0.246 OA
BRANCH   5   7
ATOM      7  C   UNL A   1      32.881  21.833  24.143  1.00  0.00     0.065 A 
ATOM      8  C   UNL A   1      33.613  20.474  26.235  1.00  0.00     0.047 C 
ATOM      9  C   UNL A   1      33.016  20.597  24.842  1.00  0.00    -0.013 A 
ATOM     10  C   UNL A   1      32.534  19.412  24.220  1.00  0.00     0.045 A 
ATOM     11  C   UNL A   1      32.116  19.465  22.887  1.00  0.00     0.026 A 
ATOM     12  C   UNL A   1      32.389  21.854  22.829  1.00  0.00     0.016 A 
ATOM     13  C   UNL A   1      32.046  20.673  22.193  1.00  0.00     0.003 A 
BRANCH  10  14
ATOM     14  N   UNL A   1      32.486  18.249  25.016  1.00  0.00    -0.318 N 
ATOM     15  C   UNL A   1      33.211  17.101  25.134  1.00  0.00     0.330 C 
ATOM     16  H   UNL A   1      31.734  18.273  25.650  1.00  0.00     0.170 HD
ATOM     17  O   UNL A   1      32.792  16.313  25.998  1.00  0.00    -0.264 OA
BRANCH  15  18
ATOM     18  C   UNL A   1      34.436  16.789  24.285  1.00  0.00     0.471 C 
ATOM     19  F   UNL A   1      34.111  16.414  23.016  1.00  0.00    -0.162 F 
ATOM     20  F   UNL A   1      35.282  17.851  24.181  1.00  0.00    -0.162 F 
ATOM     21  F   UNL A   1      35.179  15.766  24.794  1.00  0.00    -0.162 F 
ENDBRANCH  15  18
ENDBRANCH  10  14
ENDBRANCH   5   7
ENDBRANCH   4   5
ENDBRANCH   3   4
ENDBRANCH   2   3
ENDBRANCH   1   2
BRANCH   1  22
ATOM     22  C   UNL A   1      37.959  22.348  25.052  1.00  0.00     0.202 C 
BRANCH  22  23
ATOM     23  C   UNL A   1      38.925  21.620  25.997  1.00  0.00     0.261 C 
BRANCH  23  24
ATOM     24  O   UNL A   1      39.381  22.540  27.014  1.00  0.00    -0.460 OA
BRANCH  24  25
ATOM     25  C   UNL A   1      40.455  23.318  26.699  1.00  0.00     0.338 C 
ATOM     26  O   UNL A   1      41.597  22.918  26.540  1.00  0.00    -0.246 OA
BRANCH  25  27
ATOM     27  C   UNL A   1      40.101  24.761  26.875  1.00  0.00     0.060 A 
ATOM     28  C   UNL A   1      40.682  25.742  26.044  1.00  0.00     0.016 A 
ATOM     29  C   UNL A   1      39.484  25.144  28.063  1.00  0.00     0.016 A 
ATOM     30  C   UNL A   1      40.789  27.077  26.483  1.00  0.00     0.010 A 
ATOM     31  C   UNL A   1      39.686  26.425  28.533  1.00  0.00     0.010 A 
ATOM     32  C   UNL A   1      40.369  27.394  27.773  1.00  0.00    -0.014 A 
BRANCH  32  33
ATOM     33  C   UNL A   1      40.694  28.612  28.532  1.00  0.00     0.031 A 
ATOM     34  C   UNL A   1      39.646  29.654  28.638  1.00  0.00     0.074 A 
ATOM     35  C   UNL A   1      41.741  28.636  29.400  1.00  0.00     0.049 A 
ATOM     36  N   UNL A   1      39.810  30.762  29.267  1.00  0.00    -0.248 NA
ATOM     37  C   UNL A   1      38.325  29.565  28.015  1.00  0.00     0.031 C 
ATOM     38  C   UNL A   1      41.863  29.399  30.650  1.00  0.00     0.029 A 
ATOM     39  N   UNL A   1      42.940  27.910  29.379  1.00  0.00    -0.354 N 
ATOM     40  C   UNL A   1      38.580  31.343  29.435  1.00  0.00     0.074 A 
ATOM     41  C   UNL A   1      37.716  30.643  28.524  1.00  0.00     0.031 C 
ATOM     42  C   UNL A   1      43.127  29.331  31.108  1.00  0.00     0.029 A 
ATOM     43  C   UNL A   1      43.906  28.620  30.114  1.00  0.00     0.049 A 
ATOM     44  H   UNL A   1      43.082  27.048  28.926  1.00  0.00     0.167 HD
ATOM     45  C   UNL A   1      38.453  32.271  30.424  1.00  0.00     0.037 A 
ATOM     46  C   UNL A   1      45.072  29.003  29.535  1.00  0.00     0.037 A 
ATOM     47  C   UNL A   1      39.779  32.614  30.968  1.00  0.00     0.049 A 
ATOM     48  C   UNL A   1      45.052  30.498  29.463  1.00  0.00     0.074 A 
ATOM     49  C   UNL A   1      40.421  32.364  32.167  1.00  0.00     0.029 A 
ATOM     50  N   UNL A   1      40.770  33.052  30.083  1.00  0.00    -0.354 N 
ATOM     51  N   UNL A   1      43.930  31.169  29.473  1.00  0.00    -0.248 NA
ATOM     52  C   UNL A   1      46.227  31.355  29.544  1.00  0.00     0.031 C 
ATOM     53  C   UNL A   1      41.823  32.561  31.957  1.00  0.00     0.029 A 
ATOM     54  C   UNL A   1      42.030  32.971  30.645  1.00  0.00     0.049 A 
ATOM     55  H   UNL A   1      40.592  33.377  29.170  1.00  0.00     0.167 HD
ATOM     56  C   UNL A   1      44.198  32.477  29.695  1.00  0.00     0.074 A 
ATOM     57  C   UNL A   1      45.649  32.564  29.668  1.00  0.00     0.031 C 
ATOM     58  C   UNL A   1      43.216  33.397  29.903  1.00  0.00     0.037 A 
BRANCH  45  59
ATOM     59  C   UNL A   1      37.149  32.788  31.001  1.00  0.00     0.064 A 
ATOM     60  C   UNL A   1      36.322  33.633  30.229  1.00  0.00     0.173 A 
ATOM     61  C   UNL A   1      36.682  32.565  32.316  1.00  0.00     0.173 A 
ATOM     62  F   UNL A   1      36.650  33.963  28.971  1.00  0.00    -0.203 F 
ATOM     63  C   UNL A   1      35.131  34.184  30.720  1.00  0.00     0.198 A 
ATOM     64  C   UNL A   1      35.466  33.073  32.790  1.00  0.00     0.198 A 
ATOM     65  F   UNL A   1      37.397  31.899  33.226  1.00  0.00    -0.203 F 
ATOM     66  F   UNL A   1      34.412  35.011  29.949  1.00  0.00    -0.200 F 
ATOM     67  C   UNL A   1      34.693  33.888  31.995  1.00  0.00     0.200 A 
ATOM     68  F   UNL A   1      35.065  32.780  34.036  1.00  0.00    -0.200 F 
ATOM     69  F   UNL A   1      33.547  34.401  32.462  1.00  0.00    -0.200 F 
ENDBRANCH  45  59
BRANCH  46  70
ATOM     70  C   UNL A   1      45.559  27.972  28.569  1.00  0.00     0.064 A 
ATOM     71  C   UNL A   1      46.030  26.771  29.149  1.00  0.00     0.173 A 
ATOM     72  C   UNL A   1      45.062  27.893  27.259  1.00  0.00     0.173 A 
ATOM     73  F   UNL A   1      46.488  26.773  30.413  1.00  0.00    -0.203 F 
ATOM     74  C   UNL A   1      45.861  25.536  28.519  1.00  0.00     0.198 A 
ATOM     75  C   UNL A   1      44.892  26.649  26.632  1.00  0.00     0.198 A 
ATOM     76  F   UNL A   1      44.578  28.985  26.652  1.00  0.00    -0.203 F 
ATOM     77  F   UNL A   1      46.148  24.404  29.179  1.00  0.00    -0.200 F 
ATOM     78  C   UNL A   1      45.254  25.475  27.278  1.00  0.00     0.200 A 
ATOM     79  F   UNL A   1      44.265  26.577  25.448  1.00  0.00    -0.200 F 
ATOM     80  F   UNL A   1      44.934  24.284  26.748  1.00  0.00    -0.200 F 
ENDBRANCH  46  70
BRANCH  58  81
ATOM     81  C   UNL A   1      43.364  34.814  29.433  1.00  0.00     0.064 A 
ATOM     82  C   UNL A   1      43.136  35.197  28.097  1.00  0.00     0.173 A 
ATOM     83  C   UNL A   1      43.546  35.867  30.351  1.00  0.00     0.173 A 
ATOM     84  F   UNL A   1      42.799  34.307  27.153  1.00  0.00    -0.203 F 
ATOM     85  C   UNL A   1      43.189  36.526  27.694  1.00  0.00     0.198 A 
ATOM     86  C   UNL A   1      43.520  37.201  29.956  1.00  0.00     0.198 A 
ATOM     87  F   UNL A   1      43.712  35.640  31.662  1.00  0.00    -0.203 F 
ATOM     88  F   UNL A   1      43.031  36.829  26.397  1.00  0.00    -0.200 F 
ATOM     89  C   UNL A   1      43.370  37.529  28.624  1.00  0.00     0.200 A 
ATOM     90  F   UNL A   1      43.615  38.167  30.879  1.00  0.00    -0.200 F 
ATOM     91  F   UNL A   1      43.376  38.811  28.240  1.00  0.00    -0.200 F 
ENDBRANCH  58  81
ENDBRANCH  32  33
ENDBRANCH  25  27
ENDBRANCH  24  25
ENDBRANCH  23  24
ENDBRANCH  22  23
ENDBRANCH   1  22
TORSDOF 16
ENDMDL
MODEL 2
REMARK VINA RESULT:     -11.8      3.469      9.328
REMARK SMILES Cc1c(NC(=O)C(F)(F)F)cccc1C(=O)OCCOCCOC(=O)c1ccc(-c2c3nc(c(-c4c(F)c(F)c(F)c(F)c4F)c4ccc([nH]4)c(-c4c(F)c(F)c(F)c(F)c4F)c4nc(c(-c5c(F)c(F)c(F)c(F)c5F)c5ccc2[nH]5)C=C4)C=C3)cc1
REMARK SMILES IDX 20 1 19 2 18 3 17 4 15 5 16 6 14 7 1 8 2 9 3 10 11 11 13 12
REMARK SMILES IDX 12 13 4 14 5 15 6 17 7 18 8 19 9 20 10 21 21 22 22 23 23 24
REMARK SMILES IDX 24 25 25 26 26 27 27 28 88 29 28 30 87 31 29 32 30 33 31 34
REMARK SMILES IDX 81 35 32 36 86 37 80 38 82 39 33 40 85 41 79 42 78 43 34 45
REMARK SMILES IDX 66 46 46 47 65 48 47 49 50 50 64 51 83 52 48 53 49 54 63 56
REMARK SMILES IDX 84 57 51 58 35 59 36 60 44 61 37 62 38 63 42 64 45 65 39 66
REMARK SMILES IDX 40 67 43 68 41 69 67 70 68 71 76 72 69 73 70 74 74 75 77 76
REMARK SMILES IDX 71 77 72 78 75 79 73 80 52 81 53 82 61 83 54 84 55 85 59 86
REMARK SMILES IDX 62 87 56 88 57 89 60 90 58 91
REMARK H PARENT 4 16 82 44 50 55
REMARK Flexibility Score: inf
ROOT
ATOM      1  O   UNL A   1      31.576  29.560  25.828  1.00  0.00    -0.374 OA
ENDROOT
BRANCH   1   2
ATOM      2  C   UNL A   1      32.201  28.310  26.053  1.00  0.00     0.202 C 
BRANCH   2   3
ATOM      3  C   UNL A   1      31.076  27.350  26.279  1.00  0.00     0.261 C 
BRANCH   3   4
ATOM      4  O   UNL A   1      31.536  26.064  26.723  1.00  0.00    -0.460 OA
BRANCH   4   5
ATOM      5  C   UNL A   1      31.669  25.062  25.832  1.00  0.00     0.338 C 
ATOM      6  O   UNL A   1      31.120  24.979  24.754  1.00  0.00    -0.246 OA
BRANCH   5   7
ATOM      7  C   UNL A   1      32.660  24.087  26.371  1.00  0.00     0.065 A 
ATOM      8  C   UNL A   1      34.711  24.948  25.027  1.00  0.00     0.047 C 
ATOM      9  C   UNL A   1      34.043  24.018  26.027  1.00  0.00    -0.013 A 
ATOM     10  C   UNL A   1      34.856  23.050  26.678  1.00  0.00     0.045 A 
ATOM     11  C   UNL A   1      34.248  22.087  27.490  1.00  0.00     0.026 A 
ATOM     12  C   UNL A   1      32.101  23.144  27.248  1.00  0.00     0.016 A 
ATOM     13  C   UNL A   1      32.883  22.128  27.772  1.00  0.00     0.003 A 
BRANCH  10  14
ATOM     14  N   UNL A   1      36.248  23.147  26.478  1.00  0.00    -0.318 N 
ATOM     15  C   UNL A   1      37.152  22.676  25.573  1.00  0.00     0.330 C 
ATOM     16  H   UNL A   1      36.678  23.699  27.169  1.00  0.00     0.170 HD
ATOM     17  O   UNL A   1      38.326  23.018  25.790  1.00  0.00    -0.264 OA
BRANCH  15  18
ATOM     18  C   UNL A   1      36.775  21.797  24.387  1.00  0.00     0.471 C 
ATOM     19  F   UNL A   1      35.515  21.290  24.492  1.00  0.00    -0.162 F 
ATOM     20  F   UNL A   1      36.836  22.467  23.202  1.00  0.00    -0.162 F 
ATOM     21  F   UNL A   1      37.598  20.720  24.251  1.00  0.00    -0.162 F 
ENDBRANCH  15  18
ENDBRANCH  10  14
ENDBRANCH   5   7
ENDBRANCH   4   5
ENDBRANCH   3   4
ENDBRANCH   2   3
ENDBRANCH   1   2
BRANCH   1  22
ATOM     22  C   UNL A   1      32.140  30.657  26.513  1.00  0.00     0.202 C 
BRANCH  22  23
ATOM     23  C   UNL A   1      33.405  30.274  27.292  1.00  0.00     0.261 C 
BRANCH  23  24
ATOM     24  O   UNL A   1      34.434  31.260  27.047  1.00  0.00    -0.460 OA
BRANCH  24  25
ATOM     25  C   UNL A   1      35.306  31.502  28.066  1.00  0.00     0.338 C 
ATOM     26  O   UNL A   1      35.536  32.595  28.556  1.00  0.00    -0.246 OA
BRANCH  25  27
ATOM     27  C   UNL A   1      36.163  30.297  28.294  1.00  0.00     0.060 A 
ATOM     28  C   UNL A   1      36.240  29.709  29.574  1.00  0.00     0.016 A 
ATOM     29  C   UNL A   1      37.127  29.988  27.338  1.00  0.00     0.016 A 
ATOM     30  C   UNL A   1      37.367  28.951  29.946  1.00  0.00     0.010 A 
ATOM     31  C   UNL A   1      38.275  29.337  27.738  1.00  0.00     0.010 A 
ATOM     32  C   UNL A   1      38.429  28.844  29.049  1.00  0.00    -0.014 A 
BRANCH  32  33
ATOM     33  C   UNL A   1      39.799  28.403  29.352  1.00  0.00     0.031 A 
ATOM     34  C   UNL A   1      40.184  27.032  28.940  1.00  0.00     0.074 A 
ATOM     35  C   UNL A   1      40.774  29.302  29.650  1.00  0.00     0.049 A 
ATOM     36  N   UNL A   1      41.346  26.529  29.153  1.00  0.00    -0.248 NA
ATOM     37  C   UNL A   1      39.287  26.083  28.280  1.00  0.00     0.031 C 
ATOM     38  C   UNL A   1      42.210  29.213  29.352  1.00  0.00     0.029 A 
ATOM     39  N   UNL A   1      40.676  30.565  30.251  1.00  0.00    -0.354 N 
ATOM     40  C   UNL A   1      41.468  25.397  28.390  1.00  0.00     0.074 A 
ATOM     41  C   UNL A   1      40.125  25.085  27.982  1.00  0.00     0.031 C 
ATOM     42  C   UNL A   1      42.875  30.188  29.999  1.00  0.00     0.029 A 
ATOM     43  C   UNL A   1      41.915  30.879  30.836  1.00  0.00     0.049 A 
ATOM     44  H   UNL A   1      39.874  31.135  30.263  1.00  0.00     0.167 HD
ATOM     45  C   UNL A   1      42.728  24.953  28.120  1.00  0.00     0.037 A 
ATOM     46  C   UNL A   1      42.005  31.151  32.163  1.00  0.00     0.037 A 
ATOM     47  C   UNL A   1      43.709  25.698  28.928  1.00  0.00     0.049 A 
ATOM     48  C   UNL A   1      42.794  30.040  32.782  1.00  0.00     0.074 A 
ATOM     49  C   UNL A   1      44.674  26.645  28.637  1.00  0.00     0.029 A 
ATOM     50  N   UNL A   1      43.545  25.727  30.317  1.00  0.00    -0.354 N 
ATOM     51  N   UNL A   1      42.873  28.862  32.221  1.00  0.00    -0.248 NA
ATOM     52  C   UNL A   1      43.668  30.178  33.939  1.00  0.00     0.031 C 
ATOM     53  C   UNL A   1      45.009  27.311  29.859  1.00  0.00     0.029 A 
ATOM     54  C   UNL A   1      44.282  26.741  30.897  1.00  0.00     0.049 A 
ATOM     55  H   UNL A   1      42.973  25.102  30.820  1.00  0.00     0.167 HD
ATOM     56  C   UNL A   1      43.863  28.154  32.815  1.00  0.00     0.074 A 
ATOM     57  C   UNL A   1      44.291  28.986  33.928  1.00  0.00     0.031 C 
ATOM     58  C   UNL A   1      44.276  26.944  32.346  1.00  0.00     0.037 A 
BRANCH  45  59
ATOM     59  C   UNL A   1      43.109  23.947  27.051  1.00  0.00     0.064 A 
ATOM     60  C   UNL A   1      42.732  22.592  27.191  1.00  0.00     0.173 A 
ATOM     61  C   UNL A   1      43.899  24.213  25.910  1.00  0.00     0.173 A 
ATOM     62  F   UNL A   1      42.007  22.180  28.241  1.00  0.00    -0.203 F 
ATOM     63  C   UNL A   1      43.096  21.605  26.266  1.00  0.00     0.198 A 
ATOM     64  C   UNL A   1      44.218  23.236  24.959  1.00  0.00     0.198 A 
ATOM     65  F   UNL A   1      44.451  25.408  25.686  1.00  0.00    -0.203 F 
ATOM     66  F   UNL A   1      42.741  20.330  26.478  1.00  0.00    -0.200 F 
ATOM     67  C   UNL A   1      43.823  21.931  25.139  1.00  0.00     0.200 A 
ATOM     68  F   UNL A   1      44.935  23.575  23.876  1.00  0.00    -0.200 F 
ATOM     69  F   UNL A   1      44.158  20.992  24.245  1.00  0.00    -0.200 F 
ENDBRANCH  45  59
BRANCH  46  70
ATOM     70  C   UNL A   1      40.805  31.900  32.642  1.00  0.00     0.064 A 
ATOM     71  C   UNL A   1      40.648  33.202  32.110  1.00  0.00     0.173 A 
ATOM     72  C   UNL A   1      39.639  31.240  33.060  1.00  0.00     0.173 A 
ATOM     73  F   UNL A   1      41.722  33.875  31.662  1.00  0.00    -0.203 F 
ATOM     74  C   UNL A   1      39.387  33.744  31.858  1.00  0.00     0.198 A 
ATOM     75  C   UNL A   1      38.375  31.788  32.801  1.00  0.00     0.198 A 
ATOM     76  F   UNL A   1      39.707  29.996  33.555  1.00  0.00    -0.203 F 
ATOM     77  F   UNL A   1      39.277  34.897  31.181  1.00  0.00    -0.200 F 
ATOM     78  C   UNL A   1      38.251  33.016  32.166  1.00  0.00     0.200 A 
ATOM     79  F   UNL A   1      37.269  31.072  33.058  1.00  0.00    -0.200 F 
ATOM     80  F   UNL A   1      37.047  33.456  31.769  1.00  0.00    -0.200 F 
ENDBRANCH  46  70
BRANCH  58  81
ATOM     81  C   UNL A   1      44.758  25.871  33.278  1.00  0.00     0.064 A 
ATOM     82  C   UNL A   1      46.107  25.472  33.340  1.00  0.00     0.173 A 
ATOM     83  C   UNL A   1      43.915  25.350  34.280  1.00  0.00     0.173 A 
ATOM     84  F   UNL A   1      47.042  26.009  32.544  1.00  0.00    -0.203 F 
ATOM     85  C   UNL A   1      46.555  24.541  34.270  1.00  0.00     0.198 A 
ATOM     86  C   UNL A   1      44.386  24.480  35.258  1.00  0.00     0.198 A 
ATOM     87  F   UNL A   1      42.624  25.699  34.369  1.00  0.00    -0.203 F 
ATOM     88  F   UNL A   1      47.836  24.145  34.243  1.00  0.00    -0.200 F 
ATOM     89  C   UNL A   1      45.698  24.053  35.236  1.00  0.00     0.200 A 
ATOM     90  F   UNL A   1      43.565  24.077  36.237  1.00  0.00    -0.200 F 
ATOM     91  F   UNL A   1      46.143  23.192  36.158  1.00  0.00    -0.200 F 
ENDBRANCH  58  81
ENDBRANCH  32  33
ENDBRANCH  25  27
ENDBRANCH  24  25
ENDBRANCH  23  24
ENDBRANCH  22  23
ENDBRANCH   1  22
TORSDOF 16
ENDMDL
MODEL 3
REMARK VINA RESULT:     -11.7      5.600     10.827
REMARK SMILES Cc1c(NC(=O)C(F)(F)F)cccc1C(=O)OCCOCCOC(=O)c1ccc(-c2c3nc(c(-c4c(F)c(F)c(F)c(F)c4F)c4ccc([nH]4)c(-c4c(F)c(F)c(F)c(F)c4F)c4nc(c(-c5c(F)c(F)c(F)c(F)c5F)c5ccc2[nH]5)C=C4)C=C3)cc1
REMARK SMILES IDX 20 1 19 2 18 3 17 4 15 5 16 6 14 7 1 8 2 9 3 10 11 11 13 12
REMARK SMILES IDX 12 13 4 14 5 15 6 17 7 18 8 19 9 20 10 21 21 22 22 23 23 24
REMARK SMILES IDX 24 25 25 26 26 27 27 28 88 29 28 30 87 31 29 32 30 33 31 34
REMARK SMILES IDX 81 35 32 36 86 37 80 38 82 39 33 40 85 41 79 42 78 43 34 45
REMARK SMILES IDX 66 46 46 47 65 48 47 49 50 50 64 51 83 52 48 53 49 54 63 56
REMARK SMILES IDX 84 57 51 58 35 59 36 60 44 61 37 62 38 63 42 64 45 65 39 66
REMARK SMILES IDX 40 67 43 68 41 69 67 70 68 71 76 72 69 73 70 74 74 75 77 76
REMARK SMILES IDX 71 77 72 78 75 79 73 80 52 81 53 82 61 83 54 84 55 85 59 86
REMARK SMILES IDX 62 87 56 88 57 89 60 90 58 91
REMARK H PARENT 4 16 82 44 50 55
REMARK Flexibility Score: inf
ROOT
ATOM      1  O   UNL A   1      32.719  36.241  29.091  1.00  0.00    -0.374 OA
ENDROOT
BRANCH   1   2
ATOM      2  C   UNL A   1      32.834  35.024  28.376  1.00  0.00     0.202 C 
BRANCH   2   3
ATOM      3  C   UNL A   1      34.300  34.853  28.138  1.00  0.00     0.261 C 
BRANCH   3   4
ATOM      4  O   UNL A   1      34.641  33.504  27.779  1.00  0.00    -0.460 OA
BRANCH   4   5
ATOM      5  C   UNL A   1      34.264  32.488  28.580  1.00  0.00     0.338 C 
ATOM      6  O   UNL A   1      33.969  32.567  29.754  1.00  0.00    -0.246 OA
BRANCH   5   7
ATOM      7  C   UNL A   1      34.215  31.242  27.761  1.00  0.00     0.065 A 
ATOM      8  C   UNL A   1      31.804  31.564  26.845  1.00  0.00     0.047 C 
ATOM      9  C   UNL A   1      33.116  30.805  26.964  1.00  0.00    -0.013 A 
ATOM     10  C   UNL A   1      33.262  29.610  26.207  1.00  0.00     0.045 A 
ATOM     11  C   UNL A   1      34.393  28.813  26.405  1.00  0.00     0.026 A 
ATOM     12  C   UNL A   1      35.365  30.447  27.878  1.00  0.00     0.016 A 
ATOM     13  C   UNL A   1      35.436  29.223  27.235  1.00  0.00     0.003 A 
BRANCH  10  14
ATOM     14  N   UNL A   1      32.248  29.321  25.271  1.00  0.00    -0.318 N 
ATOM     15  C   UNL A   1      31.319  28.340  25.091  1.00  0.00     0.330 C 
ATOM     16  H   UNL A   1      32.197  30.005  24.565  1.00  0.00     0.170 HD
ATOM     17  O   UNL A   1      30.602  28.486  24.087  1.00  0.00    -0.264 OA
BRANCH  15  18
ATOM     18  C   UNL A   1      31.159  27.151  26.030  1.00  0.00     0.471 C 
ATOM     19  F   UNL A   1      31.006  27.529  27.330  1.00  0.00    -0.162 F 
ATOM     20  F   UNL A   1      30.082  26.378  25.712  1.00  0.00    -0.162 F 
ATOM     21  F   UNL A   1      32.237  26.319  26.010  1.00  0.00    -0.162 F 
ENDBRANCH  15  18
ENDBRANCH  10  14
ENDBRANCH   5   7
ENDBRANCH   4   5
ENDBRANCH   3   4
ENDBRANCH   2   3
ENDBRANCH   1   2
BRANCH   1  22
ATOM     22  C   UNL A   1      33.510  36.342  30.256  1.00  0.00     0.202 C 
BRANCH  22  23
ATOM     23  C   UNL A   1      32.703  36.093  31.536  1.00  0.00     0.261 C 
BRANCH  23  24
ATOM     24  O   UNL A   1      33.259  34.958  32.239  1.00  0.00    -0.460 OA
BRANCH  24  25
ATOM     25  C   UNL A   1      34.561  35.059  32.632  1.00  0.00     0.338 C 
ATOM     26  O   UNL A   1      35.093  36.069  33.062  1.00  0.00    -0.246 OA
BRANCH  25  27
ATOM     27  C   UNL A   1      35.320  33.853  32.179  1.00  0.00     0.060 A 
ATOM     28  C   UNL A   1      35.186  32.628  32.866  1.00  0.00     0.016 A 
ATOM     29  C   UNL A   1      36.395  34.042  31.314  1.00  0.00     0.016 A 
ATOM     30  C   UNL A   1      36.213  31.665  32.816  1.00  0.00     0.010 A 
ATOM     31  C   UNL A   1      37.443  33.146  31.352  1.00  0.00     0.010 A 
ATOM     32  C   UNL A   1      37.386  31.971  32.127  1.00  0.00    -0.014 A 
BRANCH  32  33
ATOM     33  C   UNL A   1      38.677  31.273  32.230  1.00  0.00     0.031 A 
ATOM     34  C   UNL A   1      38.885  30.086  31.368  1.00  0.00     0.074 A 
ATOM     35  C   UNL A   1      39.756  31.879  32.793  1.00  0.00     0.049 A 
ATOM     36  N   UNL A   1      39.964  29.389  31.370  1.00  0.00    -0.248 NA
ATOM     37  C   UNL A   1      37.885  29.547  30.445  1.00  0.00     0.031 C 
ATOM     38  C   UNL A   1      41.174  31.705  32.450  1.00  0.00     0.029 A 
ATOM     39  N   UNL A   1      39.813  32.863  33.790  1.00  0.00    -0.354 N 
ATOM     40  C   UNL A   1      39.952  28.579  30.265  1.00  0.00     0.074 A 
ATOM     41  C   UNL A   1      38.590  28.607  29.806  1.00  0.00     0.031 C 
ATOM     42  C   UNL A   1      41.948  32.304  33.374  1.00  0.00     0.029 A 
ATOM     43  C   UNL A   1      41.068  32.791  34.418  1.00  0.00     0.049 A 
ATOM     44  H   UNL A   1      39.094  33.497  34.014  1.00  0.00     0.167 HD
ATOM     45  C   UNL A   1      41.147  28.089  29.831  1.00  0.00     0.037 A 
ATOM     46  C   UNL A   1      41.163  32.581  35.756  1.00  0.00     0.037 A 
ATOM     47  C   UNL A   1      42.200  28.377  30.821  1.00  0.00     0.049 A 
ATOM     48  C   UNL A   1      41.781  31.231  35.942  1.00  0.00     0.074 A 
ATOM     49  C   UNL A   1      43.289  29.228  30.847  1.00  0.00     0.029 A 
ATOM     50  N   UNL A   1      42.008  27.954  32.141  1.00  0.00    -0.354 N 
ATOM     51  N   UNL A   1      41.716  30.314  35.012  1.00  0.00    -0.248 NA
ATOM     52  C   UNL A   1      42.637  30.849  37.057  1.00  0.00     0.031 C 
ATOM     53  C   UNL A   1      43.681  29.388  32.215  1.00  0.00     0.029 A 
ATOM     54  C   UNL A   1      42.860  28.602  33.014  1.00  0.00     0.049 A 
ATOM     55  H   UNL A   1      41.346  27.278  32.414  1.00  0.00     0.167 HD
ATOM     56  C   UNL A   1      42.588  29.321  35.307  1.00  0.00     0.074 A 
ATOM     57  C   UNL A   1      43.096  29.660  36.626  1.00  0.00     0.031 C 
ATOM     58  C   UNL A   1      42.846  28.299  34.445  1.00  0.00     0.037 A 
BRANCH  45  59
ATOM     59  C   UNL A   1      41.416  27.465  28.475  1.00  0.00     0.064 A 
ATOM     60  C   UNL A   1      41.591  28.289  27.341  1.00  0.00     0.173 A 
ATOM     61  C   UNL A   1      41.440  26.080  28.194  1.00  0.00     0.173 A 
ATOM     62  F   UNL A   1      41.561  29.625  27.445  1.00  0.00    -0.203 F 
ATOM     63  C   UNL A   1      41.792  27.774  26.054  1.00  0.00     0.198 A 
ATOM     64  C   UNL A   1      41.692  25.566  26.916  1.00  0.00     0.198 A 
ATOM     65  F   UNL A   1      41.164  25.157  29.119  1.00  0.00    -0.203 F 
ATOM     66  F   UNL A   1      41.912  28.610  25.013  1.00  0.00    -0.200 F 
ATOM     67  C   UNL A   1      41.862  26.412  25.844  1.00  0.00     0.200 A 
ATOM     68  F   UNL A   1      41.746  24.237  26.735  1.00  0.00    -0.200 F 
ATOM     69  F   UNL A   1      42.069  25.918  24.617  1.00  0.00    -0.200 F 
ENDBRANCH  45  59
BRANCH  46  70
ATOM     70  C   UNL A   1      40.062  33.276  36.489  1.00  0.00     0.064 A 
ATOM     71  C   UNL A   1      39.013  32.442  36.943  1.00  0.00     0.173 A 
ATOM     72  C   UNL A   1      40.283  34.464  37.203  1.00  0.00     0.173 A 
ATOM     73  F   UNL A   1      38.772  31.274  36.323  1.00  0.00    -0.203 F 
ATOM     74  C   UNL A   1      38.336  32.699  38.137  1.00  0.00     0.198 A 
ATOM     75  C   UNL A   1      39.602  34.715  38.403  1.00  0.00     0.198 A 
ATOM     76  F   UNL A   1      41.273  35.294  36.845  1.00  0.00    -0.203 F 
ATOM     77  F   UNL A   1      37.482  31.790  38.630  1.00  0.00    -0.200 F 
ATOM     78  C   UNL A   1      38.662  33.815  38.886  1.00  0.00     0.200 A 
ATOM     79  F   UNL A   1      39.941  35.772  39.157  1.00  0.00    -0.200 F 
ATOM     80  F   UNL A   1      38.139  33.973  40.112  1.00  0.00    -0.200 F 
ENDBRANCH  46  70
BRANCH  58  81
ATOM     81  C   UNL A   1      43.158  26.919  34.945  1.00  0.00     0.064 A 
ATOM     82  C   UNL A   1      42.168  25.932  35.111  1.00  0.00     0.173 A 
ATOM     83  C   UNL A   1      44.491  26.483  35.084  1.00  0.00     0.173 A 
ATOM     84  F   UNL A   1      40.874  26.177  34.859  1.00  0.00    -0.203 F 
ATOM     85  C   UNL A   1      42.482  24.632  35.489  1.00  0.00     0.198 A 
ATOM     86  C   UNL A   1      44.804  25.161  35.384  1.00  0.00     0.198 A 
ATOM     87  F   UNL A   1      45.528  27.309  34.891  1.00  0.00    -0.203 F 
ATOM     88  F   UNL A   1      41.495  23.748  35.699  1.00  0.00    -0.200 F 
ATOM     89  C   UNL A   1      43.800  24.243  35.615  1.00  0.00     0.200 A 
ATOM     90  F   UNL A   1      46.087  24.777  35.424  1.00  0.00    -0.200 F 
ATOM     91  F   UNL A   1      44.102  22.979  35.935  1.00  0.00    -0.200 F 
ENDBRANCH  58  81
ENDBRANCH  32  33
ENDBRANCH  25  27
ENDBRANCH  24  25
ENDBRANCH  23  24
ENDBRANCH  22  23
ENDBRANCH   1  22
TORSDOF 16
ENDMDL
