MODEL 1
REMARK VINA RESULT:     -12.0      0.000      0.000
REMARK SMILES O=C(Nc1ccccc1C(=O)OCCOCCOC(=O)c1ccc(-c2c3nc(c(-c4c(F)c(F)c(F)c(F)c4F)c4ccc([nH]4)c(-c4c(F)c(F)c(F)c(F)c4F)c4nc(c(-c5c(F)c(F)c(F)c(F)c5F)c5ccc2[nH]5)C=C4)C=C3)cc1)c1ccncc1
REMARK SMILES IDX 15 1 14 2 13 3 12 4 10 5 11 6 9 7 4 8 5 9 6 10 8 11 7 12
REMARK SMILES IDX 3 13 1 14 2 15 84 17 85 18 89 19 86 20 88 21 87 22 16 23
REMARK SMILES IDX 17 24 18 25 19 26 20 27 21 28 22 29 83 30 23 31 82 32 24 33
REMARK SMILES IDX 25 34 26 35 76 36 27 37 81 38 75 39 77 40 28 41 80 42 74 43
REMARK SMILES IDX 73 44 29 46 61 47 41 48 60 49 42 50 45 51 59 52 78 53 43 54
REMARK SMILES IDX 44 55 58 57 79 58 46 59 30 60 31 61 39 62 32 63 33 64 37 65
REMARK SMILES IDX 40 66 34 67 35 68 38 69 36 70 62 71 63 72 71 73 64 74 65 75
REMARK SMILES IDX 69 76 72 77 66 78 67 79 70 80 68 81 47 82 48 83 56 84 49 85
REMARK SMILES IDX 50 86 54 87 57 88 51 89 52 90 55 91 53 92
REMARK H PARENT 3 16 77 45 45 56
REMARK Flexibility Score: inf
ROOT
ATOM      1  O   UNL A   1      41.002  21.667  26.794  1.00  0.00    -0.374 OA
ENDROOT
BRANCH   1   2
ATOM      2  C   UNL A   1      39.809  21.223  26.164  1.00  0.00     0.202 C 
BRANCH   2   3
ATOM      3  C   UNL A   1      38.620  22.189  26.118  1.00  0.00     0.261 C 
BRANCH   3   4
ATOM      4  O   UNL A   1      37.437  21.648  25.506  1.00  0.00    -0.460 OA
BRANCH   4   5
ATOM      5  C   UNL A   1      36.654  22.563  24.882  1.00  0.00     0.340 C 
ATOM      6  O   UNL A   1      36.987  23.693  24.542  1.00  0.00    -0.246 OA
BRANCH   5   7
ATOM      7  C   UNL A   1      35.342  21.996  24.496  1.00  0.00     0.083 A 
ATOM      8  C   UNL A   1      34.372  22.603  23.679  1.00  0.00     0.056 A 
ATOM      9  C   UNL A   1      33.118  21.973  23.558  1.00  0.00     0.027 A 
ATOM     10  C   UNL A   1      32.859  20.734  24.151  1.00  0.00     0.002 A 
ATOM     11  C   UNL A   1      35.070  20.742  25.085  1.00  0.00     0.018 A 
ATOM     12  C   UNL A   1      33.842  20.110  24.904  1.00  0.00     0.001 A 
BRANCH   8  13
ATOM     13  N   UNL A   1      34.492  23.792  22.929  1.00  0.00    -0.321 N 
ATOM     14  O   UNL A   1      33.937  25.741  21.954  1.00  0.00    -0.269 OA
ATOM     15  C   UNL A   1      33.773  24.963  22.894  1.00  0.00     0.255 C 
ATOM     16  H   UNL A   1      35.249  23.782  22.298  1.00  0.00     0.170 HD
BRANCH  15  17
ATOM     17  C   UNL A   1      32.880  25.376  23.999  1.00  0.00     0.043 A 
ATOM     18  C   UNL A   1      31.504  25.310  23.778  1.00  0.00     0.034 A 
ATOM     19  C   UNL A   1      33.364  25.843  25.220  1.00  0.00     0.034 A 
ATOM     20  C   UNL A   1      30.664  25.639  24.823  1.00  0.00     0.112 A 
ATOM     21  C   UNL A   1      32.440  26.140  26.203  1.00  0.00     0.112 A 
ATOM     22  N   UNL A   1      31.103  26.046  26.031  1.00  0.00    -0.265 NA
ENDBRANCH  15  17
ENDBRANCH   8  13
ENDBRANCH   5   7
ENDBRANCH   4   5
ENDBRANCH   3   4
ENDBRANCH   2   3
ENDBRANCH   1   2
BRANCH   1  23
ATOM     23  C   UNL A   1      42.220  20.999  26.475  1.00  0.00     0.202 C 
BRANCH  23  24
ATOM     24  C   UNL A   1      43.293  21.784  25.709  1.00  0.00     0.261 C 
BRANCH  24  25
ATOM     25  O   UNL A   1      42.763  22.853  24.899  1.00  0.00    -0.460 OA
BRANCH  25  26
ATOM     26  C   UNL A   1      43.478  23.999  24.938  1.00  0.00     0.338 C 
ATOM     27  O   UNL A   1      44.534  24.240  24.358  1.00  0.00    -0.246 OA
BRANCH  26  28
ATOM     28  C   UNL A   1      42.788  25.038  25.715  1.00  0.00     0.060 A 
ATOM     29  C   UNL A   1      43.423  26.274  25.893  1.00  0.00     0.016 A 
ATOM     30  C   UNL A   1      41.634  24.723  26.435  1.00  0.00     0.016 A 
ATOM     31  C   UNL A   1      42.934  27.179  26.834  1.00  0.00     0.010 A 
ATOM     32  C   UNL A   1      41.149  25.630  27.382  1.00  0.00     0.010 A 
ATOM     33  C   UNL A   1      41.820  26.844  27.617  1.00  0.00    -0.014 A 
BRANCH  33  34
ATOM     34  C   UNL A   1      41.443  27.691  28.777  1.00  0.00     0.031 A 
ATOM     35  C   UNL A   1      42.224  27.573  30.058  1.00  0.00     0.074 A 
ATOM     36  C   UNL A   1      40.425  28.564  28.689  1.00  0.00     0.049 A 
ATOM     37  N   UNL A   1      42.018  28.151  31.215  1.00  0.00    -0.248 NA
ATOM     38  C   UNL A   1      43.396  26.683  30.033  1.00  0.00     0.031 C 
ATOM     39  C   UNL A   1      39.615  28.798  27.496  1.00  0.00     0.029 A 
ATOM     40  N   UNL A   1      39.892  29.408  29.632  1.00  0.00    -0.354 N 
ATOM     41  C   UNL A   1      43.030  27.696  32.052  1.00  0.00     0.074 A 
ATOM     42  C   UNL A   1      43.834  26.773  31.281  1.00  0.00     0.031 C 
ATOM     43  C   UNL A   1      38.671  29.710  27.784  1.00  0.00     0.029 A 
ATOM     44  C   UNL A   1      38.792  30.098  29.189  1.00  0.00     0.049 A 
ATOM     45  H   UNL A   1      40.263  29.508  30.539  1.00  0.00     0.167 HD
ATOM     46  C   UNL A   1      43.273  28.028  33.343  1.00  0.00     0.037 A 
ATOM     47  C   UNL A   1      37.958  30.923  29.853  1.00  0.00     0.037 A 
ATOM     48  C   UNL A   1      42.471  28.941  34.116  1.00  0.00     0.049 A 
ATOM     49  C   UNL A   1      38.210  31.222  31.309  1.00  0.00     0.074 A 
ATOM     50  C   UNL A   1      42.628  29.325  35.436  1.00  0.00     0.029 A 
ATOM     51  N   UNL A   1      41.361  29.616  33.633  1.00  0.00    -0.354 N 
ATOM     52  N   UNL A   1      39.167  30.788  32.091  1.00  0.00    -0.248 NA
ATOM     53  C   UNL A   1      37.261  32.128  31.974  1.00  0.00     0.031 C 
ATOM     54  C   UNL A   1      41.593  30.207  35.762  1.00  0.00     0.029 A 
ATOM     55  C   UNL A   1      40.816  30.405  34.632  1.00  0.00     0.049 A 
ATOM     56  H   UNL A   1      41.010  29.544  32.715  1.00  0.00     0.167 HD
ATOM     57  C   UNL A   1      38.954  31.386  33.326  1.00  0.00     0.074 A 
ATOM     58  C   UNL A   1      37.783  32.225  33.188  1.00  0.00     0.031 C 
ATOM     59  C   UNL A   1      39.661  31.249  34.474  1.00  0.00     0.037 A 
BRANCH  46  60
ATOM     60  C   UNL A   1      44.454  27.391  34.014  1.00  0.00     0.064 A 
ATOM     61  C   UNL A   1      44.347  26.146  34.650  1.00  0.00     0.173 A 
ATOM     62  C   UNL A   1      45.715  28.003  33.972  1.00  0.00     0.173 A 
ATOM     63  F   UNL A   1      43.160  25.527  34.727  1.00  0.00    -0.203 F 
ATOM     64  C   UNL A   1      45.460  25.541  35.230  1.00  0.00     0.198 A 
ATOM     65  C   UNL A   1      46.830  27.385  34.532  1.00  0.00     0.198 A 
ATOM     66  F   UNL A   1      45.870  29.193  33.371  1.00  0.00    -0.203 F 
ATOM     67  F   UNL A   1      45.330  24.364  35.858  1.00  0.00    -0.200 F 
ATOM     68  C   UNL A   1      46.701  26.156  35.162  1.00  0.00     0.200 A 
ATOM     69  F   UNL A   1      48.030  27.975  34.456  1.00  0.00    -0.200 F 
ATOM     70  F   UNL A   1      47.773  25.568  35.710  1.00  0.00    -0.200 F 
ENDBRANCH  46  60
BRANCH  47  71
ATOM     71  C   UNL A   1      36.782  31.508  29.158  1.00  0.00     0.064 A 
ATOM     72  C   UNL A   1      36.741  32.868  28.823  1.00  0.00     0.173 A 
ATOM     73  C   UNL A   1      35.659  30.725  28.853  1.00  0.00     0.173 A 
ATOM     74  F   UNL A   1      37.778  33.663  29.122  1.00  0.00    -0.203 F 
ATOM     75  C   UNL A   1      35.611  33.428  28.231  1.00  0.00     0.198 A 
ATOM     76  C   UNL A   1      34.541  31.280  28.234  1.00  0.00     0.198 A 
ATOM     77  F   UNL A   1      35.646  29.419  29.160  1.00  0.00    -0.203 F 
ATOM     78  F   UNL A   1      35.574  34.743  27.974  1.00  0.00    -0.200 F 
ATOM     79  C   UNL A   1      34.513  32.633  27.933  1.00  0.00     0.200 A 
ATOM     80  F   UNL A   1      33.486  30.507  27.944  1.00  0.00    -0.200 F 
ATOM     81  F   UNL A   1      33.424  33.173  27.370  1.00  0.00    -0.200 F 
ENDBRANCH  47  71
BRANCH  59  82
ATOM     82  C   UNL A   1      39.217  32.056  35.659  1.00  0.00     0.064 A 
ATOM     83  C   UNL A   1      39.603  33.394  35.824  1.00  0.00     0.173 A 
ATOM     84  C   UNL A   1      38.361  31.495  36.619  1.00  0.00     0.173 A 
ATOM     85  F   UNL A   1      40.433  33.970  34.941  1.00  0.00    -0.203 F 
ATOM     86  C   UNL A   1      39.169  34.134  36.920  1.00  0.00     0.198 A 
ATOM     87  C   UNL A   1      37.907  32.246  37.700  1.00  0.00     0.198 A 
ATOM     88  F   UNL A   1      37.956  30.221  36.503  1.00  0.00    -0.203 F 
ATOM     89  F   UNL A   1      39.585  35.397  37.081  1.00  0.00    -0.200 F 
ATOM     90  C   UNL A   1      38.315  33.562  37.853  1.00  0.00     0.200 A 
ATOM     91  F   UNL A   1      37.073  31.696  38.593  1.00  0.00    -0.200 F 
ATOM     92  F   UNL A   1      37.893  34.278  38.904  1.00  0.00    -0.200 F 
ENDBRANCH  59  82
ENDBRANCH  33  34
ENDBRANCH  26  28
ENDBRANCH  25  26
ENDBRANCH  24  25
ENDBRANCH  23  24
ENDBRANCH   1  23
TORSDOF 16
ENDMDL
MODEL 2
REMARK VINA RESULT:     -11.7      4.487      8.777
REMARK SMILES O=C(Nc1ccccc1C(=O)OCCOCCOC(=O)c1ccc(-c2c3nc(c(-c4c(F)c(F)c(F)c(F)c4F)c4ccc([nH]4)c(-c4c(F)c(F)c(F)c(F)c4F)c4nc(c(-c5c(F)c(F)c(F)c(F)c5F)c5ccc2[nH]5)C=C4)C=C3)cc1)c1ccncc1
REMARK SMILES IDX 15 1 14 2 13 3 12 4 10 5 11 6 9 7 4 8 5 9 6 10 8 11 7 12
REMARK SMILES IDX 3 13 1 14 2 15 84 17 85 18 89 19 86 20 88 21 87 22 16 23
REMARK SMILES IDX 17 24 18 25 19 26 20 27 21 28 22 29 83 30 23 31 82 32 24 33
REMARK SMILES IDX 25 34 26 35 76 36 27 37 81 38 75 39 77 40 28 41 80 42 74 43
REMARK SMILES IDX 73 44 29 46 61 47 41 48 60 49 42 50 45 51 59 52 78 53 43 54
REMARK SMILES IDX 44 55 58 57 79 58 46 59 30 60 31 61 39 62 32 63 33 64 37 65
REMARK SMILES IDX 40 66 34 67 35 68 38 69 36 70 62 71 63 72 71 73 64 74 65 75
REMARK SMILES IDX 69 76 72 77 66 78 67 79 70 80 68 81 47 82 48 83 56 84 49 85
REMARK SMILES IDX 50 86 54 87 57 88 51 89 52 90 55 91 53 92
REMARK H PARENT 3 16 77 45 45 56
REMARK Flexibility Score: inf
ROOT
ATOM      1  O   UNL A   1      35.485  21.464  26.262  1.00  0.00    -0.374 OA
ENDROOT
BRANCH   1   2
ATOM      2  C   UNL A   1      34.796  22.704  26.170  1.00  0.00     0.202 C 
BRANCH   2   3
ATOM      3  C   UNL A   1      34.254  23.122  24.800  1.00  0.00     0.261 C 
BRANCH   3   4
ATOM      4  O   UNL A   1      34.224  24.542  24.579  1.00  0.00    -0.460 OA
BRANCH   4   5
ATOM      5  C   UNL A   1      33.010  25.118  24.758  1.00  0.00     0.340 C 
ATOM      6  O   UNL A   1      32.092  24.681  25.445  1.00  0.00    -0.246 OA
BRANCH   5   7
ATOM      7  C   UNL A   1      32.937  26.461  24.139  1.00  0.00     0.083 A 
ATOM      8  C   UNL A   1      32.214  27.568  24.616  1.00  0.00     0.056 A 
ATOM      9  C   UNL A   1      32.141  28.714  23.799  1.00  0.00     0.027 A 
ATOM     10  C   UNL A   1      32.838  28.800  22.591  1.00  0.00     0.002 A 
ATOM     11  C   UNL A   1      33.641  26.562  22.920  1.00  0.00     0.018 A 
ATOM     12  C   UNL A   1      33.602  27.727  22.156  1.00  0.00     0.001 A 
BRANCH   8  13
ATOM     13  N   UNL A   1      31.536  27.697  25.847  1.00  0.00    -0.321 N 
ATOM     14  O   UNL A   1      31.195  27.965  28.053  1.00  0.00    -0.269 OA
ATOM     15  C   UNL A   1      31.889  28.219  27.068  1.00  0.00     0.255 C 
ATOM     16  H   UNL A   1      30.620  27.338  25.828  1.00  0.00     0.170 HD
BRANCH  15  17
ATOM     17  C   UNL A   1      33.018  29.162  27.230  1.00  0.00     0.043 A 
ATOM     18  C   UNL A   1      32.720  30.522  27.304  1.00  0.00     0.034 A 
ATOM     19  C   UNL A   1      34.345  28.739  27.283  1.00  0.00     0.034 A 
ATOM     20  C   UNL A   1      33.761  31.403  27.513  1.00  0.00     0.112 A 
ATOM     21  C   UNL A   1      35.314  29.701  27.501  1.00  0.00     0.112 A 
ATOM     22  N   UNL A   1      35.050  31.021  27.618  1.00  0.00    -0.265 NA
ENDBRANCH  15  17
ENDBRANCH   8  13
ENDBRANCH   5   7
ENDBRANCH   4   5
ENDBRANCH   3   4
ENDBRANCH   2   3
ENDBRANCH   1   2
BRANCH   1  23
ATOM     23  C   UNL A   1      35.898  20.833  25.052  1.00  0.00     0.202 C 
BRANCH  23  24
ATOM     24  C   UNL A   1      37.333  20.296  24.974  1.00  0.00     0.261 C 
BRANCH  24  25
ATOM     25  O   UNL A   1      38.343  21.321  25.072  1.00  0.00    -0.460 OA
BRANCH  25  26
ATOM     26  C   UNL A   1      39.298  21.086  26.000  1.00  0.00     0.338 C 
ATOM     27  O   UNL A   1      39.860  20.020  26.238  1.00  0.00    -0.246 OA
BRANCH  26  28
ATOM     28  C   UNL A   1      39.700  22.322  26.685  1.00  0.00     0.060 A 
ATOM     29  C   UNL A   1      39.174  23.539  26.233  1.00  0.00     0.016 A 
ATOM     30  C   UNL A   1      40.744  22.300  27.611  1.00  0.00     0.016 A 
ATOM     31  C   UNL A   1      39.728  24.742  26.670  1.00  0.00     0.010 A 
ATOM     32  C   UNL A   1      41.302  23.508  28.043  1.00  0.00     0.010 A 
ATOM     33  C   UNL A   1      40.825  24.733  27.543  1.00  0.00    -0.014 A 
BRANCH  33  34
ATOM     34  C   UNL A   1      41.567  25.989  27.820  1.00  0.00     0.031 A 
ATOM     35  C   UNL A   1      40.889  27.090  28.590  1.00  0.00     0.074 A 
ATOM     36  C   UNL A   1      42.836  26.145  27.402  1.00  0.00     0.049 A 
ATOM     37  N   UNL A   1      41.316  28.296  28.871  1.00  0.00    -0.248 NA
ATOM     38  C   UNL A   1      39.545  26.793  29.113  1.00  0.00     0.031 C 
ATOM     39  C   UNL A   1      43.615  25.143  26.680  1.00  0.00     0.029 A 
ATOM     40  N   UNL A   1      43.684  27.218  27.517  1.00  0.00    -0.354 N 
ATOM     41  C   UNL A   1      40.298  28.898  29.601  1.00  0.00     0.074 A 
ATOM     42  C   UNL A   1      39.220  27.938  29.697  1.00  0.00     0.031 C 
ATOM     43  C   UNL A   1      44.824  25.656  26.395  1.00  0.00     0.029 A 
ATOM     44  C   UNL A   1      44.890  27.031  26.887  1.00  0.00     0.049 A 
ATOM     45  H   UNL A   1      43.451  28.042  28.003  1.00  0.00     0.167 HD
ATOM     46  C   UNL A   1      40.271  30.136  30.151  1.00  0.00     0.037 A 
ATOM     47  C   UNL A   1      45.915  27.887  26.700  1.00  0.00     0.037 A 
ATOM     48  C   UNL A   1      41.339  31.097  30.051  1.00  0.00     0.049 A 
ATOM     49  C   UNL A   1      45.830  29.283  27.263  1.00  0.00     0.074 A 
ATOM     50  C   UNL A   1      41.395  32.383  30.560  1.00  0.00     0.029 A 
ATOM     51  N   UNL A   1      42.542  30.872  29.400  1.00  0.00    -0.354 N 
ATOM     52  N   UNL A   1      44.866  29.844  27.951  1.00  0.00    -0.248 NA
ATOM     53  C   UNL A   1      46.982  30.165  27.022  1.00  0.00     0.031 C 
ATOM     54  C   UNL A   1      42.619  32.949  30.188  1.00  0.00     0.029 A 
ATOM     55  C   UNL A   1      43.342  31.999  29.484  1.00  0.00     0.049 A 
ATOM     56  H   UNL A   1      42.790  30.035  28.944  1.00  0.00     0.167 HD
ATOM     57  C   UNL A   1      45.303  31.128  28.246  1.00  0.00     0.074 A 
ATOM     58  C   UNL A   1      46.626  31.262  27.676  1.00  0.00     0.031 C 
ATOM     59  C   UNL A   1      44.664  32.111  28.926  1.00  0.00     0.037 A 
BRANCH  46  60
ATOM     60  C   UNL A   1      39.038  30.534  30.907  1.00  0.00     0.064 A 
ATOM     61  C   UNL A   1      38.929  30.320  32.288  1.00  0.00     0.173 A 
ATOM     62  C   UNL A   1      37.982  31.188  30.256  1.00  0.00     0.173 A 
ATOM     63  F   UNL A   1      39.908  29.688  32.952  1.00  0.00    -0.203 F 
ATOM     64  C   UNL A   1      37.799  30.734  32.989  1.00  0.00     0.198 A 
ATOM     65  C   UNL A   1      36.864  31.623  30.965  1.00  0.00     0.198 A 
ATOM     66  F   UNL A   1      38.040  31.422  28.936  1.00  0.00    -0.203 F 
ATOM     67  F   UNL A   1      37.703  30.493  34.304  1.00  0.00    -0.200 F 
ATOM     68  C   UNL A   1      36.773  31.393  32.329  1.00  0.00     0.200 A 
ATOM     69  F   UNL A   1      35.878  32.269  30.328  1.00  0.00    -0.200 F 
ATOM     70  F   UNL A   1      35.692  31.803  33.007  1.00  0.00    -0.200 F 
ENDBRANCH  46  60
BRANCH  47  71
ATOM     71  C   UNL A   1      47.104  27.462  25.918  1.00  0.00     0.064 A 
ATOM     72  C   UNL A   1      48.213  26.878  26.545  1.00  0.00     0.173 A 
ATOM     73  C   UNL A   1      47.172  27.670  24.533  1.00  0.00     0.173 A 
ATOM     74  F   UNL A   1      48.208  26.686  27.872  1.00  0.00    -0.203 F 
ATOM     75  C   UNL A   1      49.353  26.540  25.820  1.00  0.00     0.198 A 
ATOM     76  C   UNL A   1      48.301  27.306  23.804  1.00  0.00     0.198 A 
ATOM     77  F   UNL A   1      46.139  28.233  23.887  1.00  0.00    -0.203 F 
ATOM     78  F   UNL A   1      50.422  26.036  26.453  1.00  0.00    -0.200 F 
ATOM     79  C   UNL A   1      49.395  26.750  24.449  1.00  0.00     0.200 A 
ATOM     80  F   UNL A   1      48.335  27.506  22.479  1.00  0.00    -0.200 F 
ATOM     81  F   UNL A   1      50.495  26.433  23.753  1.00  0.00    -0.200 F 
ENDBRANCH  47  71
BRANCH  59  82
ATOM     82  C   UNL A   1      45.402  33.403  29.129  1.00  0.00     0.064 A 
ATOM     83  C   UNL A   1      45.281  34.468  28.226  1.00  0.00     0.173 A 
ATOM     84  C   UNL A   1      46.206  33.589  30.263  1.00  0.00     0.173 A 
ATOM     85  F   UNL A   1      44.536  34.334  27.119  1.00  0.00    -0.203 F 
ATOM     86  C   UNL A   1      45.959  35.666  28.438  1.00  0.00     0.198 A 
ATOM     87  C   UNL A   1      46.862  34.796  30.486  1.00  0.00     0.198 A 
ATOM     88  F   UNL A   1      46.348  32.602  31.162  1.00  0.00    -0.203 F 
ATOM     89  F   UNL A   1      45.864  36.655  27.540  1.00  0.00    -0.200 F 
ATOM     90  C   UNL A   1      46.743  35.831  29.571  1.00  0.00     0.200 A 
ATOM     91  F   UNL A   1      47.608  34.959  31.587  1.00  0.00    -0.200 F 
ATOM     92  F   UNL A   1      47.390  36.987  29.777  1.00  0.00    -0.200 F 
ENDBRANCH  59  82
ENDBRANCH  33  34
ENDBRANCH  26  28
ENDBRANCH  25  26
ENDBRANCH  24  25
ENDBRANCH  23  24
ENDBRANCH   1  23
TORSDOF 16
ENDMDL
MODEL 3
REMARK VINA RESULT:     -11.7      5.000     10.844
REMARK SMILES O=C(Nc1ccccc1C(=O)OCCOCCOC(=O)c1ccc(-c2c3nc(c(-c4c(F)c(F)c(F)c(F)c4F)c4ccc([nH]4)c(-c4c(F)c(F)c(F)c(F)c4F)c4nc(c(-c5c(F)c(F)c(F)c(F)c5F)c5ccc2[nH]5)C=C4)C=C3)cc1)c1ccncc1
REMARK SMILES IDX 15 1 14 2 13 3 12 4 10 5 11 6 9 7 4 8 5 9 6 10 8 11 7 12
REMARK SMILES IDX 3 13 1 14 2 15 84 17 85 18 89 19 86 20 88 21 87 22 16 23
REMARK SMILES IDX 17 24 18 25 19 26 20 27 21 28 22 29 83 30 23 31 82 32 24 33
REMARK SMILES IDX 25 34 26 35 76 36 27 37 81 38 75 39 77 40 28 41 80 42 74 43
REMARK SMILES IDX 73 44 29 46 61 47 41 48 60 49 42 50 45 51 59 52 78 53 43 54
REMARK SMILES IDX 44 55 58 57 79 58 46 59 30 60 31 61 39 62 32 63 33 64 37 65
REMARK SMILES IDX 40 66 34 67 35 68 38 69 36 70 62 71 63 72 71 73 64 74 65 75
REMARK SMILES IDX 69 76 72 77 66 78 67 79 70 80 68 81 47 82 48 83 56 84 49 85
REMARK SMILES IDX 50 86 54 87 57 88 51 89 52 90 55 91 53 92
REMARK H PARENT 3 16 77 45 45 56
REMARK Flexibility Score: inf
ROOT
ATOM      1  O   UNL A   1      32.211  33.304  27.982  1.00  0.00    -0.374 OA
ENDROOT
BRANCH   1   2
ATOM      2  C   UNL A   1      32.900  34.533  27.800  1.00  0.00     0.202 C 
BRANCH   2   3
ATOM      3  C   UNL A   1      34.283  34.681  28.442  1.00  0.00     0.261 C 
BRANCH   3   4
ATOM      4  O   UNL A   1      35.029  33.456  28.540  1.00  0.00    -0.460 OA
BRANCH   4   5
ATOM      5  C   UNL A   1      35.372  33.102  29.804  1.00  0.00     0.340 C 
ATOM      6  O   UNL A   1      34.736  32.365  30.549  1.00  0.00    -0.246 OA
BRANCH   5   7
ATOM      7  C   UNL A   1      36.721  33.591  30.168  1.00  0.00     0.083 A 
ATOM      8  C   UNL A   1      37.133  34.059  31.428  1.00  0.00     0.056 A 
ATOM      9  C   UNL A   1      38.415  34.632  31.536  1.00  0.00     0.027 A 
ATOM     10  C   UNL A   1      39.301  34.658  30.455  1.00  0.00     0.002 A 
ATOM     11  C   UNL A   1      37.627  33.617  29.086  1.00  0.00     0.018 A 
ATOM     12  C   UNL A   1      38.911  34.136  29.230  1.00  0.00     0.001 A 
BRANCH   8  13
ATOM     13  N   UNL A   1      36.416  34.023  32.643  1.00  0.00    -0.321 N 
ATOM     14  O   UNL A   1      35.338  33.201  34.437  1.00  0.00    -0.269 OA
ATOM     15  C   UNL A   1      36.229  33.054  33.600  1.00  0.00     0.255 C 
ATOM     16  H   UNL A   1      35.954  34.867  32.850  1.00  0.00     0.170 HD
BRANCH  15  17
ATOM     17  C   UNL A   1      37.126  31.884  33.727  1.00  0.00     0.043 A 
ATOM     18  C   UNL A   1      38.195  31.982  34.617  1.00  0.00     0.034 A 
ATOM     19  C   UNL A   1      36.950  30.721  32.980  1.00  0.00     0.034 A 
ATOM     20  C   UNL A   1      39.002  30.874  34.785  1.00  0.00     0.112 A 
ATOM     21  C   UNL A   1      37.809  29.666  33.227  1.00  0.00     0.112 A 
ATOM     22  N   UNL A   1      38.828  29.718  34.113  1.00  0.00    -0.265 NA
ENDBRANCH  15  17
ENDBRANCH   8  13
ENDBRANCH   5   7
ENDBRANCH   4   5
ENDBRANCH   3   4
ENDBRANCH   2   3
ENDBRANCH   1   2
BRANCH   1  23
ATOM     23  C   UNL A   1      32.105  32.420  26.870  1.00  0.00     0.202 C 
BRANCH  23  24
ATOM     24  C   UNL A   1      32.458  30.943  27.088  1.00  0.00     0.261 C 
BRANCH  24  25
ATOM     25  O   UNL A   1      33.675  30.741  27.836  1.00  0.00    -0.460 OA
BRANCH  25  26
ATOM     26  C   UNL A   1      34.495  29.791  27.333  1.00  0.00     0.338 C 
ATOM     27  O   UNL A   1      34.260  29.015  26.411  1.00  0.00    -0.246 OA
BRANCH  26  28
ATOM     28  C   UNL A   1      35.820  29.833  27.968  1.00  0.00     0.060 A 
ATOM     29  C   UNL A   1      36.931  30.155  27.178  1.00  0.00     0.016 A 
ATOM     30  C   UNL A   1      35.988  29.349  29.266  1.00  0.00     0.016 A 
ATOM     31  C   UNL A   1      38.219  29.944  27.669  1.00  0.00     0.010 A 
ATOM     32  C   UNL A   1      37.281  29.133  29.755  1.00  0.00     0.010 A 
ATOM     33  C   UNL A   1      38.401  29.390  28.943  1.00  0.00    -0.014 A 
BRANCH  33  34
ATOM     34  C   UNL A   1      39.750  28.941  29.374  1.00  0.00     0.031 A 
ATOM     35  C   UNL A   1      40.556  29.816  30.297  1.00  0.00     0.074 A 
ATOM     36  C   UNL A   1      40.248  27.763  28.961  1.00  0.00     0.049 A 
ATOM     37  N   UNL A   1      41.782  29.661  30.730  1.00  0.00    -0.248 NA
ATOM     38  C   UNL A   1      39.891  31.029  30.798  1.00  0.00     0.031 C 
ATOM     39  C   UNL A   1      39.554  26.811  28.097  1.00  0.00     0.029 A 
ATOM     40  N   UNL A   1      41.466  27.177  29.204  1.00  0.00    -0.354 N 
ATOM     41  C   UNL A   1      42.034  30.754  31.551  1.00  0.00     0.074 A 
ATOM     42  C   UNL A   1      40.846  31.579  31.536  1.00  0.00     0.031 C 
ATOM     43  C   UNL A   1      40.366  25.765  27.864  1.00  0.00     0.029 A 
ATOM     44  C   UNL A   1      41.645  25.992  28.534  1.00  0.00     0.049 A 
ATOM     45  H   UNL A   1      42.144  27.568  29.800  1.00  0.00     0.167 HD
ATOM     46  C   UNL A   1      43.152  31.036  32.264  1.00  0.00     0.037 A 
ATOM     47  C   UNL A   1      42.732  25.199  28.447  1.00  0.00     0.037 A 
ATOM     48  C   UNL A   1      44.339  30.222  32.276  1.00  0.00     0.049 A 
ATOM     49  C   UNL A   1      43.987  25.573  29.194  1.00  0.00     0.074 A 
ATOM     50  C   UNL A   1      45.527  30.436  32.953  1.00  0.00     0.029 A 
ATOM     51  N   UNL A   1      44.484  29.032  31.581  1.00  0.00    -0.354 N 
ATOM     52  N   UNL A   1      44.216  26.606  29.967  1.00  0.00    -0.248 NA
ATOM     53  C   UNL A   1      45.136  24.665  29.055  1.00  0.00     0.031 C 
ATOM     54  C   UNL A   1      46.405  29.392  32.639  1.00  0.00     0.029 A 
ATOM     55  C   UNL A   1      45.746  28.506  31.802  1.00  0.00     0.049 A 
ATOM     56  H   UNL A   1      43.793  28.621  31.012  1.00  0.00     0.167 HD
ATOM     57  C   UNL A   1      45.519  26.459  30.425  1.00  0.00     0.074 A 
ATOM     58  C   UNL A   1      46.027  25.230  29.856  1.00  0.00     0.031 C 
ATOM     59  C   UNL A   1      46.232  27.273  31.242  1.00  0.00     0.037 A 
BRANCH  46  60
ATOM     60  C   UNL A   1      43.153  32.290  33.087  1.00  0.00     0.064 A 
ATOM     61  C   UNL A   1      43.538  33.522  32.538  1.00  0.00     0.173 A 
ATOM     62  C   UNL A   1      42.712  32.271  34.418  1.00  0.00     0.173 A 
ATOM     63  F   UNL A   1      43.979  33.590  31.274  1.00  0.00    -0.203 F 
ATOM     64  C   UNL A   1      43.491  34.689  33.297  1.00  0.00     0.198 A 
ATOM     65  C   UNL A   1      42.644  33.443  35.166  1.00  0.00     0.198 A 
ATOM     66  F   UNL A   1      42.328  31.118  34.988  1.00  0.00    -0.203 F 
ATOM     67  F   UNL A   1      43.891  35.851  32.762  1.00  0.00    -0.200 F 
ATOM     68  C   UNL A   1      43.036  34.650  34.607  1.00  0.00     0.200 A 
ATOM     69  F   UNL A   1      42.193  33.406  36.428  1.00  0.00    -0.200 F 
ATOM     70  F   UNL A   1      42.980  35.775  35.333  1.00  0.00    -0.200 F 
ENDBRANCH  46  60
BRANCH  47  71
ATOM     71  C   UNL A   1      42.698  23.982  27.596  1.00  0.00     0.064 A 
ATOM     72  C   UNL A   1      42.338  22.736  28.126  1.00  0.00     0.173 A 
ATOM     73  C   UNL A   1      43.065  24.035  26.243  1.00  0.00     0.173 A 
ATOM     74  F   UNL A   1      42.009  22.629  29.421  1.00  0.00    -0.203 F 
ATOM     75  C   UNL A   1      42.370  21.585  27.341  1.00  0.00     0.198 A 
ATOM     76  C   UNL A   1      43.068  22.889  25.452  1.00  0.00     0.198 A 
ATOM     77  F   UNL A   1      43.425  25.204  25.690  1.00  0.00    -0.203 F 
ATOM     78  F   UNL A   1      42.077  20.397  27.888  1.00  0.00    -0.200 F 
ATOM     79  C   UNL A   1      42.731  21.663  26.004  1.00  0.00     0.200 A 
ATOM     80  F   UNL A   1      43.413  22.970  24.160  1.00  0.00    -0.200 F 
ATOM     81  F   UNL A   1      42.769  20.555  25.252  1.00  0.00    -0.200 F 
ENDBRANCH  47  71
BRANCH  59  82
ATOM     82  C   UNL A   1      47.623  26.839  31.605  1.00  0.00     0.064 A 
ATOM     83  C   UNL A   1      47.862  25.935  32.649  1.00  0.00     0.173 A 
ATOM     84  C   UNL A   1      48.725  27.304  30.870  1.00  0.00     0.173 A 
ATOM     85  F   UNL A   1      46.843  25.474  33.389  1.00  0.00    -0.203 F 
ATOM     86  C   UNL A   1      49.157  25.530  32.961  1.00  0.00     0.198 A 
ATOM     87  C   UNL A   1      50.016  26.877  31.168  1.00  0.00     0.198 A 
ATOM     88  F   UNL A   1      48.548  28.165  29.856  1.00  0.00    -0.203 F 
ATOM     89  F   UNL A   1      49.367  24.699  33.991  1.00  0.00    -0.200 F 
ATOM     90  C   UNL A   1      50.232  25.995  32.217  1.00  0.00     0.200 A 
ATOM     91  F   UNL A   1      51.051  27.317  30.441  1.00  0.00    -0.200 F 
ATOM     92  F   UNL A   1      51.477  25.599  32.515  1.00  0.00    -0.200 F 
ENDBRANCH  59  82
ENDBRANCH  33  34
ENDBRANCH  26  28
ENDBRANCH  25  26
ENDBRANCH  24  25
ENDBRANCH  23  24
ENDBRANCH   1  23
TORSDOF 16
ENDMDL
