MODEL 1
REMARK VINA RESULT:     -11.7      0.000      0.000
REMARK SMILES CC(C)C(=O)Nc1ccc(Cl)c(C(=O)OCCOCCOC(=O)c2ccc(-c3c4nc(c(-c5c(F)c(F)c(F)c(F)c5F)c5ccc([nH]5)c(-c5c(F)c(F)c(F)c(F)c5F)c5nc(c(-c6c(F)c(F)c(F)c(F)c6F)c6ccc3[nH]6)C=C5)C=C4)cc2)c1
REMARK SMILES IDX 18 1 17 2 16 3 15 4 13 5 14 6 12 7 7 8 8 9 87 10 9 11 10 12
REMARK SMILES IDX 11 13 6 14 4 15 5 16 2 18 1 19 3 20 19 21 20 22 21 23 22 24
REMARK SMILES IDX 23 25 24 26 25 27 86 28 26 29 85 30 27 31 28 32 29 33 79 34
REMARK SMILES IDX 30 35 84 36 78 37 80 38 31 39 83 40 77 41 76 42 32 44 64 45
REMARK SMILES IDX 44 46 63 47 45 48 48 49 62 50 81 51 46 52 47 53 61 55 82 56
REMARK SMILES IDX 49 57 33 58 34 59 42 60 35 61 36 62 40 63 43 64 37 65 38 66
REMARK SMILES IDX 41 67 39 68 65 69 66 70 74 71 67 72 68 73 72 74 75 75 69 76
REMARK SMILES IDX 70 77 73 78 71 79 50 80 51 81 59 82 52 83 53 84 57 85 60 86
REMARK SMILES IDX 54 87 55 88 58 89 56 90
REMARK H PARENT 6 17 80 43 48 54
REMARK Flexibility Score: inf
ROOT
ATOM      1  O   UNL A   1      32.145  27.336  26.530  1.00  0.00    -0.374 OA
ENDROOT
BRANCH   1   2
ATOM      2  C   UNL A   1      31.444  27.031  25.322  1.00  0.00     0.202 C 
BRANCH   2   3
ATOM      3  C   UNL A   1      30.615  25.746  25.337  1.00  0.00     0.261 C 
BRANCH   3   4
ATOM      4  O   UNL A   1      31.473  24.621  25.099  1.00  0.00    -0.460 OA
BRANCH   4   5
ATOM      5  C   UNL A   1      31.884  23.948  26.194  1.00  0.00     0.339 C 
ATOM      6  O   UNL A   1      31.379  23.981  27.309  1.00  0.00    -0.246 OA
BRANCH   5   7
ATOM      7  C   UNL A   1      32.902  22.952  25.814  1.00  0.00     0.080 A 
ATOM      8  C   UNL A   1      33.465  20.596  25.781  1.00  0.00     0.042 A 
ATOM      9  C   UNL A   1      34.692  20.899  25.199  1.00  0.00     0.028 A 
ATOM     10  C   UNL A   1      32.542  21.609  26.023  1.00  0.00     0.043 A 
ATOM     11  C   UNL A   1      35.038  22.229  24.951  1.00  0.00     0.023 A 
ATOM     12  C   UNL A   1      34.157  23.264  25.282  1.00  0.00     0.055 A 
ATOM     13  Cl  UNL A   1      34.718  24.880  25.049  1.00  0.00    -0.083 Cl
BRANCH   8  14
ATOM     14  N   UNL A   1      33.123  19.289  26.116  1.00  0.00    -0.326 N 
ATOM     15  C   UNL A   1      32.952  18.210  25.292  1.00  0.00     0.226 C 
ATOM     16  O   UNL A   1      32.540  17.164  25.804  1.00  0.00    -0.274 OA
ATOM     17  H   UNL A   1      32.986  19.117  27.076  1.00  0.00     0.169 HD
BRANCH  15  18
ATOM     18  C   UNL A   1      33.355  18.227  23.812  1.00  0.00     0.072 C 
ATOM     19  C   UNL A   1      34.064  16.974  23.321  1.00  0.00     0.018 C 
ATOM     20  C   UNL A   1      32.218  18.653  22.884  1.00  0.00     0.018 C 
ENDBRANCH  15  18
ENDBRANCH   8  14
ENDBRANCH   5   7
ENDBRANCH   4   5
ENDBRANCH   3   4
ENDBRANCH   2   3
ENDBRANCH   1   2
BRANCH   1  21
ATOM     21  C   UNL A   1      31.736  28.492  27.261  1.00  0.00     0.202 C 
BRANCH  21  22
ATOM     22  C   UNL A   1      31.751  29.829  26.510  1.00  0.00     0.261 C 
BRANCH  22  23
ATOM     23  O   UNL A   1      33.082  30.321  26.276  1.00  0.00    -0.460 OA
BRANCH  23  24
ATOM     24  C   UNL A   1      33.463  31.332  27.093  1.00  0.00     0.338 C 
ATOM     25  O   UNL A   1      32.793  32.290  27.454  1.00  0.00    -0.246 OA
BRANCH  24  26
ATOM     26  C   UNL A   1      34.795  31.050  27.656  1.00  0.00     0.060 A 
ATOM     27  C   UNL A   1      35.108  29.717  27.951  1.00  0.00     0.016 A 
ATOM     28  C   UNL A   1      35.688  32.076  27.965  1.00  0.00     0.016 A 
ATOM     29  C   UNL A   1      36.307  29.407  28.588  1.00  0.00     0.010 A 
ATOM     30  C   UNL A   1      36.887  31.764  28.615  1.00  0.00     0.010 A 
ATOM     31  C   UNL A   1      37.191  30.432  28.953  1.00  0.00    -0.014 A 
BRANCH  31  32
ATOM     32  C   UNL A   1      38.376  30.122  29.787  1.00  0.00     0.031 A 
ATOM     33  C   UNL A   1      39.418  29.174  29.262  1.00  0.00     0.074 A 
ATOM     34  C   UNL A   1      38.523  30.686  30.999  1.00  0.00     0.049 A 
ATOM     35  N   UNL A   1      40.493  28.714  29.848  1.00  0.00    -0.248 NA
ATOM     36  C   UNL A   1      39.218  28.675  27.893  1.00  0.00     0.031 C 
ATOM     37  C   UNL A   1      37.597  31.642  31.602  1.00  0.00     0.029 A 
ATOM     38  N   UNL A   1      39.502  30.519  31.947  1.00  0.00    -0.354 N 
ATOM     39  C   UNL A   1      41.090  27.862  28.928  1.00  0.00     0.074 A 
ATOM     40  C   UNL A   1      40.247  27.851  27.752  1.00  0.00     0.031 C 
ATOM     41  C   UNL A   1      38.040  31.962  32.829  1.00  0.00     0.029 A 
ATOM     42  C   UNL A   1      39.261  31.208  33.110  1.00  0.00     0.049 A 
ATOM     43  H   UNL A   1      40.300  29.959  31.807  1.00  0.00     0.167 HD
ATOM     44  C   UNL A   1      42.239  27.157  29.055  1.00  0.00     0.037 A 
ATOM     45  C   UNL A   1      39.932  31.204  34.278  1.00  0.00     0.037 A 
ATOM     46  C   UNL A   1      43.080  27.180  30.223  1.00  0.00     0.049 A 
ATOM     47  C   UNL A   1      41.178  30.365  34.412  1.00  0.00     0.074 A 
ATOM     48  C   UNL A   1      44.288  26.537  30.428  1.00  0.00     0.029 A 
ATOM     49  N   UNL A   1      42.796  27.878  31.388  1.00  0.00    -0.354 N 
ATOM     50  N   UNL A   1      41.758  29.595  33.524  1.00  0.00    -0.248 NA
ATOM     51  C   UNL A   1      41.863  30.396  35.713  1.00  0.00     0.031 C 
ATOM     52  C   UNL A   1      44.706  26.797  31.738  1.00  0.00     0.029 A 
ATOM     53  C   UNL A   1      43.789  27.651  32.329  1.00  0.00     0.049 A 
ATOM     54  H   UNL A   1      42.006  28.449  31.526  1.00  0.00     0.167 HD
ATOM     55  C   UNL A   1      42.885  29.073  34.146  1.00  0.00     0.074 A 
ATOM     56  C   UNL A   1      42.916  29.626  35.484  1.00  0.00     0.031 C 
ATOM     57  C   UNL A   1      43.810  28.213  33.654  1.00  0.00     0.037 A 
BRANCH  44  58
ATOM     58  C   UNL A   1      42.647  26.274  27.913  1.00  0.00     0.064 A 
ATOM     59  C   UNL A   1      42.117  24.985  27.748  1.00  0.00     0.173 A 
ATOM     60  C   UNL A   1      43.539  26.746  26.939  1.00  0.00     0.173 A 
ATOM     61  F   UNL A   1      41.269  24.481  28.657  1.00  0.00    -0.203 F 
ATOM     62  C   UNL A   1      42.480  24.196  26.659  1.00  0.00     0.198 A 
ATOM     63  C   UNL A   1      43.878  25.967  25.837  1.00  0.00     0.198 A 
ATOM     64  F   UNL A   1      44.071  27.973  27.048  1.00  0.00    -0.203 F 
ATOM     65  F   UNL A   1      41.990  22.955  26.539  1.00  0.00    -0.200 F 
ATOM     66  C   UNL A   1      43.352  24.690  25.700  1.00  0.00     0.200 A 
ATOM     67  F   UNL A   1      44.711  26.451  24.905  1.00  0.00    -0.200 F 
ATOM     68  F   UNL A   1      43.690  23.935  24.647  1.00  0.00    -0.200 F 
ENDBRANCH  44  58
BRANCH  45  69
ATOM     69  C   UNL A   1      39.427  31.998  35.428  1.00  0.00     0.064 A 
ATOM     70  C   UNL A   1      39.839  33.321  35.636  1.00  0.00     0.173 A 
ATOM     71  C   UNL A   1      38.537  31.439  36.359  1.00  0.00     0.173 A 
ATOM     72  F   UNL A   1      40.709  33.891  34.789  1.00  0.00    -0.203 F 
ATOM     73  C   UNL A   1      39.399  34.047  36.741  1.00  0.00     0.198 A 
ATOM     74  C   UNL A   1      38.074  32.175  37.446  1.00  0.00     0.198 A 
ATOM     75  F   UNL A   1      38.113  30.175  36.208  1.00  0.00    -0.203 F 
ATOM     76  F   UNL A   1      39.851  35.292  36.945  1.00  0.00    -0.200 F 
ATOM     77  C   UNL A   1      38.513  33.476  37.642  1.00  0.00     0.200 A 
ATOM     78  F   UNL A   1      37.208  31.623  38.307  1.00  0.00    -0.200 F 
ATOM     79  F   UNL A   1      38.090  34.175  38.704  1.00  0.00    -0.200 F 
ENDBRANCH  45  69
BRANCH  57  80
ATOM     80  C   UNL A   1      44.955  27.839  34.551  1.00  0.00     0.064 A 
ATOM     81  C   UNL A   1      46.128  28.606  34.607  1.00  0.00     0.173 A 
ATOM     82  C   UNL A   1      44.854  26.729  35.405  1.00  0.00     0.173 A 
ATOM     83  F   UNL A   1      46.279  29.668  33.802  1.00  0.00    -0.203 F 
ATOM     84  C   UNL A   1      47.168  28.262  35.467  1.00  0.00     0.198 A 
ATOM     85  C   UNL A   1      45.883  26.406  36.286  1.00  0.00     0.198 A 
ATOM     86  F   UNL A   1      43.751  25.967  35.397  1.00  0.00    -0.203 F 
ATOM     87  F   UNL A   1      48.297  28.982  35.471  1.00  0.00    -0.200 F 
ATOM     88  C   UNL A   1      47.041  27.168  36.311  1.00  0.00     0.200 A 
ATOM     89  F   UNL A   1      45.753  25.358  37.111  1.00  0.00    -0.200 F 
ATOM     90  F   UNL A   1      48.039  26.845  37.145  1.00  0.00    -0.200 F 
ENDBRANCH  57  80
ENDBRANCH  31  32
ENDBRANCH  24  26
ENDBRANCH  23  24
ENDBRANCH  22  23
ENDBRANCH  21  22
ENDBRANCH   1  21
TORSDOF 16
ENDMDL
MODEL 2
REMARK VINA RESULT:     -11.6      3.259      7.805
REMARK SMILES CC(C)C(=O)Nc1ccc(Cl)c(C(=O)OCCOCCOC(=O)c2ccc(-c3c4nc(c(-c5c(F)c(F)c(F)c(F)c5F)c5ccc([nH]5)c(-c5c(F)c(F)c(F)c(F)c5F)c5nc(c(-c6c(F)c(F)c(F)c(F)c6F)c6ccc3[nH]6)C=C5)C=C4)cc2)c1
REMARK SMILES IDX 18 1 17 2 16 3 15 4 13 5 14 6 12 7 7 8 8 9 87 10 9 11 10 12
REMARK SMILES IDX 11 13 6 14 4 15 5 16 2 18 1 19 3 20 19 21 20 22 21 23 22 24
REMARK SMILES IDX 23 25 24 26 25 27 86 28 26 29 85 30 27 31 28 32 29 33 79 34
REMARK SMILES IDX 30 35 84 36 78 37 80 38 31 39 83 40 77 41 76 42 32 44 64 45
REMARK SMILES IDX 44 46 63 47 45 48 48 49 62 50 81 51 46 52 47 53 61 55 82 56
REMARK SMILES IDX 49 57 33 58 34 59 42 60 35 61 36 62 40 63 43 64 37 65 38 66
REMARK SMILES IDX 41 67 39 68 65 69 66 70 74 71 67 72 68 73 72 74 75 75 69 76
REMARK SMILES IDX 70 77 73 78 71 79 50 80 51 81 59 82 52 83 53 84 57 85 60 86
REMARK SMILES IDX 54 87 55 88 58 89 56 90
REMARK H PARENT 6 17 80 43 48 54
REMARK Flexibility Score: inf
ROOT
ATOM      1  O   UNL A   1      40.097  21.190  26.852  1.00  0.00    -0.374 OA
ENDROOT
BRANCH   1   2
ATOM      2  C   UNL A   1      39.088  21.167  25.840  1.00  0.00     0.202 C 
BRANCH   2   3
ATOM      3  C   UNL A   1      38.213  22.418  25.740  1.00  0.00     0.261 C 
BRANCH   3   4
ATOM      4  O   UNL A   1      36.832  22.033  25.694  1.00  0.00    -0.460 OA
BRANCH   4   5
ATOM      5  C   UNL A   1      36.188  22.278  24.534  1.00  0.00     0.339 C 
ATOM      6  O   UNL A   1      36.697  22.497  23.443  1.00  0.00    -0.246 OA
BRANCH   5   7
ATOM      7  C   UNL A   1      34.749  22.002  24.696  1.00  0.00     0.080 A 
ATOM      8  C   UNL A   1      33.103  20.367  25.393  1.00  0.00     0.042 A 
ATOM      9  C   UNL A   1      32.083  21.256  25.064  1.00  0.00     0.028 A 
ATOM     10  C   UNL A   1      34.432  20.762  25.279  1.00  0.00     0.043 A 
ATOM     11  C   UNL A   1      32.393  22.505  24.522  1.00  0.00     0.023 A 
ATOM     12  C   UNL A   1      33.726  22.874  24.309  1.00  0.00     0.055 A 
ATOM     13  Cl  UNL A   1      34.009  24.387  23.528  1.00  0.00    -0.083 Cl
BRANCH   8  14
ATOM     14  N   UNL A   1      32.825  19.085  25.858  1.00  0.00    -0.326 N 
ATOM     15  C   UNL A   1      32.852  17.901  25.174  1.00  0.00     0.226 C 
ATOM     16  O   UNL A   1      32.461  16.891  25.769  1.00  0.00    -0.274 OA
ATOM     17  H   UNL A   1      32.575  19.021  26.808  1.00  0.00     0.169 HD
BRANCH  15  18
ATOM     18  C   UNL A   1      33.446  17.772  23.765  1.00  0.00     0.072 C 
ATOM     19  C   UNL A   1      34.202  16.480  23.497  1.00  0.00     0.018 C 
ATOM     20  C   UNL A   1      32.443  18.098  22.658  1.00  0.00     0.018 C 
ENDBRANCH  15  18
ENDBRANCH   8  14
ENDBRANCH   5   7
ENDBRANCH   4   5
ENDBRANCH   3   4
ENDBRANCH   2   3
ENDBRANCH   1   2
BRANCH   1  21
ATOM     21  C   UNL A   1      41.209  20.308  26.701  1.00  0.00     0.202 C 
BRANCH  21  22
ATOM     22  C   UNL A   1      42.380  20.810  25.846  1.00  0.00     0.261 C 
BRANCH  22  23
ATOM     23  O   UNL A   1      43.027  21.965  26.410  1.00  0.00    -0.460 OA
BRANCH  23  24
ATOM     24  C   UNL A   1      42.967  23.078  25.641  1.00  0.00     0.338 C 
ATOM     25  O   UNL A   1      43.150  23.161  24.435  1.00  0.00    -0.246 OA
BRANCH  24  26
ATOM     26  C   UNL A   1      42.474  24.215  26.439  1.00  0.00     0.060 A 
ATOM     27  C   UNL A   1      43.113  25.450  26.277  1.00  0.00     0.016 A 
ATOM     28  C   UNL A   1      41.461  24.057  27.385  1.00  0.00     0.016 A 
ATOM     29  C   UNL A   1      42.764  26.529  27.085  1.00  0.00     0.010 A 
ATOM     30  C   UNL A   1      41.119  25.139  28.205  1.00  0.00     0.010 A 
ATOM     31  C   UNL A   1      41.786  26.371  28.077  1.00  0.00    -0.014 A 
BRANCH  31  32
ATOM     32  C   UNL A   1      41.542  27.459  29.053  1.00  0.00     0.031 A 
ATOM     33  C   UNL A   1      42.449  27.596  30.244  1.00  0.00     0.074 A 
ATOM     34  C   UNL A   1      40.523  28.319  28.875  1.00  0.00     0.049 A 
ATOM     35  N   UNL A   1      42.377  28.429  31.250  1.00  0.00    -0.248 NA
ATOM     36  C   UNL A   1      43.587  26.667  30.310  1.00  0.00     0.031 C 
ATOM     37  C   UNL A   1      39.596  28.306  27.746  1.00  0.00     0.029 A 
ATOM     38  N   UNL A   1      40.089  29.361  29.656  1.00  0.00    -0.354 N 
ATOM     39  C   UNL A   1      43.449  28.116  32.076  1.00  0.00     0.074 A 
ATOM     40  C   UNL A   1      44.144  27.004  31.465  1.00  0.00     0.031 C 
ATOM     41  C   UNL A   1      38.688  29.281  27.917  1.00  0.00     0.029 A 
ATOM     42  C   UNL A   1      38.949  29.963  29.183  1.00  0.00     0.049 A 
ATOM     43  H   UNL A   1      40.550  29.650  30.477  1.00  0.00     0.167 HD
ATOM     44  C   UNL A   1      43.819  28.708  33.236  1.00  0.00     0.037 A 
ATOM     45  C   UNL A   1      38.187  30.931  29.727  1.00  0.00     0.037 A 
ATOM     46  C   UNL A   1      43.131  29.822  33.834  1.00  0.00     0.049 A 
ATOM     47  C   UNL A   1      38.590  31.534  31.048  1.00  0.00     0.074 A 
ATOM     48  C   UNL A   1      43.457  30.521  34.984  1.00  0.00     0.029 A 
ATOM     49  N   UNL A   1      41.971  30.395  33.334  1.00  0.00    -0.354 N 
ATOM     50  N   UNL A   1      39.627  31.261  31.802  1.00  0.00    -0.248 NA
ATOM     51  C   UNL A   1      37.714  32.581  31.595  1.00  0.00     0.031 C 
ATOM     52  C   UNL A   1      42.462  31.478  35.212  1.00  0.00     0.029 A 
ATOM     53  C   UNL A   1      41.548  31.416  34.173  1.00  0.00     0.049 A 
ATOM     54  H   UNL A   1      41.514  30.118  32.507  1.00  0.00     0.167 HD
ATOM     55  C   UNL A   1      39.545  32.117  32.893  1.00  0.00     0.074 A 
ATOM     56  C   UNL A   1      38.363  32.930  32.697  1.00  0.00     0.031 C 
ATOM     57  C   UNL A   1      40.373  32.220  33.962  1.00  0.00     0.037 A 
BRANCH  44  58
ATOM     58  C   UNL A   1      45.009  28.148  33.959  1.00  0.00     0.064 A 
ATOM     59  C   UNL A   1      44.885  27.111  34.896  1.00  0.00     0.173 A 
ATOM     60  C   UNL A   1      46.298  28.618  33.666  1.00  0.00     0.173 A 
ATOM     61  F   UNL A   1      43.675  26.634  35.220  1.00  0.00    -0.203 F 
ATOM     62  C   UNL A   1      46.008  26.579  35.526  1.00  0.00     0.198 A 
ATOM     63  C   UNL A   1      47.420  28.065  34.276  1.00  0.00     0.198 A 
ATOM     64  F   UNL A   1      46.472  29.605  32.774  1.00  0.00    -0.203 F 
ATOM     65  F   UNL A   1      45.864  25.615  36.445  1.00  0.00    -0.200 F 
ATOM     66  C   UNL A   1      47.274  27.050  35.210  1.00  0.00     0.200 A 
ATOM     67  F   UNL A   1      48.643  28.512  33.959  1.00  0.00    -0.200 F 
ATOM     68  F   UNL A   1      48.353  26.528  35.808  1.00  0.00    -0.200 F 
ENDBRANCH  44  58
BRANCH  45  69
ATOM     69  C   UNL A   1      36.946  31.374  29.040  1.00  0.00     0.064 A 
ATOM     70  C   UNL A   1      36.824  32.671  28.523  1.00  0.00     0.173 A 
ATOM     71  C   UNL A   1      35.845  30.513  28.907  1.00  0.00     0.173 A 
ATOM     72  F   UNL A   1      37.839  33.538  28.648  1.00  0.00    -0.203 F 
ATOM     73  C   UNL A   1      35.642  33.097  27.921  1.00  0.00     0.198 A 
ATOM     74  C   UNL A   1      34.675  30.930  28.277  1.00  0.00     0.198 A 
ATOM     75  F   UNL A   1      35.908  29.262  29.387  1.00  0.00    -0.203 F 
ATOM     76  F   UNL A   1      35.534  34.359  27.483  1.00  0.00    -0.200 F 
ATOM     77  C   UNL A   1      34.571  32.226  27.793  1.00  0.00     0.200 A 
ATOM     78  F   UNL A   1      33.647  30.081  28.146  1.00  0.00    -0.200 F 
ATOM     79  F   UNL A   1      33.435  32.636  27.213  1.00  0.00    -0.200 F 
ENDBRANCH  45  69
BRANCH  57  80
ATOM     80  C   UNL A   1      40.053  33.269  34.987  1.00  0.00     0.064 A 
ATOM     81  C   UNL A   1      39.359  32.959  36.167  1.00  0.00     0.173 A 
ATOM     82  C   UNL A   1      40.491  34.591  34.811  1.00  0.00     0.173 A 
ATOM     83  F   UNL A   1      38.907  31.713  36.376  1.00  0.00    -0.203 F 
ATOM     84  C   UNL A   1      39.097  33.938  37.121  1.00  0.00     0.198 A 
ATOM     85  C   UNL A   1      40.254  35.561  35.782  1.00  0.00     0.198 A 
ATOM     86  F   UNL A   1      41.165  34.939  33.706  1.00  0.00    -0.203 F 
ATOM     87  F   UNL A   1      38.394  33.629  38.219  1.00  0.00    -0.200 F 
ATOM     88  C   UNL A   1      39.551  35.236  36.932  1.00  0.00     0.200 A 
ATOM     89  F   UNL A   1      40.706  36.810  35.604  1.00  0.00    -0.200 F 
ATOM     90  F   UNL A   1      39.306  36.174  37.857  1.00  0.00    -0.200 F 
ENDBRANCH  57  80
ENDBRANCH  31  32
ENDBRANCH  24  26
ENDBRANCH  23  24
ENDBRANCH  22  23
ENDBRANCH  21  22
ENDBRANCH   1  21
TORSDOF 16
ENDMDL
MODEL 3
REMARK VINA RESULT:     -11.5      4.895      9.934
REMARK SMILES CC(C)C(=O)Nc1ccc(Cl)c(C(=O)OCCOCCOC(=O)c2ccc(-c3c4nc(c(-c5c(F)c(F)c(F)c(F)c5F)c5ccc([nH]5)c(-c5c(F)c(F)c(F)c(F)c5F)c5nc(c(-c6c(F)c(F)c(F)c(F)c6F)c6ccc3[nH]6)C=C5)C=C4)cc2)c1
REMARK SMILES IDX 18 1 17 2 16 3 15 4 13 5 14 6 12 7 7 8 8 9 87 10 9 11 10 12
REMARK SMILES IDX 11 13 6 14 4 15 5 16 2 18 1 19 3 20 19 21 20 22 21 23 22 24
REMARK SMILES IDX 23 25 24 26 25 27 86 28 26 29 85 30 27 31 28 32 29 33 79 34
REMARK SMILES IDX 30 35 84 36 78 37 80 38 31 39 83 40 77 41 76 42 32 44 64 45
REMARK SMILES IDX 44 46 63 47 45 48 48 49 62 50 81 51 46 52 47 53 61 55 82 56
REMARK SMILES IDX 49 57 33 58 34 59 42 60 35 61 36 62 40 63 43 64 37 65 38 66
REMARK SMILES IDX 41 67 39 68 65 69 66 70 74 71 67 72 68 73 72 74 75 75 69 76
REMARK SMILES IDX 70 77 73 78 71 79 50 80 51 81 59 82 52 83 53 84 57 85 60 86
REMARK SMILES IDX 54 87 55 88 58 89 56 90
REMARK H PARENT 6 17 80 43 48 54
REMARK Flexibility Score: inf
ROOT
ATOM      1  O   UNL A   1      38.113  22.143  25.361  1.00  0.00    -0.374 OA
ENDROOT
BRANCH   1   2
ATOM      2  C   UNL A   1      37.682  23.454  25.735  1.00  0.00     0.202 C 
BRANCH   2   3
ATOM      3  C   UNL A   1      36.168  23.668  25.797  1.00  0.00     0.261 C 
BRANCH   3   4
ATOM      4  O   UNL A   1      35.522  22.422  26.094  1.00  0.00    -0.460 OA
BRANCH   4   5
ATOM      5  C   UNL A   1      34.189  22.480  26.293  1.00  0.00     0.339 C 
ATOM      6  O   UNL A   1      33.581  23.305  26.963  1.00  0.00    -0.246 OA
BRANCH   5   7
ATOM      7  C   UNL A   1      33.508  21.542  25.382  1.00  0.00     0.080 A 
ATOM      8  C   UNL A   1      32.597  19.310  25.141  1.00  0.00     0.042 A 
ATOM      9  C   UNL A   1      32.244  19.598  23.826  1.00  0.00     0.028 A 
ATOM     10  C   UNL A   1      33.162  20.298  25.941  1.00  0.00     0.043 A 
ATOM     11  C   UNL A   1      32.549  20.846  23.278  1.00  0.00     0.023 A 
ATOM     12  C   UNL A   1      33.207  21.814  24.044  1.00  0.00     0.055 A 
ATOM     13  Cl  UNL A   1      33.648  23.281  23.248  1.00  0.00    -0.083 Cl
BRANCH   8  14
ATOM     14  N   UNL A   1      32.381  18.050  25.691  1.00  0.00    -0.326 N 
ATOM     15  C   UNL A   1      33.070  16.889  25.471  1.00  0.00     0.226 C 
ATOM     16  O   UNL A   1      32.629  15.858  25.990  1.00  0.00    -0.274 OA
ATOM     17  H   UNL A   1      31.630  17.985  26.325  1.00  0.00     0.169 HD
BRANCH  15  18
ATOM     18  C   UNL A   1      34.402  16.849  24.713  1.00  0.00     0.072 C 
ATOM     19  C   UNL A   1      35.465  15.946  25.321  1.00  0.00     0.018 C 
ATOM     20  C   UNL A   1      34.234  16.617  23.211  1.00  0.00     0.018 C 
ENDBRANCH  15  18
ENDBRANCH   8  14
ENDBRANCH   5   7
ENDBRANCH   4   5
ENDBRANCH   3   4
ENDBRANCH   2   3
ENDBRANCH   1   2
BRANCH   1  21
ATOM     21  C   UNL A   1      39.167  21.550  26.118  1.00  0.00     0.202 C 
BRANCH  21  22
ATOM     22  C   UNL A   1      39.583  20.125  25.729  1.00  0.00     0.261 C 
BRANCH  22  23
ATOM     23  O   UNL A   1      40.503  19.538  26.665  1.00  0.00    -0.460 OA
BRANCH  23  24
ATOM     24  C   UNL A   1      41.781  19.453  26.225  1.00  0.00     0.338 C 
ATOM     25  O   UNL A   1      42.285  18.550  25.572  1.00  0.00    -0.246 OA
BRANCH  24  26
ATOM     26  C   UNL A   1      42.494  20.712  26.501  1.00  0.00     0.060 A 
ATOM     27  C   UNL A   1      42.517  21.171  27.824  1.00  0.00     0.016 A 
ATOM     28  C   UNL A   1      43.058  21.472  25.475  1.00  0.00     0.016 A 
ATOM     29  C   UNL A   1      43.078  22.410  28.124  1.00  0.00     0.010 A 
ATOM     30  C   UNL A   1      43.611  22.721  25.777  1.00  0.00     0.010 A 
ATOM     31  C   UNL A   1      43.600  23.207  27.097  1.00  0.00    -0.014 A 
BRANCH  31  32
ATOM     32  C   UNL A   1      44.032  24.596  27.387  1.00  0.00     0.031 A 
ATOM     33  C   UNL A   1      43.007  25.611  27.809  1.00  0.00     0.074 A 
ATOM     34  C   UNL A   1      45.326  24.944  27.278  1.00  0.00     0.049 A 
ATOM     35  N   UNL A   1      43.153  26.890  28.045  1.00  0.00    -0.248 NA
ATOM     36  C   UNL A   1      41.632  25.119  27.985  1.00  0.00     0.031 C 
ATOM     37  C   UNL A   1      46.414  24.043  26.907  1.00  0.00     0.029 A 
ATOM     38  N   UNL A   1      45.940  26.160  27.454  1.00  0.00    -0.354 N 
ATOM     39  C   UNL A   1      41.890  27.358  28.383  1.00  0.00     0.074 A 
ATOM     40  C   UNL A   1      40.985  26.232  28.301  1.00  0.00     0.031 C 
ATOM     41  C   UNL A   1      47.561  24.740  26.862  1.00  0.00     0.029 A 
ATOM     42  C   UNL A   1      47.282  26.143  27.167  1.00  0.00     0.049 A 
ATOM     43  H   UNL A   1      45.463  26.967  27.757  1.00  0.00     0.167 HD
ATOM     44  C   UNL A   1      41.523  28.614  28.733  1.00  0.00     0.037 A 
ATOM     45  C   UNL A   1      48.175  27.150  27.123  1.00  0.00     0.037 A 
ATOM     46  C   UNL A   1      42.430  29.728  28.824  1.00  0.00     0.049 A 
ATOM     47  C   UNL A   1      47.728  28.549  27.462  1.00  0.00     0.074 A 
ATOM     48  C   UNL A   1      42.162  31.028  29.216  1.00  0.00     0.029 A 
ATOM     49  N   UNL A   1      43.780  29.676  28.511  1.00  0.00    -0.354 N 
ATOM     50  N   UNL A   1      46.541  28.976  27.821  1.00  0.00    -0.248 NA
ATOM     51  C   UNL A   1      48.747  29.608  27.390  1.00  0.00     0.031 C 
ATOM     52  C   UNL A   1      43.336  31.777  29.083  1.00  0.00     0.029 A 
ATOM     53  C   UNL A   1      44.350  30.930  28.665  1.00  0.00     0.049 A 
ATOM     54  H   UNL A   1      44.263  28.868  28.220  1.00  0.00     0.167 HD
ATOM     55  C   UNL A   1      46.676  30.341  28.042  1.00  0.00     0.074 A 
ATOM     56  C   UNL A   1      48.064  30.670  27.792  1.00  0.00     0.031 C 
ATOM     57  C   UNL A   1      45.734  31.241  28.418  1.00  0.00     0.037 A 
BRANCH  44  58
ATOM     58  C   UNL A   1      40.072  28.865  29.019  1.00  0.00     0.064 A 
ATOM     59  C   UNL A   1      39.167  29.209  28.003  1.00  0.00     0.173 A 
ATOM     60  C   UNL A   1      39.570  28.702  30.319  1.00  0.00     0.173 A 
ATOM     61  F   UNL A   1      39.597  29.388  26.746  1.00  0.00    -0.203 F 
ATOM     62  C   UNL A   1      37.816  29.399  28.284  1.00  0.00     0.198 A 
ATOM     63  C   UNL A   1      38.215  28.864  30.590  1.00  0.00     0.198 A 
ATOM     64  F   UNL A   1      40.393  28.369  31.325  1.00  0.00    -0.203 F 
ATOM     65  F   UNL A   1      36.974  29.763  27.307  1.00  0.00    -0.200 F 
ATOM     66  C   UNL A   1      37.339  29.218  29.574  1.00  0.00     0.200 A 
ATOM     67  F   UNL A   1      37.754  28.676  31.835  1.00  0.00    -0.200 F 
ATOM     68  F   UNL A   1      36.037  29.388  29.840  1.00  0.00    -0.200 F 
ENDBRANCH  44  58
BRANCH  45  69
ATOM     69  C   UNL A   1      49.579  26.881  26.715  1.00  0.00     0.064 A 
ATOM     70  C   UNL A   1      49.967  26.931  25.370  1.00  0.00     0.173 A 
ATOM     71  C   UNL A   1      50.557  26.545  27.664  1.00  0.00     0.173 A 
ATOM     72  F   UNL A   1      49.064  27.222  24.423  1.00  0.00    -0.203 F 
ATOM     73  C   UNL A   1      51.273  26.634  24.987  1.00  0.00     0.198 A 
ATOM     74  C   UNL A   1      51.869  26.278  27.284  1.00  0.00     0.198 A 
ATOM     75  F   UNL A   1      50.236  26.481  28.965  1.00  0.00    -0.203 F 
ATOM     76  F   UNL A   1      51.606  26.637  23.689  1.00  0.00    -0.200 F 
ATOM     77  C   UNL A   1      52.225  26.313  25.943  1.00  0.00     0.200 A 
ATOM     78  F   UNL A   1      52.787  25.980  28.213  1.00  0.00    -0.200 F 
ATOM     79  F   UNL A   1      53.480  26.028  25.574  1.00  0.00    -0.200 F 
ENDBRANCH  45  69
BRANCH  57  80
ATOM     80  C   UNL A   1      46.175  32.663  28.616  1.00  0.00     0.064 A 
ATOM     81  C   UNL A   1      46.692  33.111  29.841  1.00  0.00     0.173 A 
ATOM     82  C   UNL A   1      46.128  33.575  27.549  1.00  0.00     0.173 A 
ATOM     83  F   UNL A   1      46.746  32.282  30.894  1.00  0.00    -0.203 F 
ATOM     84  C   UNL A   1      47.125  34.426  29.997  1.00  0.00     0.198 A 
ATOM     85  C   UNL A   1      46.590  34.880  27.701  1.00  0.00     0.198 A 
ATOM     86  F   UNL A   1      45.650  33.196  26.355  1.00  0.00    -0.203 F 
ATOM     87  F   UNL A   1      47.573  34.844  31.188  1.00  0.00    -0.200 F 
ATOM     88  C   UNL A   1      47.081  35.306  28.925  1.00  0.00     0.200 A 
ATOM     89  F   UNL A   1      46.561  35.724  26.660  1.00  0.00    -0.200 F 
ATOM     90  F   UNL A   1      47.507  36.567  29.076  1.00  0.00    -0.200 F 
ENDBRANCH  57  80
ENDBRANCH  31  32
ENDBRANCH  24  26
ENDBRANCH  23  24
ENDBRANCH  22  23
ENDBRANCH  21  22
ENDBRANCH   1  21
TORSDOF 16
ENDMDL
