MODEL 1
REMARK VINA RESULT:     -12.6      0.000      0.000
REMARK SMILES Cc1cc([N+](=O)[O-])ccc1NC(=O)[C@@H]1[C@@H](C(=O)OCCOCCOC(=O)c2ccc(-c3c4nc(c(-c5c(F)c(F)c(F)c(F)c5F)c5ccc([nH]5)c(-c5c(F)c(F)c(F)c(F)c5F)c5nc(c(-c6c(F)c(F)c(F)c(F)c6F)c6ccc3[nH]6)C=C5)C=C4)cc2)[C@H]2C=C[C@@H]1C2
REMARK SMILES IDX 20 1 19 2 18 3 16 4 17 5 15 6 14 7 93 8 90 9 92 10 94 11
REMARK SMILES IDX 91 12 12 13 11 14 13 16 10 17 1 18 2 19 3 20 4 21 9 22 8 23
REMARK SMILES IDX 5 24 6 25 7 26 21 27 22 28 23 29 24 30 25 31 26 32 27 33
REMARK SMILES IDX 28 34 89 35 29 36 88 37 30 38 31 39 32 40 82 41 33 42 87 43
REMARK SMILES IDX 81 44 83 45 34 46 86 47 80 48 79 49 35 51 67 52 47 53 66 54
REMARK SMILES IDX 48 55 51 56 65 57 84 58 49 59 50 60 64 62 85 63 52 64 36 65
REMARK SMILES IDX 37 66 45 67 38 68 39 69 43 70 46 71 40 72 41 73 44 74 42 75
REMARK SMILES IDX 68 76 69 77 77 78 70 79 71 80 75 81 78 82 72 83 73 84 76 85
REMARK SMILES IDX 74 86 53 87 54 88 62 89 55 90 56 91 60 92 63 93 57 94 58 95
REMARK SMILES IDX 61 96 59 97
REMARK H PARENT 11 15 83 50 51 61
REMARK Flexibility Score: inf
ROOT
ATOM      1  C   UNL A   1      31.965  27.630  26.672  1.00  0.00     0.202 C 
ENDROOT
BRANCH   1   2
ATOM      2  C   UNL A   1      31.879  26.138  26.495  1.00  0.00     0.261 C 
BRANCH   2   3
ATOM      3  O   UNL A   1      33.173  25.566  26.236  1.00  0.00    -0.463 OA
BRANCH   3   4
ATOM      4  C   UNL A   1      33.242  24.209  26.119  1.00  0.00     0.310 C 
ATOM      5  O   UNL A   1      32.665  23.406  26.841  1.00  0.00    -0.252 OA
BRANCH   4   6
ATOM      6  C   UNL A   1      34.070  23.855  24.919  1.00  0.00     0.119 C 
ATOM      7  C   UNL A   1      33.786  22.421  24.406  1.00  0.00     0.100 C 
ATOM      8  C   UNL A   1      35.208  21.921  24.031  1.00  0.00     0.025 C 
ATOM      9  C   UNL A   1      35.597  23.817  25.163  1.00  0.00     0.027 C 
ATOM     10  C   UNL A   1      35.827  21.514  25.343  1.00  0.00    -0.027 C 
ATOM     11  C   UNL A   1      36.010  23.217  23.817  1.00  0.00     0.017 C 
ATOM     12  C   UNL A   1      36.030  22.647  26.030  1.00  0.00    -0.027 C 
BRANCH   7  13
ATOM     13  C   UNL A   1      32.785  22.307  23.276  1.00  0.00     0.228 C 
ATOM     14  N   UNL A   1      32.220  21.085  22.988  1.00  0.00    -0.326 N 
ATOM     15  H   UNL A   1      31.602  21.081  22.220  1.00  0.00     0.169 HD
ATOM     16  O   UNL A   1      32.500  23.270  22.564  1.00  0.00    -0.274 OA
BRANCH  14  17
ATOM     17  C   UNL A   1      32.390  19.835  23.621  1.00  0.00     0.044 A 
ATOM     18  C   UNL A   1      32.206  18.628  21.360  1.00  0.00     0.047 C 
ATOM     19  C   UNL A   1      32.483  18.668  22.840  1.00  0.00    -0.021 A 
ATOM     20  C   UNL A   1      32.848  17.455  23.462  1.00  0.00     0.091 A 
ATOM     21  C   UNL A   1      33.095  17.408  24.840  1.00  0.00     0.269 A 
ATOM     22  C   UNL A   1      32.495  19.724  25.016  1.00  0.00     0.033 A 
ATOM     23  C   UNL A   1      32.882  18.533  25.629  1.00  0.00     0.088 A 
BRANCH  21  24
ATOM     24  N   UNL A   1      33.576  16.170  25.461  1.00  0.00     0.062 N 
ATOM     25  O   UNL A   1      34.795  16.061  25.657  1.00  0.00    -0.258 OA
ATOM     26  O   UNL A   1      32.732  15.314  25.762  1.00  0.00    -0.258 OA
ENDBRANCH  21  24
ENDBRANCH  14  17
ENDBRANCH   7  13
ENDBRANCH   4   6
ENDBRANCH   3   4
ENDBRANCH   2   3
ENDBRANCH   1   2
BRANCH   1  27
ATOM     27  O   UNL A   1      33.315  27.904  27.022  1.00  0.00    -0.374 OA
BRANCH  27  28
ATOM     28  C   UNL A   1      33.866  29.077  26.447  1.00  0.00     0.202 C 
BRANCH  28  29
ATOM     29  C   UNL A   1      33.746  30.319  27.343  1.00  0.00     0.261 C 
BRANCH  29  30
ATOM     30  O   UNL A   1      35.000  31.029  27.357  1.00  0.00    -0.460 OA
BRANCH  30  31
ATOM     31  C   UNL A   1      35.612  31.115  28.570  1.00  0.00     0.338 C 
ATOM     32  O   UNL A   1      35.556  32.070  29.326  1.00  0.00    -0.246 OA
BRANCH  31  33
ATOM     33  C   UNL A   1      36.588  29.998  28.710  1.00  0.00     0.060 A 
ATOM     34  C   UNL A   1      36.722  29.337  29.946  1.00  0.00     0.016 A 
ATOM     35  C   UNL A   1      37.553  29.825  27.719  1.00  0.00     0.016 A 
ATOM     36  C   UNL A   1      37.890  28.619  30.234  1.00  0.00     0.010 A 
ATOM     37  C   UNL A   1      38.737  29.204  28.043  1.00  0.00     0.010 A 
ATOM     38  C   UNL A   1      38.928  28.621  29.306  1.00  0.00    -0.014 A 
BRANCH  38  39
ATOM     39  C   UNL A   1      40.285  28.123  29.530  1.00  0.00     0.031 A 
ATOM     40  C   UNL A   1      40.621  26.761  29.053  1.00  0.00     0.074 A 
ATOM     41  C   UNL A   1      41.278  28.976  29.877  1.00  0.00     0.049 A 
ATOM     42  N   UNL A   1      41.759  26.189  29.233  1.00  0.00    -0.248 NA
ATOM     43  C   UNL A   1      39.681  25.905  28.338  1.00  0.00     0.031 C 
ATOM     44  C   UNL A   1      42.716  28.799  29.688  1.00  0.00     0.029 A 
ATOM     45  N   UNL A   1      41.202  30.212  30.539  1.00  0.00    -0.354 N 
ATOM     46  C   UNL A   1      41.833  25.096  28.402  1.00  0.00     0.074 A 
ATOM     47  C   UNL A   1      40.474  24.898  27.964  1.00  0.00     0.031 C 
ATOM     48  C   UNL A   1      43.374  29.645  30.494  1.00  0.00     0.029 A 
ATOM     49  C   UNL A   1      42.380  30.343  31.286  1.00  0.00     0.049 A 
ATOM     50  H   UNL A   1      40.465  30.861  30.487  1.00  0.00     0.167 HD
ATOM     51  C   UNL A   1      43.076  24.606  28.112  1.00  0.00     0.037 A 
ATOM     52  C   UNL A   1      42.362  30.459  32.638  1.00  0.00     0.037 A 
ATOM     53  C   UNL A   1      44.088  25.256  28.979  1.00  0.00     0.049 A 
ATOM     54  C   UNL A   1      43.125  29.292  33.182  1.00  0.00     0.074 A 
ATOM     55  C   UNL A   1      45.110  26.163  28.751  1.00  0.00     0.029 A 
ATOM     56  N   UNL A   1      43.912  25.228  30.373  1.00  0.00    -0.354 N 
ATOM     57  N   UNL A   1      43.133  28.122  32.593  1.00  0.00    -0.248 NA
ATOM     58  C   UNL A   1      44.119  29.419  34.240  1.00  0.00     0.031 C 
ATOM     59  C   UNL A   1      45.469  26.749  30.004  1.00  0.00     0.029 A 
ATOM     60  C   UNL A   1      44.689  26.182  31.005  1.00  0.00     0.049 A 
ATOM     61  H   UNL A   1      43.311  24.606  30.842  1.00  0.00     0.167 HD
ATOM     62  C   UNL A   1      44.219  27.433  33.041  1.00  0.00     0.074 A 
ATOM     63  C   UNL A   1      44.763  28.246  34.121  1.00  0.00     0.031 C 
ATOM     64  C   UNL A   1      44.721  26.306  32.461  1.00  0.00     0.037 A 
BRANCH  51  65
ATOM     65  C   UNL A   1      43.423  23.714  26.913  1.00  0.00     0.064 A 
ATOM     66  C   UNL A   1      42.988  22.368  26.866  1.00  0.00     0.173 A 
ATOM     67  C   UNL A   1      44.230  24.078  25.812  1.00  0.00     0.173 A 
ATOM     68  F   UNL A   1      42.179  21.863  27.805  1.00  0.00    -0.203 F 
ATOM     69  C   UNL A   1      43.367  21.476  25.848  1.00  0.00     0.198 A 
ATOM     70  C   UNL A   1      44.610  23.189  24.797  1.00  0.00     0.198 A 
ATOM     71  F   UNL A   1      44.688  25.314  25.632  1.00  0.00    -0.203 F 
ATOM     72  F   UNL A   1      42.931  20.208  25.876  1.00  0.00    -0.200 F 
ATOM     73  C   UNL A   1      44.186  21.885  24.818  1.00  0.00     0.200 A 
ATOM     74  F   UNL A   1      45.398  23.623  23.801  1.00  0.00    -0.200 F 
ATOM     75  F   UNL A   1      44.555  21.036  23.849  1.00  0.00    -0.200 F 
ENDBRANCH  51  65
BRANCH  52  76
ATOM     76  C   UNL A   1      41.148  31.161  33.133  1.00  0.00     0.064 A 
ATOM     77  C   UNL A   1      41.161  32.573  33.041  1.00  0.00     0.173 A 
ATOM     78  C   UNL A   1      39.896  30.541  33.217  1.00  0.00     0.173 A 
ATOM     79  F   UNL A   1      42.331  33.223  32.920  1.00  0.00    -0.203 F 
ATOM     80  C   UNL A   1      39.984  33.310  32.902  1.00  0.00     0.198 A 
ATOM     81  C   UNL A   1      38.717  31.286  33.073  1.00  0.00     0.198 A 
ATOM     82  F   UNL A   1      39.805  29.207  33.296  1.00  0.00    -0.203 F 
ATOM     83  F   UNL A   1      40.045  34.626  32.646  1.00  0.00    -0.200 F 
ATOM     84  C   UNL A   1      38.764  32.660  32.877  1.00  0.00     0.200 A 
ATOM     85  F   UNL A   1      37.532  30.659  33.018  1.00  0.00    -0.200 F 
ATOM     86  F   UNL A   1      37.647  33.344  32.586  1.00  0.00    -0.200 F 
ENDBRANCH  52  76
BRANCH  64  87
ATOM     87  C   UNL A   1      45.378  25.245  33.295  1.00  0.00     0.064 A 
ATOM     88  C   UNL A   1      46.778  25.147  33.419  1.00  0.00     0.173 A 
ATOM     89  C   UNL A   1      44.622  24.433  34.165  1.00  0.00     0.173 A 
ATOM     90  F   UNL A   1      47.604  25.948  32.731  1.00  0.00    -0.203 F 
ATOM     91  C   UNL A   1      47.377  24.256  34.302  1.00  0.00     0.198 A 
ATOM     92  C   UNL A   1      45.226  23.589  35.091  1.00  0.00     0.198 A 
ATOM     93  F   UNL A   1      43.281  24.467  34.175  1.00  0.00    -0.203 F 
ATOM     94  F   UNL A   1      48.713  24.174  34.350  1.00  0.00    -0.200 F 
ATOM     95  C   UNL A   1      46.603  23.489  35.149  1.00  0.00     0.200 A 
ATOM     96  F   UNL A   1      44.467  22.896  35.950  1.00  0.00    -0.200 F 
ATOM     97  F   UNL A   1      47.182  22.671  36.035  1.00  0.00    -0.200 F 
ENDBRANCH  64  87
ENDBRANCH  38  39
ENDBRANCH  31  33
ENDBRANCH  30  31
ENDBRANCH  29  30
ENDBRANCH  28  29
ENDBRANCH  27  28
ENDBRANCH   1  27
TORSDOF 17
ENDMDL
MODEL 2
REMARK VINA RESULT:     -12.5      1.729      2.396
REMARK SMILES Cc1cc([N+](=O)[O-])ccc1NC(=O)[C@@H]1[C@@H](C(=O)OCCOCCOC(=O)c2ccc(-c3c4nc(c(-c5c(F)c(F)c(F)c(F)c5F)c5ccc([nH]5)c(-c5c(F)c(F)c(F)c(F)c5F)c5nc(c(-c6c(F)c(F)c(F)c(F)c6F)c6ccc3[nH]6)C=C5)C=C4)cc2)[C@H]2C=C[C@@H]1C2
REMARK SMILES IDX 20 1 19 2 18 3 16 4 17 5 15 6 14 7 93 8 90 9 92 10 94 11
REMARK SMILES IDX 91 12 12 13 11 14 13 16 10 17 1 18 2 19 3 20 4 21 9 22 8 23
REMARK SMILES IDX 5 24 6 25 7 26 21 27 22 28 23 29 24 30 25 31 26 32 27 33
REMARK SMILES IDX 28 34 89 35 29 36 88 37 30 38 31 39 32 40 82 41 33 42 87 43
REMARK SMILES IDX 81 44 83 45 34 46 86 47 80 48 79 49 35 51 67 52 47 53 66 54
REMARK SMILES IDX 48 55 51 56 65 57 84 58 49 59 50 60 64 62 85 63 52 64 36 65
REMARK SMILES IDX 37 66 45 67 38 68 39 69 43 70 46 71 40 72 41 73 44 74 42 75
REMARK SMILES IDX 68 76 69 77 77 78 70 79 71 80 75 81 78 82 72 83 73 84 76 85
REMARK SMILES IDX 74 86 53 87 54 88 62 89 55 90 56 91 60 92 63 93 57 94 58 95
REMARK SMILES IDX 61 96 59 97
REMARK H PARENT 11 15 83 50 51 61
REMARK Flexibility Score: inf
ROOT
ATOM      1  C   UNL A   1      32.086  29.802  25.473  1.00  0.00     0.202 C 
ENDROOT
BRANCH   1   2
ATOM      2  C   UNL A   1      31.463  28.676  24.694  1.00  0.00     0.261 C 
BRANCH   2   3
ATOM      3  O   UNL A   1      30.896  27.685  25.570  1.00  0.00    -0.463 OA
BRANCH   3   4
ATOM      4  C   UNL A   1      31.631  26.558  25.793  1.00  0.00     0.310 C 
ATOM      5  O   UNL A   1      32.647  26.497  26.474  1.00  0.00    -0.252 OA
BRANCH   4   6
ATOM      6  C   UNL A   1      30.957  25.389  25.138  1.00  0.00     0.119 C 
ATOM      7  C   UNL A   1      31.727  24.061  25.359  1.00  0.00     0.100 C 
ATOM      8  C   UNL A   1      31.592  23.372  23.974  1.00  0.00     0.025 C 
ATOM      9  C   UNL A   1      30.869  25.460  23.595  1.00  0.00     0.027 C 
ATOM     10  C   UNL A   1      32.637  24.034  23.116  1.00  0.00    -0.027 C 
ATOM     11  C   UNL A   1      30.355  24.040  23.348  1.00  0.00     0.017 C 
ATOM     12  C   UNL A   1      32.217  25.292  22.917  1.00  0.00    -0.027 C 
BRANCH   7  13
ATOM     13  C   UNL A   1      31.252  23.204  26.513  1.00  0.00     0.228 C 
ATOM     14  N   UNL A   1      32.032  22.156  26.948  1.00  0.00    -0.326 N 
ATOM     15  H   UNL A   1      31.645  21.624  27.682  1.00  0.00     0.169 HD
ATOM     16  O   UNL A   1      30.155  23.382  27.043  1.00  0.00    -0.274 OA
BRANCH  14  17
ATOM     17  C   UNL A   1      33.301  21.726  26.506  1.00  0.00     0.044 A 
ATOM     18  C   UNL A   1      32.211  19.914  25.045  1.00  0.00     0.047 C 
ATOM     19  C   UNL A   1      33.389  20.721  25.523  1.00  0.00    -0.021 A 
ATOM     20  C   UNL A   1      34.645  20.437  24.945  1.00  0.00     0.091 A 
ATOM     21  C   UNL A   1      35.791  21.128  25.358  1.00  0.00     0.269 A 
ATOM     22  C   UNL A   1      34.486  22.290  27.003  1.00  0.00     0.033 A 
ATOM     23  C   UNL A   1      35.723  22.030  26.415  1.00  0.00     0.088 A 
BRANCH  21  24
ATOM     24  N   UNL A   1      37.072  20.903  24.681  1.00  0.00     0.062 N 
ATOM     25  O   UNL A   1      37.471  21.778  23.901  1.00  0.00    -0.258 OA
ATOM     26  O   UNL A   1      37.681  19.855  24.941  1.00  0.00    -0.258 OA
ENDBRANCH  21  24
ENDBRANCH  14  17
ENDBRANCH   7  13
ENDBRANCH   4   6
ENDBRANCH   3   4
ENDBRANCH   2   3
ENDBRANCH   1   2
BRANCH   1  27
ATOM     27  O   UNL A   1      33.480  29.523  25.516  1.00  0.00    -0.374 OA
BRANCH  27  28
ATOM     28  C   UNL A   1      34.050  29.477  26.814  1.00  0.00     0.202 C 
BRANCH  28  29
ATOM     29  C   UNL A   1      34.372  30.862  27.395  1.00  0.00     0.261 C 
BRANCH  29  30
ATOM     30  O   UNL A   1      35.056  30.710  28.655  1.00  0.00    -0.460 OA
BRANCH  30  31
ATOM     31  C   UNL A   1      36.349  31.133  28.675  1.00  0.00     0.338 C 
ATOM     32  O   UNL A   1      36.728  32.267  28.438  1.00  0.00    -0.246 OA
BRANCH  31  33
ATOM     33  C   UNL A   1      37.253  29.951  28.745  1.00  0.00     0.060 A 
ATOM     34  C   UNL A   1      37.278  29.156  29.907  1.00  0.00     0.016 A 
ATOM     35  C   UNL A   1      38.263  29.824  27.793  1.00  0.00     0.016 A 
ATOM     36  C   UNL A   1      38.386  28.343  30.178  1.00  0.00     0.010 A 
ATOM     37  C   UNL A   1      39.391  29.102  28.111  1.00  0.00     0.010 A 
ATOM     38  C   UNL A   1      39.475  28.380  29.311  1.00  0.00    -0.014 A 
BRANCH  38  39
ATOM     39  C   UNL A   1      40.787  27.779  29.552  1.00  0.00     0.031 A 
ATOM     40  C   UNL A   1      41.056  26.432  28.997  1.00  0.00     0.074 A 
ATOM     41  C   UNL A   1      41.818  28.541  29.991  1.00  0.00     0.049 A 
ATOM     42  N   UNL A   1      42.147  25.776  29.180  1.00  0.00    -0.248 NA
ATOM     43  C   UNL A   1      40.094  25.688  28.193  1.00  0.00     0.031 C 
ATOM     44  C   UNL A   1      43.247  28.282  29.844  1.00  0.00     0.029 A 
ATOM     45  N   UNL A   1      41.793  29.734  30.731  1.00  0.00    -0.354 N 
ATOM     46  C   UNL A   1      42.185  24.736  28.282  1.00  0.00     0.074 A 
ATOM     47  C   UNL A   1      40.836  24.656  27.782  1.00  0.00     0.031 C 
ATOM     48  C   UNL A   1      43.925  29.029  30.728  1.00  0.00     0.029 A 
ATOM     49  C   UNL A   1      42.946  29.739  31.528  1.00  0.00     0.049 A 
ATOM     50  H   UNL A   1      41.101  30.432  30.696  1.00  0.00     0.167 HD
ATOM     51  C   UNL A   1      43.406  24.185  28.005  1.00  0.00     0.037 A 
ATOM     52  C   UNL A   1      42.879  29.768  32.883  1.00  0.00     0.037 A 
ATOM     53  C   UNL A   1      44.421  24.709  28.951  1.00  0.00     0.049 A 
ATOM     54  C   UNL A   1      43.543  28.522  33.376  1.00  0.00     0.074 A 
ATOM     55  C   UNL A   1      45.506  25.560  28.822  1.00  0.00     0.029 A 
ATOM     56  N   UNL A   1      44.186  24.603  30.332  1.00  0.00    -0.354 N 
ATOM     57  N   UNL A   1      43.501  27.393  32.710  1.00  0.00    -0.248 NA
ATOM     58  C   UNL A   1      44.499  28.514  34.476  1.00  0.00     0.031 C 
ATOM     59  C   UNL A   1      45.850  26.038  30.123  1.00  0.00     0.029 A 
ATOM     60  C   UNL A   1      44.996  25.461  31.055  1.00  0.00     0.049 A 
ATOM     61  H   UNL A   1      43.527  23.993  30.736  1.00  0.00     0.167 HD
ATOM     62  C   UNL A   1      44.522  26.607  33.151  1.00  0.00     0.074 A 
ATOM     63  C   UNL A   1      45.072  27.311  34.303  1.00  0.00     0.031 C 
ATOM     64  C   UNL A   1      44.975  25.488  32.516  1.00  0.00     0.037 A 
BRANCH  51  65
ATOM     65  C   UNL A   1      43.744  23.351  26.763  1.00  0.00     0.064 A 
ATOM     66  C   UNL A   1      43.263  22.027  26.630  1.00  0.00     0.173 A 
ATOM     67  C   UNL A   1      44.586  23.747  25.700  1.00  0.00     0.173 A 
ATOM     68  F   UNL A   1      42.417  21.499  27.524  1.00  0.00    -0.203 F 
ATOM     69  C   UNL A   1      43.629  21.181  25.569  1.00  0.00     0.198 A 
ATOM     70  C   UNL A   1      44.955  22.904  24.642  1.00  0.00     0.198 A 
ATOM     71  F   UNL A   1      45.092  24.974  25.600  1.00  0.00    -0.203 F 
ATOM     72  F   UNL A   1      43.147  19.930  25.515  1.00  0.00    -0.200 F 
ATOM     73  C   UNL A   1      44.483  21.617  24.579  1.00  0.00     0.200 A 
ATOM     74  F   UNL A   1      45.777  23.365  23.688  1.00  0.00    -0.200 F 
ATOM     75  F   UNL A   1      44.841  20.813  23.570  1.00  0.00    -0.200 F 
ENDBRANCH  51  65
BRANCH  52  76
ATOM     76  C   UNL A   1      41.693  30.516  33.379  1.00  0.00     0.064 A 
ATOM     77  C   UNL A   1      41.801  31.926  33.388  1.00  0.00     0.173 A 
ATOM     78  C   UNL A   1      40.400  29.978  33.369  1.00  0.00     0.173 A 
ATOM     79  F   UNL A   1      43.015  32.503  33.360  1.00  0.00    -0.203 F 
ATOM     80  C   UNL A   1      40.682  32.750  33.256  1.00  0.00     0.198 A 
ATOM     81  C   UNL A   1      39.280  30.810  33.233  1.00  0.00     0.198 A 
ATOM     82  F   UNL A   1      40.219  28.651  33.349  1.00  0.00    -0.203 F 
ATOM     83  F   UNL A   1      40.840  34.073  33.097  1.00  0.00    -0.200 F 
ATOM     84  C   UNL A   1      39.424  32.187  33.137  1.00  0.00     0.200 A 
ATOM     85  F   UNL A   1      38.060  30.270  33.087  1.00  0.00    -0.200 F 
ATOM     86  F   UNL A   1      38.368  32.964  32.852  1.00  0.00    -0.200 F 
ENDBRANCH  52  76
BRANCH  64  87
ATOM     87  C   UNL A   1      45.528  24.336  33.301  1.00  0.00     0.064 A 
ATOM     88  C   UNL A   1      46.808  24.372  33.888  1.00  0.00     0.173 A 
ATOM     89  C   UNL A   1      44.710  23.248  33.670  1.00  0.00     0.173 A 
ATOM     90  F   UNL A   1      47.637  25.411  33.708  1.00  0.00    -0.203 F 
ATOM     91  C   UNL A   1      47.260  23.363  34.731  1.00  0.00     0.198 A 
ATOM     92  C   UNL A   1      45.143  22.274  34.563  1.00  0.00     0.198 A 
ATOM     93  F   UNL A   1      43.455  23.123  33.214  1.00  0.00    -0.203 F 
ATOM     94  F   UNL A   1      48.502  23.427  35.229  1.00  0.00    -0.200 F 
ATOM     95  C   UNL A   1      46.423  22.323  35.081  1.00  0.00     0.200 A 
ATOM     96  F   UNL A   1      44.303  21.304  34.945  1.00  0.00    -0.200 F 
ATOM     97  F   UNL A   1      46.842  21.381  35.934  1.00  0.00    -0.200 F 
ENDBRANCH  64  87
ENDBRANCH  38  39
ENDBRANCH  31  33
ENDBRANCH  30  31
ENDBRANCH  29  30
ENDBRANCH  28  29
ENDBRANCH  27  28
ENDBRANCH   1  27
TORSDOF 17
ENDMDL
MODEL 3
REMARK VINA RESULT:     -12.5      3.956     10.131
REMARK SMILES Cc1cc([N+](=O)[O-])ccc1NC(=O)[C@@H]1[C@@H](C(=O)OCCOCCOC(=O)c2ccc(-c3c4nc(c(-c5c(F)c(F)c(F)c(F)c5F)c5ccc([nH]5)c(-c5c(F)c(F)c(F)c(F)c5F)c5nc(c(-c6c(F)c(F)c(F)c(F)c6F)c6ccc3[nH]6)C=C5)C=C4)cc2)[C@H]2C=C[C@@H]1C2
REMARK SMILES IDX 20 1 19 2 18 3 16 4 17 5 15 6 14 7 93 8 90 9 92 10 94 11
REMARK SMILES IDX 91 12 12 13 11 14 13 16 10 17 1 18 2 19 3 20 4 21 9 22 8 23
REMARK SMILES IDX 5 24 6 25 7 26 21 27 22 28 23 29 24 30 25 31 26 32 27 33
REMARK SMILES IDX 28 34 89 35 29 36 88 37 30 38 31 39 32 40 82 41 33 42 87 43
REMARK SMILES IDX 81 44 83 45 34 46 86 47 80 48 79 49 35 51 67 52 47 53 66 54
REMARK SMILES IDX 48 55 51 56 65 57 84 58 49 59 50 60 64 62 85 63 52 64 36 65
REMARK SMILES IDX 37 66 45 67 38 68 39 69 43 70 46 71 40 72 41 73 44 74 42 75
REMARK SMILES IDX 68 76 69 77 77 78 70 79 71 80 75 81 78 82 72 83 73 84 76 85
REMARK SMILES IDX 74 86 53 87 54 88 62 89 55 90 56 91 60 92 63 93 57 94 58 95
REMARK SMILES IDX 61 96 59 97
REMARK H PARENT 11 15 83 50 51 61
REMARK Flexibility Score: inf
ROOT
ATOM      1  C   UNL A   1      37.265  23.679  24.668  1.00  0.00     0.202 C 
ENDROOT
BRANCH   1   2
ATOM      2  C   UNL A   1      36.386  22.707  23.929  1.00  0.00     0.261 C 
BRANCH   2   3
ATOM      3  O   UNL A   1      35.205  23.352  23.420  1.00  0.00    -0.463 OA
BRANCH   3   4
ATOM      4  C   UNL A   1      34.149  23.478  24.273  1.00  0.00     0.310 C 
ATOM      5  O   UNL A   1      34.228  23.567  25.492  1.00  0.00    -0.252 OA
BRANCH   4   6
ATOM      6  C   UNL A   1      32.878  23.570  23.480  1.00  0.00     0.119 C 
ATOM      7  C   UNL A   1      32.398  25.032  23.299  1.00  0.00     0.100 C 
ATOM      8  C   UNL A   1      30.860  24.894  23.470  1.00  0.00     0.025 C 
ATOM      9  C   UNL A   1      31.646  22.902  24.134  1.00  0.00     0.027 C 
ATOM     10  C   UNL A   1      30.648  24.828  24.960  1.00  0.00    -0.027 C 
ATOM     11  C   UNL A   1      30.586  23.412  23.156  1.00  0.00     0.017 C 
ATOM     12  C   UNL A   1      31.146  23.648  25.358  1.00  0.00    -0.027 C 
BRANCH   7  13
ATOM     13  C   UNL A   1      32.805  25.709  22.008  1.00  0.00     0.228 C 
ATOM     14  N   UNL A   1      32.890  27.082  21.956  1.00  0.00    -0.326 N 
ATOM     15  H   UNL A   1      33.131  27.453  21.076  1.00  0.00     0.169 HD
ATOM     16  O   UNL A   1      33.013  25.067  20.977  1.00  0.00    -0.274 OA
BRANCH  14  17
ATOM     17  C   UNL A   1      32.684  28.042  22.970  1.00  0.00     0.044 A 
ATOM     18  C   UNL A   1      30.221  28.287  22.280  1.00  0.00     0.047 C 
ATOM     19  C   UNL A   1      31.389  28.548  23.194  1.00  0.00    -0.021 A 
ATOM     20  C   UNL A   1      31.155  29.352  24.329  1.00  0.00     0.091 A 
ATOM     21  C   UNL A   1      32.199  29.661  25.211  1.00  0.00     0.269 A 
ATOM     22  C   UNL A   1      33.735  28.492  23.784  1.00  0.00     0.033 A 
ATOM     23  C   UNL A   1      33.501  29.264  24.921  1.00  0.00     0.088 A 
BRANCH  21  24
ATOM     24  N   UNL A   1      31.928  30.407  26.443  1.00  0.00     0.062 N 
ATOM     25  O   UNL A   1      32.225  29.868  27.518  1.00  0.00    -0.258 OA
ATOM     26  O   UNL A   1      31.429  31.536  26.331  1.00  0.00    -0.258 OA
ENDBRANCH  21  24
ENDBRANCH  14  17
ENDBRANCH   7  13
ENDBRANCH   4   6
ENDBRANCH   3   4
ENDBRANCH   2   3
ENDBRANCH   1   2
BRANCH   1  27
ATOM     27  O   UNL A   1      37.611  23.040  25.891  1.00  0.00    -0.374 OA
BRANCH  27  28
ATOM     28  C   UNL A   1      38.377  21.854  25.760  1.00  0.00     0.202 C 
BRANCH  28  29
ATOM     29  C   UNL A   1      39.644  21.840  26.628  1.00  0.00     0.261 C 
BRANCH  29  30
ATOM     30  O   UNL A   1      39.753  23.086  27.346  1.00  0.00    -0.460 OA
BRANCH  30  31
ATOM     31  C   UNL A   1      40.704  23.945  26.888  1.00  0.00     0.338 C 
ATOM     32  O   UNL A   1      41.819  23.630  26.507  1.00  0.00    -0.246 OA
BRANCH  31  33
ATOM     33  C   UNL A   1      40.290  25.344  27.189  1.00  0.00     0.060 A 
ATOM     34  C   UNL A   1      40.637  26.382  26.303  1.00  0.00     0.016 A 
ATOM     35  C   UNL A   1      39.836  25.645  28.471  1.00  0.00     0.016 A 
ATOM     36  C   UNL A   1      40.660  27.709  26.752  1.00  0.00     0.010 A 
ATOM     37  C   UNL A   1      39.956  26.935  28.935  1.00  0.00     0.010 A 
ATOM     38  C   UNL A   1      40.392  27.970  28.093  1.00  0.00    -0.014 A 
BRANCH  38  39
ATOM     39  C   UNL A   1      40.589  29.248  28.778  1.00  0.00     0.031 A 
ATOM     40  C   UNL A   1      39.444  30.184  28.863  1.00  0.00     0.074 A 
ATOM     41  C   UNL A   1      41.672  29.441  29.568  1.00  0.00     0.049 A 
ATOM     42  N   UNL A   1      39.501  31.355  29.392  1.00  0.00    -0.248 NA
ATOM     43  C   UNL A   1      38.119  29.882  28.333  1.00  0.00     0.031 C 
ATOM     44  C   UNL A   1      41.820  30.392  30.666  1.00  0.00     0.029 A 
ATOM     45  N   UNL A   1      42.934  28.826  29.518  1.00  0.00    -0.354 N 
ATOM     46  C   UNL A   1      38.217  31.806  29.589  1.00  0.00     0.074 A 
ATOM     47  C   UNL A   1      37.407  30.910  28.804  1.00  0.00     0.031 C 
ATOM     48  C   UNL A   1      43.124  30.558  30.934  1.00  0.00     0.029 A 
ATOM     49  C   UNL A   1      43.864  29.775  29.963  1.00  0.00     0.049 A 
ATOM     50  H   UNL A   1      43.128  27.906  29.228  1.00  0.00     0.167 HD
ATOM     51  C   UNL A   1      38.032  32.805  30.505  1.00  0.00     0.037 A 
ATOM     52  C   UNL A   1      44.871  30.218  29.169  1.00  0.00     0.037 A 
ATOM     53  C   UNL A   1      39.345  33.349  30.927  1.00  0.00     0.049 A 
ATOM     54  C   UNL A   1      44.681  31.693  29.010  1.00  0.00     0.074 A 
ATOM     55  C   UNL A   1      40.074  33.298  32.104  1.00  0.00     0.029 A 
ATOM     56  N   UNL A   1      40.243  33.805  29.947  1.00  0.00    -0.354 N 
ATOM     57  N   UNL A   1      43.494  32.249  28.988  1.00  0.00    -0.248 NA
ATOM     58  C   UNL A   1      45.772  32.651  29.132  1.00  0.00     0.031 C 
ATOM     59  C   UNL A   1      41.431  33.625  31.798  1.00  0.00     0.029 A 
ATOM     60  C   UNL A   1      41.531  33.905  30.441  1.00  0.00     0.049 A 
ATOM     61  H   UNL A   1      39.987  34.025  29.022  1.00  0.00     0.167 HD
ATOM     62  C   UNL A   1      43.645  33.572  29.278  1.00  0.00     0.074 A 
ATOM     63  C   UNL A   1      45.085  33.796  29.285  1.00  0.00     0.031 C 
ATOM     64  C   UNL A   1      42.630  34.415  29.622  1.00  0.00     0.037 A 
BRANCH  51  65
ATOM     65  C   UNL A   1      36.704  33.149  31.189  1.00  0.00     0.064 A 
ATOM     66  C   UNL A   1      35.659  33.771  30.464  1.00  0.00     0.173 A 
ATOM     67  C   UNL A   1      36.402  32.969  32.558  1.00  0.00     0.173 A 
ATOM     68  F   UNL A   1      35.754  33.982  29.146  1.00  0.00    -0.203 F 
ATOM     69  C   UNL A   1      34.464  34.207  31.063  1.00  0.00     0.198 A 
ATOM     70  C   UNL A   1      35.212  33.405  33.157  1.00  0.00     0.198 A 
ATOM     71  F   UNL A   1      37.221  32.346  33.400  1.00  0.00    -0.203 F 
ATOM     72  F   UNL A   1      33.524  34.805  30.318  1.00  0.00    -0.200 F 
ATOM     73  C   UNL A   1      34.245  34.032  32.412  1.00  0.00     0.200 A 
ATOM     74  F   UNL A   1      35.024  33.206  34.471  1.00  0.00    -0.200 F 
ATOM     75  F   UNL A   1      33.111  34.452  32.989  1.00  0.00    -0.200 F 
ENDBRANCH  51  65
BRANCH  52  76
ATOM     76  C   UNL A   1      45.348  29.176  28.220  1.00  0.00     0.064 A 
ATOM     77  C   UNL A   1      46.253  28.222  28.741  1.00  0.00     0.173 A 
ATOM     78  C   UNL A   1      44.632  28.814  27.073  1.00  0.00     0.173 A 
ATOM     79  F   UNL A   1      46.941  28.497  29.862  1.00  0.00    -0.203 F 
ATOM     80  C   UNL A   1      46.335  26.929  28.223  1.00  0.00     0.198 A 
ATOM     81  C   UNL A   1      44.716  27.512  26.558  1.00  0.00     0.198 A 
ATOM     82  F   UNL A   1      43.749  29.661  26.529  1.00  0.00    -0.203 F 
ATOM     83  F   UNL A   1      47.077  26.003  28.849  1.00  0.00    -0.200 F 
ATOM     84  C   UNL A   1      45.534  26.563  27.156  1.00  0.00     0.200 A 
ATOM     85  F   UNL A   1      43.921  27.142  25.543  1.00  0.00    -0.200 F 
ATOM     86  F   UNL A   1      45.494  25.283  26.758  1.00  0.00    -0.200 F 
ENDBRANCH  52  76
BRANCH  64  87
ATOM     87  C   UNL A   1      42.682  35.866  29.246  1.00  0.00     0.064 A 
ATOM     88  C   UNL A   1      43.392  36.815  30.007  1.00  0.00     0.173 A 
ATOM     89  C   UNL A   1      42.202  36.310  27.996  1.00  0.00     0.173 A 
ATOM     90  F   UNL A   1      43.995  36.486  31.158  1.00  0.00    -0.203 F 
ATOM     91  C   UNL A   1      43.555  38.127  29.579  1.00  0.00     0.198 A 
ATOM     92  C   UNL A   1      42.423  37.607  27.544  1.00  0.00     0.198 A 
ATOM     93  F   UNL A   1      41.549  35.490  27.160  1.00  0.00    -0.203 F 
ATOM     94  F   UNL A   1      44.204  39.000  30.361  1.00  0.00    -0.200 F 
ATOM     95  C   UNL A   1      43.085  38.520  28.342  1.00  0.00     0.200 A 
ATOM     96  F   UNL A   1      42.017  37.959  26.317  1.00  0.00    -0.200 F 
ATOM     97  F   UNL A   1      43.289  39.769  27.909  1.00  0.00    -0.200 F 
ENDBRANCH  64  87
ENDBRANCH  38  39
ENDBRANCH  31  33
ENDBRANCH  30  31
ENDBRANCH  29  30
ENDBRANCH  28  29
ENDBRANCH  27  28
ENDBRANCH   1  27
TORSDOF 17
ENDMDL
