MODEL 1
REMARK VINA RESULT:     -12.3      0.000      0.000
REMARK SMILES C[C@H]1[C@@H](C(=O)OCCOCCOC(=O)c2ccc(-c3c4nc(c(-c5c(F)c(F)c(F)c(F)c5F)c5ccc([nH]5)c(-c5c(F)c(F)c(F)c(F)c5F)c5nc(c(-c6c(F)c(F)c(F)c(F)c6F)c6ccc3[nH]6)C=C5)C=C4)cc2)CCN1C(=O)/C=C/c1cccc(F)c1
REMARK SMILES IDX 8 1 7 2 6 3 4 4 5 5 3 6 1 7 2 8 80 9 78 10 79 11 81 12 82 13
REMARK SMILES IDX 83 14 84 15 85 16 86 17 91 18 87 19 89 20 88 21 90 22 9 23
REMARK SMILES IDX 10 24 11 25 12 26 13 27 14 28 15 29 16 30 77 31 17 32 76 33
REMARK SMILES IDX 18 34 19 35 20 36 70 37 21 38 75 39 69 40 71 41 22 42 74 43
REMARK SMILES IDX 68 44 67 45 23 47 55 48 35 49 54 50 36 51 39 52 53 53 72 54
REMARK SMILES IDX 37 55 38 56 52 58 73 59 40 60 24 61 25 62 33 63 26 64 27 65
REMARK SMILES IDX 31 66 34 67 28 68 29 69 32 70 30 71 56 72 57 73 65 74 58 75
REMARK SMILES IDX 59 76 63 77 66 78 60 79 61 80 64 81 62 82 41 83 42 84 50 85
REMARK SMILES IDX 43 86 44 87 48 88 51 89 45 90 46 91 49 92 47 93
REMARK H PARENT 71 46 39 57
REMARK Flexibility Score: inf
ROOT
ATOM      1  C   UNL A   1      33.696  28.628  24.786  1.00  0.00     0.202 C 
ENDROOT
BRANCH   1   2
ATOM      2  C   UNL A   1      33.089  28.500  23.384  1.00  0.00     0.261 C 
BRANCH   2   3
ATOM      3  O   UNL A   1      32.540  27.176  23.226  1.00  0.00    -0.463 OA
BRANCH   3   4
ATOM      4  C   UNL A   1      33.236  26.300  22.475  1.00  0.00     0.311 C 
ATOM      5  O   UNL A   1      33.729  26.570  21.385  1.00  0.00    -0.252 OA
BRANCH   4   6
ATOM      6  C   UNL A   1      33.397  24.931  23.120  1.00  0.00     0.123 C 
ATOM      7  C   UNL A   1      30.781  24.479  23.209  1.00  0.00     0.032 C 
ATOM      8  C   UNL A   1      32.208  23.978  23.427  1.00  0.00     0.096 C 
ATOM      9  N   UNL A   1      32.417  23.537  24.819  1.00  0.00    -0.336 N 
ATOM     10  C   UNL A   1      34.158  25.090  24.452  1.00  0.00     0.039 C 
ATOM     11  C   UNL A   1      33.326  24.414  25.518  1.00  0.00     0.121 C 
BRANCH   9  12
ATOM     12  C   UNL A   1      31.809  22.522  25.533  1.00  0.00     0.246 C 
ATOM     13  O   UNL A   1      31.017  22.735  26.452  1.00  0.00    -0.270 OA
BRANCH  12  14
ATOM     14  C   UNL A   1      32.005  21.118  25.102  1.00  0.00     0.072 C 
ATOM     15  C   UNL A   1      33.207  20.534  25.001  1.00  0.00     0.014 C 
BRANCH  15  16
ATOM     16  C   UNL A   1      33.462  19.191  24.451  1.00  0.00    -0.023 A 
ATOM     17  C   UNL A   1      32.652  18.747  23.391  1.00  0.00     0.008 A 
ATOM     18  C   UNL A   1      34.448  18.324  24.940  1.00  0.00     0.047 A 
ATOM     19  C   UNL A   1      32.816  17.474  22.839  1.00  0.00     0.004 A 
ATOM     20  C   UNL A   1      34.602  17.056  24.383  1.00  0.00     0.123 A 
ATOM     21  C   UNL A   1      33.797  16.623  23.338  1.00  0.00     0.039 A 
ATOM     22  F   UNL A   1      35.544  16.236  24.869  1.00  0.00    -0.207 F 
ENDBRANCH  15  16
ENDBRANCH  12  14
ENDBRANCH   9  12
ENDBRANCH   4   6
ENDBRANCH   3   4
ENDBRANCH   2   3
ENDBRANCH   1   2
BRANCH   1  23
ATOM     23  O   UNL A   1      32.750  28.969  25.805  1.00  0.00    -0.374 OA
BRANCH  23  24
ATOM     24  C   UNL A   1      31.799  29.982  25.482  1.00  0.00     0.202 C 
BRANCH  24  25
ATOM     25  C   UNL A   1      31.748  31.158  26.460  1.00  0.00     0.261 C 
BRANCH  25  26
ATOM     26  O   UNL A   1      32.752  31.025  27.479  1.00  0.00    -0.460 OA
BRANCH  26  27
ATOM     27  C   UNL A   1      33.525  32.120  27.641  1.00  0.00     0.338 C 
ATOM     28  O   UNL A   1      33.150  33.285  27.699  1.00  0.00    -0.246 OA
BRANCH  27  29
ATOM     29  C   UNL A   1      34.926  31.737  27.895  1.00  0.00     0.060 A 
ATOM     30  C   UNL A   1      35.199  30.367  27.965  1.00  0.00     0.016 A 
ATOM     31  C   UNL A   1      35.938  32.673  28.136  1.00  0.00     0.016 A 
ATOM     32  C   UNL A   1      36.451  29.926  28.375  1.00  0.00     0.010 A 
ATOM     33  C   UNL A   1      37.202  32.228  28.541  1.00  0.00     0.010 A 
ATOM     34  C   UNL A   1      37.443  30.853  28.719  1.00  0.00    -0.014 A 
BRANCH  34  35
ATOM     35  C   UNL A   1      38.640  30.361  29.444  1.00  0.00     0.031 A 
ATOM     36  C   UNL A   1      38.842  30.777  30.877  1.00  0.00     0.074 A 
ATOM     37  C   UNL A   1      39.470  29.472  28.874  1.00  0.00     0.049 A 
ATOM     38  N   UNL A   1      39.749  30.387  31.737  1.00  0.00    -0.248 NA
ATOM     39  C   UNL A   1      37.891  31.763  31.416  1.00  0.00     0.031 C 
ATOM     40  C   UNL A   1      39.359  28.971  27.507  1.00  0.00     0.029 A 
ATOM     41  N   UNL A   1      40.562  28.817  29.386  1.00  0.00    -0.354 N 
ATOM     42  C   UNL A   1      39.475  31.074  32.913  1.00  0.00     0.074 A 
ATOM     43  C   UNL A   1      38.347  31.940  32.647  1.00  0.00     0.031 C 
ATOM     44  C   UNL A   1      40.337  28.076  27.289  1.00  0.00     0.029 A 
ATOM     45  C   UNL A   1      41.154  27.956  28.495  1.00  0.00     0.049 A 
ATOM     46  H   UNL A   1      40.890  28.952  30.304  1.00  0.00     0.167 HD
ATOM     47  C   UNL A   1      40.094  30.979  34.114  1.00  0.00     0.037 A 
ATOM     48  C   UNL A   1      42.231  27.161  28.643  1.00  0.00     0.037 A 
ATOM     49  C   UNL A   1      41.213  30.114  34.381  1.00  0.00     0.049 A 
ATOM     50  C   UNL A   1      42.932  27.109  29.976  1.00  0.00     0.074 A 
ATOM     51  C   UNL A   1      41.903  29.933  35.566  1.00  0.00     0.029 A 
ATOM     52  N   UNL A   1      41.810  29.286  33.441  1.00  0.00    -0.354 N 
ATOM     53  N   UNL A   1      42.643  27.734  31.091  1.00  0.00    -0.248 NA
ATOM     54  C   UNL A   1      44.104  26.227  30.071  1.00  0.00     0.031 C 
ATOM     55  C   UNL A   1      42.948  29.034  35.331  1.00  0.00     0.029 A 
ATOM     56  C   UNL A   1      42.874  28.610  34.014  1.00  0.00     0.049 A 
ATOM     57  H   UNL A   1      41.520  29.193  32.505  1.00  0.00     0.167 HD
ATOM     58  C   UNL A   1      43.573  27.299  32.027  1.00  0.00     0.074 A 
ATOM     59  C   UNL A   1      44.426  26.344  31.352  1.00  0.00     0.031 C 
ATOM     60  C   UNL A   1      43.711  27.657  33.328  1.00  0.00     0.037 A 
BRANCH  47  61
ATOM     61  C   UNL A   1      39.585  31.850  35.226  1.00  0.00     0.064 A 
ATOM     62  C   UNL A   1      38.657  31.378  36.168  1.00  0.00     0.173 A 
ATOM     63  C   UNL A   1      40.050  33.166  35.367  1.00  0.00     0.173 A 
ATOM     64  F   UNL A   1      38.170  30.133  36.070  1.00  0.00    -0.203 F 
ATOM     65  C   UNL A   1      38.195  32.201  37.192  1.00  0.00     0.198 A 
ATOM     66  C   UNL A   1      39.607  33.976  36.410  1.00  0.00     0.198 A 
ATOM     67  F   UNL A   1      40.939  33.666  34.495  1.00  0.00    -0.203 F 
ATOM     68  F   UNL A   1      37.272  31.744  38.051  1.00  0.00    -0.200 F 
ATOM     69  C   UNL A   1      38.675  33.495  37.317  1.00  0.00     0.200 A 
ATOM     70  F   UNL A   1      40.082  35.223  36.535  1.00  0.00    -0.200 F 
ATOM     71  F   UNL A   1      38.233  34.284  38.307  1.00  0.00    -0.200 F 
ENDBRANCH  47  61
BRANCH  48  72
ATOM     72  C   UNL A   1      42.709  26.340  27.499  1.00  0.00     0.064 A 
ATOM     73  C   UNL A   1      42.202  25.055  27.266  1.00  0.00     0.173 A 
ATOM     74  C   UNL A   1      43.699  26.819  26.629  1.00  0.00     0.173 A 
ATOM     75  F   UNL A   1      41.271  24.542  28.084  1.00  0.00    -0.203 F 
ATOM     76  C   UNL A   1      42.681  24.271  26.217  1.00  0.00     0.198 A 
ATOM     77  C   UNL A   1      44.157  26.046  25.563  1.00  0.00     0.198 A 
ATOM     78  F   UNL A   1      44.217  28.043  26.809  1.00  0.00    -0.203 F 
ATOM     79  F   UNL A   1      42.214  23.027  26.046  1.00  0.00    -0.200 F 
ATOM     80  C   UNL A   1      43.654  24.770  25.364  1.00  0.00     0.200 A 
ATOM     81  F   UNL A   1      45.086  26.538  24.734  1.00  0.00    -0.200 F 
ATOM     82  F   UNL A   1      44.113  24.018  24.354  1.00  0.00    -0.200 F 
ENDBRANCH  48  72
BRANCH  60  83
ATOM     83  C   UNL A   1      44.799  26.986  34.114  1.00  0.00     0.064 A 
ATOM     84  C   UNL A   1      44.585  25.774  34.787  1.00  0.00     0.173 A 
ATOM     85  C   UNL A   1      46.083  27.552  34.176  1.00  0.00     0.173 A 
ATOM     86  F   UNL A   1      43.373  25.197  34.770  1.00  0.00    -0.203 F 
ATOM     87  C   UNL A   1      45.602  25.173  35.524  1.00  0.00     0.198 A 
ATOM     88  C   UNL A   1      47.107  26.931  34.885  1.00  0.00     0.198 A 
ATOM     89  F   UNL A   1      46.345  28.705  33.542  1.00  0.00    -0.203 F 
ATOM     90  F   UNL A   1      45.357  24.047  36.207  1.00  0.00    -0.200 F 
ATOM     91  C   UNL A   1      46.864  25.750  35.567  1.00  0.00     0.200 A 
ATOM     92  F   UNL A   1      48.329  27.481  34.914  1.00  0.00    -0.200 F 
ATOM     93  F   UNL A   1      47.842  25.169  36.276  1.00  0.00    -0.200 F 
ENDBRANCH  60  83
ENDBRANCH  34  35
ENDBRANCH  27  29
ENDBRANCH  26  27
ENDBRANCH  25  26
ENDBRANCH  24  25
ENDBRANCH  23  24
ENDBRANCH   1  23
TORSDOF 17
ENDMDL
MODEL 2
REMARK VINA RESULT:     -12.3      4.606     10.288
REMARK SMILES C[C@H]1[C@@H](C(=O)OCCOCCOC(=O)c2ccc(-c3c4nc(c(-c5c(F)c(F)c(F)c(F)c5F)c5ccc([nH]5)c(-c5c(F)c(F)c(F)c(F)c5F)c5nc(c(-c6c(F)c(F)c(F)c(F)c6F)c6ccc3[nH]6)C=C5)C=C4)cc2)CCN1C(=O)/C=C/c1cccc(F)c1
REMARK SMILES IDX 8 1 7 2 6 3 4 4 5 5 3 6 1 7 2 8 80 9 78 10 79 11 81 12 82 13
REMARK SMILES IDX 83 14 84 15 85 16 86 17 91 18 87 19 89 20 88 21 90 22 9 23
REMARK SMILES IDX 10 24 11 25 12 26 13 27 14 28 15 29 16 30 77 31 17 32 76 33
REMARK SMILES IDX 18 34 19 35 20 36 70 37 21 38 75 39 69 40 71 41 22 42 74 43
REMARK SMILES IDX 68 44 67 45 23 47 55 48 35 49 54 50 36 51 39 52 53 53 72 54
REMARK SMILES IDX 37 55 38 56 52 58 73 59 40 60 24 61 25 62 33 63 26 64 27 65
REMARK SMILES IDX 31 66 34 67 28 68 29 69 32 70 30 71 56 72 57 73 65 74 58 75
REMARK SMILES IDX 59 76 63 77 66 78 60 79 61 80 64 81 62 82 41 83 42 84 50 85
REMARK SMILES IDX 43 86 44 87 48 88 51 89 45 90 46 91 49 92 47 93
REMARK H PARENT 71 46 39 57
REMARK Flexibility Score: inf
ROOT
ATOM      1  C   UNL A   1      35.499  22.114  25.064  1.00  0.00     0.202 C 
ENDROOT
BRANCH   1   2
ATOM      2  C   UNL A   1      34.590  21.172  25.861  1.00  0.00     0.261 C 
BRANCH   2   3
ATOM      3  O   UNL A   1      33.396  21.881  26.245  1.00  0.00    -0.463 OA
BRANCH   3   4
ATOM      4  C   UNL A   1      32.309  21.739  25.461  1.00  0.00     0.311 C 
ATOM      5  O   UNL A   1      31.734  20.673  25.271  1.00  0.00    -0.252 OA
BRANCH   4   6
ATOM      6  C   UNL A   1      31.821  23.044  24.848  1.00  0.00     0.123 C 
ATOM      7  C   UNL A   1      32.824  22.489  22.451  1.00  0.00     0.032 C 
ATOM      8  C   UNL A   1      31.996  23.409  23.347  1.00  0.00     0.096 C 
ATOM      9  N   UNL A   1      32.529  24.784  23.345  1.00  0.00    -0.336 N 
ATOM     10  C   UNL A   1      32.422  24.225  25.637  1.00  0.00     0.039 C 
ATOM     11  C   UNL A   1      33.087  25.134  24.629  1.00  0.00     0.121 C 
BRANCH   9  12
ATOM     12  C   UNL A   1      32.658  25.688  22.308  1.00  0.00     0.246 C 
ATOM     13  O   UNL A   1      33.621  25.690  21.540  1.00  0.00    -0.270 OA
BRANCH  12  14
ATOM     14  C   UNL A   1      31.539  26.614  22.013  1.00  0.00     0.072 C 
ATOM     15  C   UNL A   1      31.118  27.563  22.860  1.00  0.00     0.014 C 
BRANCH  15  16
ATOM     16  C   UNL A   1      29.930  28.415  22.671  1.00  0.00    -0.023 A 
ATOM     17  C   UNL A   1      30.102  29.651  22.024  1.00  0.00     0.008 A 
ATOM     18  C   UNL A   1      28.648  28.074  23.120  1.00  0.00     0.047 A 
ATOM     19  C   UNL A   1      29.028  30.525  21.835  1.00  0.00     0.004 A 
ATOM     20  C   UNL A   1      27.584  28.953  22.928  1.00  0.00     0.123 A 
ATOM     21  C   UNL A   1      27.761  30.173  22.291  1.00  0.00     0.039 A 
ATOM     22  F   UNL A   1      26.366  28.614  23.373  1.00  0.00    -0.207 F 
ENDBRANCH  15  16
ENDBRANCH  12  14
ENDBRANCH   9  12
ENDBRANCH   4   6
ENDBRANCH   3   4
ENDBRANCH   2   3
ENDBRANCH   1   2
BRANCH   1  23
ATOM     23  O   UNL A   1      36.563  21.454  24.370  1.00  0.00    -0.374 OA
BRANCH  23  24
ATOM     24  C   UNL A   1      36.851  20.115  24.766  1.00  0.00     0.202 C 
BRANCH  24  25
ATOM     25  C   UNL A   1      38.279  19.879  25.264  1.00  0.00     0.261 C 
BRANCH  25  26
ATOM     26  O   UNL A   1      38.918  21.121  25.602  1.00  0.00    -0.460 OA
BRANCH  26  27
ATOM     27  C   UNL A   1      40.047  20.983  26.330  1.00  0.00     0.338 C 
ATOM     28  O   UNL A   1      40.810  20.024  26.333  1.00  0.00    -0.246 OA
BRANCH  27  29
ATOM     29  C   UNL A   1      40.357  22.230  27.053  1.00  0.00     0.060 A 
ATOM     30  C   UNL A   1      39.672  23.379  26.644  1.00  0.00     0.016 A 
ATOM     31  C   UNL A   1      41.339  22.308  28.047  1.00  0.00     0.016 A 
ATOM     32  C   UNL A   1      40.032  24.622  27.150  1.00  0.00     0.010 A 
ATOM     33  C   UNL A   1      41.696  23.559  28.563  1.00  0.00     0.010 A 
ATOM     34  C   UNL A   1      41.084  24.726  28.070  1.00  0.00    -0.014 A 
BRANCH  34  35
ATOM     35  C   UNL A   1      41.644  26.072  28.343  1.00  0.00     0.031 A 
ATOM     36  C   UNL A   1      43.000  26.420  27.788  1.00  0.00     0.074 A 
ATOM     37  C   UNL A   1      40.912  27.005  28.975  1.00  0.00     0.049 A 
ATOM     38  N   UNL A   1      43.638  27.563  27.805  1.00  0.00    -0.248 NA
ATOM     39  C   UNL A   1      43.735  25.333  27.120  1.00  0.00     0.031 C 
ATOM     40  C   UNL A   1      39.576  26.797  29.527  1.00  0.00     0.029 A 
ATOM     41  N   UNL A   1      41.186  28.323  29.240  1.00  0.00    -0.354 N 
ATOM     42  C   UNL A   1      44.842  27.333  27.150  1.00  0.00     0.074 A 
ATOM     43  C   UNL A   1      44.868  25.934  26.786  1.00  0.00     0.031 C 
ATOM     44  C   UNL A   1      39.138  27.952  30.058  1.00  0.00     0.029 A 
ATOM     45  C   UNL A   1      40.171  28.974  29.898  1.00  0.00     0.049 A 
ATOM     46  H   UNL A   1      42.029  28.761  28.983  1.00  0.00     0.167 HD
ATOM     47  C   UNL A   1      45.829  28.213  26.858  1.00  0.00     0.037 A 
ATOM     48  C   UNL A   1      40.089  30.251  30.319  1.00  0.00     0.037 A 
ATOM     49  C   UNL A   1      45.801  29.607  27.215  1.00  0.00     0.049 A 
ATOM     50  C   UNL A   1      41.223  31.199  30.025  1.00  0.00     0.074 A 
ATOM     51  C   UNL A   1      46.744  30.585  26.955  1.00  0.00     0.029 A 
ATOM     52  N   UNL A   1      44.774  30.220  27.917  1.00  0.00    -0.354 N 
ATOM     53  N   UNL A   1      42.339  30.981  29.372  1.00  0.00    -0.248 NA
ATOM     54  C   UNL A   1      41.076  32.576  30.515  1.00  0.00     0.031 C 
ATOM     55  C   UNL A   1      46.311  31.778  27.542  1.00  0.00     0.029 A 
ATOM     56  C   UNL A   1      45.070  31.558  28.119  1.00  0.00     0.049 A 
ATOM     57  H   UNL A   1      43.954  29.770  28.226  1.00  0.00     0.167 HD
ATOM     58  C   UNL A   1      43.011  32.197  29.346  1.00  0.00     0.074 A 
ATOM     59  C   UNL A   1      42.168  33.152  30.033  1.00  0.00     0.031 C 
ATOM     60  C   UNL A   1      44.216  32.497  28.802  1.00  0.00     0.037 A 
BRANCH  47  61
ATOM     61  C   UNL A   1      47.034  27.686  26.133  1.00  0.00     0.064 A 
ATOM     62  C   UNL A   1      47.112  27.690  24.731  1.00  0.00     0.173 A 
ATOM     63  C   UNL A   1      48.135  27.194  26.850  1.00  0.00     0.173 A 
ATOM     64  F   UNL A   1      46.081  28.136  23.999  1.00  0.00    -0.203 F 
ATOM     65  C   UNL A   1      48.238  27.196  24.076  1.00  0.00     0.198 A 
ATOM     66  C   UNL A   1      49.270  26.728  26.191  1.00  0.00     0.198 A 
ATOM     67  F   UNL A   1      48.113  27.170  28.191  1.00  0.00    -0.203 F 
ATOM     68  F   UNL A   1      48.270  27.165  22.736  1.00  0.00    -0.200 F 
ATOM     69  C   UNL A   1      49.317  26.723  24.805  1.00  0.00     0.200 A 
ATOM     70  F   UNL A   1      50.317  26.282  26.899  1.00  0.00    -0.200 F 
ATOM     71  F   UNL A   1      50.402  26.253  24.173  1.00  0.00    -0.200 F 
ENDBRANCH  47  61
BRANCH  48  72
ATOM     72  C   UNL A   1      38.884  30.712  31.057  1.00  0.00     0.064 A 
ATOM     73  C   UNL A   1      37.795  31.284  30.385  1.00  0.00     0.173 A 
ATOM     74  C   UNL A   1      38.807  30.608  32.454  1.00  0.00     0.173 A 
ATOM     75  F   UNL A   1      37.831  31.428  29.053  1.00  0.00    -0.203 F 
ATOM     76  C   UNL A   1      36.684  31.753  31.084  1.00  0.00     0.198 A 
ATOM     77  C   UNL A   1      37.683  31.050  33.149  1.00  0.00     0.198 A 
ATOM     78  F   UNL A   1      39.822  30.067  33.144  1.00  0.00    -0.203 F 
ATOM     79  F   UNL A   1      35.678  32.341  30.422  1.00  0.00    -0.200 F 
ATOM     80  C   UNL A   1      36.627  31.630  32.464  1.00  0.00     0.200 A 
ATOM     81  F   UNL A   1      37.627  30.916  34.480  1.00  0.00    -0.200 F 
ATOM     82  F   UNL A   1      35.557  32.079  33.136  1.00  0.00    -0.200 F 
ENDBRANCH  48  72
BRANCH  60  83
ATOM     83  C   UNL A   1      44.678  33.923  28.897  1.00  0.00     0.064 A 
ATOM     84  C   UNL A   1      45.510  34.363  29.937  1.00  0.00     0.173 A 
ATOM     85  C   UNL A   1      44.300  34.857  27.919  1.00  0.00     0.173 A 
ATOM     86  F   UNL A   1      45.889  33.514  30.904  1.00  0.00    -0.203 F 
ATOM     87  C   UNL A   1      45.916  35.693  30.016  1.00  0.00     0.198 A 
ATOM     88  C   UNL A   1      44.735  36.178  27.983  1.00  0.00     0.198 A 
ATOM     89  F   UNL A   1      43.514  34.487  26.897  1.00  0.00    -0.203 F 
ATOM     90  F   UNL A   1      46.661  36.103  31.051  1.00  0.00    -0.200 F 
ATOM     91  C   UNL A   1      45.532  36.597  29.036  1.00  0.00     0.200 A 
ATOM     92  F   UNL A   1      44.377  37.047  27.028  1.00  0.00    -0.200 F 
ATOM     93  F   UNL A   1      45.925  37.876  29.114  1.00  0.00    -0.200 F 
ENDBRANCH  60  83
ENDBRANCH  34  35
ENDBRANCH  27  29
ENDBRANCH  26  27
ENDBRANCH  25  26
ENDBRANCH  24  25
ENDBRANCH  23  24
ENDBRANCH   1  23
TORSDOF 17
ENDMDL
MODEL 3
REMARK VINA RESULT:     -12.3      1.109      2.150
REMARK SMILES C[C@H]1[C@@H](C(=O)OCCOCCOC(=O)c2ccc(-c3c4nc(c(-c5c(F)c(F)c(F)c(F)c5F)c5ccc([nH]5)c(-c5c(F)c(F)c(F)c(F)c5F)c5nc(c(-c6c(F)c(F)c(F)c(F)c6F)c6ccc3[nH]6)C=C5)C=C4)cc2)CCN1C(=O)/C=C/c1cccc(F)c1
REMARK SMILES IDX 8 1 7 2 6 3 4 4 5 5 3 6 1 7 2 8 80 9 78 10 79 11 81 12 82 13
REMARK SMILES IDX 83 14 84 15 85 16 86 17 91 18 87 19 89 20 88 21 90 22 9 23
REMARK SMILES IDX 10 24 11 25 12 26 13 27 14 28 15 29 16 30 77 31 17 32 76 33
REMARK SMILES IDX 18 34 19 35 20 36 70 37 21 38 75 39 69 40 71 41 22 42 74 43
REMARK SMILES IDX 68 44 67 45 23 47 55 48 35 49 54 50 36 51 39 52 53 53 72 54
REMARK SMILES IDX 37 55 38 56 52 58 73 59 40 60 24 61 25 62 33 63 26 64 27 65
REMARK SMILES IDX 31 66 34 67 28 68 29 69 32 70 30 71 56 72 57 73 65 74 58 75
REMARK SMILES IDX 59 76 63 77 66 78 60 79 61 80 64 81 62 82 41 83 42 84 50 85
REMARK SMILES IDX 43 86 44 87 48 88 51 89 45 90 46 91 49 92 47 93
REMARK H PARENT 71 46 39 57
REMARK Flexibility Score: inf
ROOT
ATOM      1  C   UNL A   1      32.214  29.000  24.649  1.00  0.00     0.202 C 
ENDROOT
BRANCH   1   2
ATOM      2  C   UNL A   1      31.132  27.929  24.832  1.00  0.00     0.261 C 
BRANCH   2   3
ATOM      3  O   UNL A   1      31.390  27.201  26.049  1.00  0.00    -0.463 OA
BRANCH   3   4
ATOM      4  C   UNL A   1      30.948  25.930  26.118  1.00  0.00     0.311 C 
ATOM      5  O   UNL A   1      29.830  25.611  26.507  1.00  0.00    -0.252 OA
BRANCH   4   6
ATOM      6  C   UNL A   1      31.958  24.902  25.627  1.00  0.00     0.123 C 
ATOM      7  C   UNL A   1      30.654  24.456  23.357  1.00  0.00     0.032 C 
ATOM      8  C   UNL A   1      31.879  24.212  24.237  1.00  0.00     0.096 C 
ATOM      9  N   UNL A   1      32.068  22.774  24.508  1.00  0.00    -0.336 N 
ATOM     10  C   UNL A   1      32.048  23.757  26.656  1.00  0.00     0.039 C 
ATOM     11  C   UNL A   1      31.833  22.466  25.898  1.00  0.00     0.121 C 
BRANCH   9  12
ATOM     12  C   UNL A   1      32.317  21.729  23.640  1.00  0.00     0.246 C 
ATOM     13  O   UNL A   1      32.134  21.812  22.426  1.00  0.00    -0.270 OA
BRANCH  12  14
ATOM     14  C   UNL A   1      32.956  20.497  24.158  1.00  0.00     0.072 C 
ATOM     15  C   UNL A   1      32.571  19.260  23.815  1.00  0.00     0.014 C 
BRANCH  15  16
ATOM     16  C   UNL A   1      33.083  18.009  24.402  1.00  0.00    -0.023 A 
ATOM     17  C   UNL A   1      34.427  17.672  24.165  1.00  0.00     0.008 A 
ATOM     18  C   UNL A   1      32.302  17.127  25.160  1.00  0.00     0.047 A 
ATOM     19  C   UNL A   1      34.976  16.487  24.665  1.00  0.00     0.004 A 
ATOM     20  C   UNL A   1      32.858  15.948  25.652  1.00  0.00     0.123 A 
ATOM     21  C   UNL A   1      34.185  15.620  25.413  1.00  0.00     0.039 A 
ATOM     22  F   UNL A   1      32.093  15.112  26.368  1.00  0.00    -0.207 F 
ENDBRANCH  15  16
ENDBRANCH  12  14
ENDBRANCH   9  12
ENDBRANCH   4   6
ENDBRANCH   3   4
ENDBRANCH   2   3
ENDBRANCH   1   2
BRANCH   1  23
ATOM     23  O   UNL A   1      32.319  29.920  25.740  1.00  0.00    -0.374 OA
BRANCH  23  24
ATOM     24  C   UNL A   1      31.371  30.986  25.771  1.00  0.00     0.202 C 
BRANCH  24  25
ATOM     25  C   UNL A   1      31.699  32.116  26.750  1.00  0.00     0.261 C 
BRANCH  25  26
ATOM     26  O   UNL A   1      32.817  31.768  27.583  1.00  0.00    -0.460 OA
BRANCH  26  27
ATOM     27  C   UNL A   1      33.676  32.785  27.809  1.00  0.00     0.338 C 
ATOM     28  O   UNL A   1      33.399  33.973  27.922  1.00  0.00    -0.246 OA
BRANCH  27  29
ATOM     29  C   UNL A   1      35.036  32.273  28.061  1.00  0.00     0.060 A 
ATOM     30  C   UNL A   1      35.162  30.892  28.245  1.00  0.00     0.016 A 
ATOM     31  C   UNL A   1      36.150  33.109  28.192  1.00  0.00     0.016 A 
ATOM     32  C   UNL A   1      36.373  30.352  28.660  1.00  0.00     0.010 A 
ATOM     33  C   UNL A   1      37.373  32.564  28.602  1.00  0.00     0.010 A 
ATOM     34  C   UNL A   1      37.471  31.191  28.896  1.00  0.00    -0.014 A 
BRANCH  34  35
ATOM     35  C   UNL A   1      38.632  30.635  29.631  1.00  0.00     0.031 A 
ATOM     36  C   UNL A   1      38.830  31.017  31.074  1.00  0.00     0.074 A 
ATOM     37  C   UNL A   1      39.431  29.718  29.058  1.00  0.00     0.049 A 
ATOM     38  N   UNL A   1      39.704  30.573  31.941  1.00  0.00    -0.248 NA
ATOM     39  C   UNL A   1      37.915  32.036  31.614  1.00  0.00     0.031 C 
ATOM     40  C   UNL A   1      39.320  29.245  27.681  1.00  0.00     0.029 A 
ATOM     41  N   UNL A   1      40.484  29.007  29.576  1.00  0.00    -0.354 N 
ATOM     42  C   UNL A   1      39.442  31.252  33.124  1.00  0.00     0.074 A 
ATOM     43  C   UNL A   1      38.358  32.171  32.855  1.00  0.00     0.031 C 
ATOM     44  C   UNL A   1      40.261  28.311  27.463  1.00  0.00     0.029 A 
ATOM     45  C   UNL A   1      41.052  28.134  28.680  1.00  0.00     0.049 A 
ATOM     46  H   UNL A   1      40.803  29.111  30.502  1.00  0.00     0.167 HD
ATOM     47  C   UNL A   1      40.036  31.109  34.333  1.00  0.00     0.037 A 
ATOM     48  C   UNL A   1      42.090  27.290  28.831  1.00  0.00     0.037 A 
ATOM     49  C   UNL A   1      41.111  30.191  34.602  1.00  0.00     0.049 A 
ATOM     50  C   UNL A   1      42.766  27.184  30.173  1.00  0.00     0.074 A 
ATOM     51  C   UNL A   1      41.772  29.960  35.794  1.00  0.00     0.029 A 
ATOM     52  N   UNL A   1      41.685  29.353  33.657  1.00  0.00    -0.354 N 
ATOM     53  N   UNL A   1      42.486  27.804  31.295  1.00  0.00    -0.248 NA
ATOM     54  C   UNL A   1      43.895  26.250  30.272  1.00  0.00     0.031 C 
ATOM     55  C   UNL A   1      42.780  29.019  35.561  1.00  0.00     0.029 A 
ATOM     56  C   UNL A   1      42.709  28.620  34.235  1.00  0.00     0.049 A 
ATOM     57  H   UNL A   1      41.406  29.288  32.715  1.00  0.00     0.167 HD
ATOM     58  C   UNL A   1      43.381  27.312  32.237  1.00  0.00     0.074 A 
ATOM     59  C   UNL A   1      44.201  26.331  31.559  1.00  0.00     0.031 C 
ATOM     60  C   UNL A   1      43.513  27.642  33.546  1.00  0.00     0.037 A 
BRANCH  47  61
ATOM     61  C   UNL A   1      39.548  31.984  35.451  1.00  0.00     0.064 A 
ATOM     62  C   UNL A   1      40.025  33.292  35.630  1.00  0.00     0.173 A 
ATOM     63  C   UNL A   1      38.569  31.515  36.343  1.00  0.00     0.173 A 
ATOM     64  F   UNL A   1      40.971  33.781  34.815  1.00  0.00    -0.203 F 
ATOM     65  C   UNL A   1      39.561  34.087  36.675  1.00  0.00     0.198 A 
ATOM     66  C   UNL A   1      38.087  32.324  37.368  1.00  0.00     0.198 A 
ATOM     67  F   UNL A   1      38.078  30.274  36.216  1.00  0.00    -0.203 F 
ATOM     68  F   UNL A   1      40.067  35.315  36.855  1.00  0.00    -0.200 F 
ATOM     69  C   UNL A   1      38.588  33.607  37.538  1.00  0.00     0.200 A 
ATOM     70  F   UNL A   1      37.138  31.862  38.194  1.00  0.00    -0.200 F 
ATOM     71  F   UNL A   1      38.138  34.376  38.539  1.00  0.00    -0.200 F 
ENDBRANCH  47  61
BRANCH  48  72
ATOM     72  C   UNL A   1      42.549  26.467  27.681  1.00  0.00     0.064 A 
ATOM     73  C   UNL A   1      43.553  26.924  26.816  1.00  0.00     0.173 A 
ATOM     74  C   UNL A   1      41.977  25.215  27.413  1.00  0.00     0.173 A 
ATOM     75  F   UNL A   1      44.115  28.125  27.016  1.00  0.00    -0.203 F 
ATOM     76  C   UNL A   1      43.953  26.169  25.715  1.00  0.00     0.198 A 
ATOM     77  C   UNL A   1      42.399  24.448  26.329  1.00  0.00     0.198 A 
ATOM     78  F   UNL A   1      41.013  24.732  28.210  1.00  0.00    -0.203 F 
ATOM     79  F   UNL A   1      44.881  26.651  24.876  1.00  0.00    -0.200 F 
ATOM     80  C   UNL A   1      43.380  24.929  25.476  1.00  0.00     0.200 A 
ATOM     81  F   UNL A   1      41.851  23.245  26.110  1.00  0.00    -0.200 F 
ATOM     82  F   UNL A   1      43.766  24.202  24.419  1.00  0.00    -0.200 F 
ENDBRANCH  48  72
BRANCH  60  83
ATOM     83  C   UNL A   1      44.558  26.910  34.338  1.00  0.00     0.064 A 
ATOM     84  C   UNL A   1      44.282  25.692  34.977  1.00  0.00     0.173 A 
ATOM     85  C   UNL A   1      45.861  27.422  34.439  1.00  0.00     0.173 A 
ATOM     86  F   UNL A   1      43.049  25.165  34.923  1.00  0.00    -0.203 F 
ATOM     87  C   UNL A   1      45.259  25.034  35.719  1.00  0.00     0.198 A 
ATOM     88  C   UNL A   1      46.845  26.745  35.153  1.00  0.00     0.198 A 
ATOM     89  F   UNL A   1      46.182  28.578  33.838  1.00  0.00    -0.203 F 
ATOM     90  F   UNL A   1      44.955  23.904  36.371  1.00  0.00    -0.200 F 
ATOM     91  C   UNL A   1      46.541  25.559  35.802  1.00  0.00     0.200 A 
ATOM     92  F   UNL A   1      48.087  27.245  35.219  1.00  0.00    -0.200 F 
ATOM     93  F   UNL A   1      47.480  24.923  36.516  1.00  0.00    -0.200 F 
ENDBRANCH  60  83
ENDBRANCH  34  35
ENDBRANCH  27  29
ENDBRANCH  26  27
ENDBRANCH  25  26
ENDBRANCH  24  25
ENDBRANCH  23  24
ENDBRANCH   1  23
TORSDOF 17
ENDMDL
