MODEL 1
REMARK VINA RESULT:     -12.2      0.000      0.000
REMARK SMILES CCCC(=O)Nc1cccc(C(=O)N[C@@H](C(=O)OCCOCCOC(=O)c2ccc(-c3c4nc(c(-c5c(F)c(F)c(F)c(F)c5F)c5ccc([nH]5)c(-c5c(F)c(F)c(F)c(F)c5F)c5nc(c(-c6c(F)c(F)c(F)c(F)c6F)c6ccc3[nH]6)C=C5)C=C4)cc2)C2=C(C)N=N[C@@H]2C)c1
REMARK SMILES IDX 19 1 18 2 16 3 17 4 15 5 14 6 12 7 13 8 11 10 7 11 8 12
REMARK SMILES IDX 97 13 9 14 10 15 6 16 4 17 5 18 3 20 2 21 1 22 90 23 91 24
REMARK SMILES IDX 95 25 92 26 93 27 94 28 96 29 20 30 21 31 22 32 23 33 24 34
REMARK SMILES IDX 25 35 26 36 27 37 28 38 89 39 29 40 88 41 30 42 31 43 32 44
REMARK SMILES IDX 82 45 33 46 87 47 81 48 83 49 34 50 86 51 80 52 79 53 35 55
REMARK SMILES IDX 67 56 47 57 66 58 48 59 51 60 65 61 84 62 49 63 50 64 64 66
REMARK SMILES IDX 85 67 52 68 36 69 37 70 45 71 38 72 39 73 43 74 46 75 40 76
REMARK SMILES IDX 41 77 44 78 42 79 68 80 69 81 77 82 70 83 71 84 75 85 78 86
REMARK SMILES IDX 72 87 73 88 76 89 74 90 53 91 54 92 62 93 55 94 56 95 60 96
REMARK SMILES IDX 63 97 57 98 58 99 61 100 59 101
REMARK H PARENT 14 9 6 19 83 54 51 65
REMARK Flexibility Score: inf
ROOT
ATOM      1  C   UNL A   1      36.826  23.667  25.469  1.00  0.00     0.261 C 
ENDROOT
BRANCH   1   2
ATOM      2  O   UNL A   1      35.735  24.312  24.802  1.00  0.00    -0.461 OA
BRANCH   2   3
ATOM      3  C   UNL A   1      34.562  24.304  25.501  1.00  0.00     0.333 C 
ATOM      4  O   UNL A   1      34.392  23.653  26.524  1.00  0.00    -0.249 OA
BRANCH   3   5
ATOM      5  C   UNL A   1      33.482  25.230  24.856  1.00  0.00     0.223 C 
BRANCH   5   6
ATOM      6  N   UNL A   1      32.188  25.139  25.553  1.00  0.00    -0.335 N 
ATOM      7  C   UNL A   1      31.194  26.066  25.792  1.00  0.00     0.252 C 
ATOM      8  O   UNL A   1      30.255  25.728  26.512  1.00  0.00    -0.269 OA
ATOM      9  H   UNL A   1      31.996  24.246  25.919  1.00  0.00     0.165 HD
BRANCH   7  10
ATOM     10  C   UNL A   1      31.151  27.404  25.139  1.00  0.00     0.041 A 
ATOM     11  C   UNL A   1      30.085  28.992  23.673  1.00  0.00     0.041 A 
ATOM     12  C   UNL A   1      30.714  30.055  24.310  1.00  0.00     0.026 A 
ATOM     13  C   UNL A   1      30.393  27.671  24.004  1.00  0.00     0.040 A 
ATOM     14  C   UNL A   1      31.625  29.786  25.332  1.00  0.00     0.003 A 
ATOM     15  C   UNL A   1      31.820  28.468  25.766  1.00  0.00     0.014 A 
BRANCH  11  16
ATOM     16  N   UNL A   1      29.076  29.210  22.725  1.00  0.00    -0.326 N 
ATOM     17  C   UNL A   1      27.945  29.936  23.032  1.00  0.00     0.224 C 
ATOM     18  O   UNL A   1      26.849  29.501  22.677  1.00  0.00    -0.275 OA
ATOM     19  H   UNL A   1      29.178  28.837  21.819  1.00  0.00     0.169 HD
BRANCH  17  20
ATOM     20  C   UNL A   1      28.073  31.264  23.770  1.00  0.00     0.100 C 
BRANCH  20  21
ATOM     21  C   UNL A   1      28.509  32.444  22.905  1.00  0.00     0.006 C 
ATOM     22  C   UNL A   1      28.135  32.313  21.438  1.00  0.00     0.004 C 
ENDBRANCH  20  21
ENDBRANCH  17  20
ENDBRANCH  11  16
ENDBRANCH   7  10
ENDBRANCH   5   6
BRANCH   5  23
ATOM     23  C   UNL A   1      33.363  24.963  23.381  1.00  0.00     0.012 C 
ATOM     24  C   UNL A   1      33.417  25.844  22.365  1.00  0.00     0.064 C 
ATOM     25  C   UNL A   1      33.241  23.632  22.710  1.00  0.00     0.156 C 
ATOM     26  C   UNL A   1      33.570  27.333  22.380  1.00  0.00     0.069 C 
ATOM     27  N   UNL A   1      33.350  25.238  21.136  1.00  0.00    -0.160 NA
ATOM     28  N   UNL A   1      33.276  23.990  21.266  1.00  0.00    -0.181 NA
ATOM     29  C   UNL A   1      31.964  22.839  22.967  1.00  0.00     0.040 C 
ENDBRANCH   5  23
ENDBRANCH   3   5
ENDBRANCH   2   3
ENDBRANCH   1   2
BRANCH   1  30
ATOM     30  C   UNL A   1      37.224  22.350  24.794  1.00  0.00     0.202 C 
BRANCH  30  31
ATOM     31  O   UNL A   1      37.357  21.183  25.596  1.00  0.00    -0.374 OA
BRANCH  31  32
ATOM     32  C   UNL A   1      37.969  20.026  25.032  1.00  0.00     0.202 C 
BRANCH  32  33
ATOM     33  C   UNL A   1      39.261  19.476  25.646  1.00  0.00     0.261 C 
BRANCH  33  34
ATOM     34  O   UNL A   1      40.263  20.492  25.819  1.00  0.00    -0.460 OA
BRANCH  34  35
ATOM     35  C   UNL A   1      40.798  20.536  27.064  1.00  0.00     0.338 C 
ATOM     36  O   UNL A   1      41.257  19.609  27.708  1.00  0.00    -0.246 OA
BRANCH  35  37
ATOM     37  C   UNL A   1      40.960  21.935  27.491  1.00  0.00     0.060 A 
ATOM     38  C   UNL A   1      40.276  22.919  26.762  1.00  0.00     0.016 A 
ATOM     39  C   UNL A   1      41.846  22.285  28.509  1.00  0.00     0.016 A 
ATOM     40  C   UNL A   1      40.509  24.263  27.018  1.00  0.00     0.010 A 
ATOM     41  C   UNL A   1      42.096  23.638  28.751  1.00  0.00     0.010 A 
ATOM     42  C   UNL A   1      41.457  24.628  27.981  1.00  0.00    -0.014 A 
BRANCH  42  43
ATOM     43  C   UNL A   1      41.896  26.038  28.064  1.00  0.00     0.031 A 
ATOM     44  C   UNL A   1      43.222  26.418  27.472  1.00  0.00     0.074 A 
ATOM     45  C   UNL A   1      41.114  26.965  28.639  1.00  0.00     0.049 A 
ATOM     46  N   UNL A   1      43.843  27.569  27.490  1.00  0.00    -0.248 NA
ATOM     47  C   UNL A   1      43.950  25.350  26.769  1.00  0.00     0.031 C 
ATOM     48  C   UNL A   1      39.790  26.715  29.204  1.00  0.00     0.029 A 
ATOM     49  N   UNL A   1      41.332  28.301  28.858  1.00  0.00    -0.354 N 
ATOM     50  C   UNL A   1      45.039  27.361  26.816  1.00  0.00     0.074 A 
ATOM     51  C   UNL A   1      45.070  25.967  26.427  1.00  0.00     0.031 C 
ATOM     52  C   UNL A   1      39.323  27.859  29.734  1.00  0.00     0.029 A 
ATOM     53  C   UNL A   1      40.332  28.905  29.577  1.00  0.00     0.049 A 
ATOM     54  H   UNL A   1      42.128  28.780  28.531  1.00  0.00     0.167 HD
ATOM     55  C   UNL A   1      46.020  28.255  26.546  1.00  0.00     0.037 A 
ATOM     56  C   UNL A   1      40.262  30.150  30.084  1.00  0.00     0.037 A 
ATOM     57  C   UNL A   1      45.977  29.638  26.944  1.00  0.00     0.049 A 
ATOM     58  C   UNL A   1      41.393  31.112  29.831  1.00  0.00     0.074 A 
ATOM     59  C   UNL A   1      46.904  30.636  26.700  1.00  0.00     0.029 A 
ATOM     60  N   UNL A   1      44.955  30.214  27.686  1.00  0.00    -0.354 N 
ATOM     61  N   UNL A   1      42.510  30.921  29.171  1.00  0.00    -0.248 NA
ATOM     62  C   UNL A   1      41.249  32.465  30.385  1.00  0.00     0.031 C 
ATOM     63  C   UNL A   1      46.474  31.798  27.350  1.00  0.00     0.029 A 
ATOM     64  C   UNL A   1      45.244  31.545  27.939  1.00  0.00     0.049 A 
ATOM     65  H   UNL A   1      44.143  29.745  27.988  1.00  0.00     0.167 HD
ATOM     66  C   UNL A   1      43.191  32.131  29.208  1.00  0.00     0.074 A 
ATOM     67  C   UNL A   1      42.352  33.054  29.946  1.00  0.00     0.031 C 
ATOM     68  C   UNL A   1      44.397  32.450  28.677  1.00  0.00     0.037 A 
BRANCH  55  69
ATOM     69  C   UNL A   1      47.238  27.749  25.827  1.00  0.00     0.064 A 
ATOM     70  C   UNL A   1      47.329  27.743  24.426  1.00  0.00     0.173 A 
ATOM     71  C   UNL A   1      48.337  27.264  26.554  1.00  0.00     0.173 A 
ATOM     72  F   UNL A   1      46.303  28.182  23.681  1.00  0.00    -0.203 F 
ATOM     73  C   UNL A   1      48.455  27.235  23.782  1.00  0.00     0.198 A 
ATOM     74  C   UNL A   1      49.475  26.791  25.907  1.00  0.00     0.198 A 
ATOM     75  F   UNL A   1      48.308  27.251  27.895  1.00  0.00    -0.203 F 
ATOM     76  F   UNL A   1      48.491  27.182  22.443  1.00  0.00    -0.200 F 
ATOM     77  C   UNL A   1      49.528  26.766  24.522  1.00  0.00     0.200 A 
ATOM     78  F   UNL A   1      50.518  26.351  26.625  1.00  0.00    -0.200 F 
ATOM     79  F   UNL A   1      50.612  26.278  23.901  1.00  0.00    -0.200 F 
ENDBRANCH  55  69
BRANCH  56  80
ATOM     80  C   UNL A   1      39.087  30.540  30.905  1.00  0.00     0.064 A 
ATOM     81  C   UNL A   1      39.067  30.339  32.291  1.00  0.00     0.173 A 
ATOM     82  C   UNL A   1      37.962  31.139  30.316  1.00  0.00     0.173 A 
ATOM     83  F   UNL A   1      40.110  29.752  32.896  1.00  0.00    -0.203 F 
ATOM     84  C   UNL A   1      37.964  30.711  33.056  1.00  0.00     0.198 A 
ATOM     85  C   UNL A   1      36.872  31.538  31.086  1.00  0.00     0.198 A 
ATOM     86  F   UNL A   1      37.929  31.355  28.993  1.00  0.00    -0.203 F 
ATOM     87  F   UNL A   1      37.955  30.474  34.375  1.00  0.00    -0.200 F 
ATOM     88  C   UNL A   1      36.871  31.318  32.455  1.00  0.00     0.200 A 
ATOM     89  F   UNL A   1      35.826  32.140  30.503  1.00  0.00    -0.200 F 
ATOM     90  F   UNL A   1      35.816  31.688  33.193  1.00  0.00    -0.200 F 
ENDBRANCH  56  80
BRANCH  68  91
ATOM     91  C   UNL A   1      44.870  33.868  28.839  1.00  0.00     0.064 A 
ATOM     92  C   UNL A   1      44.527  34.874  27.923  1.00  0.00     0.173 A 
ATOM     93  C   UNL A   1      45.640  34.233  29.956  1.00  0.00     0.173 A 
ATOM     94  F   UNL A   1      43.805  34.576  26.833  1.00  0.00    -0.203 F 
ATOM     95  C   UNL A   1      44.960  36.185  28.104  1.00  0.00     0.198 A 
ATOM     96  C   UNL A   1      46.042  35.552  30.152  1.00  0.00     0.198 A 
ATOM     97  F   UNL A   1      45.989  33.313  30.867  1.00  0.00    -0.203 F 
ATOM     98  F   UNL A   1      44.664  37.118  27.190  1.00  0.00    -0.200 F 
ATOM     99  C   UNL A   1      45.708  36.525  29.221  1.00  0.00     0.200 A 
ATOM    100  F   UNL A   1      46.750  35.880  31.241  1.00  0.00    -0.200 F 
ATOM    101  F   UNL A   1      46.115  37.789  29.399  1.00  0.00    -0.200 F 
ENDBRANCH  68  91
ENDBRANCH  42  43
ENDBRANCH  35  37
ENDBRANCH  34  35
ENDBRANCH  33  34
ENDBRANCH  32  33
ENDBRANCH  31  32
ENDBRANCH  30  31
ENDBRANCH   1  30
TORSDOF 20
ENDMDL
MODEL 2
REMARK VINA RESULT:     -11.9      4.497      8.624
REMARK SMILES CCCC(=O)Nc1cccc(C(=O)N[C@@H](C(=O)OCCOCCOC(=O)c2ccc(-c3c4nc(c(-c5c(F)c(F)c(F)c(F)c5F)c5ccc([nH]5)c(-c5c(F)c(F)c(F)c(F)c5F)c5nc(c(-c6c(F)c(F)c(F)c(F)c6F)c6ccc3[nH]6)C=C5)C=C4)cc2)C2=C(C)N=N[C@@H]2C)c1
REMARK SMILES IDX 19 1 18 2 16 3 17 4 15 5 14 6 12 7 13 8 11 10 7 11 8 12
REMARK SMILES IDX 97 13 9 14 10 15 6 16 4 17 5 18 3 20 2 21 1 22 90 23 91 24
REMARK SMILES IDX 95 25 92 26 93 27 94 28 96 29 20 30 21 31 22 32 23 33 24 34
REMARK SMILES IDX 25 35 26 36 27 37 28 38 89 39 29 40 88 41 30 42 31 43 32 44
REMARK SMILES IDX 82 45 33 46 87 47 81 48 83 49 34 50 86 51 80 52 79 53 35 55
REMARK SMILES IDX 67 56 47 57 66 58 48 59 51 60 65 61 84 62 49 63 50 64 64 66
REMARK SMILES IDX 85 67 52 68 36 69 37 70 45 71 38 72 39 73 43 74 46 75 40 76
REMARK SMILES IDX 41 77 44 78 42 79 68 80 69 81 77 82 70 83 71 84 75 85 78 86
REMARK SMILES IDX 72 87 73 88 76 89 74 90 53 91 54 92 62 93 55 94 56 95 60 96
REMARK SMILES IDX 63 97 57 98 58 99 61 100 59 101
REMARK H PARENT 14 9 6 19 83 54 51 65
REMARK Flexibility Score: inf
ROOT
ATOM      1  C   UNL A   1      33.632  28.375  25.745  1.00  0.00     0.261 C 
ENDROOT
BRANCH   1   2
ATOM      2  O   UNL A   1      34.156  27.841  24.522  1.00  0.00    -0.461 OA
BRANCH   2   3
ATOM      3  C   UNL A   1      33.234  27.194  23.750  1.00  0.00     0.333 C 
ATOM      4  O   UNL A   1      32.607  27.739  22.851  1.00  0.00    -0.249 OA
BRANCH   3   5
ATOM      5  C   UNL A   1      33.093  25.687  24.135  1.00  0.00     0.223 C 
BRANCH   5   6
ATOM      6  N   UNL A   1      33.020  24.817  22.949  1.00  0.00    -0.335 N 
ATOM      7  C   UNL A   1      33.680  23.654  22.607  1.00  0.00     0.252 C 
ATOM      8  O   UNL A   1      33.492  23.199  21.480  1.00  0.00    -0.269 OA
ATOM      9  H   UNL A   1      32.376  25.124  22.270  1.00  0.00     0.165 HD
BRANCH   7  10
ATOM     10  C   UNL A   1      34.515  22.877  23.565  1.00  0.00     0.041 A 
ATOM     11  C   UNL A   1      34.792  21.035  25.094  1.00  0.00     0.041 A 
ATOM     12  C   UNL A   1      36.173  21.074  24.944  1.00  0.00     0.026 A 
ATOM     13  C   UNL A   1      33.978  22.005  24.506  1.00  0.00     0.040 A 
ATOM     14  C   UNL A   1      36.739  22.068  24.146  1.00  0.00     0.003 A 
ATOM     15  C   UNL A   1      35.912  22.948  23.434  1.00  0.00     0.014 A 
BRANCH  11  16
ATOM     16  N   UNL A   1      34.167  19.989  25.785  1.00  0.00    -0.326 N 
ATOM     17  C   UNL A   1      33.439  19.024  25.123  1.00  0.00     0.224 C 
ATOM     18  O   UNL A   1      32.344  18.691  25.580  1.00  0.00    -0.275 OA
ATOM     19  H   UNL A   1      34.251  19.942  26.765  1.00  0.00     0.169 HD
BRANCH  17  20
ATOM     20  C   UNL A   1      34.010  18.370  23.868  1.00  0.00     0.100 C 
BRANCH  20  21
ATOM     21  C   UNL A   1      33.059  17.417  23.148  1.00  0.00     0.006 C 
ATOM     22  C   UNL A   1      32.252  18.064  22.034  1.00  0.00     0.004 C 
ENDBRANCH  20  21
ENDBRANCH  17  20
ENDBRANCH  11  16
ENDBRANCH   7  10
ENDBRANCH   5   6
BRANCH   5  23
ATOM     23  C   UNL A   1      31.935  25.483  25.074  1.00  0.00     0.012 C 
ATOM     24  C   UNL A   1      31.878  24.712  26.176  1.00  0.00     0.064 C 
ATOM     25  C   UNL A   1      30.605  26.165  25.030  1.00  0.00     0.156 C 
ATOM     26  C   UNL A   1      32.907  23.809  26.781  1.00  0.00     0.069 C 
ATOM     27  N   UNL A   1      30.682  24.826  26.838  1.00  0.00    -0.160 NA
ATOM     28  N   UNL A   1      29.934  25.650  26.254  1.00  0.00    -0.181 NA
ATOM     29  C   UNL A   1      29.706  25.860  23.837  1.00  0.00     0.040 C 
ENDBRANCH   5  23
ENDBRANCH   3   5
ENDBRANCH   2   3
ENDBRANCH   1   2
BRANCH   1  30
ATOM     30  C   UNL A   1      32.711  29.576  25.507  1.00  0.00     0.202 C 
BRANCH  30  31
ATOM     31  O   UNL A   1      32.629  30.584  26.508  1.00  0.00    -0.374 OA
BRANCH  31  32
ATOM     32  C   UNL A   1      31.493  31.443  26.528  1.00  0.00     0.202 C 
BRANCH  32  33
ATOM     33  C   UNL A   1      31.661  32.913  26.930  1.00  0.00     0.261 C 
BRANCH  33  34
ATOM     34  O   UNL A   1      33.034  33.336  26.906  1.00  0.00    -0.460 OA
BRANCH  34  35
ATOM     35  C   UNL A   1      33.483  33.830  28.086  1.00  0.00     0.338 C 
ATOM     36  O   UNL A   1      32.909  34.601  28.834  1.00  0.00    -0.246 OA
BRANCH  35  37
ATOM     37  C   UNL A   1      34.716  33.131  28.485  1.00  0.00     0.060 A 
ATOM     38  C   UNL A   1      34.580  31.897  29.136  1.00  0.00     0.016 A 
ATOM     39  C   UNL A   1      35.968  33.722  28.326  1.00  0.00     0.016 A 
ATOM     40  C   UNL A   1      35.694  31.265  29.672  1.00  0.00     0.010 A 
ATOM     41  C   UNL A   1      37.086  33.096  28.884  1.00  0.00     0.010 A 
ATOM     42  C   UNL A   1      36.945  31.886  29.591  1.00  0.00    -0.014 A 
BRANCH  42  43
ATOM     43  C   UNL A   1      38.071  31.350  30.386  1.00  0.00     0.031 A 
ATOM     44  C   UNL A   1      38.986  30.341  29.755  1.00  0.00     0.074 A 
ATOM     45  C   UNL A   1      38.285  31.776  31.641  1.00  0.00     0.049 A 
ATOM     46  N   UNL A   1      39.987  29.683  30.279  1.00  0.00    -0.248 NA
ATOM     47  C   UNL A   1      38.729  30.025  28.341  1.00  0.00     0.031 C 
ATOM     48  C   UNL A   1      37.488  32.785  32.334  1.00  0.00     0.029 A 
ATOM     49  N   UNL A   1      39.228  31.395  32.560  1.00  0.00    -0.354 N 
ATOM     50  C   UNL A   1      40.471  28.867  29.265  1.00  0.00     0.074 A 
ATOM     51  C   UNL A   1      39.635  29.089  28.105  1.00  0.00     0.031 C 
ATOM     52  C   UNL A   1      37.958  32.924  33.585  1.00  0.00     0.029 A 
ATOM     53  C   UNL A   1      39.062  31.986  33.787  1.00  0.00     0.049 A 
ATOM     54  H   UNL A   1      39.954  30.761  32.359  1.00  0.00     0.167 HD
ATOM     55  C   UNL A   1      41.520  28.010  29.303  1.00  0.00     0.037 A 
ATOM     56  C   UNL A   1      39.704  31.764  34.949  1.00  0.00     0.037 A 
ATOM     57  C   UNL A   1      42.340  27.796  30.466  1.00  0.00     0.049 A 
ATOM     58  C   UNL A   1      40.825  30.759  34.988  1.00  0.00     0.074 A 
ATOM     59  C   UNL A   1      43.442  26.971  30.606  1.00  0.00     0.029 A 
ATOM     60  N   UNL A   1      42.133  28.400  31.699  1.00  0.00    -0.354 N 
ATOM     61  N   UNL A   1      41.298  30.007  34.023  1.00  0.00    -0.248 NA
ATOM     62  C   UNL A   1      41.507  30.576  36.276  1.00  0.00     0.031 C 
ATOM     63  C   UNL A   1      43.862  27.028  31.939  1.00  0.00     0.029 A 
ATOM     64  C   UNL A   1      43.067  27.941  32.614  1.00  0.00     0.049 A 
ATOM     65  H   UNL A   1      41.427  29.058  31.894  1.00  0.00     0.167 HD
ATOM     66  C   UNL A   1      42.346  29.283  34.576  1.00  0.00     0.074 A 
ATOM     67  C   UNL A   1      42.447  29.697  35.962  1.00  0.00     0.031 C 
ATOM     68  C   UNL A   1      43.153  28.363  33.991  1.00  0.00     0.037 A 
BRANCH  55  69
ATOM     69  C   UNL A   1      41.805  27.212  28.062  1.00  0.00     0.064 A 
ATOM     70  C   UNL A   1      42.731  27.638  27.097  1.00  0.00     0.173 A 
ATOM     71  C   UNL A   1      41.142  25.995  27.838  1.00  0.00     0.173 A 
ATOM     72  F   UNL A   1      43.383  28.800  27.254  1.00  0.00    -0.203 F 
ATOM     73  C   UNL A   1      42.951  26.898  25.937  1.00  0.00     0.198 A 
ATOM     74  C   UNL A   1      41.392  25.241  26.695  1.00  0.00     0.198 A 
ATOM     75  F   UNL A   1      40.251  25.536  28.729  1.00  0.00    -0.203 F 
ATOM     76  F   UNL A   1      43.793  27.359  25.001  1.00  0.00    -0.200 F 
ATOM     77  C   UNL A   1      42.287  25.698  25.740  1.00  0.00     0.200 A 
ATOM     78  F   UNL A   1      40.759  24.073  26.513  1.00  0.00    -0.200 F 
ATOM     79  F   UNL A   1      42.500  24.986  24.624  1.00  0.00    -0.200 F 
ENDBRANCH  55  69
BRANCH  56  80
ATOM     80  C   UNL A   1      39.277  32.491  36.171  1.00  0.00     0.064 A 
ATOM     81  C   UNL A   1      38.347  31.937  37.061  1.00  0.00     0.173 A 
ATOM     82  C   UNL A   1      39.805  33.753  36.483  1.00  0.00     0.173 A 
ATOM     83  F   UNL A   1      37.798  30.743  36.796  1.00  0.00    -0.203 F 
ATOM     84  C   UNL A   1      37.953  32.622  38.209  1.00  0.00     0.198 A 
ATOM     85  C   UNL A   1      39.435  34.424  37.646  1.00  0.00     0.198 A 
ATOM     86  F   UNL A   1      40.700  34.328  35.666  1.00  0.00    -0.203 F 
ATOM     87  F   UNL A   1      37.034  32.087  39.023  1.00  0.00    -0.200 F 
ATOM     88  C   UNL A   1      38.503  33.860  38.505  1.00  0.00     0.200 A 
ATOM     89  F   UNL A   1      39.982  35.611  37.937  1.00  0.00    -0.200 F 
ATOM     90  F   UNL A   1      38.134  34.512  39.616  1.00  0.00    -0.200 F 
ENDBRANCH  56  80
BRANCH  68  91
ATOM     91  C   UNL A   1      44.244  27.766  34.835  1.00  0.00     0.064 A 
ATOM     92  C   UNL A   1      45.500  28.378  34.966  1.00  0.00     0.173 A 
ATOM     93  C   UNL A   1      44.011  26.586  35.560  1.00  0.00     0.173 A 
ATOM     94  F   UNL A   1      45.779  29.499  34.283  1.00  0.00    -0.203 F 
ATOM     95  C   UNL A   1      46.490  27.817  35.769  1.00  0.00     0.198 A 
ATOM     96  C   UNL A   1      44.992  26.047  36.389  1.00  0.00     0.198 A 
ATOM     97  F   UNL A   1      42.826  25.964  35.478  1.00  0.00    -0.203 F 
ATOM     98  F   UNL A   1      47.699  28.390  35.837  1.00  0.00    -0.200 F 
ATOM     99  C   UNL A   1      46.233  26.658  36.486  1.00  0.00     0.200 A 
ATOM    100  F   UNL A   1      44.734  24.937  37.095  1.00  0.00    -0.200 F 
ATOM    101  F   UNL A   1      47.183  26.126  37.266  1.00  0.00    -0.200 F 
ENDBRANCH  68  91
ENDBRANCH  42  43
ENDBRANCH  35  37
ENDBRANCH  34  35
ENDBRANCH  33  34
ENDBRANCH  32  33
ENDBRANCH  31  32
ENDBRANCH  30  31
ENDBRANCH   1  30
TORSDOF 20
ENDMDL
MODEL 3
REMARK VINA RESULT:     -11.9      4.320     10.421
REMARK SMILES CCCC(=O)Nc1cccc(C(=O)N[C@@H](C(=O)OCCOCCOC(=O)c2ccc(-c3c4nc(c(-c5c(F)c(F)c(F)c(F)c5F)c5ccc([nH]5)c(-c5c(F)c(F)c(F)c(F)c5F)c5nc(c(-c6c(F)c(F)c(F)c(F)c6F)c6ccc3[nH]6)C=C5)C=C4)cc2)C2=C(C)N=N[C@@H]2C)c1
REMARK SMILES IDX 19 1 18 2 16 3 17 4 15 5 14 6 12 7 13 8 11 10 7 11 8 12
REMARK SMILES IDX 97 13 9 14 10 15 6 16 4 17 5 18 3 20 2 21 1 22 90 23 91 24
REMARK SMILES IDX 95 25 92 26 93 27 94 28 96 29 20 30 21 31 22 32 23 33 24 34
REMARK SMILES IDX 25 35 26 36 27 37 28 38 89 39 29 40 88 41 30 42 31 43 32 44
REMARK SMILES IDX 82 45 33 46 87 47 81 48 83 49 34 50 86 51 80 52 79 53 35 55
REMARK SMILES IDX 67 56 47 57 66 58 48 59 51 60 65 61 84 62 49 63 50 64 64 66
REMARK SMILES IDX 85 67 52 68 36 69 37 70 45 71 38 72 39 73 43 74 46 75 40 76
REMARK SMILES IDX 41 77 44 78 42 79 68 80 69 81 77 82 70 83 71 84 75 85 78 86
REMARK SMILES IDX 72 87 73 88 76 89 74 90 53 91 54 92 62 93 55 94 56 95 60 96
REMARK SMILES IDX 63 97 57 98 58 99 61 100 59 101
REMARK H PARENT 14 9 6 19 83 54 51 65
REMARK Flexibility Score: inf
ROOT
ATOM      1  C   UNL A   1      32.897  28.053  26.712  1.00  0.00     0.261 C 
ENDROOT
BRANCH   1   2
ATOM      2  O   UNL A   1      32.506  26.725  26.343  1.00  0.00    -0.461 OA
BRANCH   2   3
ATOM      3  C   UNL A   1      33.388  26.087  25.518  1.00  0.00     0.333 C 
ATOM      4  O   UNL A   1      34.582  25.974  25.766  1.00  0.00    -0.249 OA
BRANCH   3   5
ATOM      5  C   UNL A   1      32.694  25.508  24.244  1.00  0.00     0.223 C 
BRANCH   5   6
ATOM      6  N   UNL A   1      33.646  24.809  23.365  1.00  0.00    -0.335 N 
ATOM      7  C   UNL A   1      34.167  23.531  23.389  1.00  0.00     0.252 C 
ATOM      8  O   UNL A   1      35.044  23.254  22.573  1.00  0.00    -0.269 OA
ATOM      9  H   UNL A   1      33.973  25.358  22.617  1.00  0.00     0.165 HD
BRANCH   7  10
ATOM     10  C   UNL A   1      33.646  22.453  24.276  1.00  0.00     0.041 A 
ATOM     11  C   UNL A   1      32.712  20.252  24.580  1.00  0.00     0.041 A 
ATOM     12  C   UNL A   1      33.167  20.202  25.891  1.00  0.00     0.026 A 
ATOM     13  C   UNL A   1      32.842  21.415  23.817  1.00  0.00     0.040 A 
ATOM     14  C   UNL A   1      33.813  21.318  26.425  1.00  0.00     0.003 A 
ATOM     15  C   UNL A   1      34.080  22.427  25.612  1.00  0.00     0.014 A 
BRANCH  11  16
ATOM     16  N   UNL A   1      32.164  19.122  23.959  1.00  0.00    -0.326 N 
ATOM     17  C   UNL A   1      32.958  18.211  23.296  1.00  0.00     0.224 C 
ATOM     18  O   UNL A   1      32.593  17.800  22.193  1.00  0.00    -0.275 OA
ATOM     19  H   UNL A   1      31.191  18.974  23.998  1.00  0.00     0.169 HD
BRANCH  17  20
ATOM     20  C   UNL A   1      34.243  17.708  23.947  1.00  0.00     0.100 C 
BRANCH  20  21
ATOM     21  C   UNL A   1      34.159  16.306  24.546  1.00  0.00     0.006 C 
ATOM     22  C   UNL A   1      32.910  16.057  25.375  1.00  0.00     0.004 C 
ENDBRANCH  20  21
ENDBRANCH  17  20
ENDBRANCH  11  16
ENDBRANCH   7  10
ENDBRANCH   5   6
BRANCH   5  23
ATOM     23  C   UNL A   1      31.922  26.580  23.524  1.00  0.00     0.012 C 
ATOM     24  C   UNL A   1      32.380  27.736  23.008  1.00  0.00     0.064 C 
ATOM     25  C   UNL A   1      30.475  26.556  23.149  1.00  0.00     0.156 C 
ATOM     26  C   UNL A   1      33.757  28.323  23.018  1.00  0.00     0.069 C 
ATOM     27  N   UNL A   1      31.407  28.442  22.348  1.00  0.00    -0.160 NA
ATOM     28  N   UNL A   1      30.318  27.815  22.372  1.00  0.00    -0.181 NA
ATOM     29  C   UNL A   1      29.462  26.576  24.288  1.00  0.00     0.040 C 
ENDBRANCH   5  23
ENDBRANCH   3   5
ENDBRANCH   2   3
ENDBRANCH   1   2
BRANCH   1  30
ATOM     30  C   UNL A   1      31.799  29.083  26.424  1.00  0.00     0.202 C 
BRANCH  30  31
ATOM     31  O   UNL A   1      32.176  30.369  25.947  1.00  0.00    -0.374 OA
BRANCH  31  32
ATOM     32  C   UNL A   1      31.299  31.470  26.168  1.00  0.00     0.202 C 
BRANCH  32  33
ATOM     33  C   UNL A   1      31.838  32.750  26.816  1.00  0.00     0.261 C 
BRANCH  33  34
ATOM     34  O   UNL A   1      32.828  32.483  27.824  1.00  0.00    -0.460 OA
BRANCH  34  35
ATOM     35  C   UNL A   1      33.881  33.336  27.807  1.00  0.00     0.338 C 
ATOM     36  O   UNL A   1      33.851  34.549  27.704  1.00  0.00    -0.246 OA
BRANCH  35  37
ATOM     37  C   UNL A   1      35.116  32.615  28.156  1.00  0.00     0.060 A 
ATOM     38  C   UNL A   1      35.012  31.243  28.424  1.00  0.00     0.016 A 
ATOM     39  C   UNL A   1      36.325  33.288  28.324  1.00  0.00     0.016 A 
ATOM     40  C   UNL A   1      36.110  30.542  28.906  1.00  0.00     0.010 A 
ATOM     41  C   UNL A   1      37.423  32.587  28.830  1.00  0.00     0.010 A 
ATOM     42  C   UNL A   1      37.306  31.222  29.157  1.00  0.00    -0.014 A 
BRANCH  42  43
ATOM     43  C   UNL A   1      38.380  30.542  29.914  1.00  0.00     0.031 A 
ATOM     44  C   UNL A   1      38.589  30.905  31.356  1.00  0.00     0.074 A 
ATOM     45  C   UNL A   1      39.137  29.601  29.330  1.00  0.00     0.049 A 
ATOM     46  N   UNL A   1      39.507  30.497  32.192  1.00  0.00    -0.248 NA
ATOM     47  C   UNL A   1      37.634  31.867  31.929  1.00  0.00     0.031 C 
ATOM     48  C   UNL A   1      38.990  29.139  27.952  1.00  0.00     0.029 A 
ATOM     49  N   UNL A   1      40.195  28.880  29.821  1.00  0.00    -0.354 N 
ATOM     50  C   UNL A   1      39.252  31.161  33.384  1.00  0.00     0.074 A 
ATOM     51  C   UNL A   1      38.110  32.021  33.155  1.00  0.00     0.031 C 
ATOM     52  C   UNL A   1      39.946  28.229  27.696  1.00  0.00     0.029 A 
ATOM     53  C   UNL A   1      40.790  28.078  28.880  1.00  0.00     0.049 A 
ATOM     54  H   UNL A   1      40.498  28.932  30.756  1.00  0.00     0.167 HD
ATOM     55  C   UNL A   1      39.911  31.060  34.563  1.00  0.00     0.037 A 
ATOM     56  C   UNL A   1      41.912  27.338  28.959  1.00  0.00     0.037 A 
ATOM     57  C   UNL A   1      41.049  30.203  34.775  1.00  0.00     0.049 A 
ATOM     58  C   UNL A   1      42.670  27.289  30.259  1.00  0.00     0.074 A 
ATOM     59  C   UNL A   1      41.775  30.004  35.935  1.00  0.00     0.029 A 
ATOM     60  N   UNL A   1      41.636  29.414  33.795  1.00  0.00    -0.354 N 
ATOM     61  N   UNL A   1      42.412  27.897  31.392  1.00  0.00    -0.248 NA
ATOM     62  C   UNL A   1      43.872  26.444  30.294  1.00  0.00     0.031 C 
ATOM     63  C   UNL A   1      42.840  29.146  35.640  1.00  0.00     0.029 A 
ATOM     64  C   UNL A   1      42.737  28.753  34.314  1.00  0.00     0.049 A 
ATOM     65  H   UNL A   1      41.316  29.337  32.867  1.00  0.00     0.167 HD
ATOM     66  C   UNL A   1      43.399  27.491  32.280  1.00  0.00     0.074 A 
ATOM     67  C   UNL A   1      44.255  26.573  31.556  1.00  0.00     0.031 C 
ATOM     68  C   UNL A   1      43.579  27.843  33.578  1.00  0.00     0.037 A 
BRANCH  55  69
ATOM     69  C   UNL A   1      39.444  31.931  35.694  1.00  0.00     0.064 A 
ATOM     70  C   UNL A   1      39.974  33.210  35.919  1.00  0.00     0.173 A 
ATOM     71  C   UNL A   1      38.442  31.477  36.568  1.00  0.00     0.173 A 
ATOM     72  F   UNL A   1      40.942  33.689  35.124  1.00  0.00    -0.203 F 
ATOM     73  C   UNL A   1      39.549  33.985  36.997  1.00  0.00     0.198 A 
ATOM     74  C   UNL A   1      37.995  32.268  37.622  1.00  0.00     0.198 A 
ATOM     75  F   UNL A   1      37.895  30.264  36.398  1.00  0.00    -0.203 F 
ATOM     76  F   UNL A   1      40.117  35.177  37.227  1.00  0.00    -0.200 F 
ATOM     77  C   UNL A   1      38.557  33.516  37.843  1.00  0.00     0.200 A 
ATOM     78  F   UNL A   1      37.025  31.819  38.430  1.00  0.00    -0.200 F 
ATOM     79  F   UNL A   1      38.148  34.262  38.879  1.00  0.00    -0.200 F 
ENDBRANCH  55  69
BRANCH  56  80
ATOM     80  C   UNL A   1      42.393  26.610  27.757  1.00  0.00     0.064 A 
ATOM     81  C   UNL A   1      43.325  27.183  26.882  1.00  0.00     0.173 A 
ATOM     82  C   UNL A   1      41.939  25.313  27.467  1.00  0.00     0.173 A 
ATOM     83  F   UNL A   1      43.773  28.428  27.104  1.00  0.00    -0.203 F 
ATOM     84  C   UNL A   1      43.776  26.494  25.758  1.00  0.00     0.198 A 
ATOM     85  C   UNL A   1      42.414  24.613  26.362  1.00  0.00     0.198 A 
ATOM     86  F   UNL A   1      41.048  24.717  28.273  1.00  0.00    -0.203 F 
ATOM     87  F   UNL A   1      44.639  27.080  24.917  1.00  0.00    -0.200 F 
ATOM     88  C   UNL A   1      43.327  25.207  25.503  1.00  0.00     0.200 A 
ATOM     89  F   UNL A   1      41.991  23.363  26.130  1.00  0.00    -0.200 F 
ATOM     90  F   UNL A   1      43.772  24.539  24.431  1.00  0.00    -0.200 F 
ENDBRANCH  56  80
BRANCH  68  91
ATOM     91  C   UNL A   1      44.724  27.205  34.314  1.00  0.00     0.064 A 
ATOM     92  C   UNL A   1      45.982  27.820  34.407  1.00  0.00     0.173 A 
ATOM     93  C   UNL A   1      44.544  25.979  34.976  1.00  0.00     0.173 A 
ATOM     94  F   UNL A   1      46.211  28.984  33.782  1.00  0.00    -0.203 F 
ATOM     95  C   UNL A   1      47.023  27.219  35.111  1.00  0.00     0.198 A 
ATOM     96  C   UNL A   1      45.577  25.398  35.708  1.00  0.00     0.198 A 
ATOM     97  F   UNL A   1      43.360  25.351  34.926  1.00  0.00    -0.203 F 
ATOM     98  F   UNL A   1      48.229  27.800  35.142  1.00  0.00    -0.200 F 
ATOM     99  C   UNL A   1      46.817  26.015  35.767  1.00  0.00     0.200 A 
ATOM    100  F   UNL A   1      45.370  24.243  36.355  1.00  0.00    -0.200 F 
ATOM    101  F   UNL A   1      47.817  25.444  36.452  1.00  0.00    -0.200 F 
ENDBRANCH  68  91
ENDBRANCH  42  43
ENDBRANCH  35  37
ENDBRANCH  34  35
ENDBRANCH  33  34
ENDBRANCH  32  33
ENDBRANCH  31  32
ENDBRANCH  30  31
ENDBRANCH   1  30
TORSDOF 20
ENDMDL
