MODEL 1
REMARK VINA RESULT:     -11.7      0.000      0.000
REMARK SMILES Cc1cc(C)cc(N(C)S(=O)(=O)c2ccc(F)c(C(=O)OCCOCCOC(=O)c3ccc(-c4c5nc(c(-c6c(F)c(F)c(F)c(F)c6F)c6ccc([nH]6)c(-c6c(F)c(F)c(F)c(F)c6F)c6nc(c(-c7c(F)c(F)c(F)c(F)c7F)c7ccc4[nH]7)C=C6)C=C5)cc3)c2)c1
REMARK SMILES IDX 23 1 22 2 21 3 19 4 20 5 18 6 13 7 14 8 93 9 15 10 16 11
REMARK SMILES IDX 17 12 10 13 11 14 12 15 8 16 9 17 7 18 1 19 2 20 3 21 94 22
REMARK SMILES IDX 4 23 5 24 6 25 24 26 25 27 26 28 27 29 28 30 29 31 30 32
REMARK SMILES IDX 31 33 92 34 32 35 91 36 33 37 34 38 35 39 85 40 36 41 90 42
REMARK SMILES IDX 84 43 86 44 37 45 89 46 83 47 82 48 38 50 70 51 50 52 69 53
REMARK SMILES IDX 51 54 54 55 68 56 87 57 52 58 53 59 67 61 88 62 55 63 39 64
REMARK SMILES IDX 40 65 48 66 41 67 42 68 46 69 49 70 43 71 44 72 47 73 45 74
REMARK SMILES IDX 71 75 72 76 80 77 73 78 74 79 78 80 81 81 75 82 76 83 79 84
REMARK SMILES IDX 77 85 56 86 57 87 65 88 58 89 59 90 63 91 66 92 60 93 61 94
REMARK SMILES IDX 64 95 62 96
REMARK H PARENT 86 49 54 60
REMARK Flexibility Score: inf
ROOT
ATOM      1  C   UNL A   1      43.585  21.406  25.831  1.00  0.00     0.202 C 
ENDROOT
BRANCH   1   2
ATOM      2  C   UNL A   1      42.877  20.048  25.793  1.00  0.00     0.261 C 
BRANCH   2   3
ATOM      3  O   UNL A   1      41.454  20.217  25.710  1.00  0.00    -0.460 OA
BRANCH   3   4
ATOM      4  C   UNL A   1      40.824  20.505  26.872  1.00  0.00     0.341 C 
ATOM      5  O   UNL A   1      40.989  19.961  27.955  1.00  0.00    -0.246 OA
BRANCH   4   6
ATOM      6  C   UNL A   1      40.070  21.761  26.726  1.00  0.00     0.097 A 
ATOM      7  C   UNL A   1      38.100  22.865  25.878  1.00  0.00     0.089 A 
ATOM      8  C   UNL A   1      38.450  24.022  26.595  1.00  0.00     0.025 A 
ATOM      9  C   UNL A   1      38.927  21.744  25.906  1.00  0.00     0.041 A 
ATOM     10  C   UNL A   1      39.615  24.050  27.361  1.00  0.00     0.041 A 
ATOM     11  C   UNL A   1      40.412  22.912  27.438  1.00  0.00     0.137 A 
ATOM     12  F   UNL A   1      41.508  22.952  28.209  1.00  0.00    -0.206 F 
BRANCH   7  13
ATOM     13  S   UNL A   1      36.544  22.903  25.008  1.00  0.00     0.264 S 
ATOM     14  O   UNL A   1      36.814  22.262  23.739  1.00  0.00    -0.201 OA
ATOM     15  O   UNL A   1      36.107  24.286  25.071  1.00  0.00    -0.201 OA
BRANCH  13  16
ATOM     16  N   UNL A   1      35.378  21.976  25.878  1.00  0.00    -0.269 N 
ATOM     17  C   UNL A   1      34.755  22.663  27.046  1.00  0.00     0.164 C 
BRANCH  16  18
ATOM     18  C   UNL A   1      34.412  21.213  25.051  1.00  0.00     0.052 A 
ATOM     19  C   UNL A   1      33.371  17.619  24.227  1.00  0.00     0.044 C 
ATOM     20  C   UNL A   1      33.419  19.120  24.227  1.00  0.00    -0.049 A 
ATOM     21  C   UNL A   1      32.523  19.846  23.441  1.00  0.00     0.007 A 
ATOM     22  C   UNL A   1      34.353  19.810  25.018  1.00  0.00     0.030 A 
ATOM     23  C   UNL A   1      32.536  21.242  23.462  1.00  0.00    -0.049 A 
ATOM     24  C   UNL A   1      31.561  21.998  22.608  1.00  0.00     0.044 C 
ATOM     25  C   UNL A   1      33.453  21.911  24.294  1.00  0.00     0.030 A 
ENDBRANCH  16  18
ENDBRANCH  13  16
ENDBRANCH   7  13
ENDBRANCH   4   6
ENDBRANCH   3   4
ENDBRANCH   2   3
ENDBRANCH   1   2
BRANCH   1  26
ATOM     26  O   UNL A   1      43.389  22.236  24.686  1.00  0.00    -0.374 OA
BRANCH  26  27
ATOM     27  C   UNL A   1      44.508  22.410  23.812  1.00  0.00     0.202 C 
BRANCH  27  28
ATOM     28  C   UNL A   1      45.704  23.177  24.388  1.00  0.00     0.261 C 
BRANCH  28  29
ATOM     29  O   UNL A   1      45.330  23.969  25.531  1.00  0.00    -0.460 OA
BRANCH  29  30
ATOM     30  C   UNL A   1      45.478  25.305  25.377  1.00  0.00     0.338 C 
ATOM     31  O   UNL A   1      46.114  25.887  24.511  1.00  0.00    -0.246 OA
BRANCH  30  32
ATOM     32  C   UNL A   1      44.595  26.018  26.318  1.00  0.00     0.060 A 
ATOM     33  C   UNL A   1      44.754  27.405  26.429  1.00  0.00     0.016 A 
ATOM     34  C   UNL A   1      43.675  25.342  27.122  1.00  0.00     0.016 A 
ATOM     35  C   UNL A   1      44.020  28.117  27.376  1.00  0.00     0.010 A 
ATOM     36  C   UNL A   1      42.947  26.057  28.078  1.00  0.00     0.010 A 
ATOM     37  C   UNL A   1      43.137  27.442  28.230  1.00  0.00    -0.014 A 
BRANCH  37  38
ATOM     38  C   UNL A   1      42.508  28.172  29.357  1.00  0.00     0.031 A 
ATOM     39  C   UNL A   1      43.214  28.226  30.682  1.00  0.00     0.074 A 
ATOM     40  C   UNL A   1      41.337  28.810  29.190  1.00  0.00     0.049 A 
ATOM     41  N   UNL A   1      42.836  28.786  31.802  1.00  0.00    -0.248 NA
ATOM     42  C   UNL A   1      44.525  27.561  30.753  1.00  0.00     0.031 C 
ATOM     43  C   UNL A   1      40.580  28.868  27.942  1.00  0.00     0.029 A 
ATOM     44  N   UNL A   1      40.579  29.531  30.080  1.00  0.00    -0.354 N 
ATOM     45  C   UNL A   1      43.859  28.544  32.709  1.00  0.00     0.074 A 
ATOM     46  C   UNL A   1      44.861  27.760  32.021  1.00  0.00     0.031 C 
ATOM     47  C   UNL A   1      39.462  29.585  28.144  1.00  0.00     0.029 A 
ATOM     48  C   UNL A   1      39.409  30.010  29.542  1.00  0.00     0.049 A 
ATOM     49  H   UNL A   1      40.849  29.691  31.012  1.00  0.00     0.167 HD
ATOM     50  C   UNL A   1      43.955  28.950  33.996  1.00  0.00     0.037 A 
ATOM     51  C   UNL A   1      38.404  30.695  30.120  1.00  0.00     0.037 A 
ATOM     52  C   UNL A   1      42.958  29.732  34.679  1.00  0.00     0.049 A 
ATOM     53  C   UNL A   1      38.498  31.067  31.577  1.00  0.00     0.074 A 
ATOM     54  C   UNL A   1      42.976  30.203  35.981  1.00  0.00     0.029 A 
ATOM     55  N   UNL A   1      41.763  30.153  34.117  1.00  0.00    -0.354 N 
ATOM     56  N   UNL A   1      39.473  30.844  32.424  1.00  0.00    -0.248 NA
ATOM     57  C   UNL A   1      37.352  31.783  32.158  1.00  0.00     0.031 C 
ATOM     58  C   UNL A   1      41.770  30.868  36.221  1.00  0.00     0.029 A 
ATOM     59  C   UNL A   1      41.023  30.856  35.053  1.00  0.00     0.049 A 
ATOM     60  H   UNL A   1      41.482  29.979  33.189  1.00  0.00     0.167 HD
ATOM     61  C   UNL A   1      39.071  31.409  33.628  1.00  0.00     0.074 A 
ATOM     62  C   UNL A   1      37.767  31.994  33.401  1.00  0.00     0.031 C 
ATOM     63  C   UNL A   1      39.728  31.438  34.813  1.00  0.00     0.037 A 
BRANCH  50  64
ATOM     64  C   UNL A   1      45.177  28.547  34.766  1.00  0.00     0.064 A 
ATOM     65  C   UNL A   1      45.185  27.362  35.517  1.00  0.00     0.173 A 
ATOM     66  C   UNL A   1      46.314  29.366  34.817  1.00  0.00     0.173 A 
ATOM     67  F   UNL A   1      44.119  26.546  35.505  1.00  0.00    -0.203 F 
ATOM     68  C   UNL A   1      46.282  27.019  36.302  1.00  0.00     0.198 A 
ATOM     69  C   UNL A   1      47.421  29.007  35.584  1.00  0.00     0.198 A 
ATOM     70  F   UNL A   1      46.360  30.503  34.107  1.00  0.00    -0.203 F 
ATOM     71  F   UNL A   1      46.256  25.898  37.035  1.00  0.00    -0.200 F 
ATOM     72  C   UNL A   1      47.400  27.840  36.333  1.00  0.00     0.200 A 
ATOM     73  F   UNL A   1      48.508  29.790  35.595  1.00  0.00    -0.200 F 
ATOM     74  F   UNL A   1      48.459  27.505  37.083  1.00  0.00    -0.200 F 
ENDBRANCH  50  64
BRANCH  51  75
ATOM     75  C   UNL A   1      37.218  31.076  29.311  1.00  0.00     0.064 A 
ATOM     76  C   UNL A   1      37.048  32.388  28.841  1.00  0.00     0.173 A 
ATOM     77  C   UNL A   1      36.220  30.141  29.007  1.00  0.00     0.173 A 
ATOM     78  F   UNL A   1      37.978  33.319  29.102  1.00  0.00    -0.203 F 
ATOM     79  C   UNL A   1      35.916  32.753  28.119  1.00  0.00     0.198 A 
ATOM     80  C   UNL A   1      35.099  30.501  28.263  1.00  0.00     0.198 A 
ATOM     81  F   UNL A   1      36.350  28.870  29.413  1.00  0.00    -0.203 F 
ATOM     82  F   UNL A   1      35.764  34.019  27.708  1.00  0.00    -0.200 F 
ATOM     83  C   UNL A   1      34.943  31.810  27.827  1.00  0.00     0.200 A 
ATOM     84  F   UNL A   1      34.173  29.581  27.961  1.00  0.00    -0.200 F 
ATOM     85  F   UNL A   1      33.858  32.158  27.122  1.00  0.00    -0.200 F 
ENDBRANCH  51  75
BRANCH  63  86
ATOM     86  C   UNL A   1      39.067  32.142  35.963  1.00  0.00     0.064 A 
ATOM     87  C   UNL A   1      39.354  33.490  36.231  1.00  0.00     0.173 A 
ATOM     88  C   UNL A   1      38.223  31.459  36.851  1.00  0.00     0.173 A 
ATOM     89  F   UNL A   1      40.162  34.183  35.417  1.00  0.00    -0.203 F 
ATOM     90  C   UNL A   1      38.834  34.122  37.357  1.00  0.00     0.198 A 
ATOM     91  C   UNL A   1      37.684  32.104  37.962  1.00  0.00     0.198 A 
ATOM     92  F   UNL A   1      37.910  30.174  36.632  1.00  0.00    -0.203 F 
ATOM     93  F   UNL A   1      39.153  35.398  37.613  1.00  0.00    -0.200 F 
ATOM     94  C   UNL A   1      37.998  33.430  38.220  1.00  0.00     0.200 A 
ATOM     95  F   UNL A   1      36.859  31.440  38.784  1.00  0.00    -0.200 F 
ATOM     96  F   UNL A   1      37.495  34.042  39.301  1.00  0.00    -0.200 F 
ENDBRANCH  63  86
ENDBRANCH  37  38
ENDBRANCH  30  32
ENDBRANCH  29  30
ENDBRANCH  28  29
ENDBRANCH  27  28
ENDBRANCH  26  27
ENDBRANCH   1  26
TORSDOF 17
ENDMDL
MODEL 2
REMARK VINA RESULT:     -11.6      4.270      7.995
REMARK SMILES Cc1cc(C)cc(N(C)S(=O)(=O)c2ccc(F)c(C(=O)OCCOCCOC(=O)c3ccc(-c4c5nc(c(-c6c(F)c(F)c(F)c(F)c6F)c6ccc([nH]6)c(-c6c(F)c(F)c(F)c(F)c6F)c6nc(c(-c7c(F)c(F)c(F)c(F)c7F)c7ccc4[nH]7)C=C6)C=C5)cc3)c2)c1
REMARK SMILES IDX 23 1 22 2 21 3 19 4 20 5 18 6 13 7 14 8 93 9 15 10 16 11
REMARK SMILES IDX 17 12 10 13 11 14 12 15 8 16 9 17 7 18 1 19 2 20 3 21 94 22
REMARK SMILES IDX 4 23 5 24 6 25 24 26 25 27 26 28 27 29 28 30 29 31 30 32
REMARK SMILES IDX 31 33 92 34 32 35 91 36 33 37 34 38 35 39 85 40 36 41 90 42
REMARK SMILES IDX 84 43 86 44 37 45 89 46 83 47 82 48 38 50 70 51 50 52 69 53
REMARK SMILES IDX 51 54 54 55 68 56 87 57 52 58 53 59 67 61 88 62 55 63 39 64
REMARK SMILES IDX 40 65 48 66 41 67 42 68 46 69 49 70 43 71 44 72 47 73 45 74
REMARK SMILES IDX 71 75 72 76 80 77 73 78 74 79 78 80 81 81 75 82 76 83 79 84
REMARK SMILES IDX 77 85 56 86 57 87 65 88 58 89 59 90 63 91 66 92 60 93 61 94
REMARK SMILES IDX 64 95 62 96
REMARK H PARENT 86 49 54 60
REMARK Flexibility Score: inf
ROOT
ATOM      1  C   UNL A   1      35.559  23.442  24.426  1.00  0.00     0.202 C 
ENDROOT
BRANCH   1   2
ATOM      2  C   UNL A   1      35.188  22.732  23.120  1.00  0.00     0.261 C 
BRANCH   2   3
ATOM      3  O   UNL A   1      33.935  23.218  22.613  1.00  0.00    -0.460 OA
BRANCH   3   4
ATOM      4  C   UNL A   1      32.850  22.460  22.893  1.00  0.00     0.341 C 
ATOM      5  O   UNL A   1      32.531  21.405  22.363  1.00  0.00    -0.246 OA
BRANCH   4   6
ATOM      6  C   UNL A   1      32.210  22.951  24.125  1.00  0.00     0.097 A 
ATOM      7  C   UNL A   1      31.211  24.806  25.300  1.00  0.00     0.089 A 
ATOM      8  C   UNL A   1      30.781  23.925  26.308  1.00  0.00     0.025 A 
ATOM      9  C   UNL A   1      31.961  24.332  24.226  1.00  0.00     0.041 A 
ATOM     10  C   UNL A   1      31.082  22.565  26.229  1.00  0.00     0.041 A 
ATOM     11  C   UNL A   1      31.781  22.080  25.128  1.00  0.00     0.137 A 
ATOM     12  F   UNL A   1      32.026  20.764  25.058  1.00  0.00    -0.206 F 
BRANCH   7  13
ATOM     13  S   UNL A   1      30.692  26.505  25.450  1.00  0.00     0.264 S 
ATOM     14  O   UNL A   1      30.656  26.756  26.875  1.00  0.00    -0.201 OA
ATOM     15  O   UNL A   1      29.493  26.610  24.639  1.00  0.00    -0.201 OA
BRANCH  13  16
ATOM     16  N   UNL A   1      31.873  27.530  24.722  1.00  0.00    -0.269 N 
ATOM     17  C   UNL A   1      31.554  27.994  23.341  1.00  0.00     0.164 C 
BRANCH  16  18
ATOM     18  C   UNL A   1      32.432  28.592  25.592  1.00  0.00     0.052 A 
ATOM     19  C   UNL A   1      35.506  29.386  27.737  1.00  0.00     0.044 C 
ATOM     20  C   UNL A   1      34.171  29.520  27.063  1.00  0.00    -0.049 A 
ATOM     21  C   UNL A   1      33.418  30.682  27.233  1.00  0.00     0.007 A 
ATOM     22  C   UNL A   1      33.669  28.490  26.250  1.00  0.00     0.030 A 
ATOM     23  C   UNL A   1      32.192  30.831  26.580  1.00  0.00    -0.049 A 
ATOM     24  C   UNL A   1      31.403  32.092  26.780  1.00  0.00     0.044 C 
ATOM     25  C   UNL A   1      31.730  29.803  25.738  1.00  0.00     0.030 A 
ENDBRANCH  16  18
ENDBRANCH  13  16
ENDBRANCH   7  13
ENDBRANCH   4   6
ENDBRANCH   3   4
ENDBRANCH   2   3
ENDBRANCH   1   2
BRANCH   1  26
ATOM     26  O   UNL A   1      35.774  22.591  25.552  1.00  0.00    -0.374 OA
BRANCH  26  27
ATOM     27  C   UNL A   1      35.788  21.183  25.306  1.00  0.00     0.202 C 
BRANCH  27  28
ATOM     28  C   UNL A   1      37.167  20.511  25.292  1.00  0.00     0.261 C 
BRANCH  28  29
ATOM     29  O   UNL A   1      38.230  21.477  25.213  1.00  0.00    -0.460 OA
BRANCH  29  30
ATOM     30  C   UNL A   1      39.265  21.264  26.059  1.00  0.00     0.338 C 
ATOM     31  O   UNL A   1      39.876  20.220  26.235  1.00  0.00    -0.246 OA
BRANCH  30  32
ATOM     32  C   UNL A   1      39.707  22.543  26.643  1.00  0.00     0.060 A 
ATOM     33  C   UNL A   1      39.128  23.716  26.143  1.00  0.00     0.016 A 
ATOM     34  C   UNL A   1      40.712  22.603  27.611  1.00  0.00     0.016 A 
ATOM     35  C   UNL A   1      39.580  24.959  26.583  1.00  0.00     0.010 A 
ATOM     36  C   UNL A   1      41.170  23.852  28.043  1.00  0.00     0.010 A 
ATOM     37  C   UNL A   1      40.627  25.035  27.510  1.00  0.00    -0.014 A 
BRANCH  37  38
ATOM     38  C   UNL A   1      41.231  26.352  27.826  1.00  0.00     0.031 A 
ATOM     39  C   UNL A   1      42.657  26.618  27.436  1.00  0.00     0.074 A 
ATOM     40  C   UNL A   1      40.504  27.312  28.422  1.00  0.00     0.049 A 
ATOM     41  N   UNL A   1      43.387  27.686  27.634  1.00  0.00    -0.248 NA
ATOM     42  C   UNL A   1      43.355  25.536  26.723  1.00  0.00     0.031 C 
ATOM     43  C   UNL A   1      39.101  27.189  28.807  1.00  0.00     0.029 A 
ATOM     44  N   UNL A   1      40.851  28.584  28.809  1.00  0.00    -0.354 N 
ATOM     45  C   UNL A   1      44.625  27.406  27.072  1.00  0.00     0.074 A 
ATOM     46  C   UNL A   1      44.561  26.059  26.551  1.00  0.00     0.031 C 
ATOM     47  C   UNL A   1      38.703  28.338  29.378  1.00  0.00     0.029 A 
ATOM     48  C   UNL A   1      39.833  29.266  29.427  1.00  0.00     0.049 A 
ATOM     49  H   UNL A   1      41.743  28.969  28.656  1.00  0.00     0.167 HD
ATOM     50  C   UNL A   1      45.712  28.209  26.990  1.00  0.00     0.037 A 
ATOM     51  C   UNL A   1      39.821  30.492  29.985  1.00  0.00     0.037 A 
ATOM     52  C   UNL A   1      45.773  29.550  27.507  1.00  0.00     0.049 A 
ATOM     53  C   UNL A   1      41.069  31.336  29.952  1.00  0.00     0.074 A 
ATOM     54  C   UNL A   1      46.828  30.445  27.456  1.00  0.00     0.029 A 
ATOM     55  N   UNL A   1      44.738  30.189  28.173  1.00  0.00    -0.354 N 
ATOM     56  N   UNL A   1      42.231  31.069  29.409  1.00  0.00    -0.248 NA
ATOM     57  C   UNL A   1      41.003  32.649  30.610  1.00  0.00     0.031 C 
ATOM     58  C   UNL A   1      46.448  31.607  28.135  1.00  0.00     0.029 A 
ATOM     59  C   UNL A   1      45.138  31.456  28.562  1.00  0.00     0.049 A 
ATOM     60  H   UNL A   1      43.849  29.798  28.343  1.00  0.00     0.167 HD
ATOM     61  C   UNL A   1      43.027  32.185  29.639  1.00  0.00     0.074 A 
ATOM     62  C   UNL A   1      42.212  33.137  30.362  1.00  0.00     0.031 C 
ATOM     63  C   UNL A   1      44.316  32.397  29.278  1.00  0.00     0.037 A 
BRANCH  50  64
ATOM     64  C   UNL A   1      46.938  27.657  26.326  1.00  0.00     0.064 A 
ATOM     65  C   UNL A   1      47.071  27.701  24.930  1.00  0.00     0.173 A 
ATOM     66  C   UNL A   1      47.949  27.025  27.063  1.00  0.00     0.173 A 
ATOM     67  F   UNL A   1      46.128  28.292  24.180  1.00  0.00    -0.203 F 
ATOM     68  C   UNL A   1      48.165  27.119  24.296  1.00  0.00     0.198 A 
ATOM     69  C   UNL A   1      49.056  26.466  26.427  1.00  0.00     0.198 A 
ATOM     70  F   UNL A   1      47.875  26.968  28.401  1.00  0.00    -0.203 F 
ATOM     71  F   UNL A   1      48.255  27.147  22.959  1.00  0.00    -0.200 F 
ATOM     72  C   UNL A   1      49.157  26.504  25.045  1.00  0.00     0.200 A 
ATOM     73  F   UNL A   1      50.024  25.891  27.153  1.00  0.00    -0.200 F 
ATOM     74  F   UNL A   1      50.214  25.951  24.433  1.00  0.00    -0.200 F 
ENDBRANCH  50  64
BRANCH  51  75
ATOM     75  C   UNL A   1      38.578  30.994  30.624  1.00  0.00     0.064 A 
ATOM     76  C   UNL A   1      38.384  30.902  32.011  1.00  0.00     0.173 A 
ATOM     77  C   UNL A   1      37.550  31.560  29.858  1.00  0.00     0.173 A 
ATOM     78  F   UNL A   1      39.340  30.373  32.788  1.00  0.00    -0.203 F 
ATOM     79  C   UNL A   1      37.200  31.335  32.602  1.00  0.00     0.198 A 
ATOM     80  C   UNL A   1      36.376  32.016  30.454  1.00  0.00     0.198 A 
ATOM     81  F   UNL A   1      37.700  31.692  28.532  1.00  0.00    -0.203 F 
ATOM     82  F   UNL A   1      37.028  31.207  33.925  1.00  0.00    -0.200 F 
ATOM     83  C   UNL A   1      36.198  31.895  31.825  1.00  0.00     0.200 A 
ATOM     84  F   UNL A   1      35.420  32.580  29.703  1.00  0.00    -0.200 F 
ATOM     85  F   UNL A   1      35.064  32.322  32.395  1.00  0.00    -0.200 F 
ENDBRANCH  51  75
BRANCH  63  86
ATOM     86  C   UNL A   1      44.935  33.716  29.638  1.00  0.00     0.064 A 
ATOM     87  C   UNL A   1      44.883  34.794  28.741  1.00  0.00     0.173 A 
ATOM     88  C   UNL A   1      45.657  33.885  30.828  1.00  0.00     0.173 A 
ATOM     89  F   UNL A   1      44.213  34.679  27.585  1.00  0.00    -0.203 F 
ATOM     90  C   UNL A   1      45.548  35.986  29.014  1.00  0.00     0.198 A 
ATOM     91  C   UNL A   1      46.298  35.089  31.110  1.00  0.00     0.198 A 
ATOM     92  F   UNL A   1      45.727  32.889  31.724  1.00  0.00    -0.203 F 
ATOM     93  F   UNL A   1      45.516  36.988  28.124  1.00  0.00    -0.200 F 
ATOM     94  C   UNL A   1      46.252  36.134  30.199  1.00  0.00     0.200 A 
ATOM     95  F   UNL A   1      46.962  35.238  32.266  1.00  0.00    -0.200 F 
ATOM     96  F   UNL A   1      46.888  37.284  30.463  1.00  0.00    -0.200 F 
ENDBRANCH  63  86
ENDBRANCH  37  38
ENDBRANCH  30  32
ENDBRANCH  29  30
ENDBRANCH  28  29
ENDBRANCH  27  28
ENDBRANCH  26  27
ENDBRANCH   1  26
TORSDOF 17
ENDMDL
MODEL 3
REMARK VINA RESULT:     -11.6      4.419      9.737
REMARK SMILES Cc1cc(C)cc(N(C)S(=O)(=O)c2ccc(F)c(C(=O)OCCOCCOC(=O)c3ccc(-c4c5nc(c(-c6c(F)c(F)c(F)c(F)c6F)c6ccc([nH]6)c(-c6c(F)c(F)c(F)c(F)c6F)c6nc(c(-c7c(F)c(F)c(F)c(F)c7F)c7ccc4[nH]7)C=C6)C=C5)cc3)c2)c1
REMARK SMILES IDX 23 1 22 2 21 3 19 4 20 5 18 6 13 7 14 8 93 9 15 10 16 11
REMARK SMILES IDX 17 12 10 13 11 14 12 15 8 16 9 17 7 18 1 19 2 20 3 21 94 22
REMARK SMILES IDX 4 23 5 24 6 25 24 26 25 27 26 28 27 29 28 30 29 31 30 32
REMARK SMILES IDX 31 33 92 34 32 35 91 36 33 37 34 38 35 39 85 40 36 41 90 42
REMARK SMILES IDX 84 43 86 44 37 45 89 46 83 47 82 48 38 50 70 51 50 52 69 53
REMARK SMILES IDX 51 54 54 55 68 56 87 57 52 58 53 59 67 61 88 62 55 63 39 64
REMARK SMILES IDX 40 65 48 66 41 67 42 68 46 69 49 70 43 71 44 72 47 73 45 74
REMARK SMILES IDX 71 75 72 76 80 77 73 78 74 79 78 80 81 81 75 82 76 83 79 84
REMARK SMILES IDX 77 85 56 86 57 87 65 88 58 89 59 90 63 91 66 92 60 93 61 94
REMARK SMILES IDX 64 95 62 96
REMARK H PARENT 86 49 54 60
REMARK Flexibility Score: inf
ROOT
ATOM      1  C   UNL A   1      35.374  23.215  25.549  1.00  0.00     0.202 C 
ENDROOT
BRANCH   1   2
ATOM      2  C   UNL A   1      34.983  23.277  24.069  1.00  0.00     0.261 C 
BRANCH   2   3
ATOM      3  O   UNL A   1      34.235  24.469  23.788  1.00  0.00    -0.460 OA
BRANCH   3   4
ATOM      4  C   UNL A   1      33.112  24.304  23.052  1.00  0.00     0.341 C 
ATOM      5  O   UNL A   1      32.894  23.429  22.226  1.00  0.00    -0.246 OA
BRANCH   4   6
ATOM      6  C   UNL A   1      32.053  25.191  23.563  1.00  0.00     0.097 A 
ATOM      7  C   UNL A   1      31.447  27.379  24.376  1.00  0.00     0.089 A 
ATOM      8  C   UNL A   1      30.090  27.018  24.311  1.00  0.00     0.025 A 
ATOM      9  C   UNL A   1      32.437  26.456  24.042  1.00  0.00     0.041 A 
ATOM     10  C   UNL A   1      29.721  25.741  23.888  1.00  0.00     0.041 A 
ATOM     11  C   UNL A   1      30.704  24.837  23.498  1.00  0.00     0.137 A 
ATOM     12  F   UNL A   1      30.322  23.629  23.062  1.00  0.00    -0.206 F 
BRANCH   7  13
ATOM     13  S   UNL A   1      31.805  29.063  24.838  1.00  0.00     0.264 S 
ATOM     14  O   UNL A   1      30.648  29.819  24.407  1.00  0.00    -0.201 OA
ATOM     15  O   UNL A   1      33.123  29.336  24.293  1.00  0.00    -0.201 OA
BRANCH  13  16
ATOM     16  N   UNL A   1      31.948  29.169  26.554  1.00  0.00    -0.269 N 
ATOM     17  C   UNL A   1      31.647  27.913  27.300  1.00  0.00     0.164 C 
BRANCH  16  18
ATOM     18  C   UNL A   1      33.139  29.892  27.060  1.00  0.00     0.052 A 
ATOM     19  C   UNL A   1      36.833  29.338  27.912  1.00  0.00     0.044 C 
ATOM     20  C   UNL A   1      35.501  30.009  27.732  1.00  0.00    -0.049 A 
ATOM     21  C   UNL A   1      35.358  31.364  28.030  1.00  0.00     0.007 A 
ATOM     22  C   UNL A   1      34.393  29.290  27.255  1.00  0.00     0.030 A 
ATOM     23  C   UNL A   1      34.134  32.006  27.831  1.00  0.00    -0.049 A 
ATOM     24  C   UNL A   1      34.008  33.464  28.158  1.00  0.00     0.044 C 
ATOM     25  C   UNL A   1      33.049  31.274  27.313  1.00  0.00     0.030 A 
ENDBRANCH  16  18
ENDBRANCH  13  16
ENDBRANCH   7  13
ENDBRANCH   4   6
ENDBRANCH   3   4
ENDBRANCH   2   3
ENDBRANCH   1   2
BRANCH   1  26
ATOM     26  O   UNL A   1      35.594  21.907  26.076  1.00  0.00    -0.374 OA
BRANCH  26  27
ATOM     27  C   UNL A   1      35.865  20.866  25.133  1.00  0.00     0.202 C 
BRANCH  27  28
ATOM     28  C   UNL A   1      37.335  20.455  24.981  1.00  0.00     0.261 C 
BRANCH  28  29
ATOM     29  O   UNL A   1      38.226  21.547  25.272  1.00  0.00    -0.460 OA
BRANCH  29  30
ATOM     30  C   UNL A   1      39.238  21.252  26.121  1.00  0.00     0.338 C 
ATOM     31  O   UNL A   1      39.739  20.156  26.327  1.00  0.00    -0.246 OA
BRANCH  30  32
ATOM     32  C   UNL A   1      39.815  22.495  26.664  1.00  0.00     0.060 A 
ATOM     33  C   UNL A   1      39.341  23.708  26.148  1.00  0.00     0.016 A 
ATOM     34  C   UNL A   1      40.842  22.480  27.610  1.00  0.00     0.016 A 
ATOM     35  C   UNL A   1      39.920  24.910  26.548  1.00  0.00     0.010 A 
ATOM     36  C   UNL A   1      41.429  23.688  28.002  1.00  0.00     0.010 A 
ATOM     37  C   UNL A   1      40.991  24.905  27.451  1.00  0.00    -0.014 A 
BRANCH  37  38
ATOM     38  C   UNL A   1      41.726  26.164  27.722  1.00  0.00     0.031 A 
ATOM     39  C   UNL A   1      41.077  27.226  28.563  1.00  0.00     0.074 A 
ATOM     40  C   UNL A   1      42.972  26.344  27.252  1.00  0.00     0.049 A 
ATOM     41  N   UNL A   1      41.529  28.406  28.904  1.00  0.00    -0.248 NA
ATOM     42  C   UNL A   1      39.741  26.916  29.095  1.00  0.00     0.031 C 
ATOM     43  C   UNL A   1      43.723  25.369  26.464  1.00  0.00     0.029 A 
ATOM     44  N   UNL A   1      43.826  27.413  27.371  1.00  0.00    -0.354 N 
ATOM     45  C   UNL A   1      40.536  28.978  29.688  1.00  0.00     0.074 A 
ATOM     46  C   UNL A   1      39.445  28.031  29.751  1.00  0.00     0.031 C 
ATOM     47  C   UNL A   1      44.927  25.885  26.166  1.00  0.00     0.029 A 
ATOM     48  C   UNL A   1      45.020  27.237  26.716  1.00  0.00     0.049 A 
ATOM     49  H   UNL A   1      43.604  28.226  27.878  1.00  0.00     0.167 HD
ATOM     50  C   UNL A   1      40.542  30.180  30.309  1.00  0.00     0.037 A 
ATOM     51  C   UNL A   1      46.060  28.080  26.563  1.00  0.00     0.037 A 
ATOM     52  C   UNL A   1      41.630  31.121  30.249  1.00  0.00     0.049 A 
ATOM     53  C   UNL A   1      46.009  29.445  27.198  1.00  0.00     0.074 A 
ATOM     54  C   UNL A   1      41.731  32.360  30.859  1.00  0.00     0.029 A 
ATOM     55  N   UNL A   1      42.801  30.929  29.533  1.00  0.00    -0.354 N 
ATOM     56  N   UNL A   1      45.073  29.973  27.947  1.00  0.00    -0.248 NA
ATOM     57  C   UNL A   1      47.159  30.332  26.964  1.00  0.00     0.031 C 
ATOM     58  C   UNL A   1      42.944  32.938  30.472  1.00  0.00     0.029 A 
ATOM     59  C   UNL A   1      43.620  32.038  29.663  1.00  0.00     0.049 A 
ATOM     60  H   UNL A   1      43.019  30.124  29.009  1.00  0.00     0.167 HD
ATOM     61  C   UNL A   1      45.526  31.240  28.292  1.00  0.00     0.074 A 
ATOM     62  C   UNL A   1      46.827  31.400  27.678  1.00  0.00     0.031 C 
ATOM     63  C   UNL A   1      44.916  32.183  29.051  1.00  0.00     0.037 A 
BRANCH  50  64
ATOM     64  C   UNL A   1      39.329  30.563  31.103  1.00  0.00     0.064 A 
ATOM     65  C   UNL A   1      38.361  31.418  30.555  1.00  0.00     0.173 A 
ATOM     66  C   UNL A   1      39.158  30.141  32.429  1.00  0.00     0.173 A 
ATOM     67  F   UNL A   1      38.482  31.853  29.291  1.00  0.00    -0.203 F 
ATOM     68  C   UNL A   1      37.274  31.847  31.310  1.00  0.00     0.198 A 
ATOM     69  C   UNL A   1      38.055  30.552  33.174  1.00  0.00     0.198 A 
ATOM     70  F   UNL A   1      40.049  29.313  32.995  1.00  0.00    -0.203 F 
ATOM     71  F   UNL A   1      36.378  32.688  30.775  1.00  0.00    -0.200 F 
ATOM     72  C   UNL A   1      37.120  31.412  32.618  1.00  0.00     0.200 A 
ATOM     73  F   UNL A   1      37.896  30.113  34.431  1.00  0.00    -0.200 F 
ATOM     74  F   UNL A   1      36.068  31.819  33.342  1.00  0.00    -0.200 F 
ENDBRANCH  50  64
BRANCH  51  75
ATOM     75  C   UNL A   1      47.241  27.650  25.773  1.00  0.00     0.064 A 
ATOM     76  C   UNL A   1      48.398  27.162  26.400  1.00  0.00     0.173 A 
ATOM     77  C   UNL A   1      47.244  27.735  24.374  1.00  0.00     0.173 A 
ATOM     78  F   UNL A   1      48.442  27.057  27.736  1.00  0.00    -0.203 F 
ATOM     79  C   UNL A   1      49.519  26.798  25.659  1.00  0.00     0.198 A 
ATOM     80  C   UNL A   1      48.358  27.347  23.632  1.00  0.00     0.198 A 
ATOM     81  F   UNL A   1      46.153  28.171  23.729  1.00  0.00    -0.203 F 
ATOM     82  F   UNL A   1      50.622  26.365  26.285  1.00  0.00    -0.200 F 
ATOM     83  C   UNL A   1      49.499  26.888  24.276  1.00  0.00     0.200 A 
ATOM     84  F   UNL A   1      48.325  27.411  22.294  1.00  0.00    -0.200 F 
ATOM     85  F   UNL A   1      50.574  26.527  23.562  1.00  0.00    -0.200 F 
ENDBRANCH  51  75
BRANCH  63  86
ATOM     86  C   UNL A   1      45.647  33.473  29.286  1.00  0.00     0.064 A 
ATOM     87  C   UNL A   1      46.497  33.617  30.394  1.00  0.00     0.173 A 
ATOM     88  C   UNL A   1      45.436  34.593  28.469  1.00  0.00     0.173 A 
ATOM     89  F   UNL A   1      46.723  32.577  31.211  1.00  0.00    -0.203 F 
ATOM     90  C   UNL A   1      47.093  34.840  30.686  1.00  0.00     0.198 A 
ATOM     91  C   UNL A   1      46.056  35.808  28.750  1.00  0.00     0.198 A 
ATOM     92  F   UNL A   1      44.643  34.504  27.392  1.00  0.00    -0.203 F 
ATOM     93  F   UNL A   1      47.869  34.963  31.772  1.00  0.00    -0.200 F 
ATOM     94  C   UNL A   1      46.875  35.934  29.863  1.00  0.00     0.200 A 
ATOM     95  F   UNL A   1      45.861  36.860  27.941  1.00  0.00    -0.200 F 
ATOM     96  F   UNL A   1      47.453  37.110  30.142  1.00  0.00    -0.200 F 
ENDBRANCH  63  86
ENDBRANCH  37  38
ENDBRANCH  30  32
ENDBRANCH  29  30
ENDBRANCH  28  29
ENDBRANCH  27  28
ENDBRANCH  26  27
ENDBRANCH   1  26
TORSDOF 17
ENDMDL
