MODEL 1
REMARK VINA RESULT:     -12.9      0.000      0.000
REMARK SMILES CS(=O)(=O)c1ccc(-c2cc(Cl)cc3c2O[C@@H](C(F)(F)F)C(C(=O)OCCOCCOC(=O)c2ccc(-c4c5nc(c(-c6c(F)c(F)c(F)c(F)c6F)c6ccc([nH]6)c(-c6c(F)c(F)c(F)c(F)c6F)c6nc(c(-c7c(F)c(F)c(F)c(F)c7F)c7ccc4[nH]7)C=C6)C=C5)cc2)=C3)cc1
REMARK SMILES IDX 28 1 27 2 26 3 25 4 23 5 24 6 22 7 9 8 10 9 15 10 11 11
REMARK SMILES IDX 14 12 16 13 12 14 13 15 97 16 17 17 8 18 5 19 6 20 99 21
REMARK SMILES IDX 7 22 98 23 2 24 1 25 3 26 4 27 18 28 19 29 20 30 21 31 29 32
REMARK SMILES IDX 30 33 31 34 32 35 33 36 34 37 35 38 96 39 36 40 95 41 37 42
REMARK SMILES IDX 38 43 39 44 89 45 40 46 94 47 88 48 90 49 41 50 93 51 87 52
REMARK SMILES IDX 86 53 42 55 74 56 54 57 73 58 55 59 58 60 72 61 91 62 56 63
REMARK SMILES IDX 57 64 71 66 92 67 59 68 43 69 44 70 52 71 45 72 46 73 50 74
REMARK SMILES IDX 53 75 47 76 48 77 51 78 49 79 75 80 76 81 84 82 77 83 78 84
REMARK SMILES IDX 82 85 85 86 79 87 80 88 83 89 81 90 60 91 61 92 69 93 62 94
REMARK SMILES IDX 63 95 67 96 70 97 64 98 65 99 68 100 66 101
REMARK H PARENT 90 54 58 65
REMARK Flexibility Score: inf
ROOT
ATOM      1  O   UNL A   1      35.928  21.087  24.987  1.00  0.00    -0.374 OA
ENDROOT
BRANCH   1   2
ATOM      2  C   UNL A   1      34.990  21.280  26.037  1.00  0.00     0.202 C 
BRANCH   2   3
ATOM      3  C   UNL A   1      34.918  22.659  26.715  1.00  0.00     0.261 C 
BRANCH   3   4
ATOM      4  O   UNL A   1      33.770  23.424  26.323  1.00  0.00    -0.460 OA
BRANCH   4   5
ATOM      5  C   UNL A   1      32.586  22.991  26.800  1.00  0.00     0.338 C 
ATOM      6  O   UNL A   1      32.413  22.483  27.900  1.00  0.00    -0.246 OA
BRANCH   5   7
ATOM      7  C   UNL A   1      31.453  23.349  25.916  1.00  0.00     0.087 C 
ATOM      8  C   UNL A   1      31.671  27.009  23.952  1.00  0.00     0.026 A 
ATOM      9  C   UNL A   1      32.548  27.792  24.739  1.00  0.00     0.033 A 
ATOM     10  C   UNL A   1      31.360  25.742  24.491  1.00  0.00     0.135 A 
ATOM     11  C   UNL A   1      32.770  27.492  26.083  1.00  0.00     0.042 A 
ATOM     12  C   UNL A   1      31.353  25.581  25.887  1.00  0.00     0.019 A 
ATOM     13  O   UNL A   1      31.559  24.583  23.715  1.00  0.00    -0.475 OA
ATOM     14  Cl  UNL A   1      33.805  28.491  27.019  1.00  0.00    -0.084 Cl
ATOM     15  C   UNL A   1      32.087  26.446  26.687  1.00  0.00     0.032 A 
ATOM     16  C   UNL A   1      30.752  24.359  26.458  1.00  0.00     0.027 C 
ATOM     17  C   UNL A   1      31.385  23.273  24.405  1.00  0.00     0.316 C 
BRANCH   8  18
ATOM     18  C   UNL A   1      30.701  27.844  23.138  1.00  0.00    -0.015 A 
ATOM     19  C   UNL A   1      28.963  29.962  22.330  1.00  0.00     0.067 A 
ATOM     20  C   UNL A   1      30.306  29.979  21.956  1.00  0.00     0.021 A 
ATOM     21  C   UNL A   1      28.459  28.878  23.048  1.00  0.00     0.021 A 
ATOM     22  C   UNL A   1      31.153  28.918  22.335  1.00  0.00     0.010 A 
ATOM     23  C   UNL A   1      29.320  27.831  23.438  1.00  0.00     0.010 A 
BRANCH  19  24
ATOM     24  S   UNL A   1      27.944  31.397  22.022  1.00  0.00     0.175 S 
ATOM     25  C   UNL A   1      29.007  32.777  22.338  1.00  0.00     0.163 C 
ATOM     26  O   UNL A   1      26.897  31.398  23.026  1.00  0.00    -0.224 OA
ATOM     27  O   UNL A   1      27.616  31.411  20.609  1.00  0.00    -0.224 OA
ENDBRANCH  19  24
ENDBRANCH   8  18
BRANCH  17  28
ATOM     28  C   UNL A   1      32.112  22.058  23.785  1.00  0.00     0.430 C 
ATOM     29  F   UNL A   1      31.519  21.741  22.601  1.00  0.00    -0.167 F 
ATOM     30  F   UNL A   1      33.406  22.336  23.500  1.00  0.00    -0.167 F 
ATOM     31  F   UNL A   1      32.102  20.939  24.532  1.00  0.00    -0.167 F 
ENDBRANCH  17  28
ENDBRANCH   5   7
ENDBRANCH   4   5
ENDBRANCH   3   4
ENDBRANCH   2   3
ENDBRANCH   1   2
BRANCH   1  32
ATOM     32  C   UNL A   1      36.657  19.862  24.949  1.00  0.00     0.202 C 
BRANCH  32  33
ATOM     33  C   UNL A   1      38.187  19.915  24.988  1.00  0.00     0.261 C 
BRANCH  33  34
ATOM     34  O   UNL A   1      38.707  21.128  25.556  1.00  0.00    -0.460 OA
BRANCH  34  35
ATOM     35  C   UNL A   1      39.753  20.953  26.396  1.00  0.00     0.338 C 
ATOM     36  O   UNL A   1      40.361  19.914  26.631  1.00  0.00    -0.246 OA
BRANCH  35  37
ATOM     37  C   UNL A   1      40.199  22.250  26.917  1.00  0.00     0.060 A 
ATOM     38  C   UNL A   1      39.660  23.413  26.350  1.00  0.00     0.016 A 
ATOM     39  C   UNL A   1      41.215  22.324  27.872  1.00  0.00     0.016 A 
ATOM     40  C   UNL A   1      40.164  24.659  26.711  1.00  0.00     0.010 A 
ATOM     41  C   UNL A   1      41.724  23.574  28.226  1.00  0.00     0.010 A 
ATOM     42  C   UNL A   1      41.224  24.743  27.624  1.00  0.00    -0.014 A 
BRANCH  42  43
ATOM     43  C   UNL A   1      41.901  26.043  27.845  1.00  0.00     0.031 A 
ATOM     44  C   UNL A   1      41.176  27.125  28.594  1.00  0.00     0.074 A 
ATOM     45  C   UNL A   1      43.151  26.245  27.395  1.00  0.00     0.049 A 
ATOM     46  N   UNL A   1      41.549  28.354  28.848  1.00  0.00    -0.248 NA
ATOM     47  C   UNL A   1      39.848  26.776  29.123  1.00  0.00     0.031 C 
ATOM     48  C   UNL A   1      43.963  25.255  26.691  1.00  0.00     0.029 A 
ATOM     49  N   UNL A   1      43.951  27.357  27.454  1.00  0.00    -0.354 N 
ATOM     50  C   UNL A   1      40.500  28.926  29.557  1.00  0.00     0.074 A 
ATOM     51  C   UNL A   1      39.462  27.923  29.664  1.00  0.00     0.031 C 
ATOM     52  C   UNL A   1      45.145  25.807  26.373  1.00  0.00     0.029 A 
ATOM     53  C   UNL A   1      45.156  27.200  26.817  1.00  0.00     0.049 A 
ATOM     54  H   UNL A   1      43.686  28.189  27.910  1.00  0.00     0.167 HD
ATOM     55  C   UNL A   1      40.417  30.173  30.077  1.00  0.00     0.037 A 
ATOM     56  C   UNL A   1      46.141  28.091  26.594  1.00  0.00     0.037 A 
ATOM     57  C   UNL A   1      41.457  31.164  29.966  1.00  0.00     0.049 A 
ATOM     58  C   UNL A   1      45.992  29.496  27.120  1.00  0.00     0.074 A 
ATOM     59  C   UNL A   1      41.482  32.450  30.476  1.00  0.00     0.029 A 
ATOM     60  N   UNL A   1      42.653  30.979  29.287  1.00  0.00    -0.354 N 
ATOM     61  N   UNL A   1      45.011  30.023  27.812  1.00  0.00    -0.248 NA
ATOM     62  C   UNL A   1      47.091  30.429  26.833  1.00  0.00     0.031 C 
ATOM     63  C   UNL A   1      42.666  33.064  30.053  1.00  0.00     0.029 A 
ATOM     64  C   UNL A   1      43.410  32.139  29.338  1.00  0.00     0.049 A 
ATOM     65  H   UNL A   1      42.924  30.147  28.836  1.00  0.00     0.167 HD
ATOM     66  C   UNL A   1      45.388  31.336  28.072  1.00  0.00     0.074 A 
ATOM     67  C   UNL A   1      46.694  31.519  27.474  1.00  0.00     0.031 C 
ATOM     68  C   UNL A   1      44.713  32.302  28.744  1.00  0.00     0.037 A 
BRANCH  55  69
ATOM     69  C   UNL A   1      39.148  30.549  30.789  1.00  0.00     0.064 A 
ATOM     70  C   UNL A   1      39.011  30.422  32.179  1.00  0.00     0.173 A 
ATOM     71  C   UNL A   1      38.063  31.073  30.070  1.00  0.00     0.173 A 
ATOM     72  F   UNL A   1      40.013  29.914  32.913  1.00  0.00    -0.203 F 
ATOM     73  C   UNL A   1      37.826  30.778  32.819  1.00  0.00     0.198 A 
ATOM     74  C   UNL A   1      36.891  31.459  30.717  1.00  0.00     0.198 A 
ATOM     75  F   UNL A   1      38.139  31.221  28.739  1.00  0.00    -0.203 F 
ATOM     76  F   UNL A   1      37.701  30.599  34.141  1.00  0.00    -0.200 F 
ATOM     77  C   UNL A   1      36.771  31.304  32.089  1.00  0.00     0.200 A 
ATOM     78  F   UNL A   1      35.879  31.981  30.011  1.00  0.00    -0.200 F 
ATOM     79  F   UNL A   1      35.635  31.654  32.707  1.00  0.00    -0.200 F 
ENDBRANCH  55  69
BRANCH  56  80
ATOM     80  C   UNL A   1      47.350  27.687  25.828  1.00  0.00     0.064 A 
ATOM     81  C   UNL A   1      48.514  27.265  26.484  1.00  0.00     0.173 A 
ATOM     82  C   UNL A   1      47.372  27.733  24.425  1.00  0.00     0.173 A 
ATOM     83  F   UNL A   1      48.553  27.228  27.824  1.00  0.00    -0.203 F 
ATOM     84  C   UNL A   1      49.662  26.925  25.767  1.00  0.00     0.198 A 
ATOM     85  C   UNL A   1      48.508  27.361  23.709  1.00  0.00     0.198 A 
ATOM     86  F   UNL A   1      46.284  28.129  23.749  1.00  0.00    -0.203 F 
ATOM     87  F   UNL A   1      50.777  26.576  26.422  1.00  0.00    -0.200 F 
ATOM     88  C   UNL A   1      49.654  26.967  24.381  1.00  0.00     0.200 A 
ATOM     89  F   UNL A   1      48.492  27.390  22.371  1.00  0.00    -0.200 F 
ATOM     90  F   UNL A   1      50.757  26.638  23.694  1.00  0.00    -0.200 F 
ENDBRANCH  56  80
BRANCH  68  91
ATOM     91  C   UNL A   1      45.393  33.632  28.908  1.00  0.00     0.064 A 
ATOM     92  C   UNL A   1      45.203  34.678  27.994  1.00  0.00     0.173 A 
ATOM     93  C   UNL A   1      46.213  33.875  30.021  1.00  0.00     0.173 A 
ATOM     94  F   UNL A   1      44.441  34.495  26.906  1.00  0.00    -0.203 F 
ATOM     95  C   UNL A   1      45.834  35.908  28.171  1.00  0.00     0.198 A 
ATOM     96  C   UNL A   1      46.813  35.116  30.214  1.00  0.00     0.198 A 
ATOM     97  F   UNL A   1      46.422  32.912  30.932  1.00  0.00    -0.203 F 
ATOM     98  F   UNL A   1      45.681  36.874  27.256  1.00  0.00    -0.200 F 
ATOM     99  C   UNL A   1      46.630  36.129  29.285  1.00  0.00     0.200 A 
ATOM    100  F   UNL A   1      47.567  35.332  31.301  1.00  0.00    -0.200 F 
ATOM    101  F   UNL A   1      47.227  37.315  29.458  1.00  0.00    -0.200 F 
ENDBRANCH  68  91
ENDBRANCH  42  43
ENDBRANCH  35  37
ENDBRANCH  34  35
ENDBRANCH  33  34
ENDBRANCH  32  33
ENDBRANCH   1  32
TORSDOF 17
ENDMDL
MODEL 2
REMARK VINA RESULT:     -12.8      0.571      6.977
REMARK SMILES CS(=O)(=O)c1ccc(-c2cc(Cl)cc3c2O[C@@H](C(F)(F)F)C(C(=O)OCCOCCOC(=O)c2ccc(-c4c5nc(c(-c6c(F)c(F)c(F)c(F)c6F)c6ccc([nH]6)c(-c6c(F)c(F)c(F)c(F)c6F)c6nc(c(-c7c(F)c(F)c(F)c(F)c7F)c7ccc4[nH]7)C=C6)C=C5)cc2)=C3)cc1
REMARK SMILES IDX 28 1 27 2 26 3 25 4 23 5 24 6 22 7 9 8 10 9 15 10 11 11
REMARK SMILES IDX 14 12 16 13 12 14 13 15 97 16 17 17 8 18 5 19 6 20 99 21
REMARK SMILES IDX 7 22 98 23 2 24 1 25 3 26 4 27 18 28 19 29 20 30 21 31 29 32
REMARK SMILES IDX 30 33 31 34 32 35 33 36 34 37 35 38 96 39 36 40 95 41 37 42
REMARK SMILES IDX 38 43 39 44 89 45 40 46 94 47 88 48 90 49 41 50 93 51 87 52
REMARK SMILES IDX 86 53 42 55 74 56 54 57 73 58 55 59 58 60 72 61 91 62 56 63
REMARK SMILES IDX 57 64 71 66 92 67 59 68 43 69 44 70 52 71 45 72 46 73 50 74
REMARK SMILES IDX 53 75 47 76 48 77 51 78 49 79 75 80 76 81 84 82 77 83 78 84
REMARK SMILES IDX 82 85 85 86 79 87 80 88 83 89 81 90 60 91 61 92 69 93 62 94
REMARK SMILES IDX 63 95 67 96 70 97 64 98 65 99 68 100 66 101
REMARK H PARENT 90 54 58 65
REMARK Flexibility Score: inf
ROOT
ATOM      1  O   UNL A   1      37.678  21.522  25.015  1.00  0.00    -0.374 OA
ENDROOT
BRANCH   1   2
ATOM      2  C   UNL A   1      36.360  22.033  24.865  1.00  0.00     0.202 C 
BRANCH   2   3
ATOM      3  C   UNL A   1      35.570  22.415  26.127  1.00  0.00     0.261 C 
BRANCH   3   4
ATOM      4  O   UNL A   1      34.393  23.185  25.849  1.00  0.00    -0.460 OA
BRANCH   4   5
ATOM      5  C   UNL A   1      33.275  22.802  26.496  1.00  0.00     0.338 C 
ATOM      6  O   UNL A   1      33.238  22.350  27.632  1.00  0.00    -0.246 OA
BRANCH   5   7
ATOM      7  C   UNL A   1      32.041  23.145  25.750  1.00  0.00     0.087 C 
ATOM      8  C   UNL A   1      31.982  26.809  23.781  1.00  0.00     0.026 A 
ATOM      9  C   UNL A   1      32.933  27.603  24.462  1.00  0.00     0.033 A 
ATOM     10  C   UNL A   1      31.753  25.537  24.350  1.00  0.00     0.135 A 
ATOM     11  C   UNL A   1      33.315  27.305  25.770  1.00  0.00     0.042 A 
ATOM     12  C   UNL A   1      31.909  25.376  25.736  1.00  0.00     0.019 A 
ATOM     13  O   UNL A   1      31.875  24.381  23.554  1.00  0.00    -0.475 OA
ATOM     14  Cl  UNL A   1      34.438  28.318  26.582  1.00  0.00    -0.084 Cl
ATOM     15  C   UNL A   1      32.720  26.251  26.447  1.00  0.00     0.032 A 
ATOM     16  C   UNL A   1      31.395  24.145  26.372  1.00  0.00     0.027 C 
ATOM     17  C   UNL A   1      31.800  23.069  24.257  1.00  0.00     0.316 C 
BRANCH   8  18
ATOM     18  C   UNL A   1      30.913  27.631  23.086  1.00  0.00    -0.015 A 
ATOM     19  C   UNL A   1      29.031  29.701  22.513  1.00  0.00     0.067 A 
ATOM     20  C   UNL A   1      30.334  29.787  22.026  1.00  0.00     0.021 A 
ATOM     21  C   UNL A   1      28.634  28.573  23.230  1.00  0.00     0.021 A 
ATOM     22  C   UNL A   1      31.251  28.750  22.289  1.00  0.00     0.010 A 
ATOM     23  C   UNL A   1      29.565  27.550  23.504  1.00  0.00     0.010 A 
BRANCH  19  24
ATOM     24  S   UNL A   1      27.935  31.103  22.351  1.00  0.00     0.175 S 
ATOM     25  C   UNL A   1      28.953  32.510  22.694  1.00  0.00     0.163 C 
ATOM     26  O   UNL A   1      26.947  30.995  23.407  1.00  0.00    -0.224 OA
ATOM     27  O   UNL A   1      27.527  31.186  20.960  1.00  0.00    -0.224 OA
ENDBRANCH  19  24
ENDBRANCH   8  18
BRANCH  17  28
ATOM     28  C   UNL A   1      32.466  21.864  23.554  1.00  0.00     0.430 C 
ATOM     29  F   UNL A   1      32.587  20.840  24.445  1.00  0.00    -0.167 F 
ATOM     30  F   UNL A   1      31.712  21.393  22.535  1.00  0.00    -0.167 F 
ATOM     31  F   UNL A   1      33.698  22.094  23.064  1.00  0.00    -0.167 F 
ENDBRANCH  17  28
ENDBRANCH   5   7
ENDBRANCH   4   5
ENDBRANCH   3   4
ENDBRANCH   2   3
ENDBRANCH   1   2
BRANCH   1  32
ATOM     32  C   UNL A   1      37.862  20.109  24.988  1.00  0.00     0.202 C 
BRANCH  32  33
ATOM     33  C   UNL A   1      39.099  19.515  25.667  1.00  0.00     0.261 C 
BRANCH  33  34
ATOM     34  O   UNL A   1      40.201  20.432  25.762  1.00  0.00    -0.460 OA
BRANCH  34  35
ATOM     35  C   UNL A   1      40.775  20.497  26.985  1.00  0.00     0.338 C 
ATOM     36  O   UNL A   1      41.213  19.571  27.659  1.00  0.00    -0.246 OA
BRANCH  35  37
ATOM     37  C   UNL A   1      40.956  21.899  27.380  1.00  0.00     0.060 A 
ATOM     38  C   UNL A   1      40.350  22.891  26.596  1.00  0.00     0.016 A 
ATOM     39  C   UNL A   1      41.801  22.239  28.437  1.00  0.00     0.016 A 
ATOM     40  C   UNL A   1      40.619  24.233  26.847  1.00  0.00     0.010 A 
ATOM     41  C   UNL A   1      42.075  23.586  28.681  1.00  0.00     0.010 A 
ATOM     42  C   UNL A   1      41.512  24.586  27.868  1.00  0.00    -0.014 A 
BRANCH  42  43
ATOM     43  C   UNL A   1      41.963  25.991  27.995  1.00  0.00     0.031 A 
ATOM     44  C   UNL A   1      43.304  26.381  27.440  1.00  0.00     0.074 A 
ATOM     45  C   UNL A   1      41.178  26.908  28.586  1.00  0.00     0.049 A 
ATOM     46  N   UNL A   1      43.924  27.532  27.494  1.00  0.00    -0.248 NA
ATOM     47  C   UNL A   1      44.050  25.326  26.735  1.00  0.00     0.031 C 
ATOM     48  C   UNL A   1      39.844  26.652  29.125  1.00  0.00     0.029 A 
ATOM     49  N   UNL A   1      41.396  28.238  28.840  1.00  0.00    -0.354 N 
ATOM     50  C   UNL A   1      45.134  27.338  26.838  1.00  0.00     0.074 A 
ATOM     51  C   UNL A   1      45.177  25.952  26.426  1.00  0.00     0.031 C 
ATOM     52  C   UNL A   1      39.364  27.789  29.657  1.00  0.00     0.029 A 
ATOM     53  C   UNL A   1      40.373  28.839  29.531  1.00  0.00     0.049 A 
ATOM     54  H   UNL A   1      42.208  28.716  28.555  1.00  0.00     0.167 HD
ATOM     55  C   UNL A   1      46.115  28.240  26.598  1.00  0.00     0.037 A 
ATOM     56  C   UNL A   1      40.279  30.087  30.027  1.00  0.00     0.037 A 
ATOM     57  C   UNL A   1      46.062  29.618  27.012  1.00  0.00     0.049 A 
ATOM     58  C   UNL A   1      41.417  31.051  29.810  1.00  0.00     0.074 A 
ATOM     59  C   UNL A   1      46.993  30.621  26.800  1.00  0.00     0.029 A 
ATOM     60  N   UNL A   1      45.022  30.185  27.736  1.00  0.00    -0.354 N 
ATOM     61  N   UNL A   1      42.546  30.871  29.166  1.00  0.00    -0.248 NA
ATOM     62  C   UNL A   1      41.265  32.394  30.387  1.00  0.00     0.031 C 
ATOM     63  C   UNL A   1      46.544  31.776  27.448  1.00  0.00     0.029 A 
ATOM     64  C   UNL A   1      45.303  31.515  28.006  1.00  0.00     0.049 A 
ATOM     65  H   UNL A   1      44.206  29.712  28.016  1.00  0.00     0.167 HD
ATOM     66  C   UNL A   1      43.222  32.083  29.233  1.00  0.00     0.074 A 
ATOM     67  C   UNL A   1      42.369  32.995  29.967  1.00  0.00     0.031 C 
ATOM     68  C   UNL A   1      44.439  32.412  28.732  1.00  0.00     0.037 A 
BRANCH  55  69
ATOM     69  C   UNL A   1      47.343  27.758  25.878  1.00  0.00     0.064 A 
ATOM     70  C   UNL A   1      48.463  27.270  26.566  1.00  0.00     0.173 A 
ATOM     71  C   UNL A   1      47.385  27.756  24.475  1.00  0.00     0.173 A 
ATOM     72  F   UNL A   1      48.480  27.261  27.908  1.00  0.00    -0.203 F 
ATOM     73  C   UNL A   1      49.590  26.826  25.880  1.00  0.00     0.198 A 
ATOM     74  C   UNL A   1      48.501  27.280  23.791  1.00  0.00     0.198 A 
ATOM     75  F   UNL A   1      46.341  28.208  23.765  1.00  0.00    -0.203 F 
ATOM     76  F   UNL A   1      50.668  26.412  26.561  1.00  0.00    -0.200 F 
ATOM     77  C   UNL A   1      49.605  26.824  24.493  1.00  0.00     0.200 A 
ATOM     78  F   UNL A   1      48.507  27.266  22.451  1.00  0.00    -0.200 F 
ATOM     79  F   UNL A   1      50.687  26.388  23.834  1.00  0.00    -0.200 F 
ENDBRANCH  55  69
BRANCH  56  80
ATOM     80  C   UNL A   1      39.069  30.495  30.788  1.00  0.00     0.064 A 
ATOM     81  C   UNL A   1      37.985  31.112  30.149  1.00  0.00     0.173 A 
ATOM     82  C   UNL A   1      38.978  30.293  32.174  1.00  0.00     0.173 A 
ATOM     83  F   UNL A   1      38.033  31.351  28.830  1.00  0.00    -0.203 F 
ATOM     84  C   UNL A   1      36.867  31.532  30.869  1.00  0.00     0.198 A 
ATOM     85  C   UNL A   1      37.846  30.682  32.888  1.00  0.00     0.198 A 
ATOM     86  F   UNL A   1      39.986  29.706  32.836  1.00  0.00    -0.203 F 
ATOM     87  F   UNL A   1      35.869  32.168  30.240  1.00  0.00    -0.200 F 
ATOM     88  C   UNL A   1      36.796  31.310  32.236  1.00  0.00     0.200 A 
ATOM     89  F   UNL A   1      37.776  30.454  34.205  1.00  0.00    -0.200 F 
ATOM     90  F   UNL A   1      35.721  31.712  32.927  1.00  0.00    -0.200 F 
ENDBRANCH  56  80
BRANCH  68  91
ATOM     91  C   UNL A   1      44.905  33.828  28.921  1.00  0.00     0.064 A 
ATOM     92  C   UNL A   1      44.574  34.844  28.012  1.00  0.00     0.173 A 
ATOM     93  C   UNL A   1      45.657  34.180  30.052  1.00  0.00     0.173 A 
ATOM     94  F   UNL A   1      43.868  34.559  26.908  1.00  0.00    -0.203 F 
ATOM     95  C   UNL A   1      45.005  36.153  28.213  1.00  0.00     0.198 A 
ATOM     96  C   UNL A   1      46.057  35.497  30.268  1.00  0.00     0.198 A 
ATOM     97  F   UNL A   1      45.994  33.250  30.958  1.00  0.00    -0.203 F 
ATOM     98  F   UNL A   1      44.724  37.095  27.303  1.00  0.00    -0.200 F 
ATOM     99  C   UNL A   1      45.738  36.480  29.344  1.00  0.00     0.200 A 
ATOM    100  F   UNL A   1      46.749  35.813  31.371  1.00  0.00    -0.200 F 
ATOM    101  F   UNL A   1      46.144  37.741  29.539  1.00  0.00    -0.200 F 
ENDBRANCH  68  91
ENDBRANCH  42  43
ENDBRANCH  35  37
ENDBRANCH  34  35
ENDBRANCH  33  34
ENDBRANCH  32  33
ENDBRANCH   1  32
TORSDOF 17
ENDMDL
MODEL 3
REMARK VINA RESULT:     -12.6      1.503      2.737
REMARK SMILES CS(=O)(=O)c1ccc(-c2cc(Cl)cc3c2O[C@@H](C(F)(F)F)C(C(=O)OCCOCCOC(=O)c2ccc(-c4c5nc(c(-c6c(F)c(F)c(F)c(F)c6F)c6ccc([nH]6)c(-c6c(F)c(F)c(F)c(F)c6F)c6nc(c(-c7c(F)c(F)c(F)c(F)c7F)c7ccc4[nH]7)C=C6)C=C5)cc2)=C3)cc1
REMARK SMILES IDX 28 1 27 2 26 3 25 4 23 5 24 6 22 7 9 8 10 9 15 10 11 11
REMARK SMILES IDX 14 12 16 13 12 14 13 15 97 16 17 17 8 18 5 19 6 20 99 21
REMARK SMILES IDX 7 22 98 23 2 24 1 25 3 26 4 27 18 28 19 29 20 30 21 31 29 32
REMARK SMILES IDX 30 33 31 34 32 35 33 36 34 37 35 38 96 39 36 40 95 41 37 42
REMARK SMILES IDX 38 43 39 44 89 45 40 46 94 47 88 48 90 49 41 50 93 51 87 52
REMARK SMILES IDX 86 53 42 55 74 56 54 57 73 58 55 59 58 60 72 61 91 62 56 63
REMARK SMILES IDX 57 64 71 66 92 67 59 68 43 69 44 70 52 71 45 72 46 73 50 74
REMARK SMILES IDX 53 75 47 76 48 77 51 78 49 79 75 80 76 81 84 82 77 83 78 84
REMARK SMILES IDX 82 85 85 86 79 87 80 88 83 89 81 90 60 91 61 92 69 93 62 94
REMARK SMILES IDX 63 95 67 96 70 97 64 98 65 99 68 100 66 101
REMARK H PARENT 90 54 58 65
REMARK Flexibility Score: inf
ROOT
ATOM      1  O   UNL A   1      37.225  20.908  24.569  1.00  0.00    -0.374 OA
ENDROOT
BRANCH   1   2
ATOM      2  C   UNL A   1      36.267  21.949  24.705  1.00  0.00     0.202 C 
BRANCH   2   3
ATOM      3  C   UNL A   1      35.185  21.816  25.789  1.00  0.00     0.261 C 
BRANCH   3   4
ATOM      4  O   UNL A   1      34.179  22.836  25.714  1.00  0.00    -0.460 OA
BRANCH   4   5
ATOM      5  C   UNL A   1      33.033  22.579  26.375  1.00  0.00     0.338 C 
ATOM      6  O   UNL A   1      32.959  22.200  27.537  1.00  0.00    -0.246 OA
BRANCH   5   7
ATOM      7  C   UNL A   1      31.832  22.970  25.602  1.00  0.00     0.087 C 
ATOM      8  C   UNL A   1      31.906  26.691  23.746  1.00  0.00     0.026 A 
ATOM      9  C   UNL A   1      32.851  27.445  24.481  1.00  0.00     0.033 A 
ATOM     10  C   UNL A   1      31.635  25.408  24.268  1.00  0.00     0.135 A 
ATOM     11  C   UNL A   1      33.184  27.100  25.791  1.00  0.00     0.042 A 
ATOM     12  C   UNL A   1      31.743  25.202  25.653  1.00  0.00     0.019 A 
ATOM     13  O   UNL A   1      31.760  24.274  23.441  1.00  0.00    -0.475 OA
ATOM     14  Cl  UNL A   1      34.300  28.065  26.668  1.00  0.00    -0.084 Cl
ATOM     15  C   UNL A   1      32.547  26.038  26.416  1.00  0.00     0.032 A 
ATOM     16  C   UNL A   1      31.185  23.963  26.233  1.00  0.00     0.027 C 
ATOM     17  C   UNL A   1      31.637  22.944  24.100  1.00  0.00     0.316 C 
BRANCH   8  18
ATOM     18  C   UNL A   1      30.876  27.556  23.044  1.00  0.00    -0.015 A 
ATOM     19  C   UNL A   1      29.038  29.668  22.486  1.00  0.00     0.067 A 
ATOM     20  C   UNL A   1      30.363  29.766  22.064  1.00  0.00     0.021 A 
ATOM     21  C   UNL A   1      28.600  28.510  23.127  1.00  0.00     0.021 A 
ATOM     22  C   UNL A   1      31.259  28.709  22.319  1.00  0.00     0.010 A 
ATOM     23  C   UNL A   1      29.510  27.466  23.394  1.00  0.00     0.010 A 
BRANCH  19  24
ATOM     24  S   UNL A   1      27.960  31.086  22.341  1.00  0.00     0.175 S 
ATOM     25  C   UNL A   1      28.973  32.467  22.788  1.00  0.00     0.163 C 
ATOM     26  O   UNL A   1      26.928  30.941  23.351  1.00  0.00    -0.224 OA
ATOM     27  O   UNL A   1      27.610  31.234  20.940  1.00  0.00    -0.224 OA
ENDBRANCH  19  24
ENDBRANCH   8  18
BRANCH  17  28
ATOM     28  C   UNL A   1      32.302  21.747  23.382  1.00  0.00     0.430 C 
ATOM     29  F   UNL A   1      33.550  22.110  22.975  1.00  0.00    -0.167 F 
ATOM     30  F   UNL A   1      32.465  20.689  24.210  1.00  0.00    -0.167 F 
ATOM     31  F   UNL A   1      31.657  21.301  22.289  1.00  0.00    -0.167 F 
ENDBRANCH  17  28
ENDBRANCH   5   7
ENDBRANCH   4   5
ENDBRANCH   3   4
ENDBRANCH   2   3
ENDBRANCH   1   2
BRANCH   1  32
ATOM     32  C   UNL A   1      38.395  20.956  25.383  1.00  0.00     0.202 C 
BRANCH  32  33
ATOM     33  C   UNL A   1      39.187  19.665  25.610  1.00  0.00     0.261 C 
BRANCH  33  34
ATOM     34  O   UNL A   1      40.190  19.776  26.631  1.00  0.00    -0.460 OA
BRANCH  34  35
ATOM     35  C   UNL A   1      41.460  19.610  26.195  1.00  0.00     0.338 C 
ATOM     36  O   UNL A   1      41.920  18.662  25.569  1.00  0.00    -0.246 OA
BRANCH  35  37
ATOM     37  C   UNL A   1      42.238  20.829  26.444  1.00  0.00     0.060 A 
ATOM     38  C   UNL A   1      42.432  21.231  27.772  1.00  0.00     0.016 A 
ATOM     39  C   UNL A   1      42.675  21.624  25.384  1.00  0.00     0.016 A 
ATOM     40  C   UNL A   1      43.034  22.457  28.045  1.00  0.00     0.010 A 
ATOM     41  C   UNL A   1      43.272  22.856  25.660  1.00  0.00     0.010 A 
ATOM     42  C   UNL A   1      43.424  23.291  26.989  1.00  0.00    -0.014 A 
BRANCH  42  43
ATOM     43  C   UNL A   1      43.863  24.677  27.273  1.00  0.00     0.031 A 
ATOM     44  C   UNL A   1      42.843  25.694  27.702  1.00  0.00     0.074 A 
ATOM     45  C   UNL A   1      45.159  25.017  27.163  1.00  0.00     0.049 A 
ATOM     46  N   UNL A   1      42.991  26.972  27.941  1.00  0.00    -0.248 NA
ATOM     47  C   UNL A   1      41.467  25.203  27.879  1.00  0.00     0.031 C 
ATOM     48  C   UNL A   1      46.240  24.106  26.793  1.00  0.00     0.029 A 
ATOM     49  N   UNL A   1      45.782  26.226  27.342  1.00  0.00    -0.354 N 
ATOM     50  C   UNL A   1      41.729  27.438  28.288  1.00  0.00     0.074 A 
ATOM     51  C   UNL A   1      40.821  26.316  28.194  1.00  0.00     0.031 C 
ATOM     52  C   UNL A   1      47.395  24.791  26.762  1.00  0.00     0.029 A 
ATOM     53  C   UNL A   1      47.127  26.194  27.071  1.00  0.00     0.049 A 
ATOM     54  H   UNL A   1      45.310  27.038  27.636  1.00  0.00     0.167 HD
ATOM     55  C   UNL A   1      41.367  28.689  28.657  1.00  0.00     0.037 A 
ATOM     56  C   UNL A   1      48.030  27.193  27.048  1.00  0.00     0.037 A 
ATOM     57  C   UNL A   1      42.279  29.800  28.748  1.00  0.00     0.049 A 
ATOM     58  C   UNL A   1      47.585  28.592  27.391  1.00  0.00     0.074 A 
ATOM     59  C   UNL A   1      42.018  31.103  29.133  1.00  0.00     0.029 A 
ATOM     60  N   UNL A   1      43.631  29.737  28.437  1.00  0.00    -0.354 N 
ATOM     61  N   UNL A   1      46.397  29.022  27.744  1.00  0.00    -0.248 NA
ATOM     62  C   UNL A   1      48.610  29.644  27.335  1.00  0.00     0.031 C 
ATOM     63  C   UNL A   1      43.197  31.843  28.996  1.00  0.00     0.029 A 
ATOM     64  C   UNL A   1      44.210  30.987  28.591  1.00  0.00     0.049 A 
ATOM     65  H   UNL A   1      44.107  28.926  28.149  1.00  0.00     0.167 HD
ATOM     66  C   UNL A   1      46.539  30.384  27.982  1.00  0.00     0.074 A 
ATOM     67  C   UNL A   1      47.932  30.705  27.748  1.00  0.00     0.031 C 
ATOM     68  C   UNL A   1      45.601  31.287  28.361  1.00  0.00     0.037 A 
BRANCH  55  69
ATOM     69  C   UNL A   1      39.915  28.932  28.963  1.00  0.00     0.064 A 
ATOM     70  C   UNL A   1      39.002  29.318  27.970  1.00  0.00     0.173 A 
ATOM     71  C   UNL A   1      39.425  28.745  30.265  1.00  0.00     0.173 A 
ATOM     72  F   UNL A   1      39.420  29.522  26.711  1.00  0.00    -0.203 F 
ATOM     73  C   UNL A   1      37.661  29.535  28.274  1.00  0.00     0.198 A 
ATOM     74  C   UNL A   1      38.077  28.931  30.559  1.00  0.00     0.198 A 
ATOM     75  F   UNL A   1      40.252  28.373  31.253  1.00  0.00    -0.203 F 
ATOM     76  F   UNL A   1      36.818  29.953  27.319  1.00  0.00    -0.200 F 
ATOM     77  C   UNL A   1      37.198  29.334  29.566  1.00  0.00     0.200 A 
ATOM     78  F   UNL A   1      37.629  28.722  31.804  1.00  0.00    -0.200 F 
ATOM     79  F   UNL A   1      35.905  29.535  29.855  1.00  0.00    -0.200 F 
ENDBRANCH  55  69
BRANCH  56  80
ATOM     80  C   UNL A   1      49.441  26.911  26.676  1.00  0.00     0.064 A 
ATOM     81  C   UNL A   1      49.868  26.987  25.343  1.00  0.00     0.173 A 
ATOM     82  C   UNL A   1      50.390  26.541  27.643  1.00  0.00     0.173 A 
ATOM     83  F   UNL A   1      48.995  27.311  24.378  1.00  0.00    -0.203 F 
ATOM     84  C   UNL A   1      51.181  26.682  24.988  1.00  0.00     0.198 A 
ATOM     85  C   UNL A   1      51.710  26.269  27.292  1.00  0.00     0.198 A 
ATOM     86  F   UNL A   1      50.035  26.454  28.933  1.00  0.00    -0.203 F 
ATOM     87  F   UNL A   1      51.547  26.710  23.700  1.00  0.00    -0.200 F 
ATOM     88  C   UNL A   1      52.102  26.330  25.963  1.00  0.00     0.200 A 
ATOM     89  F   UNL A   1      52.599  25.943  28.238  1.00  0.00    -0.200 F 
ATOM     90  F   UNL A   1      53.365  26.040  25.622  1.00  0.00    -0.200 F 
ENDBRANCH  56  80
BRANCH  68  91
ATOM     91  C   UNL A   1      46.056  32.702  28.589  1.00  0.00     0.064 A 
ATOM     92  C   UNL A   1      46.532  33.133  29.836  1.00  0.00     0.173 A 
ATOM     93  C   UNL A   1      46.053  33.625  27.533  1.00  0.00     0.173 A 
ATOM     94  F   UNL A   1      46.543  32.295  30.883  1.00  0.00    -0.203 F 
ATOM     95  C   UNL A   1      46.961  34.446  30.023  1.00  0.00     0.198 A 
ATOM     96  C   UNL A   1      46.515  34.926  27.714  1.00  0.00     0.198 A 
ATOM     97  F   UNL A   1      45.616  33.262  26.317  1.00  0.00    -0.203 F 
ATOM     98  F   UNL A   1      47.360  34.851  31.236  1.00  0.00    -0.200 F 
ATOM     99  C   UNL A   1      46.960  35.337  28.961  1.00  0.00     0.200 A 
ATOM    100  F   UNL A   1      46.531  35.780  26.681  1.00  0.00    -0.200 F 
ATOM    101  F   UNL A   1      47.381  36.596  29.141  1.00  0.00    -0.200 F 
ENDBRANCH  68  91
ENDBRANCH  42  43
ENDBRANCH  35  37
ENDBRANCH  34  35
ENDBRANCH  33  34
ENDBRANCH  32  33
ENDBRANCH   1  32
TORSDOF 17
ENDMDL
