MODEL 1
REMARK VINA RESULT:     -11.8      0.000      0.000
REMARK SMILES C[NH2+][C@]1(C(=O)OCCOCCOC(=O)c2ccc(-c3c4nc(c(-c5c(F)c(F)c(F)c(F)c5F)c5ccc([nH]5)c(-c5c(F)c(F)c(F)c(F)c5F)c5nc(c(-c6c(F)c(F)c(F)c(F)c6F)c6ccc3[nH]6)C=C5)C=C4)cc2)CC[C@@H](OCCCc2ccccc2)C1
REMARK SMILES IDX 7 1 6 2 4 3 5 4 3 5 78 6 91 7 79 8 80 9 2 10 1 11 81 14
REMARK SMILES IDX 82 15 83 16 84 17 85 18 86 19 90 20 87 21 89 22 88 23 8 24
REMARK SMILES IDX 9 25 10 26 11 27 12 28 13 29 14 30 15 31 16 32 77 33 17 34
REMARK SMILES IDX 76 35 18 36 19 37 20 38 70 39 21 40 75 41 69 42 71 43 22 44
REMARK SMILES IDX 74 45 68 46 67 47 23 49 55 50 35 51 54 52 36 53 39 54 53 55
REMARK SMILES IDX 72 56 37 57 38 58 52 60 73 61 40 62 24 63 25 64 33 65 26 66
REMARK SMILES IDX 27 67 31 68 34 69 28 70 29 71 32 72 30 73 56 74 57 75 65 76
REMARK SMILES IDX 58 77 59 78 63 79 66 80 60 81 61 82 64 83 62 84 41 85 42 86
REMARK SMILES IDX 50 87 43 88 44 89 48 90 51 91 45 92 46 93 49 94 47 95
REMARK H PARENT 2 12 2 13 71 48 39 59
REMARK Flexibility Score: inf
ROOT
ATOM      1  C   UNL A   1      33.051  27.706  26.605  1.00  0.00     0.261 C 
ENDROOT
BRANCH   1   2
ATOM      2  O   UNL A   1      32.717  26.049  26.472  1.00  0.00    -0.459 OA
BRANCH   2   3
ATOM      3  C   UNL A   1      31.683  24.520  26.160  1.00  0.00     0.368 C 
ATOM      4  O   UNL A   1      30.618  24.194  26.778  1.00  0.00    -0.245 OA
BRANCH   3   5
ATOM      5  C   UNL A   1      31.875  23.411  24.839  1.00  0.00     0.196 C 
ATOM      6  C   UNL A   1      31.398  23.263  23.366  1.00  0.00     0.084 C 
ATOM      7  C   UNL A   1      33.445  23.472  24.669  1.00  0.00     0.113 C 
ATOM      8  C   UNL A   1      32.589  22.912  22.488  1.00  0.00     0.039 C 
ATOM      9  C   UNL A   1      33.796  23.494  23.194  1.00  0.00     0.125 C 
BRANCH   5  10
ATOM     10  N   UNL A   1      31.668  22.017  25.454  1.00  0.00    -0.334 N 
ATOM     11  C   UNL A   1      32.870  21.289  25.841  1.00  0.00     0.331 C 
ATOM     12  H   UNL A   1      31.092  22.129  26.289  1.00  0.00     0.347 HD
ATOM     13  H   UNL A   1      31.241  21.458  24.715  1.00  0.00     0.347 HD
ENDBRANCH   5  10
BRANCH   9  14
ATOM     14  O   UNL A   1      34.112  24.712  22.534  1.00  0.00    -0.378 OA
BRANCH  14  15
ATOM     15  C   UNL A   1      33.871  25.972  23.120  1.00  0.00     0.161 C 
BRANCH  15  16
ATOM     16  C   UNL A   1      33.074  26.851  22.160  1.00  0.00     0.033 C 
BRANCH  16  17
ATOM     17  C   UNL A   1      32.389  28.122  22.697  1.00  0.00     0.038 C 
BRANCH  17  18
ATOM     18  C   UNL A   1      30.879  28.211  22.824  1.00  0.00    -0.048 A 
ATOM     19  C   UNL A   1      29.926  26.916  23.644  1.00  0.00     0.004 A 
ATOM     20  C   UNL A   1      30.027  29.697  22.190  1.00  0.00     0.004 A 
ATOM     21  C   UNL A   1      28.131  27.058  23.834  1.00  0.00     0.000 A 
ATOM     22  C   UNL A   1      28.208  29.784  22.248  1.00  0.00     0.000 A 
ATOM     23  C   UNL A   1      27.248  28.487  23.107  1.00  0.00     0.000 A 
ENDBRANCH  17  18
ENDBRANCH  16  17
ENDBRANCH  15  16
ENDBRANCH  14  15
ENDBRANCH   9  14
ENDBRANCH   3   5
ENDBRANCH   2   3
ENDBRANCH   1   2
BRANCH   1  24
ATOM     24  C   UNL A   1      31.903  28.802  26.464  1.00  0.00     0.202 C 
BRANCH  24  25
ATOM     25  O   UNL A   1      32.066  30.132  26.941  1.00  0.00    -0.374 OA
BRANCH  25  26
ATOM     26  C   UNL A   1      31.394  31.214  26.288  1.00  0.00     0.202 C 
BRANCH  26  27
ATOM     27  C   UNL A   1      31.620  32.637  26.842  1.00  0.00     0.261 C 
BRANCH  27  28
ATOM     28  O   UNL A   1      32.985  33.069  26.781  1.00  0.00    -0.460 OA
BRANCH  28  29
ATOM     29  C   UNL A   1      33.412  33.693  27.903  1.00  0.00     0.338 C 
ATOM     30  O   UNL A   1      32.802  34.504  28.567  1.00  0.00    -0.246 OA
BRANCH  29  31
ATOM     31  C   UNL A   1      34.651  33.031  28.350  1.00  0.00     0.060 A 
ATOM     32  C   UNL A   1      34.542  31.697  28.760  1.00  0.00     0.016 A 
ATOM     33  C   UNL A   1      35.882  33.691  28.380  1.00  0.00     0.016 A 
ATOM     34  C   UNL A   1      35.654  31.027  29.249  1.00  0.00     0.010 A 
ATOM     35  C   UNL A   1      36.993  33.029  28.909  1.00  0.00     0.010 A 
ATOM     36  C   UNL A   1      36.868  31.710  29.384  1.00  0.00    -0.014 A 
BRANCH  36  37
ATOM     37  C   UNL A   1      37.898  31.102  30.257  1.00  0.00     0.031 A 
ATOM     38  C   UNL A   1      38.842  30.105  29.643  1.00  0.00     0.074 A 
ATOM     39  C   UNL A   1      38.077  31.518  31.521  1.00  0.00     0.049 A 
ATOM     40  N   UNL A   1      39.866  29.488  30.177  1.00  0.00    -0.248 NA
ATOM     41  C   UNL A   1      38.608  29.768  28.229  1.00  0.00     0.031 C 
ATOM     42  C   UNL A   1      37.278  32.535  32.199  1.00  0.00     0.029 A 
ATOM     43  N   UNL A   1      39.009  31.139  32.455  1.00  0.00    -0.354 N 
ATOM     44  C   UNL A   1      40.396  28.697  29.166  1.00  0.00     0.074 A 
ATOM     45  C   UNL A   1      39.565  28.883  27.998  1.00  0.00     0.031 C 
ATOM     46  C   UNL A   1      37.753  32.698  33.447  1.00  0.00     0.029 A 
ATOM     47  C   UNL A   1      38.867  31.775  33.663  1.00  0.00     0.049 A 
ATOM     48  H   UNL A   1      39.713  30.474  32.276  1.00  0.00     0.167 HD
ATOM     49  C   UNL A   1      41.486  27.897  29.205  1.00  0.00     0.037 A 
ATOM     50  C   UNL A   1      39.549  31.612  34.813  1.00  0.00     0.037 A 
ATOM     51  C   UNL A   1      42.308  27.708  30.370  1.00  0.00     0.049 A 
ATOM     52  C   UNL A   1      40.694  30.629  34.861  1.00  0.00     0.074 A 
ATOM     53  C   UNL A   1      43.432  26.914  30.511  1.00  0.00     0.029 A 
ATOM     54  N   UNL A   1      42.086  28.311  31.599  1.00  0.00    -0.354 N 
ATOM     55  N   UNL A   1      41.200  29.894  33.900  1.00  0.00    -0.248 NA
ATOM     56  C   UNL A   1      41.368  30.460  36.157  1.00  0.00     0.031 C 
ATOM     57  C   UNL A   1      43.850  26.983  31.844  1.00  0.00     0.029 A 
ATOM     58  C   UNL A   1      43.033  27.879  32.515  1.00  0.00     0.049 A 
ATOM     59  H   UNL A   1      41.363  28.951  31.793  1.00  0.00     0.167 HD
ATOM     60  C   UNL A   1      42.265  29.204  34.465  1.00  0.00     0.074 A 
ATOM     61  C   UNL A   1      42.344  29.619  35.849  1.00  0.00     0.031 C 
ATOM     62  C   UNL A   1      43.106  28.308  33.889  1.00  0.00     0.037 A 
BRANCH  49  63
ATOM     63  C   UNL A   1      41.824  27.127  27.961  1.00  0.00     0.064 A 
ATOM     64  C   UNL A   1      41.291  25.854  27.708  1.00  0.00     0.173 A 
ATOM     65  C   UNL A   1      42.677  27.686  26.997  1.00  0.00     0.173 A 
ATOM     66  F   UNL A   1      40.486  25.267  28.604  1.00  0.00    -0.203 F 
ATOM     67  C   UNL A   1      41.624  25.158  26.547  1.00  0.00     0.198 A 
ATOM     68  C   UNL A   1      42.979  27.002  25.824  1.00  0.00     0.198 A 
ATOM     69  F   UNL A   1      43.212  28.900  27.191  1.00  0.00    -0.203 F 
ATOM     70  F   UNL A   1      41.146  23.921  26.351  1.00  0.00    -0.200 F 
ATOM     71  C   UNL A   1      42.459  25.735  25.604  1.00  0.00     0.200 A 
ATOM     72  F   UNL A   1      43.775  27.569  24.907  1.00  0.00    -0.200 F 
ATOM     73  F   UNL A   1      42.770  25.068  24.484  1.00  0.00    -0.200 F 
ENDBRANCH  49  63
BRANCH  50  74
ATOM     74  C   UNL A   1      39.153  32.373  36.030  1.00  0.00     0.064 A 
ATOM     75  C   UNL A   1      39.672  33.647  36.295  1.00  0.00     0.173 A 
ATOM     76  C   UNL A   1      38.275  31.818  36.973  1.00  0.00     0.173 A 
ATOM     77  F   UNL A   1      40.537  34.210  35.438  1.00  0.00    -0.203 F 
ATOM     78  C   UNL A   1      39.350  34.326  37.469  1.00  0.00     0.198 A 
ATOM     79  C   UNL A   1      37.926  32.511  38.129  1.00  0.00     0.198 A 
ATOM     80  F   UNL A   1      37.753  30.599  36.771  1.00  0.00    -0.203 F 
ATOM     81  F   UNL A   1      39.906  35.516  37.726  1.00  0.00    -0.200 F 
ATOM     82  C   UNL A   1      38.471  33.760  38.382  1.00  0.00     0.200 A 
ATOM     83  F   UNL A   1      37.068  31.966  39.002  1.00  0.00    -0.200 F 
ATOM     84  F   UNL A   1      38.162  34.414  39.511  1.00  0.00    -0.200 F 
ENDBRANCH  50  74
BRANCH  62  85
ATOM     85  C   UNL A   1      44.214  27.745  34.736  1.00  0.00     0.064 A 
ATOM     86  C   UNL A   1      44.072  26.540  35.441  1.00  0.00     0.173 A 
ATOM     87  C   UNL A   1      45.456  28.399  34.803  1.00  0.00     0.173 A 
ATOM     88  F   UNL A   1      42.904  25.880  35.421  1.00  0.00    -0.203 F 
ATOM     89  C   UNL A   1      45.118  26.029  36.205  1.00  0.00     0.198 A 
ATOM     90  C   UNL A   1      46.511  27.866  35.537  1.00  0.00     0.198 A 
ATOM     91  F   UNL A   1      45.651  29.549  34.140  1.00  0.00    -0.203 F 
ATOM     92  F   UNL A   1      44.941  24.905  36.913  1.00  0.00    -0.200 F 
ATOM     93  C   UNL A   1      46.339  26.686  36.245  1.00  0.00     0.200 A 
ATOM     94  F   UNL A   1      47.695  28.492  35.557  1.00  0.00    -0.200 F 
ATOM     95  F   UNL A   1      47.348  26.187  36.972  1.00  0.00    -0.200 F 
ENDBRANCH  62  85
ENDBRANCH  36  37
ENDBRANCH  29  31
ENDBRANCH  28  29
ENDBRANCH  27  28
ENDBRANCH  26  27
ENDBRANCH  25  26
ENDBRANCH  24  25
ENDBRANCH   1  24
TORSDOF 20
ENDMDL
MODEL 2
REMARK VINA RESULT:     -11.8      0.844      7.190
REMARK SMILES C[NH2+][C@]1(C(=O)OCCOCCOC(=O)c2ccc(-c3c4nc(c(-c5c(F)c(F)c(F)c(F)c5F)c5ccc([nH]5)c(-c5c(F)c(F)c(F)c(F)c5F)c5nc(c(-c6c(F)c(F)c(F)c(F)c6F)c6ccc3[nH]6)C=C5)C=C4)cc2)CC[C@@H](OCCCc2ccccc2)C1
REMARK SMILES IDX 7 1 6 2 4 3 5 4 3 5 78 6 91 7 79 8 80 9 2 10 1 11 81 14
REMARK SMILES IDX 82 15 83 16 84 17 85 18 86 19 90 20 87 21 89 22 88 23 8 24
REMARK SMILES IDX 9 25 10 26 11 27 12 28 13 29 14 30 15 31 16 32 77 33 17 34
REMARK SMILES IDX 76 35 18 36 19 37 20 38 70 39 21 40 75 41 69 42 71 43 22 44
REMARK SMILES IDX 74 45 68 46 67 47 23 49 55 50 35 51 54 52 36 53 39 54 53 55
REMARK SMILES IDX 72 56 37 57 38 58 52 60 73 61 40 62 24 63 25 64 33 65 26 66
REMARK SMILES IDX 27 67 31 68 34 69 28 70 29 71 32 72 30 73 56 74 57 75 65 76
REMARK SMILES IDX 58 77 59 78 63 79 66 80 60 81 61 82 64 83 62 84 41 85 42 86
REMARK SMILES IDX 50 87 43 88 44 89 48 90 51 91 45 92 46 93 49 94 47 95
REMARK H PARENT 2 12 2 13 71 48 39 59
REMARK Flexibility Score: inf
ROOT
ATOM      1  C   UNL A   1      32.077  27.457  27.000  1.00  0.00     0.261 C 
ENDROOT
BRANCH   1   2
ATOM      2  O   UNL A   1      31.267  25.988  26.751  1.00  0.00    -0.459 OA
BRANCH   2   3
ATOM      3  C   UNL A   1      31.004  24.135  26.806  1.00  0.00     0.368 C 
ATOM      4  O   UNL A   1      29.978  23.534  27.261  1.00  0.00    -0.245 OA
BRANCH   3   5
ATOM      5  C   UNL A   1      32.009  22.940  26.048  1.00  0.00     0.196 C 
ATOM      6  C   UNL A   1      31.962  21.992  24.816  1.00  0.00     0.084 C 
ATOM      7  C   UNL A   1      33.278  23.827  25.728  1.00  0.00     0.113 C 
ATOM      8  C   UNL A   1      33.277  22.091  24.058  1.00  0.00     0.039 C 
ATOM      9  C   UNL A   1      33.807  23.479  24.350  1.00  0.00     0.125 C 
BRANCH   5  10
ATOM     10  N   UNL A   1      32.513  22.054  27.198  1.00  0.00    -0.334 N 
ATOM     11  C   UNL A   1      33.932  22.146  27.521  1.00  0.00     0.331 C 
ATOM     12  H   UNL A   1      31.989  22.307  28.037  1.00  0.00     0.347 HD
ATOM     13  H   UNL A   1      32.372  21.095  26.882  1.00  0.00     0.347 HD
ENDBRANCH   5  10
BRANCH   9  14
ATOM     14  O   UNL A   1      33.498  24.284  23.222  1.00  0.00    -0.378 OA
BRANCH  14  15
ATOM     15  C   UNL A   1      33.952  25.613  23.095  1.00  0.00     0.161 C 
BRANCH  15  16
ATOM     16  C   UNL A   1      32.866  26.583  23.555  1.00  0.00     0.033 C 
BRANCH  16  17
ATOM     17  C   UNL A   1      32.049  27.352  22.500  1.00  0.00     0.038 C 
BRANCH  17  18
ATOM     18  C   UNL A   1      30.589  27.695  22.729  1.00  0.00    -0.048 A 
ATOM     19  C   UNL A   1      29.457  26.521  23.503  1.00  0.00     0.004 A 
ATOM     20  C   UNL A   1      29.991  29.359  22.269  1.00  0.00     0.004 A 
ATOM     21  C   UNL A   1      27.728  26.960  23.816  1.00  0.00     0.000 A 
ATOM     22  C   UNL A   1      28.223  29.760  22.449  1.00  0.00     0.000 A 
ATOM     23  C   UNL A   1      27.086  28.581  23.262  1.00  0.00     0.000 A 
ENDBRANCH  17  18
ENDBRANCH  16  17
ENDBRANCH  15  16
ENDBRANCH  14  15
ENDBRANCH   9  14
ENDBRANCH   3   5
ENDBRANCH   2   3
ENDBRANCH   1   2
BRANCH   1  24
ATOM     24  C   UNL A   1      31.546  28.820  26.367  1.00  0.00     0.202 C 
BRANCH  24  25
ATOM     25  O   UNL A   1      32.039  30.087  26.783  1.00  0.00    -0.374 OA
BRANCH  25  26
ATOM     26  C   UNL A   1      31.575  31.280  26.143  1.00  0.00     0.202 C 
BRANCH  26  27
ATOM     27  C   UNL A   1      31.856  32.626  26.846  1.00  0.00     0.261 C 
BRANCH  27  28
ATOM     28  O   UNL A   1      32.788  32.526  27.930  1.00  0.00    -0.460 OA
BRANCH  28  29
ATOM     29  C   UNL A   1      33.736  33.491  27.925  1.00  0.00     0.338 C 
ATOM     30  O   UNL A   1      33.561  34.691  27.905  1.00  0.00    -0.246 OA
BRANCH  29  31
ATOM     31  C   UNL A   1      35.034  32.856  28.218  1.00  0.00     0.060 A 
ATOM     32  C   UNL A   1      35.023  31.477  28.455  1.00  0.00     0.016 A 
ATOM     33  C   UNL A   1      36.226  33.582  28.271  1.00  0.00     0.016 A 
ATOM     34  C   UNL A   1      36.197  30.820  28.795  1.00  0.00     0.010 A 
ATOM     35  C   UNL A   1      37.402  32.928  28.651  1.00  0.00     0.010 A 
ATOM     36  C   UNL A   1      37.378  31.554  28.955  1.00  0.00    -0.014 A 
BRANCH  36  37
ATOM     37  C   UNL A   1      38.490  30.905  29.687  1.00  0.00     0.031 A 
ATOM     38  C   UNL A   1      38.678  31.256  31.137  1.00  0.00     0.074 A 
ATOM     39  C   UNL A   1      39.227  29.935  29.122  1.00  0.00     0.049 A 
ATOM     40  N   UNL A   1      39.530  30.776  32.007  1.00  0.00    -0.248 NA
ATOM     41  C   UNL A   1      37.772  32.280  31.684  1.00  0.00     0.031 C 
ATOM     42  C   UNL A   1      39.083  29.453  27.751  1.00  0.00     0.029 A 
ATOM     43  N   UNL A   1      40.239  29.171  29.647  1.00  0.00    -0.354 N 
ATOM     44  C   UNL A   1      39.259  31.434  33.200  1.00  0.00     0.074 A 
ATOM     45  C   UNL A   1      38.190  32.371  32.937  1.00  0.00     0.031 C 
ATOM     46  C   UNL A   1      39.979  28.472  27.541  1.00  0.00     0.029 A 
ATOM     47  C   UNL A   1      40.779  28.282  28.751  1.00  0.00     0.049 A 
ATOM     48  H   UNL A   1      40.548  29.252  30.579  1.00  0.00     0.167 HD
ATOM     49  C   UNL A   1      39.842  31.264  34.408  1.00  0.00     0.037 A 
ATOM     50  C   UNL A   1      41.812  27.430  28.893  1.00  0.00     0.037 A 
ATOM     51  C   UNL A   1      40.911  30.337  34.666  1.00  0.00     0.049 A 
ATOM     52  C   UNL A   1      42.519  27.338  30.224  1.00  0.00     0.074 A 
ATOM     53  C   UNL A   1      41.571  30.093  35.857  1.00  0.00     0.029 A 
ATOM     54  N   UNL A   1      41.484  29.508  33.713  1.00  0.00    -0.354 N 
ATOM     55  N   UNL A   1      42.251  27.953  31.351  1.00  0.00    -0.248 NA
ATOM     56  C   UNL A   1      43.670  26.427  30.302  1.00  0.00     0.031 C 
ATOM     57  C   UNL A   1      42.590  29.168  35.610  1.00  0.00     0.029 A 
ATOM     58  C   UNL A   1      42.515  28.777  34.282  1.00  0.00     0.049 A 
ATOM     59  H   UNL A   1      41.201  29.447  32.772  1.00  0.00     0.167 HD
ATOM     60  C   UNL A   1      43.175  27.480  32.275  1.00  0.00     0.074 A 
ATOM     61  C   UNL A   1      44.001  26.515  31.581  1.00  0.00     0.031 C 
ATOM     62  C   UNL A   1      43.325  27.811  33.582  1.00  0.00     0.037 A 
BRANCH  49  63
ATOM     63  C   UNL A   1      39.366  32.136  35.535  1.00  0.00     0.064 A 
ATOM     64  C   UNL A   1      38.456  31.673  36.498  1.00  0.00     0.173 A 
ATOM     65  C   UNL A   1      39.848  33.447  35.663  1.00  0.00     0.173 A 
ATOM     66  F   UNL A   1      37.950  30.434  36.411  1.00  0.00    -0.203 F 
ATOM     67  C   UNL A   1      38.027  32.502  37.532  1.00  0.00     0.198 A 
ATOM     68  C   UNL A   1      39.444  34.260  36.717  1.00  0.00     0.198 A 
ATOM     69  F   UNL A   1      40.720  33.937  34.770  1.00  0.00    -0.203 F 
ATOM     70  F   UNL A   1      37.116  32.058  38.409  1.00  0.00    -0.200 F 
ATOM     71  C   UNL A   1      38.527  33.791  37.645  1.00  0.00     0.200 A 
ATOM     72  F   UNL A   1      39.940  35.500  36.832  1.00  0.00    -0.200 F 
ATOM     73  F   UNL A   1      38.120  34.583  38.646  1.00  0.00    -0.200 F 
ENDBRANCH  49  63
BRANCH  50  74
ATOM     74  C   UNL A   1      42.269  26.612  27.736  1.00  0.00     0.064 A 
ATOM     75  C   UNL A   1      43.274  27.068  26.871  1.00  0.00     0.173 A 
ATOM     76  C   UNL A   1      41.678  25.373  27.451  1.00  0.00     0.173 A 
ATOM     77  F   UNL A   1      43.852  28.260  27.084  1.00  0.00    -0.203 F 
ATOM     78  C   UNL A   1      43.650  26.328  25.752  1.00  0.00     0.198 A 
ATOM     79  C   UNL A   1      42.078  24.617  26.351  1.00  0.00     0.198 A 
ATOM     80  F   UNL A   1      40.708  24.892  28.243  1.00  0.00    -0.203 F 
ATOM     81  F   UNL A   1      44.570  26.814  24.909  1.00  0.00    -0.200 F 
ATOM     82  C   UNL A   1      43.056  25.100  25.496  1.00  0.00     0.200 A 
ATOM     83  F   UNL A   1      41.511  23.427  26.116  1.00  0.00    -0.200 F 
ATOM     84  F   UNL A   1      43.419  24.390  24.419  1.00  0.00    -0.200 F 
ENDBRANCH  50  74
BRANCH  62  85
ATOM     85  C   UNL A   1      44.391  27.098  34.366  1.00  0.00     0.064 A 
ATOM     86  C   UNL A   1      44.150  25.871  35.003  1.00  0.00     0.173 A 
ATOM     87  C   UNL A   1      45.690  27.628  34.440  1.00  0.00     0.173 A 
ATOM     88  F   UNL A   1      42.924  25.325  34.974  1.00  0.00    -0.203 F 
ATOM     89  C   UNL A   1      45.158  25.219  35.710  1.00  0.00     0.198 A 
ATOM     90  C   UNL A   1      46.704  26.955  35.115  1.00  0.00     0.198 A 
ATOM     91  F   UNL A   1      45.981  28.792  33.840  1.00  0.00    -0.203 F 
ATOM     92  F   UNL A   1      44.889  24.076  36.355  1.00  0.00    -0.200 F 
ATOM     93  C   UNL A   1      46.436  25.756  35.757  1.00  0.00     0.200 A 
ATOM     94  F   UNL A   1      47.943  27.466  35.142  1.00  0.00    -0.200 F 
ATOM     95  F   UNL A   1      47.407  25.122  36.428  1.00  0.00    -0.200 F 
ENDBRANCH  62  85
ENDBRANCH  36  37
ENDBRANCH  29  31
ENDBRANCH  28  29
ENDBRANCH  27  28
ENDBRANCH  26  27
ENDBRANCH  25  26
ENDBRANCH  24  25
ENDBRANCH   1  24
TORSDOF 20
ENDMDL
MODEL 3
REMARK VINA RESULT:     -11.5      1.371      7.369
REMARK SMILES C[NH2+][C@]1(C(=O)OCCOCCOC(=O)c2ccc(-c3c4nc(c(-c5c(F)c(F)c(F)c(F)c5F)c5ccc([nH]5)c(-c5c(F)c(F)c(F)c(F)c5F)c5nc(c(-c6c(F)c(F)c(F)c(F)c6F)c6ccc3[nH]6)C=C5)C=C4)cc2)CC[C@@H](OCCCc2ccccc2)C1
REMARK SMILES IDX 7 1 6 2 4 3 5 4 3 5 78 6 91 7 79 8 80 9 2 10 1 11 81 14
REMARK SMILES IDX 82 15 83 16 84 17 85 18 86 19 90 20 87 21 89 22 88 23 8 24
REMARK SMILES IDX 9 25 10 26 11 27 12 28 13 29 14 30 15 31 16 32 77 33 17 34
REMARK SMILES IDX 76 35 18 36 19 37 20 38 70 39 21 40 75 41 69 42 71 43 22 44
REMARK SMILES IDX 74 45 68 46 67 47 23 49 55 50 35 51 54 52 36 53 39 54 53 55
REMARK SMILES IDX 72 56 37 57 38 58 52 60 73 61 40 62 24 63 25 64 33 65 26 66
REMARK SMILES IDX 27 67 31 68 34 69 28 70 29 71 32 72 30 73 56 74 57 75 65 76
REMARK SMILES IDX 58 77 59 78 63 79 66 80 60 81 61 82 64 83 62 84 41 85 42 86
REMARK SMILES IDX 50 87 43 88 44 89 48 90 51 91 45 92 46 93 49 94 47 95
REMARK H PARENT 2 12 2 13 71 48 39 59
REMARK Flexibility Score: inf
ROOT
ATOM      1  C   UNL A   1      31.804  28.405  27.442  1.00  0.00     0.261 C 
ENDROOT
BRANCH   1   2
ATOM      2  O   UNL A   1      31.093  26.970  26.882  1.00  0.00    -0.459 OA
BRANCH   2   3
ATOM      3  C   UNL A   1      30.980  25.144  26.486  1.00  0.00     0.368 C 
ATOM      4  O   UNL A   1      30.034  24.359  26.821  1.00  0.00    -0.245 OA
BRANCH   3   5
ATOM      5  C   UNL A   1      32.025  24.267  25.415  1.00  0.00     0.196 C 
ATOM      6  C   UNL A   1      32.102  23.900  23.905  1.00  0.00     0.084 C 
ATOM      7  C   UNL A   1      33.361  25.087  25.619  1.00  0.00     0.113 C 
ATOM      8  C   UNL A   1      33.508  24.174  23.395  1.00  0.00     0.039 C 
ATOM      9  C   UNL A   1      34.052  25.273  24.282  1.00  0.00     0.125 C 
BRANCH   5  10
ATOM     10  N   UNL A   1      32.336  22.952  26.148  1.00  0.00    -0.334 N 
ATOM     11  C   UNL A   1      33.582  22.903  26.904  1.00  0.00     0.331 C 
ATOM     12  H   UNL A   1      31.572  22.772  26.800  1.00  0.00     0.347 HD
ATOM     13  H   UNL A   1      32.441  22.252  25.413  1.00  0.00     0.347 HD
ENDBRANCH   5  10
BRANCH   9  14
ATOM     14  O   UNL A   1      33.928  26.488  23.556  1.00  0.00    -0.378 OA
BRANCH  14  15
ATOM     15  C   UNL A   1      33.932  27.749  24.188  1.00  0.00     0.161 C 
BRANCH  15  16
ATOM     16  C   UNL A   1      33.099  28.741  23.380  1.00  0.00     0.033 C 
BRANCH  16  17
ATOM     17  C   UNL A   1      32.058  28.207  22.377  1.00  0.00     0.038 C 
BRANCH  17  18
ATOM     18  C   UNL A   1      30.575  28.223  22.697  1.00  0.00    -0.048 A 
ATOM     19  C   UNL A   1      29.756  26.792  23.433  1.00  0.00     0.004 A 
ATOM     20  C   UNL A   1      29.622  29.750  22.388  1.00  0.00     0.004 A 
ATOM     21  C   UNL A   1      27.996  26.840  23.856  1.00  0.00     0.000 A 
ATOM     22  C   UNL A   1      27.823  29.762  22.678  1.00  0.00     0.000 A 
ATOM     23  C   UNL A   1      27.003  28.323  23.453  1.00  0.00     0.000 A 
ENDBRANCH  17  18
ENDBRANCH  16  17
ENDBRANCH  15  16
ENDBRANCH  14  15
ENDBRANCH   9  14
ENDBRANCH   3   5
ENDBRANCH   2   3
ENDBRANCH   1   2
BRANCH   1  24
ATOM     24  C   UNL A   1      31.783  29.741  26.573  1.00  0.00     0.202 C 
BRANCH  24  25
ATOM     25  O   UNL A   1      31.903  31.028  27.165  1.00  0.00    -0.374 OA
BRANCH  25  26
ATOM     26  C   UNL A   1      33.177  31.484  27.633  1.00  0.00     0.202 C 
BRANCH  26  27
ATOM     27  C   UNL A   1      33.486  32.991  27.511  1.00  0.00     0.261 C 
BRANCH  27  28
ATOM     28  O   UNL A   1      32.493  33.834  28.106  1.00  0.00    -0.460 OA
BRANCH  28  29
ATOM     29  C   UNL A   1      33.000  34.937  28.704  1.00  0.00     0.338 C 
ATOM     30  O   UNL A   1      32.492  36.037  28.763  1.00  0.00    -0.246 OA
BRANCH  29  31
ATOM     31  C   UNL A   1      34.162  34.525  29.512  1.00  0.00     0.060 A 
ATOM     32  C   UNL A   1      35.423  34.661  28.918  1.00  0.00     0.016 A 
ATOM     33  C   UNL A   1      34.031  34.011  30.804  1.00  0.00     0.016 A 
ATOM     34  C   UNL A   1      36.558  34.239  29.595  1.00  0.00     0.010 A 
ATOM     35  C   UNL A   1      35.170  33.550  31.470  1.00  0.00     0.010 A 
ATOM     36  C   UNL A   1      36.430  33.625  30.846  1.00  0.00    -0.014 A 
BRANCH  36  37
ATOM     37  C   UNL A   1      37.587  32.848  31.346  1.00  0.00     0.031 A 
ATOM     38  C   UNL A   1      38.110  33.167  32.719  1.00  0.00     0.074 A 
ATOM     39  C   UNL A   1      38.076  31.803  30.658  1.00  0.00     0.049 A 
ATOM     40  N   UNL A   1      39.062  32.587  33.403  1.00  0.00    -0.248 NA
ATOM     41  C   UNL A   1      37.459  34.285  33.422  1.00  0.00     0.031 C 
ATOM     42  C   UNL A   1      37.599  31.348  29.356  1.00  0.00     0.029 A 
ATOM     43  N   UNL A   1      39.081  30.924  30.978  1.00  0.00    -0.354 N 
ATOM     44  C   UNL A   1      39.120  33.265  34.615  1.00  0.00     0.074 A 
ATOM     45  C   UNL A   1      38.134  34.321  34.560  1.00  0.00     0.031 C 
ATOM     46  C   UNL A   1      38.314  30.271  28.984  1.00  0.00     0.029 A 
ATOM     47  C   UNL A   1      39.319  29.984  30.007  1.00  0.00     0.049 A 
ATOM     48  H   UNL A   1      39.583  30.963  31.825  1.00  0.00     0.167 HD
ATOM     49  C   UNL A   1      39.916  33.023  35.680  1.00  0.00     0.037 A 
ATOM     50  C   UNL A   1      40.256  29.017  29.949  1.00  0.00     0.037 A 
ATOM     51  C   UNL A   1      40.902  31.976  35.730  1.00  0.00     0.049 A 
ATOM     52  C   UNL A   1      41.206  28.837  31.108  1.00  0.00     0.074 A 
ATOM     53  C   UNL A   1      41.762  31.652  36.764  1.00  0.00     0.029 A 
ATOM     54  N   UNL A   1      41.168  31.092  34.695  1.00  0.00    -0.354 N 
ATOM     55  N   UNL A   1      41.249  29.472  32.254  1.00  0.00    -0.248 NA
ATOM     56  C   UNL A   1      42.237  27.798  30.965  1.00  0.00     0.031 C 
ATOM     57  C   UNL A   1      42.596  30.616  36.330  1.00  0.00     0.029 A 
ATOM     58  C   UNL A   1      42.204  30.244  35.053  1.00  0.00     0.049 A 
ATOM     59  H   UNL A   1      40.692  31.070  33.834  1.00  0.00     0.167 HD
ATOM     60  C   UNL A   1      42.283  28.890  32.978  1.00  0.00     0.074 A 
ATOM     61  C   UNL A   1      42.833  27.841  32.147  1.00  0.00     0.031 C 
ATOM     62  C   UNL A   1      42.737  29.195  34.220  1.00  0.00     0.037 A 
BRANCH  49  63
ATOM     63  C   UNL A   1      39.786  33.937  36.864  1.00  0.00     0.064 A 
ATOM     64  C   UNL A   1      38.982  33.612  37.968  1.00  0.00     0.173 A 
ATOM     65  C   UNL A   1      40.496  35.146  36.902  1.00  0.00     0.173 A 
ATOM     66  F   UNL A   1      38.268  32.477  37.974  1.00  0.00    -0.203 F 
ATOM     67  C   UNL A   1      38.874  34.479  39.053  1.00  0.00     0.198 A 
ATOM     68  C   UNL A   1      40.413  35.992  38.003  1.00  0.00     0.198 A 
ATOM     69  F   UNL A   1      41.278  35.503  35.873  1.00  0.00    -0.203 F 
ATOM     70  F   UNL A   1      38.060  34.173  40.073  1.00  0.00    -0.200 F 
ATOM     71  C   UNL A   1      39.595  35.663  39.074  1.00  0.00     0.200 A 
ATOM     72  F   UNL A   1      41.122  37.130  38.026  1.00  0.00    -0.200 F 
ATOM     73  F   UNL A   1      39.498  36.491  40.123  1.00  0.00    -0.200 F 
ENDBRANCH  49  63
BRANCH  50  74
ATOM     74  C   UNL A   1      40.368  28.159  28.738  1.00  0.00     0.064 A 
ATOM     75  C   UNL A   1      39.728  26.914  28.664  1.00  0.00     0.173 A 
ATOM     76  C   UNL A   1      41.153  28.553  27.645  1.00  0.00     0.173 A 
ATOM     77  F   UNL A   1      38.987  26.479  29.694  1.00  0.00    -0.203 F 
ATOM     78  C   UNL A   1      39.891  26.086  27.555  1.00  0.00     0.198 A 
ATOM     79  C   UNL A   1      41.288  27.740  26.522  1.00  0.00     0.198 A 
ATOM     80  F   UNL A   1      41.792  29.732  27.666  1.00  0.00    -0.203 F 
ATOM     81  F   UNL A   1      39.317  24.876  27.535  1.00  0.00    -0.200 F 
ATOM     82  C   UNL A   1      40.666  26.502  26.482  1.00  0.00     0.200 A 
ATOM     83  F   UNL A   1      42.028  28.152  25.484  1.00  0.00    -0.200 F 
ATOM     84  F   UNL A   1      40.823  25.704  25.417  1.00  0.00    -0.200 F 
ENDBRANCH  50  74
BRANCH  62  85
ATOM     85  C   UNL A   1      43.853  28.359  34.781  1.00  0.00     0.064 A 
ATOM     86  C   UNL A   1      43.610  27.166  35.479  1.00  0.00     0.173 A 
ATOM     87  C   UNL A   1      45.191  28.733  34.574  1.00  0.00     0.173 A 
ATOM     88  F   UNL A   1      42.350  26.767  35.715  1.00  0.00    -0.203 F 
ATOM     89  C   UNL A   1      44.660  26.398  35.975  1.00  0.00     0.198 A 
ATOM     90  C   UNL A   1      46.239  27.944  35.038  1.00  0.00     0.198 A 
ATOM     91  F   UNL A   1      45.483  29.858  33.903  1.00  0.00    -0.203 F 
ATOM     92  F   UNL A   1      44.402  25.292  36.685  1.00  0.00    -0.200 F 
ATOM     93  C   UNL A   1      45.974  26.782  35.746  1.00  0.00     0.200 A 
ATOM     94  F   UNL A   1      47.507  28.307  34.798  1.00  0.00    -0.200 F 
ATOM     95  F   UNL A   1      46.984  26.036  36.215  1.00  0.00    -0.200 F 
ENDBRANCH  62  85
ENDBRANCH  36  37
ENDBRANCH  29  31
ENDBRANCH  28  29
ENDBRANCH  27  28
ENDBRANCH  26  27
ENDBRANCH  25  26
ENDBRANCH  24  25
ENDBRANCH   1  24
TORSDOF 20
ENDMDL
