MODEL 1
REMARK VINA RESULT:     -12.6      0.000      0.000
REMARK SMILES O=C(OCCOCCOC(=O)[C@@H](Cc1c[nH]c2ccccc12)Nc1ncnc2ccccc12)c1ccc(-c2c3nc(c(-c4c(F)c(F)c(F)c(F)c4F)c4ccc([nH]4)c(-c4c(F)c(F)c(F)c(F)c4F)c4nc(c(-c5c(F)c(F)c(F)c(F)c5F)c5ccc2[nH]5)C=C4)C=C3)cc1
REMARK SMILES IDX 6 1 5 2 4 3 3 4 2 5 1 6 34 7 35 8 96 9 36 10 95 11 37 12
REMARK SMILES IDX 38 13 39 14 89 15 40 16 94 17 88 18 90 19 41 20 93 21 87 22
REMARK SMILES IDX 86 23 42 25 74 26 54 27 73 28 55 29 58 30 72 31 91 32 56 33
REMARK SMILES IDX 57 34 71 36 92 37 59 38 43 39 44 40 52 41 45 42 46 43 50 44
REMARK SMILES IDX 53 45 47 46 48 47 51 48 49 49 75 50 76 51 84 52 77 53 78 54
REMARK SMILES IDX 82 55 85 56 79 57 80 58 83 59 81 60 60 61 61 62 69 63 62 64
REMARK SMILES IDX 63 65 67 66 70 67 64 68 65 69 68 70 66 71 7 72 8 73 9 74
REMARK SMILES IDX 10 75 11 76 12 77 13 78 14 79 15 80 22 81 16 82 17 83 21 84
REMARK SMILES IDX 18 86 20 87 19 88 23 89 24 91 25 92 33 93 26 94 28 95 32 96
REMARK SMILES IDX 27 97 29 98 31 99 30 100
REMARK H PARENT 90 24 58 35 16 85 23 90
REMARK Flexibility Score: inf
ROOT
ATOM      1  O   UNL A   1      32.888  27.163  26.188  1.00  0.00    -0.374 OA
ENDROOT
BRANCH   1   2
ATOM      2  C   UNL A   1      32.998  28.391  25.461  1.00  0.00     0.202 C 
BRANCH   2   3
ATOM      3  C   UNL A   1      32.061  29.568  25.810  1.00  0.00     0.261 C 
BRANCH   3   4
ATOM      4  O   UNL A   1      32.375  30.161  27.087  1.00  0.00    -0.460 OA
BRANCH   4   5
ATOM      5  C   UNL A   1      33.181  31.223  27.349  1.00  0.00     0.338 C 
ATOM      6  O   UNL A   1      32.787  32.359  27.114  1.00  0.00    -0.246 OA
BRANCH   5   7
ATOM      7  C   UNL A   1      34.543  31.035  27.916  1.00  0.00     0.060 A 
ATOM      8  C   UNL A   1      35.001  29.795  28.326  1.00  0.00     0.016 A 
ATOM      9  C   UNL A   1      35.428  32.116  28.005  1.00  0.00     0.016 A 
ATOM     10  C   UNL A   1      36.213  29.603  28.913  1.00  0.00     0.010 A 
ATOM     11  C   UNL A   1      36.720  31.925  28.519  1.00  0.00     0.010 A 
ATOM     12  C   UNL A   1      37.099  30.657  28.975  1.00  0.00    -0.014 A 
BRANCH  12  13
ATOM     13  C   UNL A   1      38.348  30.314  29.655  1.00  0.00     0.031 A 
ATOM     14  C   UNL A   1      38.491  30.739  31.077  1.00  0.00     0.074 A 
ATOM     15  C   UNL A   1      39.121  29.361  29.098  1.00  0.00     0.049 A 
ATOM     16  N   UNL A   1      39.472  30.522  31.903  1.00  0.00    -0.248 NA
ATOM     17  C   UNL A   1      37.360  31.485  31.661  1.00  0.00     0.031 C 
ATOM     18  C   UNL A   1      38.866  28.722  27.795  1.00  0.00     0.029 A 
ATOM     19  N   UNL A   1      40.207  28.690  29.580  1.00  0.00    -0.354 N 
ATOM     20  C   UNL A   1      39.104  31.146  33.084  1.00  0.00     0.074 A 
ATOM     21  C   UNL A   1      37.800  31.732  32.885  1.00  0.00     0.031 C 
ATOM     22  C   UNL A   1      39.744  27.727  27.611  1.00  0.00     0.029 A 
ATOM     23  C   UNL A   1      40.689  27.737  28.715  1.00  0.00     0.049 A 
ATOM     24  H   UNL A   1      40.607  28.873  30.461  1.00  0.00     0.167 HD
ATOM     25  C   UNL A   1      39.827  31.226  34.221  1.00  0.00     0.037 A 
ATOM     26  C   UNL A   1      41.814  27.006  28.797  1.00  0.00     0.037 A 
ATOM     27  C   UNL A   1      41.117  30.608  34.356  1.00  0.00     0.049 A 
ATOM     28  C   UNL A   1      42.666  27.225  30.017  1.00  0.00     0.074 A 
ATOM     29  C   UNL A   1      42.029  30.709  35.386  1.00  0.00     0.029 A 
ATOM     30  N   UNL A   1      41.670  29.755  33.405  1.00  0.00    -0.354 N 
ATOM     31  N   UNL A   1      42.409  27.951  31.081  1.00  0.00    -0.248 NA
ATOM     32  C   UNL A   1      43.969  26.558  30.041  1.00  0.00     0.031 C 
ATOM     33  C   UNL A   1      43.152  29.948  35.039  1.00  0.00     0.029 A 
ATOM     34  C   UNL A   1      42.917  29.330  33.818  1.00  0.00     0.049 A 
ATOM     35  H   UNL A   1      41.235  29.492  32.561  1.00  0.00     0.167 HD
ATOM     36  C   UNL A   1      43.515  27.830  31.904  1.00  0.00     0.074 A 
ATOM     37  C   UNL A   1      44.427  26.924  31.229  1.00  0.00     0.031 C 
ATOM     38  C   UNL A   1      43.773  28.419  33.098  1.00  0.00     0.037 A 
BRANCH  25  39
ATOM     39  C   UNL A   1      39.280  32.083  35.320  1.00  0.00     0.064 A 
ATOM     40  C   UNL A   1      39.545  33.459  35.401  1.00  0.00     0.173 A 
ATOM     41  C   UNL A   1      38.516  31.501  36.343  1.00  0.00     0.173 A 
ATOM     42  F   UNL A   1      40.310  34.054  34.474  1.00  0.00    -0.203 F 
ATOM     43  C   UNL A   1      39.077  34.215  36.474  1.00  0.00     0.198 A 
ATOM     44  C   UNL A   1      38.029  32.265  37.400  1.00  0.00     0.198 A 
ATOM     45  F   UNL A   1      38.256  30.185  36.326  1.00  0.00    -0.203 F 
ATOM     46  F   UNL A   1      39.389  35.515  36.562  1.00  0.00    -0.200 F 
ATOM     47  C   UNL A   1      38.315  33.619  37.468  1.00  0.00     0.200 A 
ATOM     48  F   UNL A   1      37.299  31.685  38.362  1.00  0.00    -0.200 F 
ATOM     49  F   UNL A   1      37.872  34.347  38.502  1.00  0.00    -0.200 F 
ENDBRANCH  25  39
BRANCH  26  50
ATOM     50  C   UNL A   1      42.246  26.132  27.670  1.00  0.00     0.064 A 
ATOM     51  C   UNL A   1      41.810  24.805  27.557  1.00  0.00     0.173 A 
ATOM     52  C   UNL A   1      43.153  26.596  26.701  1.00  0.00     0.173 A 
ATOM     53  F   UNL A   1      40.960  24.299  28.463  1.00  0.00    -0.203 F 
ATOM     54  C   UNL A   1      42.284  23.973  26.542  1.00  0.00     0.198 A 
ATOM     55  C   UNL A   1      43.595  25.776  25.665  1.00  0.00     0.198 A 
ATOM     56  F   UNL A   1      43.616  27.853  26.757  1.00  0.00    -0.203 F 
ATOM     57  F   UNL A   1      41.901  22.689  26.499  1.00  0.00    -0.200 F 
ATOM     58  C   UNL A   1      43.172  24.459  25.595  1.00  0.00     0.200 A 
ATOM     59  F   UNL A   1      44.441  26.260  24.745  1.00  0.00    -0.200 F 
ATOM     60  F   UNL A   1      43.635  23.657  24.627  1.00  0.00    -0.200 F 
ENDBRANCH  26  50
BRANCH  38  61
ATOM     61  C   UNL A   1      45.078  28.064  33.738  1.00  0.00     0.064 A 
ATOM     62  C   UNL A   1      46.235  28.822  33.511  1.00  0.00     0.173 A 
ATOM     63  C   UNL A   1      45.159  26.966  34.606  1.00  0.00     0.173 A 
ATOM     64  F   UNL A   1      46.204  29.870  32.673  1.00  0.00    -0.203 F 
ATOM     65  C   UNL A   1      47.441  28.470  34.107  1.00  0.00     0.198 A 
ATOM     66  C   UNL A   1      46.357  26.640  35.228  1.00  0.00     0.198 A 
ATOM     67  F   UNL A   1      44.073  26.218  34.856  1.00  0.00    -0.203 F 
ATOM     68  F   UNL A   1      48.549  29.169  33.832  1.00  0.00    -0.200 F 
ATOM     69  C   UNL A   1      47.499  27.386  34.971  1.00  0.00     0.200 A 
ATOM     70  F   UNL A   1      46.409  25.603  36.074  1.00  0.00    -0.200 F 
ATOM     71  F   UNL A   1      48.661  27.053  35.548  1.00  0.00    -0.200 F 
ENDBRANCH  38  61
ENDBRANCH  12  13
ENDBRANCH   5   7
ENDBRANCH   4   5
ENDBRANCH   3   4
ENDBRANCH   2   3
ENDBRANCH   1   2
BRANCH   1  72
ATOM     72  C   UNL A   1      33.651  26.049  25.715  1.00  0.00     0.202 C 
BRANCH  72  73
ATOM     73  C   UNL A   1      33.219  24.741  26.378  1.00  0.00     0.261 C 
BRANCH  73  74
ATOM     74  O   UNL A   1      31.841  24.851  26.764  1.00  0.00    -0.462 OA
BRANCH  74  75
ATOM     75  C   UNL A   1      31.098  23.739  26.545  1.00  0.00     0.329 C 
ATOM     76  O   UNL A   1      30.230  23.324  27.309  1.00  0.00    -0.250 OA
BRANCH  75  77
ATOM     77  C   UNL A   1      31.451  23.033  25.226  1.00  0.00     0.195 C 
BRANCH  77  78
ATOM     78  C   UNL A   1      31.470  21.486  25.154  1.00  0.00     0.074 C 
BRANCH  78  79
ATOM     79  C   UNL A   1      32.794  20.796  25.171  1.00  0.00    -0.020 A 
ATOM     80  C   UNL A   1      33.995  21.258  25.674  1.00  0.00     0.087 A 
ATOM     81  C   UNL A   1      33.072  19.543  24.553  1.00  0.00     0.003 A 
ATOM     82  N   UNL A   1      34.940  20.280  25.513  1.00  0.00    -0.361 N 
ATOM     83  C   UNL A   1      34.409  19.234  24.797  1.00  0.00     0.046 A 
ATOM     84  C   UNL A   1      32.297  18.656  23.785  1.00  0.00     0.010 A 
ATOM     85  H   UNL A   1      35.861  20.319  25.859  1.00  0.00     0.166 HD
ATOM     86  C   UNL A   1      35.004  18.058  24.333  1.00  0.00     0.026 A 
ATOM     87  C   UNL A   1      32.880  17.490  23.291  1.00  0.00     0.001 A 
ATOM     88  C   UNL A   1      34.211  17.194  23.569  1.00  0.00     0.002 A 
ENDBRANCH  78  79
ENDBRANCH  77  78
BRANCH  77  89
ATOM     89  N   UNL A   1      30.642  23.584  24.131  1.00  0.00    -0.356 N 
ATOM     90  H   UNL A   1      29.745  23.233  23.932  1.00  0.00     0.163 HD
BRANCH  89  91
ATOM     91  C   UNL A   1      31.193  24.619  23.390  1.00  0.00     0.137 A 
ATOM     92  N   UNL A   1      32.360  24.301  22.815  1.00  0.00    -0.219 NA
ATOM     93  C   UNL A   1      30.591  25.887  23.256  1.00  0.00     0.043 A 
ATOM     94  C   UNL A   1      32.917  25.246  22.055  1.00  0.00     0.224 A 
ATOM     95  C   UNL A   1      31.292  26.792  22.453  1.00  0.00     0.076 A 
ATOM     96  C   UNL A   1      29.385  26.313  23.880  1.00  0.00     0.014 A 
ATOM     97  N   UNL A   1      32.441  26.479  21.846  1.00  0.00    -0.236 NA
ATOM     98  C   UNL A   1      30.775  28.074  22.292  1.00  0.00     0.029 A 
ATOM     99  C   UNL A   1      28.872  27.591  23.682  1.00  0.00     0.001 A 
ATOM    100  C   UNL A   1      29.578  28.479  22.890  1.00  0.00     0.002 A 
ENDBRANCH  89  91
ENDBRANCH  77  89
ENDBRANCH  75  77
ENDBRANCH  74  75
ENDBRANCH  73  74
ENDBRANCH  72  73
ENDBRANCH   1  72
TORSDOF 18
ENDMDL
MODEL 2
REMARK VINA RESULT:     -12.6      0.699      7.229
REMARK SMILES O=C(OCCOCCOC(=O)[C@@H](Cc1c[nH]c2ccccc12)Nc1ncnc2ccccc12)c1ccc(-c2c3nc(c(-c4c(F)c(F)c(F)c(F)c4F)c4ccc([nH]4)c(-c4c(F)c(F)c(F)c(F)c4F)c4nc(c(-c5c(F)c(F)c(F)c(F)c5F)c5ccc2[nH]5)C=C4)C=C3)cc1
REMARK SMILES IDX 6 1 5 2 4 3 3 4 2 5 1 6 34 7 35 8 96 9 36 10 95 11 37 12
REMARK SMILES IDX 38 13 39 14 89 15 40 16 94 17 88 18 90 19 41 20 93 21 87 22
REMARK SMILES IDX 86 23 42 25 74 26 54 27 73 28 55 29 58 30 72 31 91 32 56 33
REMARK SMILES IDX 57 34 71 36 92 37 59 38 43 39 44 40 52 41 45 42 46 43 50 44
REMARK SMILES IDX 53 45 47 46 48 47 51 48 49 49 75 50 76 51 84 52 77 53 78 54
REMARK SMILES IDX 82 55 85 56 79 57 80 58 83 59 81 60 60 61 61 62 69 63 62 64
REMARK SMILES IDX 63 65 67 66 70 67 64 68 65 69 68 70 66 71 7 72 8 73 9 74
REMARK SMILES IDX 10 75 11 76 12 77 13 78 14 79 15 80 22 81 16 82 17 83 21 84
REMARK SMILES IDX 18 86 20 87 19 88 23 89 24 91 25 92 33 93 26 94 28 95 32 96
REMARK SMILES IDX 27 97 29 98 31 99 30 100
REMARK H PARENT 90 24 58 35 16 85 23 90
REMARK Flexibility Score: inf
ROOT
ATOM      1  O   UNL A   1      31.657  27.242  26.337  1.00  0.00    -0.374 OA
ENDROOT
BRANCH   1   2
ATOM      2  C   UNL A   1      31.796  28.542  26.921  1.00  0.00     0.202 C 
BRANCH   2   3
ATOM      3  C   UNL A   1      31.830  29.786  26.008  1.00  0.00     0.261 C 
BRANCH   3   4
ATOM      4  O   UNL A   1      33.097  30.474  26.063  1.00  0.00    -0.460 OA
BRANCH   4   5
ATOM      5  C   UNL A   1      33.565  31.304  27.033  1.00  0.00     0.338 C 
ATOM      6  O   UNL A   1      32.963  32.339  27.290  1.00  0.00    -0.246 OA
BRANCH   5   7
ATOM      7  C   UNL A   1      34.802  30.982  27.792  1.00  0.00     0.060 A 
ATOM      8  C   UNL A   1      35.056  29.708  28.271  1.00  0.00     0.016 A 
ATOM      9  C   UNL A   1      35.779  31.962  28.002  1.00  0.00     0.016 A 
ATOM     10  C   UNL A   1      36.143  29.398  29.028  1.00  0.00     0.010 A 
ATOM     11  C   UNL A   1      36.954  31.643  28.700  1.00  0.00     0.010 A 
ATOM     12  C   UNL A   1      37.122  30.352  29.213  1.00  0.00    -0.014 A 
BRANCH  12  13
ATOM     13  C   UNL A   1      38.214  29.889  30.069  1.00  0.00     0.031 A 
ATOM     14  C   UNL A   1      39.308  29.111  29.421  1.00  0.00     0.074 A 
ATOM     15  C   UNL A   1      38.350  30.472  31.277  1.00  0.00     0.049 A 
ATOM     16  N   UNL A   1      40.397  28.631  29.948  1.00  0.00    -0.248 NA
ATOM     17  C   UNL A   1      39.177  28.866  27.972  1.00  0.00     0.031 C 
ATOM     18  C   UNL A   1      37.414  31.454  31.851  1.00  0.00     0.029 A 
ATOM     19  N   UNL A   1      39.359  30.412  32.194  1.00  0.00    -0.354 N 
ATOM     20  C   UNL A   1      41.053  27.984  28.913  1.00  0.00     0.074 A 
ATOM     21  C   UNL A   1      40.260  28.148  27.718  1.00  0.00     0.031 C 
ATOM     22  C   UNL A   1      37.920  31.931  32.996  1.00  0.00     0.029 A 
ATOM     23  C   UNL A   1      39.145  31.207  33.295  1.00  0.00     0.049 A 
ATOM     24  H   UNL A   1      40.161  29.852  32.079  1.00  0.00     0.167 HD
ATOM     25  C   UNL A   1      42.212  27.297  28.989  1.00  0.00     0.037 A 
ATOM     26  C   UNL A   1      39.844  31.279  34.440  1.00  0.00     0.037 A 
ATOM     27  C   UNL A   1      42.958  27.182  30.211  1.00  0.00     0.049 A 
ATOM     28  C   UNL A   1      41.055  30.393  34.541  1.00  0.00     0.074 A 
ATOM     29  C   UNL A   1      44.071  26.415  30.485  1.00  0.00     0.029 A 
ATOM     30  N   UNL A   1      42.649  27.880  31.375  1.00  0.00    -0.354 N 
ATOM     31  N   UNL A   1      41.600  29.635  33.616  1.00  0.00    -0.248 NA
ATOM     32  C   UNL A   1      41.729  30.341  35.839  1.00  0.00     0.031 C 
ATOM     33  C   UNL A   1      44.412  26.618  31.827  1.00  0.00     0.029 A 
ATOM     34  C   UNL A   1      43.544  27.553  32.375  1.00  0.00     0.049 A 
ATOM     35  H   UNL A   1      41.902  28.515  31.471  1.00  0.00     0.167 HD
ATOM     36  C   UNL A   1      42.682  29.016  34.216  1.00  0.00     0.074 A 
ATOM     37  C   UNL A   1      42.737  29.523  35.576  1.00  0.00     0.031 C 
ATOM     38  C   UNL A   1      43.546  28.101  33.709  1.00  0.00     0.037 A 
BRANCH  25  39
ATOM     39  C   UNL A   1      42.649  26.556  27.764  1.00  0.00     0.064 A 
ATOM     40  C   UNL A   1      42.198  25.260  27.470  1.00  0.00     0.173 A 
ATOM     41  C   UNL A   1      43.580  27.140  26.891  1.00  0.00     0.173 A 
ATOM     42  F   UNL A   1      41.344  24.639  28.297  1.00  0.00    -0.203 F 
ATOM     43  C   UNL A   1      42.677  24.572  26.357  1.00  0.00     0.198 A 
ATOM     44  C   UNL A   1      44.037  26.459  25.766  1.00  0.00     0.198 A 
ATOM     45  F   UNL A   1      44.062  28.367  27.141  1.00  0.00    -0.203 F 
ATOM     46  F   UNL A   1      42.276  23.314  26.125  1.00  0.00    -0.200 F 
ATOM     47  C   UNL A   1      43.589  25.174  25.503  1.00  0.00     0.200 A 
ATOM     48  F   UNL A   1      44.924  27.041  24.948  1.00  0.00    -0.200 F 
ATOM     49  F   UNL A   1      44.053  24.508  24.437  1.00  0.00    -0.200 F 
ENDBRANCH  25  39
BRANCH  26  50
ATOM     50  C   UNL A   1      39.357  32.095  35.588  1.00  0.00     0.064 A 
ATOM     51  C   UNL A   1      39.794  33.409  35.796  1.00  0.00     0.173 A 
ATOM     52  C   UNL A   1      38.471  31.553  36.537  1.00  0.00     0.173 A 
ATOM     53  F   UNL A   1      40.655  33.974  34.936  1.00  0.00    -0.203 F 
ATOM     54  C   UNL A   1      39.392  34.135  36.919  1.00  0.00     0.198 A 
ATOM     55  C   UNL A   1      38.040  32.292  37.636  1.00  0.00     0.198 A 
ATOM     56  F   UNL A   1      38.022  30.296  36.401  1.00  0.00    -0.203 F 
ATOM     57  F   UNL A   1      39.881  35.366  37.127  1.00  0.00    -0.200 F 
ATOM     58  C   UNL A   1      38.513  33.578  37.835  1.00  0.00     0.200 A 
ATOM     59  F   UNL A   1      37.177  31.751  38.507  1.00  0.00    -0.200 F 
ATOM     60  F   UNL A   1      38.135  34.272  38.917  1.00  0.00    -0.200 F 
ENDBRANCH  26  50
BRANCH  38  61
ATOM     61  C   UNL A   1      44.625  27.632  34.634  1.00  0.00     0.064 A 
ATOM     62  C   UNL A   1      45.847  28.310  34.736  1.00  0.00     0.173 A 
ATOM     63  C   UNL A   1      44.417  26.504  35.441  1.00  0.00     0.173 A 
ATOM     64  F   UNL A   1      46.093  29.382  33.968  1.00  0.00    -0.203 F 
ATOM     65  C   UNL A   1      46.841  27.852  35.594  1.00  0.00     0.198 A 
ATOM     66  C   UNL A   1      45.398  26.073  36.323  1.00  0.00     0.198 A 
ATOM     67  F   UNL A   1      43.258  25.831  35.379  1.00  0.00    -0.203 F 
ATOM     68  F   UNL A   1      48.025  28.476  35.635  1.00  0.00    -0.200 F 
ATOM     69  C   UNL A   1      46.613  26.740  36.392  1.00  0.00     0.200 A 
ATOM     70  F   UNL A   1      45.172  25.009  37.105  1.00  0.00    -0.200 F 
ATOM     71  F   UNL A   1      47.570  26.305  37.222  1.00  0.00    -0.200 F 
ENDBRANCH  38  61
ENDBRANCH  12  13
ENDBRANCH   5   7
ENDBRANCH   4   5
ENDBRANCH   3   4
ENDBRANCH   2   3
ENDBRANCH   1   2
BRANCH   1  72
ATOM     72  C   UNL A   1      32.854  26.489  26.119  1.00  0.00     0.202 C 
BRANCH  72  73
ATOM     73  C   UNL A   1      32.649  25.000  26.403  1.00  0.00     0.261 C 
BRANCH  73  74
ATOM     74  O   UNL A   1      31.344  24.814  26.972  1.00  0.00    -0.462 OA
BRANCH  74  75
ATOM     75  C   UNL A   1      30.748  23.638  26.655  1.00  0.00     0.329 C 
ATOM     76  O   UNL A   1      29.890  23.089  27.342  1.00  0.00    -0.250 OA
BRANCH  75  77
ATOM     77  C   UNL A   1      31.259  23.045  25.332  1.00  0.00     0.195 C 
BRANCH  77  78
ATOM     78  C   UNL A   1      31.421  21.513  25.178  1.00  0.00     0.074 C 
BRANCH  78  79
ATOM     79  C   UNL A   1      32.802  20.945  25.195  1.00  0.00    -0.020 A 
ATOM     80  C   UNL A   1      33.977  21.560  25.583  1.00  0.00     0.087 A 
ATOM     81  C   UNL A   1      33.166  19.662  24.695  1.00  0.00     0.003 A 
ATOM     82  N   UNL A   1      34.999  20.655  25.473  1.00  0.00    -0.361 N 
ATOM     83  C   UNL A   1      34.535  19.498  24.897  1.00  0.00     0.046 A 
ATOM     84  C   UNL A   1      32.442  18.635  24.065  1.00  0.00     0.010 A 
ATOM     85  H   UNL A   1      35.927  20.811  25.762  1.00  0.00     0.166 HD
ATOM     86  C   UNL A   1      35.213  18.334  24.525  1.00  0.00     0.026 A 
ATOM     87  C   UNL A   1      33.106  17.477  23.663  1.00  0.00     0.001 A 
ATOM     88  C   UNL A   1      34.470  17.328  23.898  1.00  0.00     0.002 A 
ENDBRANCH  78  79
ENDBRANCH  77  78
BRANCH  77  89
ATOM     89  N   UNL A   1      30.486  23.590  24.209  1.00  0.00    -0.356 N 
ATOM     90  H   UNL A   1      29.597  23.236  23.980  1.00  0.00     0.163 HD
BRANCH  89  91
ATOM     91  C   UNL A   1      31.059  24.625  23.483  1.00  0.00     0.137 A 
ATOM     92  N   UNL A   1      32.242  24.305  22.944  1.00  0.00    -0.219 NA
ATOM     93  C   UNL A   1      30.461  25.892  23.329  1.00  0.00     0.043 A 
ATOM     94  C   UNL A   1      32.822  25.249  22.199  1.00  0.00     0.224 A 
ATOM     95  C   UNL A   1      31.187  26.796  22.545  1.00  0.00     0.076 A 
ATOM     96  C   UNL A   1      29.238  26.320  23.916  1.00  0.00     0.014 A 
ATOM     97  N   UNL A   1      32.353  26.482  21.974  1.00  0.00    -0.236 NA
ATOM     98  C   UNL A   1      30.676  28.077  22.367  1.00  0.00     0.029 A 
ATOM     99  C   UNL A   1      28.731  27.597  23.701  1.00  0.00     0.001 A 
ATOM    100  C   UNL A   1      29.461  28.484  22.929  1.00  0.00     0.002 A 
ENDBRANCH  89  91
ENDBRANCH  77  89
ENDBRANCH  75  77
ENDBRANCH  74  75
ENDBRANCH  73  74
ENDBRANCH  72  73
ENDBRANCH   1  72
TORSDOF 18
ENDMDL
MODEL 3
REMARK VINA RESULT:     -12.6      1.206      7.409
REMARK SMILES O=C(OCCOCCOC(=O)[C@@H](Cc1c[nH]c2ccccc12)Nc1ncnc2ccccc12)c1ccc(-c2c3nc(c(-c4c(F)c(F)c(F)c(F)c4F)c4ccc([nH]4)c(-c4c(F)c(F)c(F)c(F)c4F)c4nc(c(-c5c(F)c(F)c(F)c(F)c5F)c5ccc2[nH]5)C=C4)C=C3)cc1
REMARK SMILES IDX 6 1 5 2 4 3 3 4 2 5 1 6 34 7 35 8 96 9 36 10 95 11 37 12
REMARK SMILES IDX 38 13 39 14 89 15 40 16 94 17 88 18 90 19 41 20 93 21 87 22
REMARK SMILES IDX 86 23 42 25 74 26 54 27 73 28 55 29 58 30 72 31 91 32 56 33
REMARK SMILES IDX 57 34 71 36 92 37 59 38 43 39 44 40 52 41 45 42 46 43 50 44
REMARK SMILES IDX 53 45 47 46 48 47 51 48 49 49 75 50 76 51 84 52 77 53 78 54
REMARK SMILES IDX 82 55 85 56 79 57 80 58 83 59 81 60 60 61 61 62 69 63 62 64
REMARK SMILES IDX 63 65 67 66 70 67 64 68 65 69 68 70 66 71 7 72 8 73 9 74
REMARK SMILES IDX 10 75 11 76 12 77 13 78 14 79 15 80 22 81 16 82 17 83 21 84
REMARK SMILES IDX 18 86 20 87 19 88 23 89 24 91 25 92 33 93 26 94 28 95 32 96
REMARK SMILES IDX 27 97 29 98 31 99 30 100
REMARK H PARENT 90 24 58 35 16 85 23 90
REMARK Flexibility Score: inf
ROOT
ATOM      1  O   UNL A   1      31.727  27.191  26.547  1.00  0.00    -0.374 OA
ENDROOT
BRANCH   1   2
ATOM      2  C   UNL A   1      31.766  28.508  27.106  1.00  0.00     0.202 C 
BRANCH   2   3
ATOM      3  C   UNL A   1      31.837  29.731  26.167  1.00  0.00     0.261 C 
BRANCH   3   4
ATOM      4  O   UNL A   1      33.141  30.351  26.170  1.00  0.00    -0.460 OA
BRANCH   4   5
ATOM      5  C   UNL A   1      33.655  31.228  27.072  1.00  0.00     0.338 C 
ATOM      6  O   UNL A   1      33.108  32.310  27.250  1.00  0.00    -0.246 OA
BRANCH   5   7
ATOM      7  C   UNL A   1      34.878  30.903  27.852  1.00  0.00     0.060 A 
ATOM      8  C   UNL A   1      35.088  29.647  28.393  1.00  0.00     0.016 A 
ATOM      9  C   UNL A   1      35.887  31.859  28.019  1.00  0.00     0.016 A 
ATOM     10  C   UNL A   1      36.162  29.338  29.171  1.00  0.00     0.010 A 
ATOM     11  C   UNL A   1      37.049  31.536  28.737  1.00  0.00     0.010 A 
ATOM     12  C   UNL A   1      37.172  30.266  29.313  1.00  0.00    -0.014 A 
BRANCH  12  13
ATOM     13  C   UNL A   1      38.245  29.810  30.196  1.00  0.00     0.031 A 
ATOM     14  C   UNL A   1      39.347  29.018  29.579  1.00  0.00     0.074 A 
ATOM     15  C   UNL A   1      38.361  30.408  31.398  1.00  0.00     0.049 A 
ATOM     16  N   UNL A   1      40.423  28.541  30.133  1.00  0.00    -0.248 NA
ATOM     17  C   UNL A   1      39.242  28.754  28.131  1.00  0.00     0.031 C 
ATOM     18  C   UNL A   1      37.419  31.402  31.941  1.00  0.00     0.029 A 
ATOM     19  N   UNL A   1      39.351  30.355  32.336  1.00  0.00    -0.354 N 
ATOM     20  C   UNL A   1      41.096  27.877  29.119  1.00  0.00     0.074 A 
ATOM     21  C   UNL A   1      40.327  28.029  27.907  1.00  0.00     0.031 C 
ATOM     22  C   UNL A   1      37.905  31.892  33.090  1.00  0.00     0.029 A 
ATOM     23  C   UNL A   1      39.121  31.166  33.421  1.00  0.00     0.049 A 
ATOM     24  H   UNL A   1      40.153  29.791  32.243  1.00  0.00     0.167 HD
ATOM     25  C   UNL A   1      42.250  27.185  29.226  1.00  0.00     0.037 A 
ATOM     26  C   UNL A   1      39.798  31.250  34.579  1.00  0.00     0.037 A 
ATOM     27  C   UNL A   1      42.972  27.083  30.464  1.00  0.00     0.049 A 
ATOM     28  C   UNL A   1      41.003  30.359  34.714  1.00  0.00     0.074 A 
ATOM     29  C   UNL A   1      44.076  26.315  30.769  1.00  0.00     0.029 A 
ATOM     30  N   UNL A   1      42.644  27.798  31.612  1.00  0.00    -0.354 N 
ATOM     31  N   UNL A   1      41.562  29.587  33.809  1.00  0.00    -0.248 NA
ATOM     32  C   UNL A   1      41.651  30.321  36.025  1.00  0.00     0.031 C 
ATOM     33  C   UNL A   1      44.392  26.534  32.115  1.00  0.00     0.029 A 
ATOM     34  C   UNL A   1      43.518  27.480  32.634  1.00  0.00     0.049 A 
ATOM     35  H   UNL A   1      41.899  28.437  31.686  1.00  0.00     0.167 HD
ATOM     36  C   UNL A   1      42.629  28.972  34.439  1.00  0.00     0.074 A 
ATOM     37  C   UNL A   1      42.661  29.496  35.792  1.00  0.00     0.031 C 
ATOM     38  C   UNL A   1      43.498  28.046  33.960  1.00  0.00     0.037 A 
BRANCH  25  39
ATOM     39  C   UNL A   1      42.706  26.426  28.019  1.00  0.00     0.064 A 
ATOM     40  C   UNL A   1      43.542  26.995  27.046  1.00  0.00     0.173 A 
ATOM     41  C   UNL A   1      42.253  25.115  27.809  1.00  0.00     0.173 A 
ATOM     42  F   UNL A   1      43.964  28.261  27.176  1.00  0.00    -0.203 F 
ATOM     43  C   UNL A   1      43.892  26.283  25.900  1.00  0.00     0.198 A 
ATOM     44  C   UNL A   1      42.626  24.398  26.675  1.00  0.00     0.198 A 
ATOM     45  F   UNL A   1      41.432  24.534  28.697  1.00  0.00    -0.203 F 
ATOM     46  F   UNL A   1      44.645  26.865  24.956  1.00  0.00    -0.200 F 
ATOM     47  C   UNL A   1      43.440  24.985  25.720  1.00  0.00     0.200 A 
ATOM     48  F   UNL A   1      42.181  23.146  26.501  1.00  0.00    -0.200 F 
ATOM     49  F   UNL A   1      43.773  24.305  24.614  1.00  0.00    -0.200 F 
ENDBRANCH  25  39
BRANCH  26  50
ATOM     50  C   UNL A   1      39.293  32.083  35.706  1.00  0.00     0.064 A 
ATOM     51  C   UNL A   1      39.759  33.386  35.926  1.00  0.00     0.173 A 
ATOM     52  C   UNL A   1      38.360  31.569  36.624  1.00  0.00     0.173 A 
ATOM     53  F   UNL A   1      40.664  33.924  35.096  1.00  0.00    -0.203 F 
ATOM     54  C   UNL A   1      39.337  34.126  37.032  1.00  0.00     0.198 A 
ATOM     55  C   UNL A   1      37.910  32.324  37.705  1.00  0.00     0.198 A 
ATOM     56  F   UNL A   1      37.882  30.325  36.476  1.00  0.00    -0.203 F 
ATOM     57  F   UNL A   1      39.851  35.344  37.254  1.00  0.00    -0.200 F 
ATOM     58  C   UNL A   1      38.411  33.597  37.917  1.00  0.00     0.200 A 
ATOM     59  F   UNL A   1      37.003  31.809  38.547  1.00  0.00    -0.200 F 
ATOM     60  F   UNL A   1      38.014  34.306  38.983  1.00  0.00    -0.200 F 
ENDBRANCH  26  50
BRANCH  38  61
ATOM     61  C   UNL A   1      44.557  27.584  34.912  1.00  0.00     0.064 A 
ATOM     62  C   UNL A   1      44.345  26.495  35.768  1.00  0.00     0.173 A 
ATOM     63  C   UNL A   1      45.801  28.228  34.944  1.00  0.00     0.173 A 
ATOM     64  F   UNL A   1      43.162  25.862  35.781  1.00  0.00    -0.203 F 
ATOM     65  C   UNL A   1      45.338  26.087  36.652  1.00  0.00     0.198 A 
ATOM     66  C   UNL A   1      46.802  27.794  35.803  1.00  0.00     0.198 A 
ATOM     67  F   UNL A   1      46.046  29.270  34.136  1.00  0.00    -0.203 F 
ATOM     68  F   UNL A   1      45.098  25.083  37.506  1.00  0.00    -0.200 F 
ATOM     69  C   UNL A   1      46.567  26.731  36.664  1.00  0.00     0.200 A 
ATOM     70  F   UNL A   1      47.994  28.406  35.802  1.00  0.00    -0.200 F 
ATOM     71  F   UNL A   1      47.523  26.332  37.512  1.00  0.00    -0.200 F 
ENDBRANCH  38  61
ENDBRANCH  12  13
ENDBRANCH   5   7
ENDBRANCH   4   5
ENDBRANCH   3   4
ENDBRANCH   2   3
ENDBRANCH   1   2
BRANCH   1  72
ATOM     72  C   UNL A   1      32.970  26.494  26.420  1.00  0.00     0.202 C 
BRANCH  72  73
ATOM     73  C   UNL A   1      32.769  24.980  26.352  1.00  0.00     0.261 C 
BRANCH  73  74
ATOM     74  O   UNL A   1      31.396  24.682  26.651  1.00  0.00    -0.462 OA
BRANCH  74  75
ATOM     75  C   UNL A   1      30.889  23.612  25.991  1.00  0.00     0.329 C 
ATOM     76  O   UNL A   1      30.167  22.760  26.502  1.00  0.00    -0.250 OA
BRANCH  75  77
ATOM     77  C   UNL A   1      31.313  23.564  24.514  1.00  0.00     0.195 C 
BRANCH  77  78
ATOM     78  C   UNL A   1      31.796  22.233  23.886  1.00  0.00     0.074 C 
BRANCH  78  79
ATOM     79  C   UNL A   1      32.964  21.543  24.508  1.00  0.00    -0.020 A 
ATOM     80  C   UNL A   1      32.962  20.554  25.472  1.00  0.00     0.087 A 
ATOM     81  C   UNL A   1      34.330  21.878  24.280  1.00  0.00     0.003 A 
ATOM     82  N   UNL A   1      34.257  20.184  25.721  1.00  0.00    -0.361 N 
ATOM     83  C   UNL A   1      35.115  21.006  25.030  1.00  0.00     0.046 A 
ATOM     84  C   UNL A   1      34.961  22.871  23.509  1.00  0.00     0.010 A 
ATOM     85  H   UNL A   1      34.532  19.442  26.307  1.00  0.00     0.166 HD
ATOM     86  C   UNL A   1      36.511  21.058  25.024  1.00  0.00     0.026 A 
ATOM     87  C   UNL A   1      36.352  22.956  23.509  1.00  0.00     0.001 A 
ATOM     88  C   UNL A   1      37.114  22.056  24.250  1.00  0.00     0.002 A 
ENDBRANCH  78  79
ENDBRANCH  77  78
BRANCH  77  89
ATOM     89  N   UNL A   1      30.273  24.175  23.675  1.00  0.00    -0.356 N 
ATOM     90  H   UNL A   1      29.600  23.625  23.215  1.00  0.00     0.163 HD
BRANCH  89  91
ATOM     91  C   UNL A   1      30.278  25.557  23.559  1.00  0.00     0.137 A 
ATOM     92  N   UNL A   1      29.103  26.122  23.865  1.00  0.00    -0.219 NA
ATOM     93  C   UNL A   1      31.406  26.300  23.154  1.00  0.00     0.043 A 
ATOM     94  C   UNL A   1      29.061  27.455  23.811  1.00  0.00     0.224 A 
ATOM     95  C   UNL A   1      31.217  27.686  23.116  1.00  0.00     0.076 A 
ATOM     96  C   UNL A   1      32.665  25.767  22.761  1.00  0.00     0.014 A 
ATOM     97  N   UNL A   1      30.061  28.267  23.449  1.00  0.00    -0.236 NA
ATOM     98  C   UNL A   1      32.276  28.487  22.700  1.00  0.00     0.029 A 
ATOM     99  C   UNL A   1      33.719  26.589  22.377  1.00  0.00     0.001 A 
ATOM    100  C   UNL A   1      33.518  27.958  22.338  1.00  0.00     0.002 A 
ENDBRANCH  89  91
ENDBRANCH  77  89
ENDBRANCH  75  77
ENDBRANCH  74  75
ENDBRANCH  73  74
ENDBRANCH  72  73
ENDBRANCH   1  72
TORSDOF 18
ENDMDL
