MODEL 1
REMARK VINA RESULT:     -12.3      0.000      0.000
REMARK SMILES O=C(Cc1cncnc1N1CCC2(CC1)OCCC[C@@H]2O)OCCOCCOC(=O)c1ccc(-c2c3nc(c(-c4c(F)c(F)c(F)c(F)c4F)c4ccc([nH]4)c(-c4c(F)c(F)c(F)c(F)c4F)c4nc(c(-c5c(F)c(F)c(F)c(F)c5F)c5ccc2[nH]5)C=C4)C=C3)cc1
REMARK SMILES IDX 24 1 23 2 22 3 2 4 1 5 3 6 4 7 5 8 9 9 6 10 8 11 7 12 10 13
REMARK SMILES IDX 11 14 15 15 12 16 14 17 13 18 16 19 20 20 17 21 19 22 18 23
REMARK SMILES IDX 21 24 25 26 26 27 27 28 28 29 29 30 30 31 31 32 32 33 93 34
REMARK SMILES IDX 33 35 92 36 34 37 35 38 36 39 86 40 37 41 91 42 85 43 87 44
REMARK SMILES IDX 38 45 90 46 84 47 83 48 39 50 71 51 51 52 70 53 52 54 55 55
REMARK SMILES IDX 69 56 88 57 53 58 54 59 68 61 89 62 56 63 40 64 41 65 49 66
REMARK SMILES IDX 42 67 43 68 47 69 50 70 44 71 45 72 48 73 46 74 72 75 73 76
REMARK SMILES IDX 81 77 74 78 75 79 79 80 82 81 76 82 77 83 80 84 78 85 57 86
REMARK SMILES IDX 58 87 66 88 59 89 60 90 64 91 67 92 61 93 62 94 65 95 63 96
REMARK H PARENT 21 25 87 49 55 60
REMARK Flexibility Score: inf
ROOT
ATOM      1  C   UNL A   1      40.472  20.639  26.584  1.00  0.00     0.202 C 
ENDROOT
BRANCH   1   2
ATOM      2  C   UNL A   1      39.649  21.905  26.364  1.00  0.00     0.261 C 
BRANCH   2   3
ATOM      3  O   UNL A   1      38.377  21.655  25.757  1.00  0.00    -0.463 OA
BRANCH   3   4
ATOM      4  C   UNL A   1      37.609  22.706  25.401  1.00  0.00     0.310 C 
ATOM      5  O   UNL A   1      37.669  23.745  26.056  1.00  0.00    -0.252 OA
BRANCH   4   6
ATOM      6  C   UNL A   1      36.714  22.551  24.179  1.00  0.00     0.163 C 
BRANCH   6   7
ATOM      7  C   UNL A   1      35.393  21.917  24.468  1.00  0.00     0.024 A 
ATOM      8  C   UNL A   1      35.333  20.596  24.885  1.00  0.00     0.121 A 
ATOM      9  C   UNL A   1      34.183  22.577  24.321  1.00  0.00     0.135 A 
ATOM     10  N   UNL A   1      34.193  19.910  25.029  1.00  0.00    -0.244 NA
ATOM     11  N   UNL A   1      33.020  21.923  24.489  1.00  0.00    -0.219 NA
ATOM     12  C   UNL A   1      33.083  20.617  24.795  1.00  0.00     0.224 A 
BRANCH   9  13
ATOM     13  N   UNL A   1      34.138  23.942  24.192  1.00  0.00    -0.356 N 
ATOM     14  C   UNL A   1      33.819  24.478  22.884  1.00  0.00     0.121 C 
ATOM     15  C   UNL A   1      34.513  24.906  25.211  1.00  0.00     0.121 C 
ATOM     16  C   UNL A   1      32.596  25.376  23.053  1.00  0.00     0.060 C 
ATOM     17  C   UNL A   1      33.347  25.880  25.424  1.00  0.00     0.060 C 
ATOM     18  C   UNL A   1      32.828  26.491  24.106  1.00  0.00     0.097 C 
ATOM     19  O   UNL A   1      33.853  27.418  23.706  1.00  0.00    -0.372 OA
ATOM     20  C   UNL A   1      31.493  27.253  24.366  1.00  0.00     0.146 C 
ATOM     21  C   UNL A   1      33.552  28.206  22.562  1.00  0.00     0.161 C 
ATOM     22  C   UNL A   1      31.114  28.140  23.181  1.00  0.00     0.037 C 
ATOM     23  C   UNL A   1      32.287  29.025  22.769  1.00  0.00     0.031 C 
BRANCH  20  24
ATOM     24  O   UNL A   1      31.582  28.093  25.522  1.00  0.00    -0.390 OA
ATOM     25  H   UNL A   1      31.528  29.023  25.252  1.00  0.00     0.211 HD
ENDBRANCH  20  24
ENDBRANCH   9  13
ENDBRANCH   6   7
ENDBRANCH   4   6
ENDBRANCH   3   4
ENDBRANCH   2   3
ENDBRANCH   1   2
BRANCH   1  26
ATOM     26  O   UNL A   1      41.570  20.391  25.714  1.00  0.00    -0.374 OA
BRANCH  26  27
ATOM     27  C   UNL A   1      42.894  20.769  26.121  1.00  0.00     0.202 C 
BRANCH  27  28
ATOM     28  C   UNL A   1      43.702  21.885  25.435  1.00  0.00     0.261 C 
BRANCH  28  29
ATOM     29  O   UNL A   1      42.956  23.032  25.032  1.00  0.00    -0.460 OA
BRANCH  29  30
ATOM     30  C   UNL A   1      43.652  24.188  25.109  1.00  0.00     0.338 C 
ATOM     31  O   UNL A   1      44.624  24.512  24.439  1.00  0.00    -0.246 OA
BRANCH  30  32
ATOM     32  C   UNL A   1      42.920  25.133  25.969  1.00  0.00     0.060 A 
ATOM     33  C   UNL A   1      43.416  26.440  26.063  1.00  0.00     0.016 A 
ATOM     34  C   UNL A   1      41.777  24.748  26.673  1.00  0.00     0.016 A 
ATOM     35  C   UNL A   1      42.811  27.355  26.912  1.00  0.00     0.010 A 
ATOM     36  C   UNL A   1      41.185  25.657  27.547  1.00  0.00     0.010 A 
ATOM     37  C   UNL A   1      41.735  26.943  27.703  1.00  0.00    -0.014 A 
BRANCH  37  38
ATOM     38  C   UNL A   1      41.342  27.772  28.858  1.00  0.00     0.031 A 
ATOM     39  C   UNL A   1      42.147  27.640  30.120  1.00  0.00     0.074 A 
ATOM     40  C   UNL A   1      40.322  28.639  28.770  1.00  0.00     0.049 A 
ATOM     41  N   UNL A   1      41.968  28.206  31.284  1.00  0.00    -0.248 NA
ATOM     42  C   UNL A   1      43.309  26.737  30.062  1.00  0.00     0.031 C 
ATOM     43  C   UNL A   1      39.516  28.874  27.575  1.00  0.00     0.029 A 
ATOM     44  N   UNL A   1      39.785  29.474  29.714  1.00  0.00    -0.354 N 
ATOM     45  C   UNL A   1      42.982  27.715  32.097  1.00  0.00     0.074 A 
ATOM     46  C   UNL A   1      43.754  26.784  31.307  1.00  0.00     0.031 C 
ATOM     47  C   UNL A   1      38.570  29.785  27.863  1.00  0.00     0.029 A 
ATOM     48  C   UNL A   1      38.686  30.162  29.270  1.00  0.00     0.049 A 
ATOM     49  H   UNL A   1      40.154  29.571  30.623  1.00  0.00     0.167 HD
ATOM     50  C   UNL A   1      43.242  28.024  33.389  1.00  0.00     0.037 A 
ATOM     51  C   UNL A   1      37.853  30.978  29.943  1.00  0.00     0.037 A 
ATOM     52  C   UNL A   1      42.463  28.957  34.156  1.00  0.00     0.049 A 
ATOM     53  C   UNL A   1      38.126  31.255  31.398  1.00  0.00     0.074 A 
ATOM     54  C   UNL A   1      42.648  29.365  35.464  1.00  0.00     0.029 A 
ATOM     55  N   UNL A   1      41.339  29.621  33.683  1.00  0.00    -0.354 N 
ATOM     56  N   UNL A   1      39.097  30.809  32.160  1.00  0.00    -0.248 NA
ATOM     57  C   UNL A   1      37.191  32.153  32.087  1.00  0.00     0.031 C 
ATOM     58  C   UNL A   1      41.600  30.226  35.803  1.00  0.00     0.029 A 
ATOM     59  C   UNL A   1      40.801  30.412  34.684  1.00  0.00     0.049 A 
ATOM     60  H   UNL A   1      40.979  29.540  32.770  1.00  0.00     0.167 HD
ATOM     61  C   UNL A   1      38.908  31.394  33.407  1.00  0.00     0.074 A 
ATOM     62  C   UNL A   1      37.737  32.239  33.292  1.00  0.00     0.031 C 
ATOM     63  C   UNL A   1      39.636  31.249  34.541  1.00  0.00     0.037 A 
BRANCH  50  64
ATOM     64  C   UNL A   1      44.388  27.321  34.056  1.00  0.00     0.064 A 
ATOM     65  C   UNL A   1      45.670  27.886  34.125  1.00  0.00     0.173 A 
ATOM     66  C   UNL A   1      44.193  26.068  34.657  1.00  0.00     0.173 A 
ATOM     67  F   UNL A   1      45.919  29.073  33.551  1.00  0.00    -0.203 F 
ATOM     68  C   UNL A   1      46.718  27.214  34.751  1.00  0.00     0.198 A 
ATOM     69  C   UNL A   1      45.234  25.414  35.310  1.00  0.00     0.198 A 
ATOM     70  F   UNL A   1      42.988  25.480  34.617  1.00  0.00    -0.203 F 
ATOM     71  F   UNL A   1      47.946  27.750  34.761  1.00  0.00    -0.200 F 
ATOM     72  C   UNL A   1      46.497  25.982  35.350  1.00  0.00     0.200 A 
ATOM     73  F   UNL A   1      45.014  24.230  35.899  1.00  0.00    -0.200 F 
ATOM     74  F   UNL A   1      47.503  25.342  35.959  1.00  0.00    -0.200 F 
ENDBRANCH  50  64
BRANCH  51  75
ATOM     75  C   UNL A   1      36.682  31.576  29.251  1.00  0.00     0.064 A 
ATOM     76  C   UNL A   1      36.642  32.942  28.941  1.00  0.00     0.173 A 
ATOM     77  C   UNL A   1      35.576  30.793  28.887  1.00  0.00     0.173 A 
ATOM     78  F   UNL A   1      37.666  33.737  29.288  1.00  0.00    -0.203 F 
ATOM     79  C   UNL A   1      35.533  33.506  28.312  1.00  0.00     0.198 A 
ATOM     80  C   UNL A   1      34.482  31.352  28.229  1.00  0.00     0.198 A 
ATOM     81  F   UNL A   1      35.562  29.480  29.158  1.00  0.00    -0.203 F 
ATOM     82  F   UNL A   1      35.502  34.824  28.071  1.00  0.00    -0.200 F 
ATOM     83  C   UNL A   1      34.458  32.710  27.950  1.00  0.00     0.200 A 
ATOM     84  F   UNL A   1      33.451  30.575  27.869  1.00  0.00    -0.200 F 
ATOM     85  F   UNL A   1      33.394  33.252  27.341  1.00  0.00    -0.200 F 
ENDBRANCH  51  75
BRANCH  63  86
ATOM     86  C   UNL A   1      39.214  32.053  35.738  1.00  0.00     0.064 A 
ATOM     87  C   UNL A   1      39.625  33.382  35.920  1.00  0.00     0.173 A 
ATOM     88  C   UNL A   1      38.347  31.497  36.692  1.00  0.00     0.173 A 
ATOM     89  F   UNL A   1      40.462  33.956  35.043  1.00  0.00    -0.203 F 
ATOM     90  C   UNL A   1      39.207  34.113  37.029  1.00  0.00     0.198 A 
ATOM     91  C   UNL A   1      37.903  32.243  37.779  1.00  0.00     0.198 A 
ATOM     92  F   UNL A   1      37.915  30.234  36.559  1.00  0.00    -0.203 F 
ATOM     93  F   UNL A   1      39.656  35.362  37.211  1.00  0.00    -0.200 F 
ATOM     94  C   UNL A   1      38.341  33.547  37.952  1.00  0.00     0.200 A 
ATOM     95  F   UNL A   1      37.050  31.700  38.658  1.00  0.00    -0.200 F 
ATOM     96  F   UNL A   1      37.933  34.256  39.013  1.00  0.00    -0.200 F 
ENDBRANCH  63  86
ENDBRANCH  37  38
ENDBRANCH  30  32
ENDBRANCH  29  30
ENDBRANCH  28  29
ENDBRANCH  27  28
ENDBRANCH  26  27
ENDBRANCH   1  26
TORSDOF 17
ENDMDL
MODEL 2
REMARK VINA RESULT:     -12.1      4.561      7.284
REMARK SMILES O=C(Cc1cncnc1N1CCC2(CC1)OCCC[C@@H]2O)OCCOCCOC(=O)c1ccc(-c2c3nc(c(-c4c(F)c(F)c(F)c(F)c4F)c4ccc([nH]4)c(-c4c(F)c(F)c(F)c(F)c4F)c4nc(c(-c5c(F)c(F)c(F)c(F)c5F)c5ccc2[nH]5)C=C4)C=C3)cc1
REMARK SMILES IDX 24 1 23 2 22 3 2 4 1 5 3 6 4 7 5 8 9 9 6 10 8 11 7 12 10 13
REMARK SMILES IDX 11 14 15 15 12 16 14 17 13 18 16 19 20 20 17 21 19 22 18 23
REMARK SMILES IDX 21 24 25 26 26 27 27 28 28 29 29 30 30 31 31 32 32 33 93 34
REMARK SMILES IDX 33 35 92 36 34 37 35 38 36 39 86 40 37 41 91 42 85 43 87 44
REMARK SMILES IDX 38 45 90 46 84 47 83 48 39 50 71 51 51 52 70 53 52 54 55 55
REMARK SMILES IDX 69 56 88 57 53 58 54 59 68 61 89 62 56 63 40 64 41 65 49 66
REMARK SMILES IDX 42 67 43 68 47 69 50 70 44 71 45 72 48 73 46 74 72 75 73 76
REMARK SMILES IDX 81 77 74 78 75 79 79 80 82 81 76 82 77 83 80 84 78 85 57 86
REMARK SMILES IDX 58 87 66 88 59 89 60 90 64 91 67 92 61 93 62 94 65 95 63 96
REMARK H PARENT 21 25 87 49 55 60
REMARK Flexibility Score: inf
ROOT
ATOM      1  C   UNL A   1      36.792  21.804  25.263  1.00  0.00     0.202 C 
ENDROOT
BRANCH   1   2
ATOM      2  C   UNL A   1      36.745  23.325  25.380  1.00  0.00     0.261 C 
BRANCH   2   3
ATOM      3  O   UNL A   1      35.907  23.943  24.397  1.00  0.00    -0.463 OA
BRANCH   3   4
ATOM      4  C   UNL A   1      34.723  24.461  24.785  1.00  0.00     0.310 C 
ATOM      5  O   UNL A   1      34.116  25.211  24.023  1.00  0.00    -0.252 OA
BRANCH   4   6
ATOM      6  C   UNL A   1      34.189  24.067  26.155  1.00  0.00     0.163 C 
BRANCH   6   7
ATOM      7  C   UNL A   1      32.707  23.888  26.203  1.00  0.00     0.024 A 
ATOM      8  C   UNL A   1      31.888  24.957  26.528  1.00  0.00     0.121 A 
ATOM      9  C   UNL A   1      32.079  22.678  25.955  1.00  0.00     0.135 A 
ATOM     10  N   UNL A   1      30.570  24.853  26.731  1.00  0.00    -0.244 NA
ATOM     11  N   UNL A   1      30.751  22.548  26.120  1.00  0.00    -0.219 NA
ATOM     12  C   UNL A   1      30.071  23.628  26.536  1.00  0.00     0.224 A 
BRANCH   9  13
ATOM     13  N   UNL A   1      32.754  21.644  25.356  1.00  0.00    -0.356 N 
ATOM     14  C   UNL A   1      33.404  20.682  26.223  1.00  0.00     0.121 C 
ATOM     15  C   UNL A   1      32.995  21.496  23.932  1.00  0.00     0.121 C 
ATOM     16  C   UNL A   1      32.847  19.307  25.865  1.00  0.00     0.060 C 
ATOM     17  C   UNL A   1      32.494  20.116  23.486  1.00  0.00     0.060 C 
ATOM     18  C   UNL A   1      33.037  18.970  24.363  1.00  0.00     0.097 C 
ATOM     19  O   UNL A   1      34.424  18.858  23.998  1.00  0.00    -0.372 OA
ATOM     20  C   UNL A   1      32.289  17.644  24.024  1.00  0.00     0.146 C 
ATOM     21  C   UNL A   1      35.128  17.775  24.594  1.00  0.00     0.161 C 
ATOM     22  C   UNL A   1      33.002  16.430  24.617  1.00  0.00     0.037 C 
ATOM     23  C   UNL A   1      34.484  16.440  24.254  1.00  0.00     0.031 C 
BRANCH  20  24
ATOM     24  O   UNL A   1      32.194  17.440  22.609  1.00  0.00    -0.390 OA
ATOM     25  H   UNL A   1      31.977  18.281  22.176  1.00  0.00     0.211 HD
ENDBRANCH  20  24
ENDBRANCH   9  13
ENDBRANCH   6   7
ENDBRANCH   4   6
ENDBRANCH   3   4
ENDBRANCH   2   3
ENDBRANCH   1   2
BRANCH   1  26
ATOM     26  O   UNL A   1      37.994  21.203  24.796  1.00  0.00    -0.374 OA
BRANCH  26  27
ATOM     27  C   UNL A   1      38.244  19.816  25.069  1.00  0.00     0.202 C 
BRANCH  27  28
ATOM     28  C   UNL A   1      39.561  19.298  25.674  1.00  0.00     0.261 C 
BRANCH  28  29
ATOM     29  O   UNL A   1      40.018  19.979  26.840  1.00  0.00    -0.460 OA
BRANCH  29  30
ATOM     30  C   UNL A   1      41.304  20.390  26.762  1.00  0.00     0.338 C 
ATOM     31  O   UNL A   1      42.235  19.806  26.223  1.00  0.00    -0.246 OA
BRANCH  30  32
ATOM     32  C   UNL A   1      41.389  21.788  27.218  1.00  0.00     0.060 A 
ATOM     33  C   UNL A   1      40.711  22.756  26.465  1.00  0.00     0.016 A 
ATOM     34  C   UNL A   1      42.121  22.144  28.353  1.00  0.00     0.016 A 
ATOM     35  C   UNL A   1      40.813  24.098  26.804  1.00  0.00     0.010 A 
ATOM     36  C   UNL A   1      42.246  23.493  28.678  1.00  0.00     0.010 A 
ATOM     37  C   UNL A   1      41.634  24.471  27.872  1.00  0.00    -0.014 A 
BRANCH  37  38
ATOM     38  C   UNL A   1      42.044  25.883  27.995  1.00  0.00     0.031 A 
ATOM     39  C   UNL A   1      43.365  26.282  27.402  1.00  0.00     0.074 A 
ATOM     40  C   UNL A   1      41.245  26.783  28.587  1.00  0.00     0.049 A 
ATOM     41  N   UNL A   1      43.975  27.438  27.432  1.00  0.00    -0.248 NA
ATOM     42  C   UNL A   1      44.104  25.230  26.683  1.00  0.00     0.031 C 
ATOM     43  C   UNL A   1      39.925  26.502  29.146  1.00  0.00     0.029 A 
ATOM     44  N   UNL A   1      41.439  28.119  28.824  1.00  0.00    -0.354 N 
ATOM     45  C   UNL A   1      45.172  27.245  26.753  1.00  0.00     0.074 A 
ATOM     46  C   UNL A   1      45.218  25.859  26.348  1.00  0.00     0.031 C 
ATOM     47  C   UNL A   1      39.431  27.631  29.681  1.00  0.00     0.029 A 
ATOM     48  C   UNL A   1      40.418  28.699  29.532  1.00  0.00     0.049 A 
ATOM     49  H   UNL A   1      42.233  28.612  28.516  1.00  0.00     0.167 HD
ATOM     50  C   UNL A   1      46.140  28.153  26.490  1.00  0.00     0.037 A 
ATOM     51  C   UNL A   1      40.317  29.946  30.029  1.00  0.00     0.037 A 
ATOM     52  C   UNL A   1      46.072  29.530  26.898  1.00  0.00     0.049 A 
ATOM     53  C   UNL A   1      41.439  30.921  29.778  1.00  0.00     0.074 A 
ATOM     54  C   UNL A   1      46.982  30.544  26.667  1.00  0.00     0.029 A 
ATOM     55  N   UNL A   1      45.033  30.081  27.636  1.00  0.00    -0.354 N 
ATOM     56  N   UNL A   1      42.559  30.745  29.117  1.00  0.00    -0.248 NA
ATOM     57  C   UNL A   1      41.281  32.269  30.338  1.00  0.00     0.031 C 
ATOM     58  C   UNL A   1      46.526  31.694  27.319  1.00  0.00     0.029 A 
ATOM     59  C   UNL A   1      45.295  31.416  27.896  1.00  0.00     0.049 A 
ATOM     60  H   UNL A   1      44.229  29.595  27.931  1.00  0.00     0.167 HD
ATOM     61  C   UNL A   1      43.224  31.965  29.156  1.00  0.00     0.074 A 
ATOM     62  C   UNL A   1      42.371  32.876  29.893  1.00  0.00     0.031 C 
ATOM     63  C   UNL A   1      44.426  32.302  28.628  1.00  0.00     0.037 A 
BRANCH  50  64
ATOM     64  C   UNL A   1      47.363  27.676  25.762  1.00  0.00     0.064 A 
ATOM     65  C   UNL A   1      47.451  27.695  24.362  1.00  0.00     0.173 A 
ATOM     66  C   UNL A   1      48.476  27.213  26.481  1.00  0.00     0.173 A 
ATOM     67  F   UNL A   1      46.410  28.108  23.624  1.00  0.00    -0.203 F 
ATOM     68  C   UNL A   1      48.598  27.247  23.709  1.00  0.00     0.198 A 
ATOM     69  C   UNL A   1      49.632  26.798  25.827  1.00  0.00     0.198 A 
ATOM     70  F   UNL A   1      48.445  27.171  27.821  1.00  0.00    -0.203 F 
ATOM     71  F   UNL A   1      48.640  27.226  22.370  1.00  0.00    -0.200 F 
ATOM     72  C   UNL A   1      49.690  26.807  24.442  1.00  0.00     0.200 A 
ATOM     73  F   UNL A   1      50.691  26.386  26.538  1.00  0.00    -0.200 F 
ATOM     74  F   UNL A   1      50.795  26.387  23.813  1.00  0.00    -0.200 F 
ENDBRANCH  50  64
BRANCH  51  75
ATOM     75  C   UNL A   1      39.120  30.335  30.818  1.00  0.00     0.064 A 
ATOM     76  C   UNL A   1      37.999  30.906  30.203  1.00  0.00     0.173 A 
ATOM     77  C   UNL A   1      39.075  30.146  32.209  1.00  0.00     0.173 A 
ATOM     78  F   UNL A   1      38.002  31.127  28.879  1.00  0.00    -0.203 F 
ATOM     79  C   UNL A   1      36.886  31.291  30.949  1.00  0.00     0.198 A 
ATOM     80  C   UNL A   1      37.949  30.502  32.948  1.00  0.00     0.198 A 
ATOM     81  F   UNL A   1      40.121  29.603  32.848  1.00  0.00    -0.203 F 
ATOM     82  F   UNL A   1      35.846  31.879  30.340  1.00  0.00    -0.200 F 
ATOM     83  C   UNL A   1      36.859  31.082  32.319  1.00  0.00     0.200 A 
ATOM     84  F   UNL A   1      37.922  30.284  34.271  1.00  0.00    -0.200 F 
ATOM     85  F   UNL A   1      35.786  31.448  33.034  1.00  0.00    -0.200 F 
ENDBRANCH  51  75
BRANCH  63  86
ATOM     86  C   UNL A   1      44.874  33.728  28.792  1.00  0.00     0.064 A 
ATOM     87  C   UNL A   1      44.529  34.723  27.865  1.00  0.00     0.173 A 
ATOM     88  C   UNL A   1      45.620  34.109  29.918  1.00  0.00     0.173 A 
ATOM     89  F   UNL A   1      43.827  34.408  26.767  1.00  0.00    -0.203 F 
ATOM     90  C   UNL A   1      44.942  36.040  28.046  1.00  0.00     0.198 A 
ATOM     91  C   UNL A   1      45.998  35.433  30.113  1.00  0.00     0.198 A 
ATOM     92  F   UNL A   1      45.967  33.198  30.840  1.00  0.00    -0.203 F 
ATOM     93  F   UNL A   1      44.648  36.963  27.120  1.00  0.00    -0.200 F 
ATOM     94  C   UNL A   1      45.668  36.396  29.172  1.00  0.00     0.200 A 
ATOM     95  F   UNL A   1      46.683  35.777  31.213  1.00  0.00    -0.200 F 
ATOM     96  F   UNL A   1      46.055  37.666  29.349  1.00  0.00    -0.200 F 
ENDBRANCH  63  86
ENDBRANCH  37  38
ENDBRANCH  30  32
ENDBRANCH  29  30
ENDBRANCH  28  29
ENDBRANCH  27  28
ENDBRANCH  26  27
ENDBRANCH   1  26
TORSDOF 17
ENDMDL
MODEL 3
REMARK VINA RESULT:     -11.8      4.679      7.476
REMARK SMILES O=C(Cc1cncnc1N1CCC2(CC1)OCCC[C@@H]2O)OCCOCCOC(=O)c1ccc(-c2c3nc(c(-c4c(F)c(F)c(F)c(F)c4F)c4ccc([nH]4)c(-c4c(F)c(F)c(F)c(F)c4F)c4nc(c(-c5c(F)c(F)c(F)c(F)c5F)c5ccc2[nH]5)C=C4)C=C3)cc1
REMARK SMILES IDX 24 1 23 2 22 3 2 4 1 5 3 6 4 7 5 8 9 9 6 10 8 11 7 12 10 13
REMARK SMILES IDX 11 14 15 15 12 16 14 17 13 18 16 19 20 20 17 21 19 22 18 23
REMARK SMILES IDX 21 24 25 26 26 27 27 28 28 29 29 30 30 31 31 32 32 33 93 34
REMARK SMILES IDX 33 35 92 36 34 37 35 38 36 39 86 40 37 41 91 42 85 43 87 44
REMARK SMILES IDX 38 45 90 46 84 47 83 48 39 50 71 51 51 52 70 53 52 54 55 55
REMARK SMILES IDX 69 56 88 57 53 58 54 59 68 61 89 62 56 63 40 64 41 65 49 66
REMARK SMILES IDX 42 67 43 68 47 69 50 70 44 71 45 72 48 73 46 74 72 75 73 76
REMARK SMILES IDX 81 77 74 78 75 79 79 80 82 81 76 82 77 83 80 84 78 85 57 86
REMARK SMILES IDX 58 87 66 88 59 89 60 90 64 91 67 92 61 93 62 94 65 95 63 96
REMARK H PARENT 21 25 87 49 55 60
REMARK Flexibility Score: inf
ROOT
ATOM      1  C   UNL A   1      36.688  21.907  24.362  1.00  0.00     0.202 C 
ENDROOT
BRANCH   1   2
ATOM      2  C   UNL A   1      36.599  23.431  24.359  1.00  0.00     0.261 C 
BRANCH   2   3
ATOM      3  O   UNL A   1      35.373  23.926  23.809  1.00  0.00    -0.463 OA
BRANCH   3   4
ATOM      4  C   UNL A   1      34.567  24.676  24.588  1.00  0.00     0.310 C 
ATOM      5  O   UNL A   1      34.191  25.775  24.184  1.00  0.00    -0.252 OA
BRANCH   4   6
ATOM      6  C   UNL A   1      34.145  24.104  25.935  1.00  0.00     0.163 C 
BRANCH   6   7
ATOM      7  C   UNL A   1      32.674  23.883  26.069  1.00  0.00     0.024 A 
ATOM      8  C   UNL A   1      31.839  24.942  26.387  1.00  0.00     0.121 A 
ATOM      9  C   UNL A   1      32.074  22.644  25.913  1.00  0.00     0.135 A 
ATOM     10  N   UNL A   1      30.537  24.809  26.664  1.00  0.00    -0.244 NA
ATOM     11  N   UNL A   1      30.761  22.483  26.154  1.00  0.00    -0.219 NA
ATOM     12  C   UNL A   1      30.068  23.561  26.554  1.00  0.00     0.224 A 
BRANCH   9  13
ATOM     13  N   UNL A   1      32.750  21.603  25.329  1.00  0.00    -0.356 N 
ATOM     14  C   UNL A   1      33.423  20.669  26.209  1.00  0.00     0.121 C 
ATOM     15  C   UNL A   1      32.971  21.422  23.906  1.00  0.00     0.121 C 
ATOM     16  C   UNL A   1      32.874  19.280  25.894  1.00  0.00     0.060 C 
ATOM     17  C   UNL A   1      32.478  20.027  23.501  1.00  0.00     0.060 C 
ATOM     18  C   UNL A   1      33.046  18.908  24.397  1.00  0.00     0.097 C 
ATOM     19  O   UNL A   1      34.429  18.801  24.015  1.00  0.00    -0.372 OA
ATOM     20  C   UNL A   1      32.306  17.567  24.102  1.00  0.00     0.146 C 
ATOM     21  C   UNL A   1      35.152  17.739  24.626  1.00  0.00     0.161 C 
ATOM     22  C   UNL A   1      33.040  16.375  24.714  1.00  0.00     0.037 C 
ATOM     23  C   UNL A   1      34.516  16.390  24.328  1.00  0.00     0.031 C 
BRANCH  20  24
ATOM     24  O   UNL A   1      32.192  17.328  22.695  1.00  0.00    -0.390 OA
ATOM     25  H   UNL A   1      32.705  16.539  22.458  1.00  0.00     0.211 HD
ENDBRANCH  20  24
ENDBRANCH   9  13
ENDBRANCH   6   7
ENDBRANCH   4   6
ENDBRANCH   3   4
ENDBRANCH   2   3
ENDBRANCH   1   2
BRANCH   1  26
ATOM     26  O   UNL A   1      37.766  21.299  25.063  1.00  0.00    -0.374 OA
BRANCH  26  27
ATOM     27  C   UNL A   1      37.945  19.876  24.988  1.00  0.00     0.202 C 
BRANCH  27  28
ATOM     28  C   UNL A   1      39.213  19.157  25.483  1.00  0.00     0.261 C 
BRANCH  28  29
ATOM     29  O   UNL A   1      40.030  19.895  26.390  1.00  0.00    -0.460 OA
BRANCH  29  30
ATOM     30  C   UNL A   1      41.356  19.704  26.206  1.00  0.00     0.338 C 
ATOM     31  O   UNL A   1      41.903  18.709  25.751  1.00  0.00    -0.246 OA
BRANCH  30  32
ATOM     32  C   UNL A   1      42.057  20.983  26.411  1.00  0.00     0.060 A 
ATOM     33  C   UNL A   1      42.315  21.374  27.731  1.00  0.00     0.016 A 
ATOM     34  C   UNL A   1      42.449  21.783  25.336  1.00  0.00     0.016 A 
ATOM     35  C   UNL A   1      42.909  22.601  27.990  1.00  0.00     0.010 A 
ATOM     36  C   UNL A   1      43.021  23.027  25.595  1.00  0.00     0.010 A 
ATOM     37  C   UNL A   1      43.202  23.455  26.923  1.00  0.00    -0.014 A 
BRANCH  37  38
ATOM     38  C   UNL A   1      43.468  24.879  27.204  1.00  0.00     0.031 A 
ATOM     39  C   UNL A   1      44.848  25.402  26.923  1.00  0.00     0.074 A 
ATOM     40  C   UNL A   1      42.498  25.684  27.663  1.00  0.00     0.049 A 
ATOM     41  N   UNL A   1      45.349  26.589  27.141  1.00  0.00    -0.248 NA
ATOM     42  C   UNL A   1      45.797  24.450  26.318  1.00  0.00     0.031 C 
ATOM     43  C   UNL A   1      41.117  25.281  27.918  1.00  0.00     0.029 A 
ATOM     44  N   UNL A   1      42.536  27.010  28.007  1.00  0.00    -0.354 N 
ATOM     45  C   UNL A   1      46.670  26.520  26.719  1.00  0.00     0.074 A 
ATOM     46  C   UNL A   1      46.904  25.170  26.259  1.00  0.00     0.031 C 
ATOM     47  C   UNL A   1      40.439  26.338  28.398  1.00  0.00     0.029 A 
ATOM     48  C   UNL A   1      41.351  27.474  28.516  1.00  0.00     0.049 A 
ATOM     49  H   UNL A   1      43.337  27.573  27.899  1.00  0.00     0.167 HD
ATOM     50  C   UNL A   1      47.599  27.503  26.713  1.00  0.00     0.037 A 
ATOM     51  C   UNL A   1      41.055  28.676  29.047  1.00  0.00     0.037 A 
ATOM     52  C   UNL A   1      47.344  28.842  27.171  1.00  0.00     0.049 A 
ATOM     53  C   UNL A   1      42.126  29.734  29.089  1.00  0.00     0.074 A 
ATOM     54  C   UNL A   1      48.201  29.926  27.190  1.00  0.00     0.029 A 
ATOM     55  N   UNL A   1      46.137  29.274  27.704  1.00  0.00    -0.354 N 
ATOM     56  N   UNL A   1      43.368  29.676  28.669  1.00  0.00    -0.248 NA
ATOM     57  C   UNL A   1      41.754  31.029  29.675  1.00  0.00     0.031 C 
ATOM     58  C   UNL A   1      47.534  30.997  27.793  1.00  0.00     0.029 A 
ATOM     59  C   UNL A   1      46.237  30.602  28.084  1.00  0.00     0.049 A 
ATOM     60  H   UNL A   1      45.329  28.719  27.797  1.00  0.00     0.167 HD
ATOM     61  C   UNL A   1      43.916  30.930  28.910  1.00  0.00     0.074 A 
ATOM     62  C   UNL A   1      42.863  31.732  29.501  1.00  0.00     0.031 C 
ATOM     63  C   UNL A   1      45.171  31.379  28.665  1.00  0.00     0.037 A 
BRANCH  50  64
ATOM     64  C   UNL A   1      48.978  27.156  26.232  1.00  0.00     0.064 A 
ATOM     65  C   UNL A   1      49.984  26.720  27.107  1.00  0.00     0.173 A 
ATOM     66  C   UNL A   1      49.291  27.240  24.867  1.00  0.00     0.173 A 
ATOM     67  F   UNL A   1      49.746  26.640  28.425  1.00  0.00    -0.203 F 
ATOM     68  C   UNL A   1      51.256  26.402  26.636  1.00  0.00     0.198 A 
ATOM     69  C   UNL A   1      50.553  26.891  24.395  1.00  0.00     0.198 A 
ATOM     70  F   UNL A   1      48.367  27.654  23.986  1.00  0.00    -0.203 F 
ATOM     71  F   UNL A   1      52.216  26.037  27.497  1.00  0.00    -0.200 F 
ATOM     72  C   UNL A   1      51.537  26.480  25.280  1.00  0.00     0.200 A 
ATOM     73  F   UNL A   1      50.817  26.954  23.082  1.00  0.00    -0.200 F 
ATOM     74  F   UNL A   1      52.758  26.165  24.828  1.00  0.00    -0.200 F 
ENDBRANCH  50  64
BRANCH  51  75
ATOM     75  C   UNL A   1      39.696  28.932  29.589  1.00  0.00     0.064 A 
ATOM     76  C   UNL A   1      38.672  29.432  28.773  1.00  0.00     0.173 A 
ATOM     77  C   UNL A   1      39.393  28.686  30.937  1.00  0.00     0.173 A 
ATOM     78  F   UNL A   1      38.917  29.703  27.482  1.00  0.00    -0.203 F 
ATOM     79  C   UNL A   1      37.403  29.693  29.288  1.00  0.00     0.198 A 
ATOM     80  C   UNL A   1      38.116  28.918  31.443  1.00  0.00     0.198 A 
ATOM     81  F   UNL A   1      40.336  28.207  31.762  1.00  0.00    -0.203 F 
ATOM     82  F   UNL A   1      36.457  30.215  28.496  1.00  0.00    -0.200 F 
ATOM     83  C   UNL A   1      37.124  29.429  30.621  1.00  0.00     0.200 A 
ATOM     84  F   UNL A   1      37.848  28.647  32.728  1.00  0.00    -0.200 F 
ATOM     85  F   UNL A   1      35.903  29.676  31.113  1.00  0.00    -0.200 F 
ENDBRANCH  51  75
BRANCH  63  86
ATOM     86  C   UNL A   1      45.465  32.816  28.995  1.00  0.00     0.064 A 
ATOM     87  C   UNL A   1      45.215  33.851  28.082  1.00  0.00     0.173 A 
ATOM     88  C   UNL A   1      45.962  33.162  30.261  1.00  0.00     0.173 A 
ATOM     89  F   UNL A   1      44.751  33.572  26.855  1.00  0.00    -0.203 F 
ATOM     90  C   UNL A   1      45.480  35.177  28.415  1.00  0.00     0.198 A 
ATOM     91  C   UNL A   1      46.191  34.491  30.603  1.00  0.00     0.198 A 
ATOM     92  F   UNL A   1      46.209  32.211  31.175  1.00  0.00    -0.203 F 
ATOM     93  F   UNL A   1      45.285  36.144  27.509  1.00  0.00    -0.200 F 
ATOM     94  C   UNL A   1      45.959  35.496  29.677  1.00  0.00     0.200 A 
ATOM     95  F   UNL A   1      46.635  34.799  31.829  1.00  0.00    -0.200 F 
ATOM     96  F   UNL A   1      46.204  36.773  29.999  1.00  0.00    -0.200 F 
ENDBRANCH  63  86
ENDBRANCH  37  38
ENDBRANCH  30  32
ENDBRANCH  29  30
ENDBRANCH  28  29
ENDBRANCH  27  28
ENDBRANCH  26  27
ENDBRANCH   1  26
TORSDOF 17
ENDMDL
