MODEL 1
REMARK VINA RESULT:     -12.0      0.000      0.000
REMARK SMILES O=C(OCCOCCOC(=O)[C@H]1Cc2[nH]cnc2CN1C(=O)c1ccncc1Cl)c1ccc(-c2c3nc(c(-c4c(F)c(F)c(F)c(F)c4F)c4ccc([nH]4)c(-c4c(F)c(F)c(F)c(F)c4F)c4nc(c(-c5c(F)c(F)c(F)c(F)c5F)c5ccc2[nH]5)C=C4)C=C3)cc1
REMARK SMILES IDX 6 1 5 2 4 3 3 4 2 5 1 6 30 7 31 8 92 9 32 10 91 11 33 12
REMARK SMILES IDX 34 13 35 14 85 15 36 16 90 17 84 18 86 19 37 20 89 21 83 22
REMARK SMILES IDX 82 23 38 25 70 26 50 27 69 28 51 29 54 30 68 31 87 32 52 33
REMARK SMILES IDX 53 34 67 36 88 37 55 38 39 39 40 40 48 41 41 42 42 43 46 44
REMARK SMILES IDX 49 45 43 46 44 47 47 48 45 49 71 50 72 51 80 52 73 53 74 54
REMARK SMILES IDX 78 55 81 56 75 57 76 58 79 59 77 60 56 61 57 62 65 63 58 64
REMARK SMILES IDX 59 65 63 66 66 67 60 68 61 69 64 70 62 71 7 72 8 73 9 74
REMARK SMILES IDX 10 75 11 76 12 77 13 78 20 79 14 80 19 81 15 82 18 83 16 84
REMARK SMILES IDX 17 86 21 87 22 88 23 89 24 90 28 91 25 92 27 93 29 94 26 95
REMARK H PARENT 86 24 54 35 15 85
REMARK Flexibility Score: inf
ROOT
ATOM      1  O   UNL A   1      36.526  21.827  23.954  1.00  0.00    -0.374 OA
ENDROOT
BRANCH   1   2
ATOM      2  C   UNL A   1      36.811  21.580  25.338  1.00  0.00     0.202 C 
BRANCH   2   3
ATOM      3  C   UNL A   1      38.294  21.443  25.671  1.00  0.00     0.261 C 
BRANCH   3   4
ATOM      4  O   UNL A   1      38.896  22.651  26.153  1.00  0.00    -0.460 OA
BRANCH   4   5
ATOM      5  C   UNL A   1      40.163  22.552  26.612  1.00  0.00     0.338 C 
ATOM      6  O   UNL A   1      40.842  21.541  26.536  1.00  0.00    -0.246 OA
BRANCH   5   7
ATOM      7  C   UNL A   1      40.710  23.891  26.879  1.00  0.00     0.060 A 
ATOM      8  C   UNL A   1      41.814  24.093  27.717  1.00  0.00     0.016 A 
ATOM      9  C   UNL A   1      39.953  24.962  26.406  1.00  0.00     0.016 A 
ATOM     10  C   UNL A   1      41.995  25.324  28.297  1.00  0.00     0.010 A 
ATOM     11  C   UNL A   1      40.159  26.207  26.951  1.00  0.00     0.010 A 
ATOM     12  C   UNL A   1      41.107  26.344  27.967  1.00  0.00    -0.014 A 
BRANCH  12  13
ATOM     13  C   UNL A   1      41.227  27.589  28.692  1.00  0.00     0.031 A 
ATOM     14  C   UNL A   1      42.414  28.389  28.305  1.00  0.00     0.074 A 
ATOM     15  C   UNL A   1      40.267  27.977  29.550  1.00  0.00     0.049 A 
ATOM     16  N   UNL A   1      43.388  28.787  29.057  1.00  0.00    -0.248 NA
ATOM     17  C   UNL A   1      42.619  28.651  26.870  1.00  0.00     0.031 C 
ATOM     18  C   UNL A   1      38.967  27.345  29.795  1.00  0.00     0.029 A 
ATOM     19  N   UNL A   1      40.201  29.101  30.308  1.00  0.00    -0.354 N 
ATOM     20  C   UNL A   1      44.232  29.515  28.224  1.00  0.00     0.074 A 
ATOM     21  C   UNL A   1      43.804  29.259  26.874  1.00  0.00     0.031 C 
ATOM     22  C   UNL A   1      38.158  28.222  30.431  1.00  0.00     0.029 A 
ATOM     23  C   UNL A   1      38.922  29.414  30.749  1.00  0.00     0.049 A 
ATOM     24  H   UNL A   1      40.991  29.648  30.525  1.00  0.00     0.167 HD
ATOM     25  C   UNL A   1      45.056  30.473  28.725  1.00  0.00     0.037 A 
ATOM     26  C   UNL A   1      38.527  30.615  31.239  1.00  0.00     0.037 A 
ATOM     27  C   UNL A   1      45.280  30.285  30.134  1.00  0.00     0.049 A 
ATOM     28  C   UNL A   1      39.753  31.352  31.644  1.00  0.00     0.074 A 
ATOM     29  C   UNL A   1      45.845  29.283  30.897  1.00  0.00     0.029 A 
ATOM     30  N   UNL A   1      44.559  31.061  31.010  1.00  0.00    -0.354 N 
ATOM     31  N   UNL A   1      40.510  30.999  32.648  1.00  0.00    -0.248 NA
ATOM     32  C   UNL A   1      40.400  32.189  30.641  1.00  0.00     0.031 C 
ATOM     33  C   UNL A   1      45.053  29.227  32.080  1.00  0.00     0.029 A 
ATOM     34  C   UNL A   1      44.094  30.238  32.001  1.00  0.00     0.049 A 
ATOM     35  H   UNL A   1      44.405  32.031  30.936  1.00  0.00     0.167 HD
ATOM     36  C   UNL A   1      41.808  31.195  32.198  1.00  0.00     0.074 A 
ATOM     37  C   UNL A   1      41.676  32.000  30.986  1.00  0.00     0.031 C 
ATOM     38  C   UNL A   1      42.838  30.442  32.681  1.00  0.00     0.037 A 
BRANCH  25  39
ATOM     39  C   UNL A   1      45.328  31.784  28.034  1.00  0.00     0.064 A 
ATOM     40  C   UNL A   1      44.243  32.613  27.689  1.00  0.00     0.173 A 
ATOM     41  C   UNL A   1      46.560  32.104  27.420  1.00  0.00     0.173 A 
ATOM     42  F   UNL A   1      43.023  32.388  28.199  1.00  0.00    -0.203 F 
ATOM     43  C   UNL A   1      44.367  33.627  26.736  1.00  0.00     0.198 A 
ATOM     44  C   UNL A   1      46.691  33.150  26.512  1.00  0.00     0.198 A 
ATOM     45  F   UNL A   1      47.655  31.352  27.579  1.00  0.00    -0.203 F 
ATOM     46  F   UNL A   1      43.279  34.301  26.339  1.00  0.00    -0.200 F 
ATOM     47  C   UNL A   1      45.588  33.890  26.142  1.00  0.00     0.200 A 
ATOM     48  F   UNL A   1      47.880  33.375  25.934  1.00  0.00    -0.200 F 
ATOM     49  F   UNL A   1      45.694  34.814  25.180  1.00  0.00    -0.200 F 
ENDBRANCH  25  39
BRANCH  26  50
ATOM     50  C   UNL A   1      37.221  31.289  31.035  1.00  0.00     0.064 A 
ATOM     51  C   UNL A   1      36.399  31.614  32.125  1.00  0.00     0.173 A 
ATOM     52  C   UNL A   1      36.875  31.867  29.797  1.00  0.00     0.173 A 
ATOM     53  F   UNL A   1      36.686  31.145  33.349  1.00  0.00    -0.203 F 
ATOM     54  C   UNL A   1      35.309  32.481  31.989  1.00  0.00     0.198 A 
ATOM     55  C   UNL A   1      35.782  32.724  29.661  1.00  0.00     0.198 A 
ATOM     56  F   UNL A   1      37.643  31.692  28.713  1.00  0.00    -0.203 F 
ATOM     57  F   UNL A   1      34.584  32.817  33.066  1.00  0.00    -0.200 F 
ATOM     58  C   UNL A   1      35.007  33.042  30.760  1.00  0.00     0.200 A 
ATOM     59  F   UNL A   1      35.525  33.289  28.472  1.00  0.00    -0.200 F 
ATOM     60  F   UNL A   1      34.000  33.918  30.642  1.00  0.00    -0.200 F 
ENDBRANCH  26  50
BRANCH  38  61
ATOM     61  C   UNL A   1      42.572  29.576  33.880  1.00  0.00     0.064 A 
ATOM     62  C   UNL A   1      41.939  28.322  33.818  1.00  0.00     0.173 A 
ATOM     63  C   UNL A   1      43.115  29.965  35.111  1.00  0.00     0.173 A 
ATOM     64  F   UNL A   1      41.489  27.833  32.657  1.00  0.00    -0.203 F 
ATOM     65  C   UNL A   1      41.816  27.518  34.951  1.00  0.00     0.198 A 
ATOM     66  C   UNL A   1      43.026  29.144  36.230  1.00  0.00     0.198 A 
ATOM     67  F   UNL A   1      43.782  31.125  35.212  1.00  0.00    -0.203 F 
ATOM     68  F   UNL A   1      41.198  26.331  34.869  1.00  0.00    -0.200 F 
ATOM     69  C   UNL A   1      42.367  27.927  36.154  1.00  0.00     0.200 A 
ATOM     70  F   UNL A   1      43.605  29.520  37.378  1.00  0.00    -0.200 F 
ATOM     71  F   UNL A   1      42.289  27.137  37.234  1.00  0.00    -0.200 F 
ENDBRANCH  38  61
ENDBRANCH  12  13
ENDBRANCH   5   7
ENDBRANCH   4   5
ENDBRANCH   3   4
ENDBRANCH   2   3
ENDBRANCH   1   2
BRANCH   1  72
ATOM     72  C   UNL A   1      36.550  23.210  23.558  1.00  0.00     0.202 C 
BRANCH  72  73
ATOM     73  C   UNL A   1      35.314  24.064  23.885  1.00  0.00     0.261 C 
BRANCH  73  74
ATOM     74  O   UNL A   1      34.520  24.279  22.716  1.00  0.00    -0.462 OA
BRANCH  74  75
ATOM     75  C   UNL A   1      33.877  25.484  22.638  1.00  0.00     0.329 C 
ATOM     76  O   UNL A   1      33.653  26.081  21.608  1.00  0.00    -0.250 OA
BRANCH  75  77
ATOM     77  C   UNL A   1      33.604  25.981  24.067  1.00  0.00     0.201 C 
ATOM     78  C   UNL A   1      33.815  27.520  23.913  1.00  0.00     0.093 C 
ATOM     79  N   UNL A   1      32.368  25.640  24.887  1.00  0.00    -0.318 N 
ATOM     80  C   UNL A   1      33.542  28.181  25.198  1.00  0.00     0.042 A 
ATOM     81  C   UNL A   1      32.363  26.216  26.265  1.00  0.00     0.179 C 
ATOM     82  N   UNL A   1      33.832  29.455  25.576  1.00  0.00    -0.348 N 
ATOM     83  C   UNL A   1      32.882  27.608  26.255  1.00  0.00     0.081 A 
ATOM     84  C   UNL A   1      33.349  29.601  26.848  1.00  0.00     0.197 A 
ATOM     85  H   UNL A   1      34.296  30.137  25.039  1.00  0.00     0.167 HD
ATOM     86  N   UNL A   1      32.787  28.496  27.291  1.00  0.00    -0.240 NA
BRANCH  79  87
ATOM     87  C   UNL A   1      31.477  24.558  24.769  1.00  0.00     0.256 C 
ATOM     88  O   UNL A   1      30.254  24.706  24.791  1.00  0.00    -0.269 OA
BRANCH  87  89
ATOM     89  C   UNL A   1      31.915  23.174  24.566  1.00  0.00     0.061 A 
ATOM     90  C   UNL A   1      31.759  22.601  23.305  1.00  0.00     0.035 A 
ATOM     91  C   UNL A   1      32.289  22.367  25.641  1.00  0.00     0.072 A 
ATOM     92  C   UNL A   1      32.151  21.284  23.134  1.00  0.00     0.112 A 
ATOM     93  C   UNL A   1      32.676  21.065  25.363  1.00  0.00     0.132 A 
ATOM     94  Cl  UNL A   1      32.228  22.873  27.286  1.00  0.00    -0.082 Cl
ATOM     95  N   UNL A   1      32.636  20.510  24.130  1.00  0.00    -0.263 NA
ENDBRANCH  87  89
ENDBRANCH  79  87
ENDBRANCH  75  77
ENDBRANCH  74  75
ENDBRANCH  73  74
ENDBRANCH  72  73
ENDBRANCH   1  72
TORSDOF 16
ENDMDL
MODEL 2
REMARK VINA RESULT:     -11.9      2.721      4.792
REMARK SMILES O=C(OCCOCCOC(=O)[C@H]1Cc2[nH]cnc2CN1C(=O)c1ccncc1Cl)c1ccc(-c2c3nc(c(-c4c(F)c(F)c(F)c(F)c4F)c4ccc([nH]4)c(-c4c(F)c(F)c(F)c(F)c4F)c4nc(c(-c5c(F)c(F)c(F)c(F)c5F)c5ccc2[nH]5)C=C4)C=C3)cc1
REMARK SMILES IDX 6 1 5 2 4 3 3 4 2 5 1 6 30 7 31 8 92 9 32 10 91 11 33 12
REMARK SMILES IDX 34 13 35 14 85 15 36 16 90 17 84 18 86 19 37 20 89 21 83 22
REMARK SMILES IDX 82 23 38 25 70 26 50 27 69 28 51 29 54 30 68 31 87 32 52 33
REMARK SMILES IDX 53 34 67 36 88 37 55 38 39 39 40 40 48 41 41 42 42 43 46 44
REMARK SMILES IDX 49 45 43 46 44 47 47 48 45 49 71 50 72 51 80 52 73 53 74 54
REMARK SMILES IDX 78 55 81 56 75 57 76 58 79 59 77 60 56 61 57 62 65 63 58 64
REMARK SMILES IDX 59 65 63 66 66 67 60 68 61 69 64 70 62 71 7 72 8 73 9 74
REMARK SMILES IDX 10 75 11 76 12 77 13 78 20 79 14 80 19 81 15 82 18 83 16 84
REMARK SMILES IDX 17 86 21 87 22 88 23 89 24 90 28 91 25 92 27 93 29 94 26 95
REMARK H PARENT 86 24 54 35 15 85
REMARK Flexibility Score: inf
ROOT
ATOM      1  O   UNL A   1      40.190  20.303  26.049  1.00  0.00    -0.374 OA
ENDROOT
BRANCH   1   2
ATOM      2  C   UNL A   1      41.552  20.264  26.497  1.00  0.00     0.202 C 
BRANCH   2   3
ATOM      3  C   UNL A   1      42.449  19.293  25.734  1.00  0.00     0.261 C 
BRANCH   3   4
ATOM      4  O   UNL A   1      43.842  19.628  25.784  1.00  0.00    -0.460 OA
BRANCH   4   5
ATOM      5  C   UNL A   1      44.339  20.298  24.720  1.00  0.00     0.338 C 
ATOM      6  O   UNL A   1      44.310  19.882  23.574  1.00  0.00    -0.246 OA
BRANCH   5   7
ATOM      7  C   UNL A   1      44.586  21.704  25.078  1.00  0.00     0.060 A 
ATOM      8  C   UNL A   1      45.611  22.081  25.955  1.00  0.00     0.016 A 
ATOM      9  C   UNL A   1      43.626  22.617  24.647  1.00  0.00     0.016 A 
ATOM     10  C   UNL A   1      45.519  23.285  26.609  1.00  0.00     0.010 A 
ATOM     11  C   UNL A   1      43.556  23.842  25.267  1.00  0.00     0.010 A 
ATOM     12  C   UNL A   1      44.438  24.113  26.315  1.00  0.00    -0.014 A 
BRANCH  12  13
ATOM     13  C   UNL A   1      44.282  25.309  27.113  1.00  0.00     0.031 A 
ATOM     14  C   UNL A   1      45.356  26.309  26.901  1.00  0.00     0.074 A 
ATOM     15  C   UNL A   1      43.191  25.481  27.880  1.00  0.00     0.049 A 
ATOM     16  N   UNL A   1      46.172  26.801  27.775  1.00  0.00    -0.248 NA
ATOM     17  C   UNL A   1      45.658  26.697  25.513  1.00  0.00     0.031 C 
ATOM     18  C   UNL A   1      41.992  24.639  27.947  1.00  0.00     0.029 A 
ATOM     19  N   UNL A   1      42.868  26.526  28.683  1.00  0.00    -0.354 N 
ATOM     20  C   UNL A   1      46.966  27.707  27.079  1.00  0.00     0.074 A 
ATOM     21  C   UNL A   1      46.722  27.482  25.678  1.00  0.00     0.031 C 
ATOM     22  C   UNL A   1      40.992  25.333  28.535  1.00  0.00     0.029 A 
ATOM     23  C   UNL A   1      41.517  26.604  28.997  1.00  0.00     0.049 A 
ATOM     24  H   UNL A   1      43.532  27.173  29.014  1.00  0.00     0.167 HD
ATOM     25  C   UNL A   1      47.569  28.745  27.717  1.00  0.00     0.037 A 
ATOM     26  C   UNL A   1      40.885  27.692  29.503  1.00  0.00     0.037 A 
ATOM     27  C   UNL A   1      47.678  28.497  29.131  1.00  0.00     0.049 A 
ATOM     28  C   UNL A   1      41.929  28.582  30.078  1.00  0.00     0.074 A 
ATOM     29  C   UNL A   1      48.319  27.544  29.897  1.00  0.00     0.029 A 
ATOM     30  N   UNL A   1      46.757  29.088  29.961  1.00  0.00    -0.354 N 
ATOM     31  N   UNL A   1      42.628  28.282  31.139  1.00  0.00    -0.248 NA
ATOM     32  C   UNL A   1      42.527  29.576  29.198  1.00  0.00     0.031 C 
ATOM     33  C   UNL A   1      47.432  27.284  30.981  1.00  0.00     0.029 A 
ATOM     34  C   UNL A   1      46.335  28.136  30.851  1.00  0.00     0.049 A 
ATOM     35  H   UNL A   1      46.456  30.025  29.922  1.00  0.00     0.167 HD
ATOM     36  C   UNL A   1      43.916  28.709  30.845  1.00  0.00     0.074 A 
ATOM     37  C   UNL A   1      43.777  29.566  29.670  1.00  0.00     0.031 C 
ATOM     38  C   UNL A   1      45.001  28.094  31.398  1.00  0.00     0.037 A 
BRANCH  25  39
ATOM     39  C   UNL A   1      47.692  30.127  27.130  1.00  0.00     0.064 A 
ATOM     40  C   UNL A   1      48.936  30.784  27.183  1.00  0.00     0.173 A 
ATOM     41  C   UNL A   1      46.582  30.945  26.815  1.00  0.00     0.173 A 
ATOM     42  F   UNL A   1      50.053  30.107  27.491  1.00  0.00    -0.203 F 
ATOM     43  C   UNL A   1      49.045  32.167  27.018  1.00  0.00     0.198 A 
ATOM     44  C   UNL A   1      46.704  32.314  26.599  1.00  0.00     0.198 A 
ATOM     45  F   UNL A   1      45.328  30.481  26.820  1.00  0.00    -0.203 F 
ATOM     46  F   UNL A   1      50.227  32.768  27.211  1.00  0.00    -0.200 F 
ATOM     47  C   UNL A   1      47.928  32.932  26.735  1.00  0.00     0.200 A 
ATOM     48  F   UNL A   1      45.605  33.039  26.344  1.00  0.00    -0.200 F 
ATOM     49  F   UNL A   1      48.019  34.264  26.645  1.00  0.00    -0.200 F 
ENDBRANCH  25  39
BRANCH  26  50
ATOM     50  C   UNL A   1      39.514  28.166  29.193  1.00  0.00     0.064 A 
ATOM     51  C   UNL A   1      38.544  28.280  30.201  1.00  0.00     0.173 A 
ATOM     52  C   UNL A   1      39.205  28.771  27.957  1.00  0.00     0.173 A 
ATOM     53  F   UNL A   1      38.779  27.774  31.421  1.00  0.00    -0.203 F 
ATOM     54  C   UNL A   1      37.346  28.973  29.992  1.00  0.00     0.198 A 
ATOM     55  C   UNL A   1      38.007  29.454  27.748  1.00  0.00     0.198 A 
ATOM     56  F   UNL A   1      40.097  28.797  26.957  1.00  0.00    -0.203 F 
ATOM     57  F   UNL A   1      36.472  29.113  30.998  1.00  0.00    -0.200 F 
ATOM     58  C   UNL A   1      37.083  29.567  28.770  1.00  0.00     0.200 A 
ATOM     59  F   UNL A   1      37.782  30.057  26.571  1.00  0.00    -0.200 F 
ATOM     60  F   UNL A   1      35.964  30.282  28.589  1.00  0.00    -0.200 F 
ENDBRANCH  26  50
BRANCH  38  61
ATOM     61  C   UNL A   1      44.760  27.117  32.514  1.00  0.00     0.064 A 
ATOM     62  C   UNL A   1      44.496  25.750  32.317  1.00  0.00     0.173 A 
ATOM     63  C   UNL A   1      44.957  27.552  33.830  1.00  0.00     0.173 A 
ATOM     64  F   UNL A   1      44.401  25.236  31.085  1.00  0.00    -0.203 F 
ATOM     65  C   UNL A   1      44.387  24.872  33.395  1.00  0.00     0.198 A 
ATOM     66  C   UNL A   1      44.887  26.668  34.902  1.00  0.00     0.198 A 
ATOM     67  F   UNL A   1      45.272  28.835  34.071  1.00  0.00    -0.203 F 
ATOM     68  F   UNL A   1      44.123  23.575  33.182  1.00  0.00    -0.200 F 
ATOM     69  C   UNL A   1      44.591  25.331  34.685  1.00  0.00     0.200 A 
ATOM     70  F   UNL A   1      45.136  27.106  36.142  1.00  0.00    -0.200 F 
ATOM     71  F   UNL A   1      44.530  24.481  35.720  1.00  0.00    -0.200 F 
ENDBRANCH  38  61
ENDBRANCH  12  13
ENDBRANCH   5   7
ENDBRANCH   4   5
ENDBRANCH   3   4
ENDBRANCH   2   3
ENDBRANCH   1   2
BRANCH   1  72
ATOM     72  C   UNL A   1      39.435  21.451  26.474  1.00  0.00     0.202 C 
BRANCH  72  73
ATOM     73  C   UNL A   1      38.375  22.002  25.506  1.00  0.00     0.261 C 
BRANCH  73  74
ATOM     74  O   UNL A   1      37.086  21.459  25.799  1.00  0.00    -0.462 OA
BRANCH  74  75
ATOM     75  C   UNL A   1      36.044  22.345  25.798  1.00  0.00     0.329 C 
ATOM     76  O   UNL A   1      36.107  23.484  26.207  1.00  0.00    -0.250 OA
BRANCH  75  77
ATOM     77  C   UNL A   1      34.785  21.613  25.306  1.00  0.00     0.201 C 
ATOM     78  C   UNL A   1      35.318  20.159  25.116  1.00  0.00     0.093 C 
ATOM     79  N   UNL A   1      33.429  21.654  25.993  1.00  0.00    -0.318 N 
ATOM     80  C   UNL A   1      34.214  19.288  24.685  1.00  0.00     0.042 A 
ATOM     81  C   UNL A   1      32.356  20.890  25.288  1.00  0.00     0.179 C 
ATOM     82  N   UNL A   1      34.276  18.026  24.179  1.00  0.00    -0.348 N 
ATOM     83  C   UNL A   1      32.882  19.603  24.768  1.00  0.00     0.081 A 
ATOM     84  C   UNL A   1      32.983  17.631  23.964  1.00  0.00     0.197 A 
ATOM     85  H   UNL A   1      35.090  17.502  24.003  1.00  0.00     0.167 HD
ATOM     86  N   UNL A   1      32.121  18.570  24.293  1.00  0.00    -0.240 NA
BRANCH  79  87
ATOM     87  C   UNL A   1      32.896  22.603  26.883  1.00  0.00     0.256 C 
ATOM     88  O   UNL A   1      32.940  22.459  28.106  1.00  0.00    -0.269 OA
BRANCH  87  89
ATOM     89  C   UNL A   1      32.285  23.862  26.444  1.00  0.00     0.061 A 
ATOM     90  C   UNL A   1      33.107  24.967  26.232  1.00  0.00     0.035 A 
ATOM     91  C   UNL A   1      30.899  24.030  26.435  1.00  0.00     0.072 A 
ATOM     92  C   UNL A   1      32.513  26.157  25.845  1.00  0.00     0.112 A 
ATOM     93  C   UNL A   1      30.404  25.257  26.021  1.00  0.00     0.132 A 
ATOM     94  Cl  UNL A   1      29.785  22.832  26.973  1.00  0.00    -0.082 Cl
ATOM     95  N   UNL A   1      31.179  26.319  25.704  1.00  0.00    -0.263 NA
ENDBRANCH  87  89
ENDBRANCH  79  87
ENDBRANCH  75  77
ENDBRANCH  74  75
ENDBRANCH  73  74
ENDBRANCH  72  73
ENDBRANCH   1  72
TORSDOF 16
ENDMDL
MODEL 3
REMARK VINA RESULT:     -11.9      3.133      8.300
REMARK SMILES O=C(OCCOCCOC(=O)[C@H]1Cc2[nH]cnc2CN1C(=O)c1ccncc1Cl)c1ccc(-c2c3nc(c(-c4c(F)c(F)c(F)c(F)c4F)c4ccc([nH]4)c(-c4c(F)c(F)c(F)c(F)c4F)c4nc(c(-c5c(F)c(F)c(F)c(F)c5F)c5ccc2[nH]5)C=C4)C=C3)cc1
REMARK SMILES IDX 6 1 5 2 4 3 3 4 2 5 1 6 30 7 31 8 92 9 32 10 91 11 33 12
REMARK SMILES IDX 34 13 35 14 85 15 36 16 90 17 84 18 86 19 37 20 89 21 83 22
REMARK SMILES IDX 82 23 38 25 70 26 50 27 69 28 51 29 54 30 68 31 87 32 52 33
REMARK SMILES IDX 53 34 67 36 88 37 55 38 39 39 40 40 48 41 41 42 42 43 46 44
REMARK SMILES IDX 49 45 43 46 44 47 47 48 45 49 71 50 72 51 80 52 73 53 74 54
REMARK SMILES IDX 78 55 81 56 75 57 76 58 79 59 77 60 56 61 57 62 65 63 58 64
REMARK SMILES IDX 59 65 63 66 66 67 60 68 61 69 64 70 62 71 7 72 8 73 9 74
REMARK SMILES IDX 10 75 11 76 12 77 13 78 20 79 14 80 19 81 15 82 18 83 16 84
REMARK SMILES IDX 17 86 21 87 22 88 23 89 24 90 28 91 25 92 27 93 29 94 26 95
REMARK H PARENT 86 24 54 35 15 85
REMARK Flexibility Score: inf
ROOT
ATOM      1  O   UNL A   1      32.322  28.809  25.555  1.00  0.00    -0.374 OA
ENDROOT
BRANCH   1   2
ATOM      2  C   UNL A   1      33.588  29.128  26.149  1.00  0.00     0.202 C 
BRANCH   2   3
ATOM      3  C   UNL A   1      33.596  30.401  26.991  1.00  0.00     0.261 C 
BRANCH   3   4
ATOM      4  O   UNL A   1      34.909  30.907  27.268  1.00  0.00    -0.460 OA
BRANCH   4   5
ATOM      5  C   UNL A   1      35.063  31.578  28.431  1.00  0.00     0.338 C 
ATOM      6  O   UNL A   1      34.194  32.261  28.948  1.00  0.00    -0.246 OA
BRANCH   5   7
ATOM      7  C   UNL A   1      36.259  31.096  29.138  1.00  0.00     0.060 A 
ATOM      8  C   UNL A   1      37.376  31.911  29.357  1.00  0.00     0.016 A 
ATOM      9  C   UNL A   1      36.293  29.729  29.409  1.00  0.00     0.016 A 
ATOM     10  C   UNL A   1      38.597  31.324  29.584  1.00  0.00     0.010 A 
ATOM     11  C   UNL A   1      37.506  29.141  29.680  1.00  0.00     0.010 A 
ATOM     12  C   UNL A   1      38.654  29.935  29.656  1.00  0.00    -0.014 A 
BRANCH  12  13
ATOM     13  C   UNL A   1      39.964  29.329  29.754  1.00  0.00     0.031 A 
ATOM     14  C   UNL A   1      40.484  29.259  31.141  1.00  0.00     0.074 A 
ATOM     15  C   UNL A   1      40.560  28.808  28.667  1.00  0.00     0.049 A 
ATOM     16  N   UNL A   1      41.572  29.775  31.612  1.00  0.00    -0.248 NA
ATOM     17  C   UNL A   1      39.607  28.666  32.165  1.00  0.00     0.031 C 
ATOM     18  C   UNL A   1      39.996  28.639  27.323  1.00  0.00     0.029 A 
ATOM     19  N   UNL A   1      41.769  28.201  28.563  1.00  0.00    -0.354 N 
ATOM     20  C   UNL A   1      41.610  29.407  32.954  1.00  0.00     0.074 A 
ATOM     21  C   UNL A   1      40.311  28.877  33.276  1.00  0.00     0.031 C 
ATOM     22  C   UNL A   1      40.752  27.757  26.631  1.00  0.00     0.029 A 
ATOM     23  C   UNL A   1      41.911  27.408  27.432  1.00  0.00     0.049 A 
ATOM     24  H   UNL A   1      42.484  28.312  29.231  1.00  0.00     0.167 HD
ATOM     25  C   UNL A   1      42.789  29.331  33.626  1.00  0.00     0.037 A 
ATOM     26  C   UNL A   1      42.865  26.463  27.244  1.00  0.00     0.037 A 
ATOM     27  C   UNL A   1      43.815  30.099  32.971  1.00  0.00     0.049 A 
ATOM     28  C   UNL A   1      43.961  26.744  28.209  1.00  0.00     0.074 A 
ATOM     29  C   UNL A   1      43.976  31.437  32.671  1.00  0.00     0.029 A 
ATOM     30  N   UNL A   1      44.719  29.428  32.184  1.00  0.00    -0.354 N 
ATOM     31  N   UNL A   1      44.738  27.789  28.135  1.00  0.00    -0.248 NA
ATOM     32  C   UNL A   1      43.876  26.122  29.525  1.00  0.00     0.031 C 
ATOM     33  C   UNL A   1      44.609  31.457  31.395  1.00  0.00     0.029 A 
ATOM     34  C   UNL A   1      44.856  30.137  31.020  1.00  0.00     0.049 A 
ATOM     35  H   UNL A   1      45.182  28.590  32.416  1.00  0.00     0.167 HD
ATOM     36  C   UNL A   1      44.892  28.210  29.449  1.00  0.00     0.074 A 
ATOM     37  C   UNL A   1      44.402  27.102  30.265  1.00  0.00     0.031 C 
ATOM     38  C   UNL A   1      45.122  29.522  29.742  1.00  0.00     0.037 A 
BRANCH  25  39
ATOM     39  C   UNL A   1      43.108  28.257  34.634  1.00  0.00     0.064 A 
ATOM     40  C   UNL A   1      43.504  28.633  35.931  1.00  0.00     0.173 A 
ATOM     41  C   UNL A   1      43.347  26.907  34.289  1.00  0.00     0.173 A 
ATOM     42  F   UNL A   1      43.342  29.895  36.357  1.00  0.00    -0.203 F 
ATOM     43  C   UNL A   1      44.169  27.746  36.783  1.00  0.00     0.198 A 
ATOM     44  C   UNL A   1      43.960  26.013  35.161  1.00  0.00     0.198 A 
ATOM     45  F   UNL A   1      43.108  26.429  33.062  1.00  0.00    -0.203 F 
ATOM     46  F   UNL A   1      44.649  28.185  37.954  1.00  0.00    -0.200 F 
ATOM     47  C   UNL A   1      44.403  26.440  36.395  1.00  0.00     0.200 A 
ATOM     48  F   UNL A   1      44.195  24.756  34.756  1.00  0.00    -0.200 F 
ATOM     49  F   UNL A   1      45.099  25.609  37.179  1.00  0.00    -0.200 F 
ENDBRANCH  25  39
BRANCH  26  50
ATOM     50  C   UNL A   1      42.720  25.155  26.559  1.00  0.00     0.064 A 
ATOM     51  C   UNL A   1      43.500  24.837  25.437  1.00  0.00     0.173 A 
ATOM     52  C   UNL A   1      42.010  24.089  27.149  1.00  0.00     0.173 A 
ATOM     53  F   UNL A   1      44.245  25.783  24.845  1.00  0.00    -0.203 F 
ATOM     54  C   UNL A   1      43.580  23.529  24.945  1.00  0.00     0.198 A 
ATOM     55  C   UNL A   1      42.083  22.787  26.652  1.00  0.00     0.198 A 
ATOM     56  F   UNL A   1      41.305  24.267  28.275  1.00  0.00    -0.203 F 
ATOM     57  F   UNL A   1      44.385  23.253  23.909  1.00  0.00    -0.200 F 
ATOM     58  C   UNL A   1      42.880  22.504  25.559  1.00  0.00     0.200 A 
ATOM     59  F   UNL A   1      41.430  21.799  27.280  1.00  0.00    -0.200 F 
ATOM     60  F   UNL A   1      43.003  21.242  25.126  1.00  0.00    -0.200 F 
ENDBRANCH  26  50
BRANCH  38  61
ATOM     61  C   UNL A   1      45.451  30.448  28.604  1.00  0.00     0.064 A 
ATOM     62  C   UNL A   1      44.484  31.107  27.825  1.00  0.00     0.173 A 
ATOM     63  C   UNL A   1      46.791  30.795  28.399  1.00  0.00     0.173 A 
ATOM     64  F   UNL A   1      43.177  30.910  28.033  1.00  0.00    -0.203 F 
ATOM     65  C   UNL A   1      44.852  32.037  26.852  1.00  0.00     0.198 A 
ATOM     66  C   UNL A   1      47.153  31.751  27.455  1.00  0.00     0.198 A 
ATOM     67  F   UNL A   1      47.751  30.241  29.157  1.00  0.00    -0.203 F 
ATOM     68  F   UNL A   1      43.911  32.644  26.113  1.00  0.00    -0.200 F 
ATOM     69  C   UNL A   1      46.185  32.363  26.675  1.00  0.00     0.200 A 
ATOM     70  F   UNL A   1      48.439  32.101  27.323  1.00  0.00    -0.200 F 
ATOM     71  F   UNL A   1      46.538  33.288  25.771  1.00  0.00    -0.200 F 
ENDBRANCH  38  61
ENDBRANCH  12  13
ENDBRANCH   5   7
ENDBRANCH   4   5
ENDBRANCH   3   4
ENDBRANCH   2   3
ENDBRANCH   1   2
BRANCH   1  72
ATOM     72  C   UNL A   1      31.506  27.889  26.301  1.00  0.00     0.202 C 
BRANCH  72  73
ATOM     73  C   UNL A   1      32.182  26.622  26.849  1.00  0.00     0.261 C 
BRANCH  73  74
ATOM     74  O   UNL A   1      31.267  25.525  26.870  1.00  0.00    -0.462 OA
BRANCH  74  75
ATOM     75  C   UNL A   1      31.823  24.275  26.847  1.00  0.00     0.329 C 
ATOM     76  O   UNL A   1      31.420  23.328  27.485  1.00  0.00    -0.250 OA
BRANCH  75  77
ATOM     77  C   UNL A   1      33.089  24.324  25.976  1.00  0.00     0.201 C 
ATOM     78  C   UNL A   1      34.038  23.348  26.740  1.00  0.00     0.093 C 
ATOM     79  N   UNL A   1      33.120  24.109  24.470  1.00  0.00    -0.318 N 
ATOM     80  C   UNL A   1      35.308  23.231  26.009  1.00  0.00     0.042 A 
ATOM     81  C   UNL A   1      34.472  24.252  23.853  1.00  0.00     0.179 C 
ATOM     82  N   UNL A   1      36.484  22.691  26.430  1.00  0.00    -0.348 N 
ATOM     83  C   UNL A   1      35.510  23.623  24.710  1.00  0.00     0.081 A 
ATOM     84  C   UNL A   1      37.354  22.788  25.378  1.00  0.00     0.197 A 
ATOM     85  H   UNL A   1      36.671  22.306  27.317  1.00  0.00     0.167 HD
ATOM     86  N   UNL A   1      36.799  23.364  24.332  1.00  0.00    -0.240 NA
BRANCH  79  87
ATOM     87  C   UNL A   1      32.094  24.246  23.518  1.00  0.00     0.256 C 
ATOM     88  O   UNL A   1      31.762  23.326  22.768  1.00  0.00    -0.269 OA
BRANCH  87  89
ATOM     89  C   UNL A   1      31.301  25.470  23.360  1.00  0.00     0.061 A 
ATOM     90  C   UNL A   1      30.004  25.496  23.869  1.00  0.00     0.035 A 
ATOM     91  C   UNL A   1      31.737  26.515  22.546  1.00  0.00     0.072 A 
ATOM     92  C   UNL A   1      29.257  26.648  23.689  1.00  0.00     0.112 A 
ATOM     93  C   UNL A   1      30.920  27.631  22.439  1.00  0.00     0.132 A 
ATOM     94  Cl  UNL A   1      33.187  26.468  21.618  1.00  0.00    -0.082 Cl
ATOM     95  N   UNL A   1      29.698  27.730  23.010  1.00  0.00    -0.263 NA
ENDBRANCH  87  89
ENDBRANCH  79  87
ENDBRANCH  75  77
ENDBRANCH  74  75
ENDBRANCH  73  74
ENDBRANCH  72  73
ENDBRANCH   1  72
TORSDOF 16
ENDMDL
