MODEL 1
REMARK VINA RESULT:     -11.7      0.000      0.000
REMARK SMILES COCCn1cc(NC(=O)N[C@H]2C=C[C@H](C(=O)OCCOCCOC(=O)c3ccc(-c4c5nc(c(-c6c(F)c(F)c(F)c(F)c6F)c6ccc([nH]6)c(-c6c(F)c(F)c(F)c(F)c6F)c6nc(c(-c7c(F)c(F)c(F)c(F)c7F)c7ccc4[nH]7)C=C6)C=C5)cc3)C2)cn1
REMARK SMILES IDX 19 1 18 2 16 3 17 4 15 5 12 6 13 7 90 8 14 9 11 10 8 11 9 12
REMARK SMILES IDX 10 14 7 16 5 17 6 18 92 19 91 20 4 21 3 22 2 23 1 24 20 25
REMARK SMILES IDX 21 26 22 27 23 28 24 29 25 30 26 31 27 32 28 33 89 34 29 35
REMARK SMILES IDX 88 36 30 37 31 38 32 39 82 40 33 41 87 42 81 43 83 44 34 45
REMARK SMILES IDX 86 46 80 47 79 48 35 50 67 51 47 52 66 53 48 54 51 55 65 56
REMARK SMILES IDX 84 57 49 58 50 59 64 61 85 62 52 63 36 64 37 65 45 66 38 67
REMARK SMILES IDX 39 68 43 69 46 70 40 71 41 72 44 73 42 74 68 75 69 76 77 77
REMARK SMILES IDX 70 78 71 79 75 80 78 81 72 82 73 83 76 84 74 85 53 86 54 87
REMARK SMILES IDX 62 88 55 89 56 90 60 91 63 92 57 93 58 94 61 95 59 96
REMARK H PARENT 8 13 11 15 83 49 51 60
REMARK Flexibility Score: inf
ROOT
ATOM      1  C   UNL A   1      38.227  21.655  25.477  1.00  0.00     0.261 C 
ENDROOT
BRANCH   1   2
ATOM      2  O   UNL A   1      37.257  22.598  25.975  1.00  0.00    -0.463 OA
BRANCH   2   3
ATOM      3  C   UNL A   1      35.982  22.492  25.483  1.00  0.00     0.312 C 
ATOM      4  O   UNL A   1      35.205  21.580  25.724  1.00  0.00    -0.252 OA
BRANCH   3   5
ATOM      5  C   UNL A   1      35.673  23.718  24.626  1.00  0.00     0.124 C 
ATOM      6  C   UNL A   1      33.709  25.211  24.274  1.00  0.00     0.107 C 
ATOM      7  C   UNL A   1      33.877  24.202  23.182  1.00  0.00    -0.006 C 
ATOM      8  C   UNL A   1      34.762  24.769  25.302  1.00  0.00     0.048 C 
ATOM      9  C   UNL A   1      34.925  23.393  23.372  1.00  0.00    -0.014 C 
BRANCH   6  10
ATOM     10  N   UNL A   1      33.716  26.516  23.618  1.00  0.00    -0.332 N 
ATOM     11  N   UNL A   1      31.937  27.022  22.151  1.00  0.00    -0.305 N 
ATOM     12  C   UNL A   1      33.250  26.917  22.422  1.00  0.00     0.319 C 
ATOM     13  H   UNL A   1      31.723  27.170  21.201  1.00  0.00     0.171 HD
ATOM     14  O   UNL A   1      34.059  27.287  21.567  1.00  0.00    -0.248 OA
ATOM     15  H   UNL A   1      34.136  27.231  24.148  1.00  0.00     0.165 HD
BRANCH  11  16
ATOM     16  C   UNL A   1      30.848  26.956  22.979  1.00  0.00     0.081 A 
ATOM     17  N   UNL A   1      28.908  27.605  23.638  1.00  0.00    -0.268 N 
ATOM     18  C   UNL A   1      30.172  28.073  23.400  1.00  0.00     0.135 A 
ATOM     19  N   UNL A   1      28.934  26.308  24.006  1.00  0.00    -0.179 NA
ATOM     20  C   UNL A   1      30.149  25.911  23.597  1.00  0.00     0.161 A 
BRANCH  17  21
ATOM     21  C   UNL A   1      27.699  28.140  23.041  1.00  0.00     0.172 C 
BRANCH  21  22
ATOM     22  C   UNL A   1      27.802  29.575  22.544  1.00  0.00     0.183 C 
BRANCH  22  23
ATOM     23  O   UNL A   1      27.424  30.669  23.390  1.00  0.00    -0.383 OA
ATOM     24  C   UNL A   1      28.186  31.869  23.419  1.00  0.00     0.194 C 
ENDBRANCH  22  23
ENDBRANCH  21  22
ENDBRANCH  17  21
ENDBRANCH  11  16
ENDBRANCH   6  10
ENDBRANCH   3   5
ENDBRANCH   2   3
ENDBRANCH   1   2
BRANCH   1  25
ATOM     25  C   UNL A   1      39.600  21.877  26.118  1.00  0.00     0.202 C 
BRANCH  25  26
ATOM     26  O   UNL A   1      40.027  20.799  26.956  1.00  0.00    -0.374 OA
BRANCH  26  27
ATOM     27  C   UNL A   1      41.042  19.968  26.402  1.00  0.00     0.202 C 
BRANCH  27  28
ATOM     28  C   UNL A   1      42.395  20.639  26.296  1.00  0.00     0.261 C 
BRANCH  28  29
ATOM     29  O   UNL A   1      42.997  20.232  25.078  1.00  0.00    -0.460 OA
BRANCH  29  30
ATOM     30  C   UNL A   1      44.348  20.246  24.956  1.00  0.00     0.338 C 
ATOM     31  O   UNL A   1      45.110  19.325  24.866  1.00  0.00    -0.246 OA
BRANCH  30  32
ATOM     32  C   UNL A   1      44.702  21.670  25.120  1.00  0.00     0.060 A 
ATOM     33  C   UNL A   1      45.657  22.066  26.045  1.00  0.00     0.016 A 
ATOM     34  C   UNL A   1      43.940  22.634  24.473  1.00  0.00     0.016 A 
ATOM     35  C   UNL A   1      45.474  23.313  26.630  1.00  0.00     0.010 A 
ATOM     36  C   UNL A   1      44.083  23.932  24.842  1.00  0.00     0.010 A 
ATOM     37  C   UNL A   1      44.479  24.143  26.125  1.00  0.00    -0.014 A 
BRANCH  37  38
ATOM     38  C   UNL A   1      43.973  25.339  26.756  1.00  0.00     0.031 A 
ATOM     39  C   UNL A   1      44.845  26.480  26.495  1.00  0.00     0.074 A 
ATOM     40  C   UNL A   1      42.800  25.485  27.413  1.00  0.00     0.049 A 
ATOM     41  N   UNL A   1      45.839  26.807  27.241  1.00  0.00    -0.248 NA
ATOM     42  C   UNL A   1      44.800  27.149  25.193  1.00  0.00     0.031 C 
ATOM     43  C   UNL A   1      41.644  24.596  27.575  1.00  0.00     0.029 A 
ATOM     44  N   UNL A   1      42.435  26.574  28.148  1.00  0.00    -0.354 N 
ATOM     45  C   UNL A   1      46.455  27.858  26.599  1.00  0.00     0.074 A 
ATOM     46  C   UNL A   1      45.907  27.893  25.265  1.00  0.00     0.031 C 
ATOM     47  C   UNL A   1      40.646  25.251  28.227  1.00  0.00     0.029 A 
ATOM     48  C   UNL A   1      41.153  26.536  28.677  1.00  0.00     0.049 A 
ATOM     49  H   UNL A   1      43.042  27.334  28.295  1.00  0.00     0.167 HD
ATOM     50  C   UNL A   1      47.198  28.735  27.320  1.00  0.00     0.037 A 
ATOM     51  C   UNL A   1      40.592  27.492  29.463  1.00  0.00     0.037 A 
ATOM     52  C   UNL A   1      47.435  28.238  28.659  1.00  0.00     0.049 A 
ATOM     53  C   UNL A   1      41.717  28.219  30.118  1.00  0.00     0.074 A 
ATOM     54  C   UNL A   1      48.109  27.147  29.177  1.00  0.00     0.029 A 
ATOM     55  N   UNL A   1      46.564  28.638  29.649  1.00  0.00    -0.354 N 
ATOM     56  N   UNL A   1      42.503  27.660  30.998  1.00  0.00    -0.248 NA
ATOM     57  C   UNL A   1      42.278  29.372  29.426  1.00  0.00     0.031 C 
ATOM     58  C   UNL A   1      47.284  26.666  30.240  1.00  0.00     0.029 A 
ATOM     59  C   UNL A   1      46.186  27.521  30.356  1.00  0.00     0.049 A 
ATOM     60  H   UNL A   1      46.265  29.561  29.819  1.00  0.00     0.167 HD
ATOM     61  C   UNL A   1      43.779  28.103  30.672  1.00  0.00     0.074 A 
ATOM     62  C   UNL A   1      43.569  29.208  29.737  1.00  0.00     0.031 C 
ATOM     63  C   UNL A   1      44.885  27.357  30.967  1.00  0.00     0.037 A 
BRANCH  50  64
ATOM     64  C   UNL A   1      47.385  30.172  26.950  1.00  0.00     0.064 A 
ATOM     65  C   UNL A   1      48.683  30.711  26.987  1.00  0.00     0.173 A 
ATOM     66  C   UNL A   1      46.327  31.099  26.849  1.00  0.00     0.173 A 
ATOM     67  F   UNL A   1      49.753  29.909  27.086  1.00  0.00    -0.203 F 
ATOM     68  C   UNL A   1      48.897  32.089  27.009  1.00  0.00     0.198 A 
ATOM     69  C   UNL A   1      46.550  32.471  26.819  1.00  0.00     0.198 A 
ATOM     70  F   UNL A   1      45.043  30.726  26.896  1.00  0.00    -0.203 F 
ATOM     71  F   UNL A   1      50.139  32.563  27.173  1.00  0.00    -0.200 F 
ATOM     72  C   UNL A   1      47.830  32.967  26.935  1.00  0.00     0.200 A 
ATOM     73  F   UNL A   1      45.501  33.305  26.762  1.00  0.00    -0.200 F 
ATOM     74  F   UNL A   1      48.029  34.287  27.024  1.00  0.00    -0.200 F 
ENDBRANCH  50  64
BRANCH  51  75
ATOM     75  C   UNL A   1      39.221  28.056  29.370  1.00  0.00     0.064 A 
ATOM     76  C   UNL A   1      38.419  28.240  30.511  1.00  0.00     0.173 A 
ATOM     77  C   UNL A   1      38.786  28.696  28.193  1.00  0.00     0.173 A 
ATOM     78  F   UNL A   1      38.785  27.706  31.684  1.00  0.00    -0.203 F 
ATOM     79  C   UNL A   1      37.265  29.034  30.479  1.00  0.00     0.198 A 
ATOM     80  C   UNL A   1      37.638  29.491  28.164  1.00  0.00     0.198 A 
ATOM     81  F   UNL A   1      39.522  28.640  27.074  1.00  0.00    -0.203 F 
ATOM     82  F   UNL A   1      36.555  29.232  31.598  1.00  0.00    -0.200 F 
ATOM     83  C   UNL A   1      36.883  29.668  29.308  1.00  0.00     0.200 A 
ATOM     84  F   UNL A   1      37.303  30.133  27.035  1.00  0.00    -0.200 F 
ATOM     85  F   UNL A   1      35.817  30.481  29.291  1.00  0.00    -0.200 F 
ENDBRANCH  51  75
BRANCH  63  86
ATOM     86  C   UNL A   1      44.681  26.140  31.831  1.00  0.00     0.064 A 
ATOM     87  C   UNL A   1      44.571  26.186  33.233  1.00  0.00     0.173 A 
ATOM     88  C   UNL A   1      44.467  24.902  31.215  1.00  0.00     0.173 A 
ATOM     89  F   UNL A   1      44.661  27.345  33.891  1.00  0.00    -0.203 F 
ATOM     90  C   UNL A   1      44.307  25.040  33.982  1.00  0.00     0.198 A 
ATOM     91  C   UNL A   1      44.171  23.763  31.962  1.00  0.00     0.198 A 
ATOM     92  F   UNL A   1      44.499  24.805  29.877  1.00  0.00    -0.203 F 
ATOM     93  F   UNL A   1      44.218  25.115  35.319  1.00  0.00    -0.200 F 
ATOM     94  C   UNL A   1      44.103  23.829  33.345  1.00  0.00     0.200 A 
ATOM     95  F   UNL A   1      43.925  22.603  31.338  1.00  0.00    -0.200 F 
ATOM     96  F   UNL A   1      43.815  22.732  34.060  1.00  0.00    -0.200 F 
ENDBRANCH  63  86
ENDBRANCH  37  38
ENDBRANCH  30  32
ENDBRANCH  29  30
ENDBRANCH  28  29
ENDBRANCH  27  28
ENDBRANCH  26  27
ENDBRANCH  25  26
ENDBRANCH   1  25
TORSDOF 19
ENDMDL
MODEL 2
REMARK VINA RESULT:     -11.6      2.980      4.500
REMARK SMILES COCCn1cc(NC(=O)N[C@H]2C=C[C@H](C(=O)OCCOCCOC(=O)c3ccc(-c4c5nc(c(-c6c(F)c(F)c(F)c(F)c6F)c6ccc([nH]6)c(-c6c(F)c(F)c(F)c(F)c6F)c6nc(c(-c7c(F)c(F)c(F)c(F)c7F)c7ccc4[nH]7)C=C6)C=C5)cc3)C2)cn1
REMARK SMILES IDX 19 1 18 2 16 3 17 4 15 5 12 6 13 7 90 8 14 9 11 10 8 11 9 12
REMARK SMILES IDX 10 14 7 16 5 17 6 18 92 19 91 20 4 21 3 22 2 23 1 24 20 25
REMARK SMILES IDX 21 26 22 27 23 28 24 29 25 30 26 31 27 32 28 33 89 34 29 35
REMARK SMILES IDX 88 36 30 37 31 38 32 39 82 40 33 41 87 42 81 43 83 44 34 45
REMARK SMILES IDX 86 46 80 47 79 48 35 50 67 51 47 52 66 53 48 54 51 55 65 56
REMARK SMILES IDX 84 57 49 58 50 59 64 61 85 62 52 63 36 64 37 65 45 66 38 67
REMARK SMILES IDX 39 68 43 69 46 70 40 71 41 72 44 73 42 74 68 75 69 76 77 77
REMARK SMILES IDX 70 78 71 79 75 80 78 81 72 82 73 83 76 84 74 85 53 86 54 87
REMARK SMILES IDX 62 88 55 89 56 90 60 91 63 92 57 93 58 94 61 95 59 96
REMARK H PARENT 8 13 11 15 83 49 51 60
REMARK Flexibility Score: inf
ROOT
ATOM      1  C   UNL A   1      37.392  22.894  25.367  1.00  0.00     0.261 C 
ENDROOT
BRANCH   1   2
ATOM      2  O   UNL A   1      35.987  22.595  25.245  1.00  0.00    -0.463 OA
BRANCH   2   3
ATOM      3  C   UNL A   1      35.367  22.996  24.089  1.00  0.00     0.312 C 
ATOM      4  O   UNL A   1      35.936  23.324  23.059  1.00  0.00    -0.252 OA
BRANCH   3   5
ATOM      5  C   UNL A   1      33.853  22.922  24.282  1.00  0.00     0.124 C 
ATOM      6  C   UNL A   1      32.308  21.919  25.959  1.00  0.00     0.107 C 
ATOM      7  C   UNL A   1      32.422  21.101  24.711  1.00  0.00    -0.006 C 
ATOM      8  C   UNL A   1      33.383  22.997  25.752  1.00  0.00     0.048 C 
ATOM      9  C   UNL A   1      33.259  21.632  23.812  1.00  0.00    -0.014 C 
BRANCH   6  10
ATOM     10  N   UNL A   1      30.886  22.213  26.116  1.00  0.00    -0.332 N 
ATOM     11  N   UNL A   1      30.244  24.476  26.326  1.00  0.00    -0.305 N 
ATOM     12  C   UNL A   1      30.244  23.203  26.762  1.00  0.00     0.319 C 
ATOM     13  H   UNL A   1      29.876  25.129  26.964  1.00  0.00     0.171 HD
ATOM     14  O   UNL A   1      29.555  22.918  27.744  1.00  0.00    -0.248 OA
ATOM     15  H   UNL A   1      30.290  21.571  25.666  1.00  0.00     0.165 HD
BRANCH  11  16
ATOM     16  C   UNL A   1      30.673  25.011  25.141  1.00  0.00     0.081 A 
ATOM     17  N   UNL A   1      32.046  26.158  23.950  1.00  0.00    -0.268 N 
ATOM     18  C   UNL A   1      31.249  26.254  25.058  1.00  0.00     0.135 A 
ATOM     19  N   UNL A   1      31.537  25.279  23.062  1.00  0.00    -0.179 NA
ATOM     20  C   UNL A   1      30.677  24.570  23.811  1.00  0.00     0.161 A 
BRANCH  17  21
ATOM     21  C   UNL A   1      33.470  26.432  23.926  1.00  0.00     0.172 C 
BRANCH  21  22
ATOM     22  C   UNL A   1      33.844  27.907  23.873  1.00  0.00     0.183 C 
BRANCH  22  23
ATOM     23  O   UNL A   1      32.857  28.919  24.105  1.00  0.00    -0.383 OA
ATOM     24  C   UNL A   1      32.814  29.632  25.334  1.00  0.00     0.194 C 
ENDBRANCH  22  23
ENDBRANCH  21  22
ENDBRANCH  17  21
ENDBRANCH  11  16
ENDBRANCH   6  10
ENDBRANCH   3   5
ENDBRANCH   2   3
ENDBRANCH   1   2
BRANCH   1  25
ATOM     25  C   UNL A   1      38.228  21.615  25.458  1.00  0.00     0.202 C 
BRANCH  25  26
ATOM     26  O   UNL A   1      39.273  21.676  26.432  1.00  0.00    -0.374 OA
BRANCH  26  27
ATOM     27  C   UNL A   1      40.297  20.698  26.283  1.00  0.00     0.202 C 
BRANCH  27  28
ATOM     28  C   UNL A   1      41.689  21.281  26.154  1.00  0.00     0.261 C 
BRANCH  28  29
ATOM     29  O   UNL A   1      41.574  22.694  26.100  1.00  0.00    -0.460 OA
BRANCH  29  30
ATOM     30  C   UNL A   1      42.633  23.470  26.442  1.00  0.00     0.338 C 
ATOM     31  O   UNL A   1      43.766  23.420  26.053  1.00  0.00    -0.246 OA
BRANCH  30  32
ATOM     32  C   UNL A   1      42.114  24.310  27.539  1.00  0.00     0.060 A 
ATOM     33  C   UNL A   1      40.754  24.372  27.808  1.00  0.00     0.016 A 
ATOM     34  C   UNL A   1      42.976  25.184  28.187  1.00  0.00     0.016 A 
ATOM     35  C   UNL A   1      40.275  25.578  28.305  1.00  0.00     0.010 A 
ATOM     36  C   UNL A   1      42.449  26.144  28.988  1.00  0.00     0.010 A 
ATOM     37  C   UNL A   1      41.193  26.556  28.672  1.00  0.00    -0.014 A 
BRANCH  37  38
ATOM     38  C   UNL A   1      40.890  27.939  28.953  1.00  0.00     0.031 A 
ATOM     39  C   UNL A   1      41.865  28.829  28.329  1.00  0.00     0.074 A 
ATOM     40  C   UNL A   1      39.806  28.425  29.599  1.00  0.00     0.049 A 
ATOM     41  N   UNL A   1      42.952  29.210  28.896  1.00  0.00    -0.248 NA
ATOM     42  C   UNL A   1      41.783  29.104  26.893  1.00  0.00     0.031 C 
ATOM     43  C   UNL A   1      38.572  27.787  30.071  1.00  0.00     0.029 A 
ATOM     44  N   UNL A   1      39.639  29.716  30.005  1.00  0.00    -0.354 N 
ATOM     45  C   UNL A   1      43.629  29.943  27.946  1.00  0.00     0.074 A 
ATOM     46  C   UNL A   1      42.973  29.678  26.689  1.00  0.00     0.031 C 
ATOM     47  C   UNL A   1      37.720  28.730  30.555  1.00  0.00     0.029 A 
ATOM     48  C   UNL A   1      38.414  30.007  30.587  1.00  0.00     0.049 A 
ATOM     49  H   UNL A   1      40.342  30.395  29.893  1.00  0.00     0.167 HD
ATOM     50  C   UNL A   1      44.532  30.875  28.342  1.00  0.00     0.037 A 
ATOM     51  C   UNL A   1      38.041  31.213  31.089  1.00  0.00     0.037 A 
ATOM     52  C   UNL A   1      44.826  30.747  29.754  1.00  0.00     0.049 A 
ATOM     53  C   UNL A   1      39.298  31.931  31.447  1.00  0.00     0.074 A 
ATOM     54  C   UNL A   1      45.410  29.762  30.531  1.00  0.00     0.029 A 
ATOM     55  N   UNL A   1      44.100  31.525  30.628  1.00  0.00    -0.354 N 
ATOM     56  N   UNL A   1      40.088  31.539  32.410  1.00  0.00    -0.248 NA
ATOM     57  C   UNL A   1      39.928  32.754  30.422  1.00  0.00     0.031 C 
ATOM     58  C   UNL A   1      44.631  29.718  31.729  1.00  0.00     0.029 A 
ATOM     59  C   UNL A   1      43.657  30.715  31.648  1.00  0.00     0.049 A 
ATOM     60  H   UNL A   1      43.928  32.491  30.539  1.00  0.00     0.167 HD
ATOM     61  C   UNL A   1      41.373  31.691  31.905  1.00  0.00     0.074 A 
ATOM     62  C   UNL A   1      41.213  32.507  30.701  1.00  0.00     0.031 C 
ATOM     63  C   UNL A   1      42.405  30.912  32.346  1.00  0.00     0.037 A 
BRANCH  50  64
ATOM     64  C   UNL A   1      44.853  32.110  27.563  1.00  0.00     0.064 A 
ATOM     65  C   UNL A   1      46.096  32.187  26.910  1.00  0.00     0.173 A 
ATOM     66  C   UNL A   1      44.131  33.316  27.672  1.00  0.00     0.173 A 
ATOM     67  F   UNL A   1      46.858  31.094  26.761  1.00  0.00    -0.203 F 
ATOM     68  C   UNL A   1      46.614  33.406  26.475  1.00  0.00     0.198 A 
ATOM     69  C   UNL A   1      44.629  34.520  27.189  1.00  0.00     0.198 A 
ATOM     70  F   UNL A   1      42.979  33.401  28.348  1.00  0.00    -0.203 F 
ATOM     71  F   UNL A   1      47.855  33.457  25.973  1.00  0.00    -0.200 F 
ATOM     72  C   UNL A   1      45.885  34.573  26.624  1.00  0.00     0.200 A 
ATOM     73  F   UNL A   1      43.913  35.642  27.357  1.00  0.00    -0.200 F 
ATOM     74  F   UNL A   1      46.409  35.752  26.269  1.00  0.00    -0.200 F 
ENDBRANCH  50  64
BRANCH  51  75
ATOM     75  C   UNL A   1      36.744  31.913  30.907  1.00  0.00     0.064 A 
ATOM     76  C   UNL A   1      35.887  32.174  31.991  1.00  0.00     0.173 A 
ATOM     77  C   UNL A   1      36.459  32.596  29.709  1.00  0.00     0.173 A 
ATOM     78  F   UNL A   1      36.115  31.603  33.182  1.00  0.00    -0.203 F 
ATOM     79  C   UNL A   1      34.824  33.081  31.887  1.00  0.00     0.198 A 
ATOM     80  C   UNL A   1      35.401  33.503  29.608  1.00  0.00     0.198 A 
ATOM     81  F   UNL A   1      37.262  32.469  28.643  1.00  0.00    -0.203 F 
ATOM     82  F   UNL A   1      34.061  33.346  32.957  1.00  0.00    -0.200 F 
ATOM     83  C   UNL A   1      34.590  33.753  30.699  1.00  0.00     0.200 A 
ATOM     84  F   UNL A   1      35.212  34.178  28.465  1.00  0.00    -0.200 F 
ATOM     85  F   UNL A   1      33.615  34.669  30.616  1.00  0.00    -0.200 F 
ENDBRANCH  51  75
BRANCH  63  86
ATOM     86  C   UNL A   1      42.136  30.027  33.536  1.00  0.00     0.064 A 
ATOM     87  C   UNL A   1      41.711  28.690  33.436  1.00  0.00     0.173 A 
ATOM     88  C   UNL A   1      42.436  30.506  34.815  1.00  0.00     0.173 A 
ATOM     89  F   UNL A   1      41.500  28.124  32.243  1.00  0.00    -0.203 F 
ATOM     90  C   UNL A   1      41.548  27.889  34.565  1.00  0.00     0.198 A 
ATOM     91  C   UNL A   1      42.304  29.695  35.942  1.00  0.00     0.198 A 
ATOM     92  F   UNL A   1      42.903  31.754  34.970  1.00  0.00    -0.203 F 
ATOM     93  F   UNL A   1      41.131  26.620  34.437  1.00  0.00    -0.200 F 
ATOM     94  C   UNL A   1      41.850  28.392  35.818  1.00  0.00     0.200 A 
ATOM     95  F   UNL A   1      42.644  30.171  37.147  1.00  0.00    -0.200 F 
ATOM     96  F   UNL A   1      41.727  27.614  36.903  1.00  0.00    -0.200 F 
ENDBRANCH  63  86
ENDBRANCH  37  38
ENDBRANCH  30  32
ENDBRANCH  29  30
ENDBRANCH  28  29
ENDBRANCH  27  28
ENDBRANCH  26  27
ENDBRANCH  25  26
ENDBRANCH   1  25
TORSDOF 19
ENDMDL
MODEL 3
REMARK VINA RESULT:     -11.3      4.618      9.939
REMARK SMILES COCCn1cc(NC(=O)N[C@H]2C=C[C@H](C(=O)OCCOCCOC(=O)c3ccc(-c4c5nc(c(-c6c(F)c(F)c(F)c(F)c6F)c6ccc([nH]6)c(-c6c(F)c(F)c(F)c(F)c6F)c6nc(c(-c7c(F)c(F)c(F)c(F)c7F)c7ccc4[nH]7)C=C6)C=C5)cc3)C2)cn1
REMARK SMILES IDX 19 1 18 2 16 3 17 4 15 5 12 6 13 7 90 8 14 9 11 10 8 11 9 12
REMARK SMILES IDX 10 14 7 16 5 17 6 18 92 19 91 20 4 21 3 22 2 23 1 24 20 25
REMARK SMILES IDX 21 26 22 27 23 28 24 29 25 30 26 31 27 32 28 33 89 34 29 35
REMARK SMILES IDX 88 36 30 37 31 38 32 39 82 40 33 41 87 42 81 43 83 44 34 45
REMARK SMILES IDX 86 46 80 47 79 48 35 50 67 51 47 52 66 53 48 54 51 55 65 56
REMARK SMILES IDX 84 57 49 58 50 59 64 61 85 62 52 63 36 64 37 65 45 66 38 67
REMARK SMILES IDX 39 68 43 69 46 70 40 71 41 72 44 73 42 74 68 75 69 76 77 77
REMARK SMILES IDX 70 78 71 79 75 80 78 81 72 82 73 83 76 84 74 85 53 86 54 87
REMARK SMILES IDX 62 88 55 89 56 90 60 91 63 92 57 93 58 94 61 95 59 96
REMARK H PARENT 8 13 11 15 83 49 51 60
REMARK Flexibility Score: inf
ROOT
ATOM      1  C   UNL A   1      34.331  31.349  28.158  1.00  0.00     0.261 C 
ENDROOT
BRANCH   1   2
ATOM      2  O   UNL A   1      34.048  30.724  26.890  1.00  0.00    -0.463 OA
BRANCH   2   3
ATOM      3  C   UNL A   1      32.787  30.212  26.720  1.00  0.00     0.312 C 
ATOM      4  O   UNL A   1      31.828  30.828  26.282  1.00  0.00    -0.252 OA
BRANCH   3   5
ATOM      5  C   UNL A   1      32.789  28.738  27.121  1.00  0.00     0.124 C 
ATOM      6  C   UNL A   1      32.350  26.569  25.974  1.00  0.00     0.107 C 
ATOM      7  C   UNL A   1      31.195  27.033  26.805  1.00  0.00    -0.006 C 
ATOM      8  C   UNL A   1      33.306  27.771  26.031  1.00  0.00     0.048 C 
ATOM      9  C   UNL A   1      31.424  28.202  27.414  1.00  0.00    -0.014 C 
BRANCH   6  10
ATOM     10  N   UNL A   1      32.692  25.239  26.472  1.00  0.00    -0.332 N 
ATOM     11  N   UNL A   1      31.842  23.372  25.303  1.00  0.00    -0.305 N 
ATOM     12  C   UNL A   1      32.023  24.073  26.437  1.00  0.00     0.319 C 
ATOM     13  H   UNL A   1      31.206  22.624  25.378  1.00  0.00     0.171 HD
ATOM     14  O   UNL A   1      31.635  23.582  27.500  1.00  0.00    -0.248 OA
ATOM     15  H   UNL A   1      33.571  25.187  26.911  1.00  0.00     0.165 HD
BRANCH  11  16
ATOM     16  C   UNL A   1      32.396  23.529  24.061  1.00  0.00     0.081 A 
ATOM     17  N   UNL A   1      32.598  24.538  22.174  1.00  0.00    -0.268 N 
ATOM     18  C   UNL A   1      31.665  23.933  22.972  1.00  0.00     0.135 A 
ATOM     19  N   UNL A   1      33.819  23.994  22.357  1.00  0.00    -0.179 NA
ATOM     20  C   UNL A   1      33.683  23.361  23.534  1.00  0.00     0.161 A 
BRANCH  17  21
ATOM     21  C   UNL A   1      32.505  25.895  21.671  1.00  0.00     0.172 C 
BRANCH  21  22
ATOM     22  C   UNL A   1      31.661  26.841  22.514  1.00  0.00     0.183 C 
BRANCH  22  23
ATOM     23  O   UNL A   1      30.598  27.598  21.919  1.00  0.00    -0.383 OA
ATOM     24  C   UNL A   1      30.327  28.930  22.334  1.00  0.00     0.194 C 
ENDBRANCH  22  23
ENDBRANCH  21  22
ENDBRANCH  17  21
ENDBRANCH  11  16
ENDBRANCH   6  10
ENDBRANCH   3   5
ENDBRANCH   2   3
ENDBRANCH   1   2
BRANCH   1  25
ATOM     25  C   UNL A   1      34.594  32.849  27.994  1.00  0.00     0.202 C 
BRANCH  25  26
ATOM     26  O   UNL A   1      33.406  33.644  27.965  1.00  0.00    -0.374 OA
BRANCH  26  27
ATOM     27  C   UNL A   1      33.278  34.580  29.031  1.00  0.00     0.202 C 
BRANCH  27  28
ATOM     28  C   UNL A   1      34.458  34.593  29.980  1.00  0.00     0.261 C 
BRANCH  28  29
ATOM     29  O   UNL A   1      34.149  35.464  31.057  1.00  0.00    -0.460 OA
BRANCH  29  30
ATOM     30  C   UNL A   1      33.711  34.950  32.235  1.00  0.00     0.338 C 
ATOM     31  O   UNL A   1      32.656  35.103  32.782  1.00  0.00    -0.246 OA
BRANCH  30  32
ATOM     32  C   UNL A   1      34.902  34.274  32.787  1.00  0.00     0.060 A 
ATOM     33  C   UNL A   1      36.107  34.948  32.921  1.00  0.00     0.016 A 
ATOM     34  C   UNL A   1      34.861  32.903  33.002  1.00  0.00     0.016 A 
ATOM     35  C   UNL A   1      37.262  34.189  32.776  1.00  0.00     0.010 A 
ATOM     36  C   UNL A   1      36.025  32.247  33.237  1.00  0.00     0.010 A 
ATOM     37  C   UNL A   1      37.140  32.805  32.697  1.00  0.00    -0.014 A 
BRANCH  37  38
ATOM     38  C   UNL A   1      38.175  31.886  32.287  1.00  0.00     0.031 A 
ATOM     39  C   UNL A   1      39.000  31.484  33.423  1.00  0.00     0.074 A 
ATOM     40  C   UNL A   1      38.347  31.338  31.063  1.00  0.00     0.049 A 
ATOM     41  N   UNL A   1      40.054  32.113  33.801  1.00  0.00    -0.248 NA
ATOM     42  C   UNL A   1      38.495  30.491  34.373  1.00  0.00     0.031 C 
ATOM     43  C   UNL A   1      37.520  31.355  29.852  1.00  0.00     0.029 A 
ATOM     44  N   UNL A   1      39.433  30.618  30.664  1.00  0.00    -0.354 N 
ATOM     45  C   UNL A   1      40.471  31.482  34.951  1.00  0.00     0.074 A 
ATOM     46  C   UNL A   1      39.379  30.635  35.365  1.00  0.00     0.031 C 
ATOM     47  C   UNL A   1      38.067  30.543  28.907  1.00  0.00     0.029 A 
ATOM     48  C   UNL A   1      39.363  30.089  29.384  1.00  0.00     0.049 A 
ATOM     49  H   UNL A   1      40.216  30.484  31.245  1.00  0.00     0.167 HD
ATOM     50  C   UNL A   1      41.775  31.560  35.320  1.00  0.00     0.037 A 
ATOM     51  C   UNL A   1      40.336  29.366  28.769  1.00  0.00     0.037 A 
ATOM     52  C   UNL A   1      42.477  32.556  34.538  1.00  0.00     0.049 A 
ATOM     53  C   UNL A   1      41.623  29.753  29.416  1.00  0.00     0.074 A 
ATOM     54  C   UNL A   1      42.368  33.928  34.406  1.00  0.00     0.029 A 
ATOM     55  N   UNL A   1      43.140  32.127  33.410  1.00  0.00    -0.354 N 
ATOM     56  N   UNL A   1      42.143  30.945  29.302  1.00  0.00    -0.248 NA
ATOM     57  C   UNL A   1      42.051  28.997  30.586  1.00  0.00     0.031 C 
ATOM     58  C   UNL A   1      42.540  34.186  33.010  1.00  0.00     0.029 A 
ATOM     59  C   UNL A   1      42.806  32.971  32.376  1.00  0.00     0.049 A 
ATOM     60  H   UNL A   1      43.747  31.354  33.353  1.00  0.00     0.167 HD
ATOM     61  C   UNL A   1      42.612  31.256  30.572  1.00  0.00     0.074 A 
ATOM     62  C   UNL A   1      42.587  29.991  31.305  1.00  0.00     0.031 C 
ATOM     63  C   UNL A   1      42.706  32.551  30.995  1.00  0.00     0.037 A 
BRANCH  50  64
ATOM     64  C   UNL A   1      42.487  30.502  36.099  1.00  0.00     0.064 A 
ATOM     65  C   UNL A   1      43.283  30.892  37.190  1.00  0.00     0.173 A 
ATOM     66  C   UNL A   1      42.652  29.175  35.651  1.00  0.00     0.173 A 
ATOM     67  F   UNL A   1      43.200  32.135  37.685  1.00  0.00    -0.203 F 
ATOM     68  C   UNL A   1      44.241  30.037  37.734  1.00  0.00     0.198 A 
ATOM     69  C   UNL A   1      43.572  28.309  36.231  1.00  0.00     0.198 A 
ATOM     70  F   UNL A   1      42.023  28.703  34.567  1.00  0.00    -0.203 F 
ATOM     71  F   UNL A   1      45.067  30.490  38.687  1.00  0.00    -0.200 F 
ATOM     72  C   UNL A   1      44.391  28.751  37.248  1.00  0.00     0.200 A 
ATOM     73  F   UNL A   1      43.712  27.071  35.735  1.00  0.00    -0.200 F 
ATOM     74  F   UNL A   1      45.355  27.952  37.723  1.00  0.00    -0.200 F 
ENDBRANCH  50  64
BRANCH  51  75
ATOM     75  C   UNL A   1      40.182  28.122  27.975  1.00  0.00     0.064 A 
ATOM     76  C   UNL A   1      40.902  27.909  26.786  1.00  0.00     0.173 A 
ATOM     77  C   UNL A   1      39.542  26.994  28.525  1.00  0.00     0.173 A 
ATOM     78  F   UNL A   1      41.580  28.918  26.221  1.00  0.00    -0.203 F 
ATOM     79  C   UNL A   1      40.994  26.641  26.198  1.00  0.00     0.198 A 
ATOM     80  C   UNL A   1      39.638  25.729  27.940  1.00  0.00     0.198 A 
ATOM     81  F   UNL A   1      38.893  27.080  29.695  1.00  0.00    -0.203 F 
ATOM     82  F   UNL A   1      41.735  26.465  25.094  1.00  0.00    -0.200 F 
ATOM     83  C   UNL A   1      40.372  25.550  26.782  1.00  0.00     0.200 A 
ATOM     84  F   UNL A   1      39.066  24.675  28.539  1.00  0.00    -0.200 F 
ATOM     85  F   UNL A   1      40.512  24.325  26.258  1.00  0.00    -0.200 F 
ENDBRANCH  51  75
BRANCH  63  86
ATOM     86  C   UNL A   1      42.475  33.628  29.966  1.00  0.00     0.064 A 
ATOM     87  C   UNL A   1      41.228  34.238  29.739  1.00  0.00     0.173 A 
ATOM     88  C   UNL A   1      43.574  34.145  29.272  1.00  0.00     0.173 A 
ATOM     89  F   UNL A   1      40.148  33.871  30.435  1.00  0.00    -0.203 F 
ATOM     90  C   UNL A   1      41.081  35.282  28.827  1.00  0.00     0.198 A 
ATOM     91  C   UNL A   1      43.433  35.211  28.384  1.00  0.00     0.198 A 
ATOM     92  F   UNL A   1      44.799  33.645  29.489  1.00  0.00    -0.203 F 
ATOM     93  F   UNL A   1      39.876  35.837  28.627  1.00  0.00    -0.200 F 
ATOM     94  C   UNL A   1      42.186  35.771  28.153  1.00  0.00     0.200 A 
ATOM     95  F   UNL A   1      44.512  35.714  27.771  1.00  0.00    -0.200 F 
ATOM     96  F   UNL A   1      42.055  36.799  27.301  1.00  0.00    -0.200 F 
ENDBRANCH  63  86
ENDBRANCH  37  38
ENDBRANCH  30  32
ENDBRANCH  29  30
ENDBRANCH  28  29
ENDBRANCH  27  28
ENDBRANCH  26  27
ENDBRANCH  25  26
ENDBRANCH   1  25
TORSDOF 19
ENDMDL
