MODEL 1
REMARK VINA RESULT:     -11.7      0.000      0.000
REMARK SMILES C[C@H](C(=O)OCCOCCOC(=O)c1ccc(-c2c3nc(c(-c4c(F)c(F)c(F)c(F)c4F)c4ccc([nH]4)c(-c4c(F)c(F)c(F)c(F)c4F)c4nc(c(-c5c(F)c(F)c(F)c(F)c5F)c5ccc2[nH]5)C=C4)C=C3)cc1)c1ccc(C[C@@H]2CCC[C@H]2O)cc1
REMARK SMILES IDX 7 1 6 2 5 3 3 4 4 5 2 6 1 7 77 8 78 9 89 10 79 11 88 12
REMARK SMILES IDX 80 13 81 14 82 15 83 16 86 17 84 18 85 19 87 20 8 22 9 23
REMARK SMILES IDX 10 24 11 25 12 26 13 27 14 28 15 29 76 30 16 31 75 32 17 33
REMARK SMILES IDX 18 34 19 35 69 36 20 37 74 38 68 39 70 40 21 41 73 42 67 43
REMARK SMILES IDX 66 44 22 46 54 47 34 48 53 49 35 50 38 51 52 52 71 53 36 54
REMARK SMILES IDX 37 55 51 57 72 58 39 59 23 60 24 61 32 62 25 63 26 64 30 65
REMARK SMILES IDX 33 66 27 67 28 68 31 69 29 70 55 71 56 72 64 73 57 74 58 75
REMARK SMILES IDX 62 76 65 77 59 78 60 79 63 80 61 81 40 82 41 83 49 84 42 85
REMARK SMILES IDX 43 86 47 87 50 88 44 89 45 90 48 91 46 92
REMARK H PARENT 87 21 70 45 38 56
REMARK Flexibility Score: inf
ROOT
ATOM      1  C   UNL A   1      30.187  28.064  23.207  1.00  0.00     0.202 C 
ENDROOT
BRANCH   1   2
ATOM      2  C   UNL A   1      29.797  27.030  24.267  1.00  0.00     0.261 C 
BRANCH   2   3
ATOM      3  O   UNL A   1      30.571  25.833  24.072  1.00  0.00    -0.463 OA
BRANCH   3   4
ATOM      4  C   UNL A   1      31.353  25.448  25.121  1.00  0.00     0.313 C 
ATOM      5  O   UNL A   1      30.950  25.263  26.262  1.00  0.00    -0.252 OA
BRANCH   4   6
ATOM      6  C   UNL A   1      32.799  25.268  24.657  1.00  0.00     0.126 C 
ATOM      7  C   UNL A   1      33.713  26.091  25.559  1.00  0.00     0.025 C 
BRANCH   6   8
ATOM      8  C   UNL A   1      33.171  23.793  24.575  1.00  0.00    -0.034 A 
ATOM      9  C   UNL A   1      32.339  22.887  23.899  1.00  0.00     0.005 A 
ATOM     10  C   UNL A   1      34.300  23.291  25.234  1.00  0.00     0.005 A 
ATOM     11  C   UNL A   1      32.597  21.511  23.932  1.00  0.00     0.004 A 
ATOM     12  C   UNL A   1      34.559  21.919  25.264  1.00  0.00     0.004 A 
ATOM     13  C   UNL A   1      33.695  21.011  24.640  1.00  0.00    -0.048 A 
BRANCH  13  14
ATOM     14  C   UNL A   1      33.948  19.527  24.752  1.00  0.00     0.041 C 
BRANCH  14  15
ATOM     15  C   UNL A   1      32.834  18.565  24.284  1.00  0.00     0.022 C 
ATOM     16  C   UNL A   1      32.553  17.408  25.251  1.00  0.00     0.007 C 
ATOM     17  C   UNL A   1      33.081  17.869  22.941  1.00  0.00     0.117 C 
ATOM     18  C   UNL A   1      33.197  16.157  24.659  1.00  0.00     0.003 C 
ATOM     19  C   UNL A   1      33.742  16.538  23.284  1.00  0.00     0.032 C 
BRANCH  17  20
ATOM     20  O   UNL A   1      31.829  17.621  22.297  1.00  0.00    -0.393 OA
ATOM     21  H   UNL A   1      31.787  18.121  21.467  1.00  0.00     0.210 HD
ENDBRANCH  17  20
ENDBRANCH  14  15
ENDBRANCH  13  14
ENDBRANCH   6   8
ENDBRANCH   4   6
ENDBRANCH   3   4
ENDBRANCH   2   3
ENDBRANCH   1   2
BRANCH   1  22
ATOM     22  O   UNL A   1      30.795  29.252  23.722  1.00  0.00    -0.374 OA
BRANCH  22  23
ATOM     23  C   UNL A   1      31.393  29.156  25.015  1.00  0.00     0.202 C 
BRANCH  23  24
ATOM     24  C   UNL A   1      31.631  30.494  25.722  1.00  0.00     0.261 C 
BRANCH  24  25
ATOM     25  O   UNL A   1      32.535  30.347  26.832  1.00  0.00    -0.460 OA
BRANCH  25  26
ATOM     26  C   UNL A   1      33.173  31.482  27.194  1.00  0.00     0.338 C 
ATOM     27  O   UNL A   1      32.708  32.614  27.236  1.00  0.00    -0.246 OA
BRANCH  26  28
ATOM     28  C   UNL A   1      34.518  31.167  27.708  1.00  0.00     0.060 A 
ATOM     29  C   UNL A   1      34.800  29.823  27.987  1.00  0.00     0.016 A 
ATOM     30  C   UNL A   1      35.463  32.161  27.977  1.00  0.00     0.016 A 
ATOM     31  C   UNL A   1      36.006  29.473  28.588  1.00  0.00     0.010 A 
ATOM     32  C   UNL A   1      36.671  31.808  28.588  1.00  0.00     0.010 A 
ATOM     33  C   UNL A   1      36.931  30.468  28.930  1.00  0.00    -0.014 A 
BRANCH  33  34
ATOM     34  C   UNL A   1      38.094  30.118  29.780  1.00  0.00     0.031 A 
ATOM     35  C   UNL A   1      39.136  29.180  29.237  1.00  0.00     0.074 A 
ATOM     36  C   UNL A   1      38.238  30.657  31.003  1.00  0.00     0.049 A 
ATOM     37  N   UNL A   1      40.226  28.730  29.803  1.00  0.00    -0.248 NA
ATOM     38  C   UNL A   1      38.918  28.682  27.870  1.00  0.00     0.031 C 
ATOM     39  C   UNL A   1      37.316  31.606  31.621  1.00  0.00     0.029 A 
ATOM     40  N   UNL A   1      39.221  30.479  31.944  1.00  0.00    -0.354 N 
ATOM     41  C   UNL A   1      40.819  27.894  28.867  1.00  0.00     0.074 A 
ATOM     42  C   UNL A   1      39.956  27.874  27.707  1.00  0.00     0.031 C 
ATOM     43  C   UNL A   1      37.773  31.925  32.844  1.00  0.00     0.029 A 
ATOM     44  C   UNL A   1      39.005  31.180  33.104  1.00  0.00     0.049 A 
ATOM     45  H   UNL A   1      40.007  29.903  31.801  1.00  0.00     0.167 HD
ATOM     46  C   UNL A   1      41.986  27.211  28.964  1.00  0.00     0.037 A 
ATOM     47  C   UNL A   1      39.714  31.204  34.248  1.00  0.00     0.037 A 
ATOM     48  C   UNL A   1      42.847  27.238  30.116  1.00  0.00     0.049 A 
ATOM     49  C   UNL A   1      40.974  30.385  34.353  1.00  0.00     0.074 A 
ATOM     50  C   UNL A   1      44.063  26.605  30.299  1.00  0.00     0.029 A 
ATOM     51  N   UNL A   1      42.576  27.932  31.286  1.00  0.00    -0.354 N 
ATOM     52  N   UNL A   1      41.546  29.623  33.452  1.00  0.00    -0.248 NA
ATOM     53  C   UNL A   1      41.690  30.432  35.637  1.00  0.00     0.031 C 
ATOM     54  C   UNL A   1      44.505  26.876  31.598  1.00  0.00     0.029 A 
ATOM     55  C   UNL A   1      43.589  27.719  32.206  1.00  0.00     0.049 A 
ATOM     56  H   UNL A   1      41.782  28.493  31.439  1.00  0.00     0.167 HD
ATOM     57  C   UNL A   1      42.698  29.125  34.046  1.00  0.00     0.074 A 
ATOM     58  C   UNL A   1      42.752  29.679  35.383  1.00  0.00     0.031 C 
ATOM     59  C   UNL A   1      43.631  28.286  33.530  1.00  0.00     0.037 A 
BRANCH  46  60
ATOM     60  C   UNL A   1      42.385  26.356  27.798  1.00  0.00     0.064 A 
ATOM     61  C   UNL A   1      43.293  26.806  26.828  1.00  0.00     0.173 A 
ATOM     62  C   UNL A   1      41.876  25.055  27.667  1.00  0.00     0.173 A 
ATOM     63  F   UNL A   1      43.798  28.046  26.901  1.00  0.00    -0.203 F 
ATOM     64  C   UNL A   1      43.658  25.994  25.757  1.00  0.00     0.198 A 
ATOM     65  C   UNL A   1      42.262  24.237  26.608  1.00  0.00     0.198 A 
ATOM     66  F   UNL A   1      41.005  24.576  28.568  1.00  0.00    -0.203 F 
ATOM     67  F   UNL A   1      44.493  26.461  24.818  1.00  0.00    -0.200 F 
ATOM     68  C   UNL A   1      43.147  24.709  25.652  1.00  0.00     0.200 A 
ATOM     69  F   UNL A   1      41.776  22.991  26.515  1.00  0.00    -0.200 F 
ATOM     70  F   UNL A   1      43.503  23.926  24.623  1.00  0.00    -0.200 F 
ENDBRANCH  46  60
BRANCH  47  71
ATOM     71  C   UNL A   1      39.249  32.030  35.393  1.00  0.00     0.064 A 
ATOM     72  C   UNL A   1      39.628  33.373  35.516  1.00  0.00     0.173 A 
ATOM     73  C   UNL A   1      38.430  31.487  36.394  1.00  0.00     0.173 A 
ATOM     74  F   UNL A   1      40.432  33.928  34.597  1.00  0.00    -0.203 F 
ATOM     75  C   UNL A   1      39.218  34.139  36.605  1.00  0.00     0.198 A 
ATOM     76  C   UNL A   1      37.998  32.262  37.468  1.00  0.00     0.198 A 
ATOM     77  F   UNL A   1      38.042  30.205  36.324  1.00  0.00    -0.203 F 
ATOM     78  F   UNL A   1      39.630  35.409  36.722  1.00  0.00    -0.200 F 
ATOM     79  C   UNL A   1      38.398  33.585  37.578  1.00  0.00     0.200 A 
ATOM     80  F   UNL A   1      37.198  31.725  38.400  1.00  0.00    -0.200 F 
ATOM     81  F   UNL A   1      38.002  34.323  38.623  1.00  0.00    -0.200 F 
ENDBRANCH  47  71
BRANCH  59  82
ATOM     82  C   UNL A   1      44.806  27.943  34.399  1.00  0.00     0.064 A 
ATOM     83  C   UNL A   1      45.952  28.751  34.438  1.00  0.00     0.173 A 
ATOM     84  C   UNL A   1      44.766  26.817  35.235  1.00  0.00     0.173 A 
ATOM     85  F   UNL A   1      46.045  29.830  33.648  1.00  0.00    -0.203 F 
ATOM     86  C   UNL A   1      47.025  28.429  35.266  1.00  0.00     0.198 A 
ATOM     87  C   UNL A   1      45.827  26.514  36.081  1.00  0.00     0.198 A 
ATOM     88  F   UNL A   1      43.689  26.017  35.239  1.00  0.00    -0.203 F 
ATOM     89  F   UNL A   1      48.128  29.190  35.256  1.00  0.00    -0.200 F 
ATOM     90  C   UNL A   1      46.958  27.317  36.092  1.00  0.00     0.200 A 
ATOM     91  F   UNL A   1      45.756  25.447  36.888  1.00  0.00    -0.200 F 
ATOM     92  F   UNL A   1      47.989  27.013  36.893  1.00  0.00    -0.200 F 
ENDBRANCH  59  82
ENDBRANCH  33  34
ENDBRANCH  26  28
ENDBRANCH  25  26
ENDBRANCH  24  25
ENDBRANCH  23  24
ENDBRANCH  22  23
ENDBRANCH   1  22
TORSDOF 18
ENDMDL
MODEL 2
REMARK VINA RESULT:     -11.7      0.932      7.408
REMARK SMILES C[C@H](C(=O)OCCOCCOC(=O)c1ccc(-c2c3nc(c(-c4c(F)c(F)c(F)c(F)c4F)c4ccc([nH]4)c(-c4c(F)c(F)c(F)c(F)c4F)c4nc(c(-c5c(F)c(F)c(F)c(F)c5F)c5ccc2[nH]5)C=C4)C=C3)cc1)c1ccc(C[C@@H]2CCC[C@H]2O)cc1
REMARK SMILES IDX 7 1 6 2 5 3 3 4 4 5 2 6 1 7 77 8 78 9 89 10 79 11 88 12
REMARK SMILES IDX 80 13 81 14 82 15 83 16 86 17 84 18 85 19 87 20 8 22 9 23
REMARK SMILES IDX 10 24 11 25 12 26 13 27 14 28 15 29 76 30 16 31 75 32 17 33
REMARK SMILES IDX 18 34 19 35 69 36 20 37 74 38 68 39 70 40 21 41 73 42 67 43
REMARK SMILES IDX 66 44 22 46 54 47 34 48 53 49 35 50 38 51 52 52 71 53 36 54
REMARK SMILES IDX 37 55 51 57 72 58 39 59 23 60 24 61 32 62 25 63 26 64 30 65
REMARK SMILES IDX 33 66 27 67 28 68 31 69 29 70 55 71 56 72 64 73 57 74 58 75
REMARK SMILES IDX 62 76 65 77 59 78 60 79 63 80 61 81 40 82 41 83 49 84 42 85
REMARK SMILES IDX 43 86 47 87 50 88 44 89 45 90 48 91 46 92
REMARK H PARENT 87 21 70 45 38 56
REMARK Flexibility Score: inf
ROOT
ATOM      1  C   UNL A   1      30.425  28.847  23.485  1.00  0.00     0.202 C 
ENDROOT
BRANCH   1   2
ATOM      2  C   UNL A   1      30.929  27.576  24.174  1.00  0.00     0.261 C 
BRANCH   2   3
ATOM      3  O   UNL A   1      31.892  26.925  23.326  1.00  0.00    -0.463 OA
BRANCH   3   4
ATOM      4  C   UNL A   1      33.189  27.322  23.476  1.00  0.00     0.313 C 
ATOM      5  O   UNL A   1      33.688  28.296  22.929  1.00  0.00    -0.252 OA
BRANCH   4   6
ATOM      6  C   UNL A   1      33.915  26.380  24.437  1.00  0.00     0.126 C 
ATOM      7  C   UNL A   1      33.703  26.874  25.865  1.00  0.00     0.025 C 
BRANCH   6   8
ATOM      8  C   UNL A   1      33.495  24.933  24.212  1.00  0.00    -0.034 A 
ATOM      9  C   UNL A   1      32.707  24.266  25.163  1.00  0.00     0.005 A 
ATOM     10  C   UNL A   1      33.947  24.210  23.101  1.00  0.00     0.005 A 
ATOM     11  C   UNL A   1      32.428  22.899  25.034  1.00  0.00     0.004 A 
ATOM     12  C   UNL A   1      33.665  22.848  22.972  1.00  0.00     0.004 A 
ATOM     13  C   UNL A   1      32.930  22.171  23.951  1.00  0.00    -0.048 A 
BRANCH  13  14
ATOM     14  C   UNL A   1      32.706  20.683  23.835  1.00  0.00     0.041 C 
BRANCH  14  15
ATOM     15  C   UNL A   1      33.252  19.777  24.961  1.00  0.00     0.022 C 
ATOM     16  C   UNL A   1      34.690  19.292  24.738  1.00  0.00     0.007 C 
ATOM     17  C   UNL A   1      32.465  18.487  25.215  1.00  0.00     0.117 C 
ATOM     18  C   UNL A   1      34.610  17.836  24.284  1.00  0.00     0.003 C 
ATOM     19  C   UNL A   1      33.144  17.418  24.366  1.00  0.00     0.032 C 
BRANCH  17  20
ATOM     20  O   UNL A   1      32.570  18.131  26.596  1.00  0.00    -0.393 OA
ATOM     21  H   UNL A   1      32.479  17.170  26.690  1.00  0.00     0.210 HD
ENDBRANCH  17  20
ENDBRANCH  14  15
ENDBRANCH  13  14
ENDBRANCH   6   8
ENDBRANCH   4   6
ENDBRANCH   3   4
ENDBRANCH   2   3
ENDBRANCH   1   2
BRANCH   1  22
ATOM     22  O   UNL A   1      30.591  30.047  24.244  1.00  0.00    -0.374 OA
BRANCH  22  23
ATOM     23  C   UNL A   1      31.475  29.980  25.363  1.00  0.00     0.202 C 
BRANCH  23  24
ATOM     24  C   UNL A   1      31.612  31.279  26.163  1.00  0.00     0.261 C 
BRANCH  24  25
ATOM     25  O   UNL A   1      32.495  31.112  27.287  1.00  0.00    -0.460 OA
BRANCH  25  26
ATOM     26  C   UNL A   1      33.307  32.165  27.528  1.00  0.00     0.338 C 
ATOM     27  O   UNL A   1      32.999  33.350  27.555  1.00  0.00    -0.246 OA
BRANCH  26  28
ATOM     28  C   UNL A   1      34.646  31.693  27.927  1.00  0.00     0.060 A 
ATOM     29  C   UNL A   1      34.803  30.319  28.147  1.00  0.00     0.016 A 
ATOM     30  C   UNL A   1      35.709  32.573  28.148  1.00  0.00     0.016 A 
ATOM     31  C   UNL A   1      36.006  29.823  28.642  1.00  0.00     0.010 A 
ATOM     32  C   UNL A   1      36.915  32.075  28.652  1.00  0.00     0.010 A 
ATOM     33  C   UNL A   1      37.055  30.704  28.937  1.00  0.00    -0.014 A 
BRANCH  33  34
ATOM     34  C   UNL A   1      38.234  30.205  29.684  1.00  0.00     0.031 A 
ATOM     35  C   UNL A   1      38.438  30.653  31.104  1.00  0.00     0.074 A 
ATOM     36  C   UNL A   1      39.090  29.337  29.117  1.00  0.00     0.049 A 
ATOM     37  N   UNL A   1      39.398  30.353  31.941  1.00  0.00    -0.248 NA
ATOM     38  C   UNL A   1      37.423  31.563  31.655  1.00  0.00     0.031 C 
ATOM     39  C   UNL A   1      38.975  28.802  27.763  1.00  0.00     0.029 A 
ATOM     40  N   UNL A   1      40.227  28.753  29.616  1.00  0.00    -0.354 N 
ATOM     41  C   UNL A   1      39.106  31.040  33.112  1.00  0.00     0.074 A 
ATOM     42  C   UNL A   1      37.897  31.795  32.871  1.00  0.00     0.031 C 
ATOM     43  C   UNL A   1      40.006  27.970  27.534  1.00  0.00     0.029 A 
ATOM     44  C   UNL A   1      40.867  27.937  28.717  1.00  0.00     0.049 A 
ATOM     45  H   UNL A   1      40.553  28.905  30.533  1.00  0.00     0.167 HD
ATOM     46  C   UNL A   1      39.782  31.032  34.286  1.00  0.00     0.037 A 
ATOM     47  C   UNL A   1      42.022  27.256  28.833  1.00  0.00     0.037 A 
ATOM     48  C   UNL A   1      40.980  30.274  34.527  1.00  0.00     0.049 A 
ATOM     49  C   UNL A   1      42.788  27.316  30.129  1.00  0.00     0.074 A 
ATOM     50  C   UNL A   1      41.722  30.177  35.691  1.00  0.00     0.029 A 
ATOM     51  N   UNL A   1      41.618  29.487  33.579  1.00  0.00    -0.354 N 
ATOM     52  N   UNL A   1      42.488  27.940  31.241  1.00  0.00    -0.248 NA
ATOM     53  C   UNL A   1      44.055  26.571  30.184  1.00  0.00     0.031 C 
ATOM     54  C   UNL A   1      42.835  29.371  35.433  1.00  0.00     0.029 A 
ATOM     55  C   UNL A   1      42.760  28.924  34.124  1.00  0.00     0.049 A 
ATOM     56  H   UNL A   1      41.305  29.349  32.656  1.00  0.00     0.167 HD
ATOM     57  C   UNL A   1      43.508  27.643  32.135  1.00  0.00     0.074 A 
ATOM     58  C   UNL A   1      44.432  26.772  31.439  1.00  0.00     0.031 C 
ATOM     59  C   UNL A   1      43.665  28.052  33.419  1.00  0.00     0.037 A 
BRANCH  46  60
ATOM     60  C   UNL A   1      39.250  31.892  35.396  1.00  0.00     0.064 A 
ATOM     61  C   UNL A   1      38.436  31.369  36.410  1.00  0.00     0.173 A 
ATOM     62  C   UNL A   1      39.589  33.252  35.460  1.00  0.00     0.173 A 
ATOM     63  F   UNL A   1      38.072  30.078  36.386  1.00  0.00    -0.203 F 
ATOM     64  C   UNL A   1      37.958  32.182  37.436  1.00  0.00     0.198 A 
ATOM     65  C   UNL A   1      39.131  34.056  36.501  1.00  0.00     0.198 A 
ATOM     66  F   UNL A   1      40.367  33.801  34.516  1.00  0.00    -0.203 F 
ATOM     67  F   UNL A   1      37.145  31.671  38.370  1.00  0.00    -0.200 F 
ATOM     68  C   UNL A   1      38.312  33.523  37.483  1.00  0.00     0.200 A 
ATOM     69  F   UNL A   1      39.483  35.349  36.551  1.00  0.00    -0.200 F 
ATOM     70  F   UNL A   1      37.856  34.303  38.474  1.00  0.00    -0.200 F 
ENDBRANCH  46  60
BRANCH  47  71
ATOM     71  C   UNL A   1      42.531  26.457  27.687  1.00  0.00     0.064 A 
ATOM     72  C   UNL A   1      43.489  26.981  26.809  1.00  0.00     0.173 A 
ATOM     73  C   UNL A   1      42.057  25.160  27.439  1.00  0.00     0.173 A 
ATOM     74  F   UNL A   1      43.952  28.226  26.991  1.00  0.00    -0.203 F 
ATOM     75  C   UNL A   1      43.944  26.244  25.718  1.00  0.00     0.198 A 
ATOM     76  C   UNL A   1      42.533  24.414  26.363  1.00  0.00     0.198 A 
ATOM     77  F   UNL A   1      41.137  24.614  28.248  1.00  0.00    -0.203 F 
ATOM     78  F   UNL A   1      44.829  26.785  24.869  1.00  0.00    -0.200 F 
ATOM     79  C   UNL A   1      43.470  24.959  25.499  1.00  0.00     0.200 A 
ATOM     80  F   UNL A   1      42.080  23.169  26.161  1.00  0.00    -0.200 F 
ATOM     81  F   UNL A   1      43.910  24.250  24.451  1.00  0.00    -0.200 F 
ENDBRANCH  47  71
BRANCH  59  82
ATOM     82  C   UNL A   1      44.860  27.535  34.167  1.00  0.00     0.064 A 
ATOM     83  C   UNL A   1      46.059  28.260  34.228  1.00  0.00     0.173 A 
ATOM     84  C   UNL A   1      44.788  26.322  34.867  1.00  0.00     0.173 A 
ATOM     85  F   UNL A   1      46.182  29.419  33.565  1.00  0.00    -0.203 F 
ATOM     86  C   UNL A   1      47.151  27.775  34.944  1.00  0.00     0.198 A 
ATOM     87  C   UNL A   1      45.871  25.854  35.604  1.00  0.00     0.198 A 
ATOM     88  F   UNL A   1      43.661  25.594  34.845  1.00  0.00    -0.203 F 
ATOM     89  F   UNL A   1      48.301  28.463  34.954  1.00  0.00    -0.200 F 
ATOM     90  C   UNL A   1      47.053  26.579  35.637  1.00  0.00     0.200 A 
ATOM     91  F   UNL A   1      45.771  24.704  36.285  1.00  0.00    -0.200 F 
ATOM     92  F   UNL A   1      48.103  26.118  36.332  1.00  0.00    -0.200 F 
ENDBRANCH  59  82
ENDBRANCH  33  34
ENDBRANCH  26  28
ENDBRANCH  25  26
ENDBRANCH  24  25
ENDBRANCH  23  24
ENDBRANCH  22  23
ENDBRANCH   1  22
TORSDOF 18
ENDMDL
MODEL 3
REMARK VINA RESULT:     -11.6      3.577      8.667
REMARK SMILES C[C@H](C(=O)OCCOCCOC(=O)c1ccc(-c2c3nc(c(-c4c(F)c(F)c(F)c(F)c4F)c4ccc([nH]4)c(-c4c(F)c(F)c(F)c(F)c4F)c4nc(c(-c5c(F)c(F)c(F)c(F)c5F)c5ccc2[nH]5)C=C4)C=C3)cc1)c1ccc(C[C@@H]2CCC[C@H]2O)cc1
REMARK SMILES IDX 7 1 6 2 5 3 3 4 4 5 2 6 1 7 77 8 78 9 89 10 79 11 88 12
REMARK SMILES IDX 80 13 81 14 82 15 83 16 86 17 84 18 85 19 87 20 8 22 9 23
REMARK SMILES IDX 10 24 11 25 12 26 13 27 14 28 15 29 76 30 16 31 75 32 17 33
REMARK SMILES IDX 18 34 19 35 69 36 20 37 74 38 68 39 70 40 21 41 73 42 67 43
REMARK SMILES IDX 66 44 22 46 54 47 34 48 53 49 35 50 38 51 52 52 71 53 36 54
REMARK SMILES IDX 37 55 51 57 72 58 39 59 23 60 24 61 32 62 25 63 26 64 30 65
REMARK SMILES IDX 33 66 27 67 28 68 31 69 29 70 55 71 56 72 64 73 57 74 58 75
REMARK SMILES IDX 62 76 65 77 59 78 60 79 63 80 61 81 40 82 41 83 49 84 42 85
REMARK SMILES IDX 43 86 47 87 50 88 44 89 45 90 48 91 46 92
REMARK H PARENT 87 21 70 45 38 56
REMARK Flexibility Score: inf
ROOT
ATOM      1  C   UNL A   1      41.509  20.318  26.538  1.00  0.00     0.202 C 
ENDROOT
BRANCH   1   2
ATOM      2  C   UNL A   1      40.506  21.472  26.635  1.00  0.00     0.261 C 
BRANCH   2   3
ATOM      3  O   UNL A   1      39.346  21.163  25.842  1.00  0.00    -0.463 OA
BRANCH   3   4
ATOM      4  C   UNL A   1      38.411  22.150  25.737  1.00  0.00     0.313 C 
ATOM      5  O   UNL A   1      38.417  23.189  26.385  1.00  0.00    -0.252 OA
BRANCH   4   6
ATOM      6  C   UNL A   1      37.369  21.773  24.684  1.00  0.00     0.126 C 
ATOM      7  C   UNL A   1      36.745  20.435  25.065  1.00  0.00     0.025 C 
BRANCH   6   8
ATOM      8  C   UNL A   1      36.358  22.895  24.483  1.00  0.00    -0.034 A 
ATOM      9  C   UNL A   1      36.106  23.816  25.512  1.00  0.00     0.005 A 
ATOM     10  C   UNL A   1      35.601  22.990  23.309  1.00  0.00     0.005 A 
ATOM     11  C   UNL A   1      35.085  24.767  25.391  1.00  0.00     0.004 A 
ATOM     12  C   UNL A   1      34.585  23.941  23.188  1.00  0.00     0.004 A 
ATOM     13  C   UNL A   1      34.295  24.819  24.239  1.00  0.00    -0.048 A 
BRANCH  13  14
ATOM     14  C   UNL A   1      33.141  25.785  24.121  1.00  0.00     0.041 C 
BRANCH  14  15
ATOM     15  C   UNL A   1      32.923  26.491  22.764  1.00  0.00     0.022 C 
ATOM     16  C   UNL A   1      33.077  28.016  22.817  1.00  0.00     0.007 C 
ATOM     17  C   UNL A   1      31.547  26.284  22.123  1.00  0.00     0.117 C 
ATOM     18  C   UNL A   1      31.673  28.614  22.791  1.00  0.00     0.003 C 
ATOM     19  C   UNL A   1      30.695  27.458  22.589  1.00  0.00     0.032 C 
BRANCH  17  20
ATOM     20  O   UNL A   1      31.675  26.329  20.699  1.00  0.00    -0.393 OA
ATOM     21  H   UNL A   1      31.234  27.124  20.360  1.00  0.00     0.210 HD
ENDBRANCH  17  20
ENDBRANCH  14  15
ENDBRANCH  13  14
ENDBRANCH   6   8
ENDBRANCH   4   6
ENDBRANCH   3   4
ENDBRANCH   2   3
ENDBRANCH   1   2
BRANCH   1  22
ATOM     22  O   UNL A   1      42.455  20.433  25.472  1.00  0.00    -0.374 OA
BRANCH  22  23
ATOM     23  C   UNL A   1      43.590  21.265  25.710  1.00  0.00     0.202 C 
BRANCH  23  24
ATOM     24  C   UNL A   1      43.969  22.196  24.554  1.00  0.00     0.261 C 
BRANCH  24  25
ATOM     25  O   UNL A   1      43.242  23.436  24.618  1.00  0.00    -0.460 OA
BRANCH  25  26
ATOM     26  C   UNL A   1      43.978  24.502  25.004  1.00  0.00     0.338 C 
ATOM     27  O   UNL A   1      45.072  24.844  24.574  1.00  0.00    -0.246 OA
BRANCH  26  28
ATOM     28  C   UNL A   1      43.208  25.339  25.941  1.00  0.00     0.060 A 
ATOM     29  C   UNL A   1      43.628  26.664  26.114  1.00  0.00     0.016 A 
ATOM     30  C   UNL A   1      42.141  24.831  26.687  1.00  0.00     0.016 A 
ATOM     31  C   UNL A   1      43.021  27.470  27.073  1.00  0.00     0.010 A 
ATOM     32  C   UNL A   1      41.536  25.640  27.656  1.00  0.00     0.010 A 
ATOM     33  C   UNL A   1      41.999  26.950  27.878  1.00  0.00    -0.014 A 
BRANCH  33  34
ATOM     34  C   UNL A   1      41.528  27.728  29.048  1.00  0.00     0.031 A 
ATOM     35  C   UNL A   1      42.279  27.617  30.345  1.00  0.00     0.074 A 
ATOM     36  C   UNL A   1      40.470  28.550  28.945  1.00  0.00     0.049 A 
ATOM     37  N   UNL A   1      42.044  28.196  31.495  1.00  0.00    -0.248 NA
ATOM     38  C   UNL A   1      43.454  26.732  30.347  1.00  0.00     0.031 C 
ATOM     39  C   UNL A   1      39.687  28.771  27.732  1.00  0.00     0.029 A 
ATOM     40  N   UNL A   1      39.872  29.355  29.883  1.00  0.00    -0.354 N 
ATOM     41  C   UNL A   1      43.034  27.742  32.356  1.00  0.00     0.074 A 
ATOM     42  C   UNL A   1      43.857  26.818  31.607  1.00  0.00     0.031 C 
ATOM     43  C   UNL A   1      38.706  29.649  28.000  1.00  0.00     0.029 A 
ATOM     44  C   UNL A   1      38.776  30.030  29.410  1.00  0.00     0.049 A 
ATOM     45  H   UNL A   1      40.200  29.438  30.809  1.00  0.00     0.167 HD
ATOM     46  C   UNL A   1      43.245  28.076  33.652  1.00  0.00     0.037 A 
ATOM     47  C   UNL A   1      37.920  30.850  30.049  1.00  0.00     0.037 A 
ATOM     48  C   UNL A   1      42.430  29.001  34.393  1.00  0.00     0.049 A 
ATOM     49  C   UNL A   1      38.139  31.154  31.509  1.00  0.00     0.074 A 
ATOM     50  C   UNL A   1      42.578  29.427  35.700  1.00  0.00     0.029 A 
ATOM     51  N   UNL A   1      41.305  29.639  33.889  1.00  0.00    -0.354 N 
ATOM     52  N   UNL A   1      39.097  30.748  32.306  1.00  0.00    -0.248 NA
ATOM     53  C   UNL A   1      37.155  32.035  32.156  1.00  0.00     0.031 C 
ATOM     54  C   UNL A   1      41.516  30.284  36.004  1.00  0.00     0.029 A 
ATOM     55  C   UNL A   1      40.734  30.433  34.869  1.00  0.00     0.049 A 
ATOM     56  H   UNL A   1      40.965  29.542  32.970  1.00  0.00     0.167 HD
ATOM     57  C   UNL A   1      38.850  31.343  33.536  1.00  0.00     0.074 A 
ATOM     58  C   UNL A   1      37.657  32.149  33.379  1.00  0.00     0.031 C 
ATOM     59  C   UNL A   1      39.551  31.235  34.693  1.00  0.00     0.037 A 
BRANCH  46  60
ATOM     60  C   UNL A   1      44.390  27.414  34.359  1.00  0.00     0.064 A 
ATOM     61  C   UNL A   1      44.250  26.165  34.983  1.00  0.00     0.173 A 
ATOM     62  C   UNL A   1      45.653  28.024  34.386  1.00  0.00     0.173 A 
ATOM     63  F   UNL A   1      43.060  25.547  34.998  1.00  0.00    -0.203 F 
ATOM     64  C   UNL A   1      45.328  25.563  35.629  1.00  0.00     0.198 A 
ATOM     65  C   UNL A   1      46.734  27.407  35.010  1.00  0.00     0.198 A 
ATOM     66  F   UNL A   1      45.840  29.217  33.803  1.00  0.00    -0.203 F 
ATOM     67  F   UNL A   1      45.161  24.391  36.256  1.00  0.00    -0.200 F 
ATOM     68  C   UNL A   1      46.570  26.182  35.636  1.00  0.00     0.200 A 
ATOM     69  F   UNL A   1      47.936  28.002  35.006  1.00  0.00    -0.200 F 
ATOM     70  F   UNL A   1      47.607  25.598  36.253  1.00  0.00    -0.200 F 
ENDBRANCH  46  60
BRANCH  47  71
ATOM     71  C   UNL A   1      36.772  31.443  29.315  1.00  0.00     0.064 A 
ATOM     72  C   UNL A   1      36.742  32.808  28.999  1.00  0.00     0.173 A 
ATOM     73  C   UNL A   1      35.674  30.659  28.930  1.00  0.00     0.173 A 
ATOM     74  F   UNL A   1      37.756  33.602  29.370  1.00  0.00    -0.203 F 
ATOM     75  C   UNL A   1      35.652  33.369  28.338  1.00  0.00     0.198 A 
ATOM     76  C   UNL A   1      34.597  31.216  28.244  1.00  0.00     0.198 A 
ATOM     77  F   UNL A   1      35.653  29.348  29.211  1.00  0.00    -0.203 F 
ATOM     78  F   UNL A   1      35.628  34.686  28.087  1.00  0.00    -0.200 F 
ATOM     79  C   UNL A   1      34.582  32.572  27.956  1.00  0.00     0.200 A 
ATOM     80  F   UNL A   1      33.571  30.440  27.869  1.00  0.00    -0.200 F 
ATOM     81  F   UNL A   1      33.536  33.113  27.318  1.00  0.00    -0.200 F 
ENDBRANCH  47  71
BRANCH  59  82
ATOM     82  C   UNL A   1      39.067  32.033  35.869  1.00  0.00     0.064 A 
ATOM     83  C   UNL A   1      38.230  31.472  36.844  1.00  0.00     0.173 A 
ATOM     84  C   UNL A   1      39.483  33.361  36.044  1.00  0.00     0.173 A 
ATOM     85  F   UNL A   1      37.793  30.210  36.715  1.00  0.00    -0.203 F 
ATOM     86  C   UNL A   1      37.808  32.220  37.940  1.00  0.00     0.198 A 
ATOM     87  C   UNL A   1      39.083  34.097  37.155  1.00  0.00     0.198 A 
ATOM     88  F   UNL A   1      40.289  33.942  35.143  1.00  0.00    -0.203 F 
ATOM     89  F   UNL A   1      36.973  31.678  38.838  1.00  0.00    -0.200 F 
ATOM     90  C   UNL A   1      38.240  33.528  38.099  1.00  0.00     0.200 A 
ATOM     91  F   UNL A   1      39.512  35.356  37.314  1.00  0.00    -0.200 F 
ATOM     92  F   UNL A   1      37.839  34.245  39.158  1.00  0.00    -0.200 F 
ENDBRANCH  59  82
ENDBRANCH  33  34
ENDBRANCH  26  28
ENDBRANCH  25  26
ENDBRANCH  24  25
ENDBRANCH  23  24
ENDBRANCH  22  23
ENDBRANCH   1  22
TORSDOF 18
ENDMDL
