MODEL 1
REMARK VINA RESULT:     -12.7      0.000      0.000
REMARK SMILES Cc1ccccc1NC(=O)CSc1nc(C(=O)OCCOCCOC(=O)c2ccc(-c3c4nc(c(-c5c(F)c(F)c(F)c(F)c5F)c5ccc([nH]5)c(-c5c(F)c(F)c(F)c(F)c5F)c5nc(c(-c6c(F)c(F)c(F)c(F)c6F)c6ccc3[nH]6)C=C5)C=C4)cc2)c2ccccc2n1
REMARK SMILES IDX 20 1 19 2 18 3 16 4 17 5 15 6 13 7 14 8 96 9 95 10 90 11
REMARK SMILES IDX 94 12 91 13 93 14 92 15 12 16 11 17 9 18 8 19 10 21 7 22
REMARK SMILES IDX 1 23 2 24 3 25 4 26 6 27 5 28 21 29 22 30 23 31 24 32 25 33
REMARK SMILES IDX 26 34 27 35 28 36 89 37 29 38 88 39 30 40 31 41 32 42 82 43
REMARK SMILES IDX 33 44 87 45 81 46 83 47 34 48 86 49 80 50 79 51 35 53 67 54
REMARK SMILES IDX 47 55 66 56 48 57 51 58 65 59 84 60 49 61 50 62 64 64 85 65
REMARK SMILES IDX 52 66 36 67 37 68 45 69 38 70 39 71 43 72 46 73 40 74 41 75
REMARK SMILES IDX 44 76 42 77 68 78 69 79 77 80 70 81 71 82 75 83 78 84 72 85
REMARK SMILES IDX 73 86 76 87 74 88 53 89 54 90 62 91 55 92 56 93 60 94 63 95
REMARK SMILES IDX 57 96 58 97 61 98 59 99
REMARK H PARENT 8 20 83 52 51 63
REMARK Flexibility Score: inf
ROOT
ATOM      1  C   UNL A   1      33.259  29.101  23.945  1.00  0.00     0.202 C 
ENDROOT
BRANCH   1   2
ATOM      2  C   UNL A   1      33.153  28.680  22.510  1.00  0.00     0.261 C 
BRANCH   2   3
ATOM      3  O   UNL A   1      33.888  27.473  22.250  1.00  0.00    -0.458 OA
BRANCH   3   4
ATOM      4  C   UNL A   1      33.296  26.309  21.890  1.00  0.00     0.357 C 
ATOM      5  O   UNL A   1      33.055  25.924  20.770  1.00  0.00    -0.244 OA
BRANCH   4   6
ATOM      6  C   UNL A   1      33.071  25.505  23.126  1.00  0.00     0.160 A 
ATOM      7  C   UNL A   1      34.200  24.282  24.661  1.00  0.00     0.189 A 
ATOM      8  N   UNL A   1      34.199  24.857  23.476  1.00  0.00    -0.215 NA
ATOM      9  N   UNL A   1      33.157  24.258  25.498  1.00  0.00    -0.222 NA
ATOM     10  C   UNL A   1      32.031  24.882  25.125  1.00  0.00     0.076 A 
ATOM     11  C   UNL A   1      31.904  25.570  23.918  1.00  0.00     0.034 A 
ATOM     12  C   UNL A   1      30.953  24.885  26.005  1.00  0.00     0.029 A 
ATOM     13  C   UNL A   1      30.671  26.259  23.661  1.00  0.00     0.013 A 
ATOM     14  C   UNL A   1      29.769  25.587  25.751  1.00  0.00     0.002 A 
ATOM     15  C   UNL A   1      29.632  26.296  24.577  1.00  0.00     0.001 A 
BRANCH   7  16
ATOM     16  S   UNL A   1      35.778  23.799  25.270  1.00  0.00    -0.076 SA
BRANCH  16  17
ATOM     17  C   UNL A   1      35.650  21.991  25.074  1.00  0.00     0.178 C 
BRANCH  17  18
ATOM     18  C   UNL A   1      34.807  21.317  26.139  1.00  0.00     0.234 C 
ATOM     19  N   UNL A   1      34.010  20.229  25.921  1.00  0.00    -0.325 N 
ATOM     20  H   UNL A   1      33.514  19.946  26.724  1.00  0.00     0.169 HD
ATOM     21  O   UNL A   1      34.804  21.771  27.292  1.00  0.00    -0.274 OA
BRANCH  19  22
ATOM     22  C   UNL A   1      33.747  19.423  24.796  1.00  0.00     0.044 A 
ATOM     23  C   UNL A   1      32.158  21.214  23.813  1.00  0.00     0.046 C 
ATOM     24  C   UNL A   1      32.790  19.846  23.851  1.00  0.00    -0.027 A 
ATOM     25  C   UNL A   1      32.368  18.944  22.851  1.00  0.00     0.005 A 
ATOM     26  C   UNL A   1      32.903  17.662  22.761  1.00  0.00     0.000 A 
ATOM     27  C   UNL A   1      34.372  18.187  24.593  1.00  0.00     0.026 A 
ATOM     28  C   UNL A   1      33.929  17.295  23.615  1.00  0.00     0.002 A 
ENDBRANCH  19  22
ENDBRANCH  17  18
ENDBRANCH  16  17
ENDBRANCH   7  16
ENDBRANCH   4   6
ENDBRANCH   3   4
ENDBRANCH   2   3
ENDBRANCH   1   2
BRANCH   1  29
ATOM     29  O   UNL A   1      31.933  29.285  24.391  1.00  0.00    -0.374 OA
BRANCH  29  30
ATOM     30  C   UNL A   1      31.769  29.687  25.734  1.00  0.00     0.202 C 
BRANCH  30  31
ATOM     31  C   UNL A   1      32.801  30.749  26.124  1.00  0.00     0.261 C 
BRANCH  31  32
ATOM     32  O   UNL A   1      33.406  30.406  27.396  1.00  0.00    -0.460 OA
BRANCH  32  33
ATOM     33  C   UNL A   1      34.250  29.333  27.400  1.00  0.00     0.338 C 
ATOM     34  O   UNL A   1      33.907  28.169  27.271  1.00  0.00    -0.246 OA
BRANCH  33  35
ATOM     35  C   UNL A   1      35.612  29.748  27.864  1.00  0.00     0.060 A 
ATOM     36  C   UNL A   1      36.676  29.874  26.946  1.00  0.00     0.016 A 
ATOM     37  C   UNL A   1      35.887  29.641  29.221  1.00  0.00     0.016 A 
ATOM     38  C   UNL A   1      38.008  29.703  27.369  1.00  0.00     0.010 A 
ATOM     39  C   UNL A   1      37.171  29.323  29.598  1.00  0.00     0.010 A 
ATOM     40  C   UNL A   1      38.244  29.318  28.684  1.00  0.00    -0.014 A 
BRANCH  40  41
ATOM     41  C   UNL A   1      39.506  28.842  29.271  1.00  0.00     0.031 A 
ATOM     42  C   UNL A   1      39.910  27.459  28.917  1.00  0.00     0.074 A 
ATOM     43  C   UNL A   1      40.447  29.702  29.741  1.00  0.00     0.049 A 
ATOM     44  N   UNL A   1      41.033  26.929  29.242  1.00  0.00    -0.248 NA
ATOM     45  C   UNL A   1      39.055  26.526  28.182  1.00  0.00     0.031 C 
ATOM     46  C   UNL A   1      41.907  29.581  29.603  1.00  0.00     0.029 A 
ATOM     47  N   UNL A   1      40.309  30.939  30.385  1.00  0.00    -0.354 N 
ATOM     48  C   UNL A   1      41.206  25.801  28.480  1.00  0.00     0.074 A 
ATOM     49  C   UNL A   1      39.900  25.517  27.950  1.00  0.00     0.031 C 
ATOM     50  C   UNL A   1      42.522  30.518  30.343  1.00  0.00     0.029 A 
ATOM     51  C   UNL A   1      41.494  31.190  31.105  1.00  0.00     0.049 A 
ATOM     52  H   UNL A   1      39.521  31.528  30.342  1.00  0.00     0.167 HD
ATOM     53  C   UNL A   1      42.479  25.341  28.322  1.00  0.00     0.037 A 
ATOM     54  C   UNL A   1      41.461  31.366  32.453  1.00  0.00     0.037 A 
ATOM     55  C   UNL A   1      43.388  26.070  29.225  1.00  0.00     0.049 A 
ATOM     56  C   UNL A   1      42.197  30.231  33.102  1.00  0.00     0.074 A 
ATOM     57  C   UNL A   1      44.382  27.018  29.044  1.00  0.00     0.029 A 
ATOM     58  N   UNL A   1      43.090  26.083  30.589  1.00  0.00    -0.354 N 
ATOM     59  N   UNL A   1      42.374  29.084  32.502  1.00  0.00    -0.248 NA
ATOM     60  C   UNL A   1      42.900  30.314  34.374  1.00  0.00     0.031 C 
ATOM     61  C   UNL A   1      44.646  27.620  30.314  1.00  0.00     0.029 A 
ATOM     62  C   UNL A   1      43.837  27.021  31.271  1.00  0.00     0.049 A 
ATOM     63  H   UNL A   1      42.427  25.493  31.014  1.00  0.00     0.167 HD
ATOM     64  C   UNL A   1      43.272  28.336  33.200  1.00  0.00     0.074 A 
ATOM     65  C   UNL A   1      43.541  29.131  34.387  1.00  0.00     0.031 C 
ATOM     66  C   UNL A   1      43.737  27.143  32.728  1.00  0.00     0.037 A 
BRANCH  53  67
ATOM     67  C   UNL A   1      42.958  24.336  27.286  1.00  0.00     0.064 A 
ATOM     68  C   UNL A   1      42.599  22.973  27.404  1.00  0.00     0.173 A 
ATOM     69  C   UNL A   1      43.813  24.612  26.196  1.00  0.00     0.173 A 
ATOM     70  F   UNL A   1      41.801  22.546  28.391  1.00  0.00    -0.203 F 
ATOM     71  C   UNL A   1      43.051  21.990  26.514  1.00  0.00     0.198 A 
ATOM     72  C   UNL A   1      44.234  23.634  25.286  1.00  0.00     0.198 A 
ATOM     73  F   UNL A   1      44.321  25.822  25.966  1.00  0.00    -0.203 F 
ATOM     74  F   UNL A   1      42.698  20.710  26.702  1.00  0.00    -0.200 F 
ATOM     75  C   UNL A   1      43.859  22.322  25.448  1.00  0.00     0.200 A 
ATOM     76  F   UNL A   1      45.022  23.984  24.258  1.00  0.00    -0.200 F 
ATOM     77  F   UNL A   1      44.282  21.385  24.588  1.00  0.00    -0.200 F 
ENDBRANCH  53  67
BRANCH  54  78
ATOM     78  C   UNL A   1      40.228  32.102  32.863  1.00  0.00     0.064 A 
ATOM     79  C   UNL A   1      40.094  33.398  32.310  1.00  0.00     0.173 A 
ATOM     80  C   UNL A   1      39.042  31.401  33.142  1.00  0.00     0.173 A 
ATOM     81  F   UNL A   1      41.191  34.113  32.011  1.00  0.00    -0.203 F 
ATOM     82  C   UNL A   1      38.861  33.874  31.867  1.00  0.00     0.198 A 
ATOM     83  C   UNL A   1      37.807  31.886  32.691  1.00  0.00     0.198 A 
ATOM     84  F   UNL A   1      39.095  30.164  33.654  1.00  0.00    -0.203 F 
ATOM     85  F   UNL A   1      38.800  35.018  31.167  1.00  0.00    -0.200 F 
ATOM     86  C   UNL A   1      37.727  33.095  32.012  1.00  0.00     0.200 A 
ATOM     87  F   UNL A   1      36.708  31.125  32.799  1.00  0.00    -0.200 F 
ATOM     88  F   UNL A   1      36.580  33.468  31.425  1.00  0.00    -0.200 F 
ENDBRANCH  54  78
BRANCH  66  89
ATOM     89  C   UNL A   1      44.195  25.997  33.603  1.00  0.00     0.064 A 
ATOM     90  C   UNL A   1      45.517  25.517  33.641  1.00  0.00     0.173 A 
ATOM     91  C   UNL A   1      43.337  25.451  34.590  1.00  0.00     0.173 A 
ATOM     92  F   UNL A   1      46.485  26.033  32.876  1.00  0.00    -0.203 F 
ATOM     93  C   UNL A   1      45.922  24.522  34.531  1.00  0.00     0.198 A 
ATOM     94  C   UNL A   1      43.768  24.521  35.533  1.00  0.00     0.198 A 
ATOM     95  F   UNL A   1      42.056  25.826  34.713  1.00  0.00    -0.203 F 
ATOM     96  F   UNL A   1      47.180  24.063  34.476  1.00  0.00    -0.200 F 
ATOM     97  C   UNL A   1      45.055  24.036  35.487  1.00  0.00     0.200 A 
ATOM     98  F   UNL A   1      42.932  24.123  36.501  1.00  0.00    -0.200 F 
ATOM     99  F   UNL A   1      45.464  23.123  36.375  1.00  0.00    -0.200 F 
ENDBRANCH  66  89
ENDBRANCH  40  41
ENDBRANCH  33  35
ENDBRANCH  32  33
ENDBRANCH  31  32
ENDBRANCH  30  31
ENDBRANCH  29  30
ENDBRANCH   1  29
TORSDOF 18
ENDMDL
MODEL 2
REMARK VINA RESULT:     -12.5      2.692      4.066
REMARK SMILES Cc1ccccc1NC(=O)CSc1nc(C(=O)OCCOCCOC(=O)c2ccc(-c3c4nc(c(-c5c(F)c(F)c(F)c(F)c5F)c5ccc([nH]5)c(-c5c(F)c(F)c(F)c(F)c5F)c5nc(c(-c6c(F)c(F)c(F)c(F)c6F)c6ccc3[nH]6)C=C5)C=C4)cc2)c2ccccc2n1
REMARK SMILES IDX 20 1 19 2 18 3 16 4 17 5 15 6 13 7 14 8 96 9 95 10 90 11
REMARK SMILES IDX 94 12 91 13 93 14 92 15 12 16 11 17 9 18 8 19 10 21 7 22
REMARK SMILES IDX 1 23 2 24 3 25 4 26 6 27 5 28 21 29 22 30 23 31 24 32 25 33
REMARK SMILES IDX 26 34 27 35 28 36 89 37 29 38 88 39 30 40 31 41 32 42 82 43
REMARK SMILES IDX 33 44 87 45 81 46 83 47 34 48 86 49 80 50 79 51 35 53 67 54
REMARK SMILES IDX 47 55 66 56 48 57 51 58 65 59 84 60 49 61 50 62 64 64 85 65
REMARK SMILES IDX 52 66 36 67 37 68 45 69 38 70 39 71 43 72 46 73 40 74 41 75
REMARK SMILES IDX 44 76 42 77 68 78 69 79 77 80 70 81 71 82 75 83 78 84 72 85
REMARK SMILES IDX 73 86 76 87 74 88 53 89 54 90 62 91 55 92 56 93 60 94 63 95
REMARK SMILES IDX 57 96 58 97 61 98 59 99
REMARK H PARENT 8 20 83 52 51 63
REMARK Flexibility Score: inf
ROOT
ATOM      1  C   UNL A   1      33.581  29.083  26.799  1.00  0.00     0.202 C 
ENDROOT
BRANCH   1   2
ATOM      2  C   UNL A   1      33.941  28.569  25.437  1.00  0.00     0.261 C 
BRANCH   2   3
ATOM      3  O   UNL A   1      33.096  29.123  24.416  1.00  0.00    -0.458 OA
BRANCH   3   4
ATOM      4  C   UNL A   1      32.849  28.497  23.239  1.00  0.00     0.357 C 
ATOM      5  O   UNL A   1      33.625  28.308  22.332  1.00  0.00    -0.244 OA
BRANCH   4   6
ATOM      6  C   UNL A   1      31.453  27.974  23.281  1.00  0.00     0.160 A 
ATOM      7  C   UNL A   1      30.199  26.380  24.289  1.00  0.00     0.189 A 
ATOM      8  N   UNL A   1      31.402  26.833  23.996  1.00  0.00    -0.215 NA
ATOM      9  N   UNL A   1      29.054  26.941  23.887  1.00  0.00    -0.222 NA
ATOM     10  C   UNL A   1      29.121  28.059  23.151  1.00  0.00     0.076 A 
ATOM     11  C   UNL A   1      30.323  28.675  22.805  1.00  0.00     0.034 A 
ATOM     12  C   UNL A   1      27.931  28.664  22.755  1.00  0.00     0.029 A 
ATOM     13  C   UNL A   1      30.265  29.909  22.074  1.00  0.00     0.013 A 
ATOM     14  C   UNL A   1      27.891  29.883  22.068  1.00  0.00     0.002 A 
ATOM     15  C   UNL A   1      29.068  30.521  21.740  1.00  0.00     0.001 A 
BRANCH   7  16
ATOM     16  S   UNL A   1      30.137  25.145  25.541  1.00  0.00    -0.076 SA
BRANCH  16  17
ATOM     17  C   UNL A   1      31.820  24.459  25.389  1.00  0.00     0.178 C 
BRANCH  17  18
ATOM     18  C   UNL A   1      32.282  23.695  26.614  1.00  0.00     0.234 C 
ATOM     19  N   UNL A   1      33.488  23.062  26.722  1.00  0.00    -0.325 N 
ATOM     20  H   UNL A   1      33.603  22.593  27.580  1.00  0.00     0.169 HD
ATOM     21  O   UNL A   1      31.531  23.604  27.596  1.00  0.00    -0.274 OA
BRANCH  19  22
ATOM     22  C   UNL A   1      34.603  22.938  25.870  1.00  0.00     0.044 A 
ATOM     23  C   UNL A   1      33.837  20.584  25.115  1.00  0.00     0.046 C 
ATOM     24  C   UNL A   1      34.822  21.722  25.190  1.00  0.00    -0.027 A 
ATOM     25  C   UNL A   1      36.047  21.523  24.518  1.00  0.00     0.005 A 
ATOM     26  C   UNL A   1      37.023  22.514  24.486  1.00  0.00     0.000 A 
ATOM     27  C   UNL A   1      35.537  23.966  25.697  1.00  0.00     0.026 A 
ATOM     28  C   UNL A   1      36.755  23.749  25.051  1.00  0.00     0.002 A 
ENDBRANCH  19  22
ENDBRANCH  17  18
ENDBRANCH  16  17
ENDBRANCH   7  16
ENDBRANCH   4   6
ENDBRANCH   3   4
ENDBRANCH   2   3
ENDBRANCH   1   2
BRANCH   1  29
ATOM     29  O   UNL A   1      32.522  29.994  26.598  1.00  0.00    -0.374 OA
BRANCH  29  30
ATOM     30  C   UNL A   1      32.707  31.297  27.105  1.00  0.00     0.202 C 
BRANCH  30  31
ATOM     31  C   UNL A   1      34.017  31.406  27.891  1.00  0.00     0.261 C 
BRANCH  31  32
ATOM     32  O   UNL A   1      34.452  32.787  27.938  1.00  0.00    -0.460 OA
BRANCH  32  33
ATOM     33  C   UNL A   1      34.299  33.435  29.131  1.00  0.00     0.338 C 
ATOM     34  O   UNL A   1      33.325  34.097  29.449  1.00  0.00    -0.246 OA
BRANCH  33  35
ATOM     35  C   UNL A   1      35.595  33.457  29.878  1.00  0.00     0.060 A 
ATOM     36  C   UNL A   1      36.791  33.838  29.231  1.00  0.00     0.016 A 
ATOM     37  C   UNL A   1      35.657  32.756  31.075  1.00  0.00     0.016 A 
ATOM     38  C   UNL A   1      38.033  33.353  29.684  1.00  0.00     0.010 A 
ATOM     39  C   UNL A   1      36.852  32.165  31.418  1.00  0.00     0.010 A 
ATOM     40  C   UNL A   1      38.048  32.425  30.719  1.00  0.00    -0.014 A 
BRANCH  40  41
ATOM     41  C   UNL A   1      39.179  31.605  31.178  1.00  0.00     0.031 A 
ATOM     42  C   UNL A   1      39.407  30.335  30.445  1.00  0.00     0.074 A 
ATOM     43  C   UNL A   1      40.196  32.132  31.910  1.00  0.00     0.049 A 
ATOM     44  N   UNL A   1      40.413  29.563  30.634  1.00  0.00    -0.248 NA
ATOM     45  C   UNL A   1      38.486  29.801  29.442  1.00  0.00     0.031 C 
ATOM     46  C   UNL A   1      41.629  31.825  31.788  1.00  0.00     0.029 A 
ATOM     47  N   UNL A   1      40.188  33.139  32.885  1.00  0.00    -0.354 N 
ATOM     48  C   UNL A   1      40.481  28.687  29.579  1.00  0.00     0.074 A 
ATOM     49  C   UNL A   1      39.191  28.780  28.949  1.00  0.00     0.031 C 
ATOM     50  C   UNL A   1      42.315  32.400  32.790  1.00  0.00     0.029 A 
ATOM     51  C   UNL A   1      41.338  32.981  33.685  1.00  0.00     0.049 A 
ATOM     52  H   UNL A   1      39.498  33.833  32.994  1.00  0.00     0.167 HD
ATOM     53  C   UNL A   1      41.683  28.095  29.332  1.00  0.00     0.037 A 
ATOM     54  C   UNL A   1      41.228  32.765  35.023  1.00  0.00     0.037 A 
ATOM     55  C   UNL A   1      42.615  28.380  30.438  1.00  0.00     0.049 A 
ATOM     56  C   UNL A   1      41.741  31.390  35.330  1.00  0.00     0.074 A 
ATOM     57  C   UNL A   1      43.746  29.168  30.575  1.00  0.00     0.029 A 
ATOM     58  N   UNL A   1      42.219  28.049  31.735  1.00  0.00    -0.354 N 
ATOM     59  N   UNL A   1      41.798  30.450  34.425  1.00  0.00    -0.248 NA
ATOM     60  C   UNL A   1      42.350  30.992  36.592  1.00  0.00     0.031 C 
ATOM     61  C   UNL A   1      43.995  29.331  31.974  1.00  0.00     0.029 A 
ATOM     62  C   UNL A   1      43.039  28.620  32.686  1.00  0.00     0.049 A 
ATOM     63  H   UNL A   1      41.447  27.476  31.946  1.00  0.00     0.167 HD
ATOM     64  C   UNL A   1      42.522  29.401  34.899  1.00  0.00     0.074 A 
ATOM     65  C   UNL A   1      42.811  29.768  36.275  1.00  0.00     0.031 C 
ATOM     66  C   UNL A   1      42.846  28.334  34.110  1.00  0.00     0.037 A 
BRANCH  53  67
ATOM     67  C   UNL A   1      42.090  27.366  28.062  1.00  0.00     0.064 A 
ATOM     68  C   UNL A   1      42.463  26.003  28.117  1.00  0.00     0.173 A 
ATOM     69  C   UNL A   1      42.201  27.940  26.776  1.00  0.00     0.173 A 
ATOM     70  F   UNL A   1      42.423  25.316  29.266  1.00  0.00    -0.203 F 
ATOM     71  C   UNL A   1      42.900  25.289  26.993  1.00  0.00     0.198 A 
ATOM     72  C   UNL A   1      42.602  27.216  25.646  1.00  0.00     0.198 A 
ATOM     73  F   UNL A   1      41.969  29.230  26.539  1.00  0.00    -0.203 F 
ATOM     74  F   UNL A   1      43.269  24.007  27.120  1.00  0.00    -0.200 F 
ATOM     75  C   UNL A   1      42.959  25.892  25.755  1.00  0.00     0.200 A 
ATOM     76  F   UNL A   1      42.652  27.827  24.452  1.00  0.00    -0.200 F 
ATOM     77  F   UNL A   1      43.363  25.209  24.676  1.00  0.00    -0.200 F 
ENDBRANCH  53  67
BRANCH  54  78
ATOM     78  C   UNL A   1      40.086  33.541  35.593  1.00  0.00     0.064 A 
ATOM     79  C   UNL A   1      38.993  32.758  36.033  1.00  0.00     0.173 A 
ATOM     80  C   UNL A   1      40.317  34.754  36.266  1.00  0.00     0.173 A 
ATOM     81  F   UNL A   1      38.729  31.584  35.437  1.00  0.00    -0.203 F 
ATOM     82  C   UNL A   1      38.307  33.065  37.207  1.00  0.00     0.198 A 
ATOM     83  C   UNL A   1      39.624  35.053  37.447  1.00  0.00     0.198 A 
ATOM     84  F   UNL A   1      41.342  35.537  35.909  1.00  0.00    -0.203 F 
ATOM     85  F   UNL A   1      37.412  32.197  37.705  1.00  0.00    -0.200 F 
ATOM     86  C   UNL A   1      38.658  34.185  37.940  1.00  0.00     0.200 A 
ATOM     87  F   UNL A   1      39.979  36.119  38.180  1.00  0.00    -0.200 F 
ATOM     88  F   UNL A   1      38.130  34.380  39.158  1.00  0.00    -0.200 F 
ENDBRANCH  54  78
BRANCH  66  89
ATOM     89  C   UNL A   1      43.067  26.928  34.622  1.00  0.00     0.064 A 
ATOM     90  C   UNL A   1      42.028  26.029  34.924  1.00  0.00     0.173 A 
ATOM     91  C   UNL A   1      44.367  26.364  34.653  1.00  0.00     0.173 A 
ATOM     92  F   UNL A   1      40.738  26.362  34.799  1.00  0.00    -0.203 F 
ATOM     93  C   UNL A   1      42.272  24.708  35.303  1.00  0.00     0.198 A 
ATOM     94  C   UNL A   1      44.600  25.023  34.947  1.00  0.00     0.198 A 
ATOM     95  F   UNL A   1      45.464  27.075  34.357  1.00  0.00    -0.203 F 
ATOM     96  F   UNL A   1      41.242  23.919  35.638  1.00  0.00    -0.200 F 
ATOM     97  C   UNL A   1      43.554  24.200  35.298  1.00  0.00     0.200 A 
ATOM     98  F   UNL A   1      45.844  24.531  34.858  1.00  0.00    -0.200 F 
ATOM     99  F   UNL A   1      43.778  22.918  35.607  1.00  0.00    -0.200 F 
ENDBRANCH  66  89
ENDBRANCH  40  41
ENDBRANCH  33  35
ENDBRANCH  32  33
ENDBRANCH  31  32
ENDBRANCH  30  31
ENDBRANCH  29  30
ENDBRANCH   1  29
TORSDOF 18
ENDMDL
MODEL 3
REMARK VINA RESULT:     -12.5      3.807      9.782
REMARK SMILES Cc1ccccc1NC(=O)CSc1nc(C(=O)OCCOCCOC(=O)c2ccc(-c3c4nc(c(-c5c(F)c(F)c(F)c(F)c5F)c5ccc([nH]5)c(-c5c(F)c(F)c(F)c(F)c5F)c5nc(c(-c6c(F)c(F)c(F)c(F)c6F)c6ccc3[nH]6)C=C5)C=C4)cc2)c2ccccc2n1
REMARK SMILES IDX 20 1 19 2 18 3 16 4 17 5 15 6 13 7 14 8 96 9 95 10 90 11
REMARK SMILES IDX 94 12 91 13 93 14 92 15 12 16 11 17 9 18 8 19 10 21 7 22
REMARK SMILES IDX 1 23 2 24 3 25 4 26 6 27 5 28 21 29 22 30 23 31 24 32 25 33
REMARK SMILES IDX 26 34 27 35 28 36 89 37 29 38 88 39 30 40 31 41 32 42 82 43
REMARK SMILES IDX 33 44 87 45 81 46 83 47 34 48 86 49 80 50 79 51 35 53 67 54
REMARK SMILES IDX 47 55 66 56 48 57 51 58 65 59 84 60 49 61 50 62 64 64 85 65
REMARK SMILES IDX 52 66 36 67 37 68 45 69 38 70 39 71 43 72 46 73 40 74 41 75
REMARK SMILES IDX 44 76 42 77 68 78 69 79 77 80 70 81 71 82 75 83 78 84 72 85
REMARK SMILES IDX 73 86 76 87 74 88 53 89 54 90 62 91 55 92 56 93 60 94 63 95
REMARK SMILES IDX 57 96 58 97 61 98 59 99
REMARK H PARENT 8 20 83 52 51 63
REMARK Flexibility Score: inf
ROOT
ATOM      1  C   UNL A   1      39.104  21.505  26.091  1.00  0.00     0.202 C 
ENDROOT
BRANCH   1   2
ATOM      2  C   UNL A   1      38.212  20.622  25.270  1.00  0.00     0.261 C 
BRANCH   2   3
ATOM      3  O   UNL A   1      36.822  20.896  25.509  1.00  0.00    -0.458 OA
BRANCH   3   4
ATOM      4  C   UNL A   1      36.002  21.435  24.574  1.00  0.00     0.357 C 
ATOM      5  O   UNL A   1      36.305  22.192  23.682  1.00  0.00    -0.244 OA
BRANCH   4   6
ATOM      6  C   UNL A   1      34.643  20.850  24.762  1.00  0.00     0.160 A 
ATOM      7  C   UNL A   1      32.458  21.444  24.787  1.00  0.00     0.189 A 
ATOM      8  N   UNL A   1      33.718  21.826  24.834  1.00  0.00    -0.215 NA
ATOM      9  N   UNL A   1      32.049  20.172  24.726  1.00  0.00    -0.222 NA
ATOM     10  C   UNL A   1      32.980  19.209  24.685  1.00  0.00     0.076 A 
ATOM     11  C   UNL A   1      34.350  19.470  24.681  1.00  0.00     0.034 A 
ATOM     12  C   UNL A   1      32.560  17.885  24.592  1.00  0.00     0.029 A 
ATOM     13  C   UNL A   1      35.250  18.359  24.562  1.00  0.00     0.013 A 
ATOM     14  C   UNL A   1      33.450  16.814  24.446  1.00  0.00     0.002 A 
ATOM     15  C   UNL A   1      34.808  17.054  24.413  1.00  0.00     0.001 A 
BRANCH   7  16
ATOM     16  S   UNL A   1      31.287  22.719  24.476  1.00  0.00    -0.076 SA
BRANCH  16  17
ATOM     17  C   UNL A   1      31.627  23.811  25.896  1.00  0.00     0.178 C 
BRANCH  17  18
ATOM     18  C   UNL A   1      30.385  24.442  26.494  1.00  0.00     0.234 C 
ATOM     19  N   UNL A   1      29.943  25.703  26.208  1.00  0.00    -0.325 N 
ATOM     20  H   UNL A   1      29.136  25.953  26.713  1.00  0.00     0.169 HD
ATOM     21  O   UNL A   1      29.711  23.804  27.315  1.00  0.00    -0.274 OA
BRANCH  19  22
ATOM     22  C   UNL A   1      30.395  26.722  25.345  1.00  0.00     0.044 A 
ATOM     23  C   UNL A   1      31.893  27.715  27.207  1.00  0.00     0.046 C 
ATOM     24  C   UNL A   1      31.237  27.734  25.851  1.00  0.00    -0.027 A 
ATOM     25  C   UNL A   1      31.505  28.865  25.051  1.00  0.00     0.005 A 
ATOM     26  C   UNL A   1      30.984  28.982  23.766  1.00  0.00     0.000 A 
ATOM     27  C   UNL A   1      30.007  26.797  24.002  1.00  0.00     0.026 A 
ATOM     28  C   UNL A   1      30.259  27.932  23.230  1.00  0.00     0.002 A 
ENDBRANCH  19  22
ENDBRANCH  17  18
ENDBRANCH  16  17
ENDBRANCH   7  16
ENDBRANCH   4   6
ENDBRANCH   3   4
ENDBRANCH   2   3
ENDBRANCH   1   2
BRANCH   1  29
ATOM     29  O   UNL A   1      40.066  20.649  26.668  1.00  0.00    -0.374 OA
BRANCH  29  30
ATOM     30  C   UNL A   1      40.479  19.547  25.889  1.00  0.00     0.202 C 
BRANCH  30  31
ATOM     31  C   UNL A   1      41.932  19.168  26.190  1.00  0.00     0.261 C 
BRANCH  31  32
ATOM     32  O   UNL A   1      42.666  20.336  26.633  1.00  0.00    -0.460 OA
BRANCH  32  33
ATOM     33  C   UNL A   1      43.256  21.091  25.660  1.00  0.00     0.338 C 
ATOM     34  O   UNL A   1      44.185  20.727  24.956  1.00  0.00    -0.246 OA
BRANCH  33  35
ATOM     35  C   UNL A   1      42.802  22.513  25.761  1.00  0.00     0.060 A 
ATOM     36  C   UNL A   1      43.169  23.456  24.777  1.00  0.00     0.016 A 
ATOM     37  C   UNL A   1      42.347  22.954  26.997  1.00  0.00     0.016 A 
ATOM     38  C   UNL A   1      43.259  24.825  25.098  1.00  0.00     0.010 A 
ATOM     39  C   UNL A   1      42.584  24.265  27.344  1.00  0.00     0.010 A 
ATOM     40  C   UNL A   1      43.068  25.212  26.419  1.00  0.00    -0.014 A 
BRANCH  40  41
ATOM     41  C   UNL A   1      43.358  26.521  27.025  1.00  0.00     0.031 A 
ATOM     42  C   UNL A   1      42.182  27.369  27.342  1.00  0.00     0.074 A 
ATOM     43  C   UNL A   1      44.539  26.778  27.644  1.00  0.00     0.049 A 
ATOM     44  N   UNL A   1      42.244  28.481  27.978  1.00  0.00    -0.248 NA
ATOM     45  C   UNL A   1      40.814  27.046  26.933  1.00  0.00     0.031 C 
ATOM     46  C   UNL A   1      44.743  27.551  28.880  1.00  0.00     0.029 A 
ATOM     47  N   UNL A   1      45.835  26.332  27.353  1.00  0.00    -0.354 N 
ATOM     48  C   UNL A   1      40.974  28.811  28.382  1.00  0.00     0.074 A 
ATOM     49  C   UNL A   1      40.114  27.973  27.591  1.00  0.00     0.031 C 
ATOM     50  C   UNL A   1      46.055  27.746  29.094  1.00  0.00     0.029 A 
ATOM     51  C   UNL A   1      46.749  27.236  27.932  1.00  0.00     0.049 A 
ATOM     52  H   UNL A   1      46.067  25.528  26.834  1.00  0.00     0.167 HD
ATOM     53  C   UNL A   1      40.854  29.678  29.427  1.00  0.00     0.037 A 
ATOM     54  C   UNL A   1      47.646  27.905  27.159  1.00  0.00     0.037 A 
ATOM     55  C   UNL A   1      42.173  30.251  29.752  1.00  0.00     0.049 A 
ATOM     56  C   UNL A   1      47.321  29.369  27.206  1.00  0.00     0.074 A 
ATOM     57  C   UNL A   1      43.065  30.101  30.800  1.00  0.00     0.029 A 
ATOM     58  N   UNL A   1      42.884  30.886  28.731  1.00  0.00    -0.354 N 
ATOM     59  N   UNL A   1      46.130  29.807  27.517  1.00  0.00    -0.248 NA
ATOM     60  C   UNL A   1      48.293  30.442  27.055  1.00  0.00     0.031 C 
ATOM     61  C   UNL A   1      44.327  30.623  30.376  1.00  0.00     0.029 A 
ATOM     62  C   UNL A   1      44.197  31.118  29.085  1.00  0.00     0.049 A 
ATOM     63  H   UNL A   1      42.494  31.140  27.864  1.00  0.00     0.167 HD
ATOM     64  C   UNL A   1      46.177  31.151  27.725  1.00  0.00     0.074 A 
ATOM     65  C   UNL A   1      47.543  31.511  27.382  1.00  0.00     0.031 C 
ATOM     66  C   UNL A   1      45.097  31.846  28.187  1.00  0.00     0.037 A 
BRANCH  53  67
ATOM     67  C   UNL A   1      39.604  29.934  30.252  1.00  0.00     0.064 A 
ATOM     68  C   UNL A   1      39.172  28.974  31.197  1.00  0.00     0.173 A 
ATOM     69  C   UNL A   1      38.747  31.051  30.136  1.00  0.00     0.173 A 
ATOM     70  F   UNL A   1      39.869  27.852  31.419  1.00  0.00    -0.203 F 
ATOM     71  C   UNL A   1      38.000  29.125  31.950  1.00  0.00     0.198 A 
ATOM     72  C   UNL A   1      37.596  31.218  30.916  1.00  0.00     0.198 A 
ATOM     73  F   UNL A   1      38.945  32.022  29.245  1.00  0.00    -0.203 F 
ATOM     74  F   UNL A   1      37.630  28.162  32.807  1.00  0.00    -0.200 F 
ATOM     75  C   UNL A   1      37.218  30.252  31.818  1.00  0.00     0.200 A 
ATOM     76  F   UNL A   1      36.851  32.324  30.767  1.00  0.00    -0.200 F 
ATOM     77  F   UNL A   1      36.104  30.405  32.547  1.00  0.00    -0.200 F 
ENDBRANCH  53  67
BRANCH  54  78
ATOM     78  C   UNL A   1      48.135  27.039  26.044  1.00  0.00     0.064 A 
ATOM     79  C   UNL A   1      47.639  27.378  24.763  1.00  0.00     0.173 A 
ATOM     80  C   UNL A   1      49.417  26.464  26.103  1.00  0.00     0.173 A 
ATOM     81  F   UNL A   1      46.425  27.941  24.645  1.00  0.00    -0.203 F 
ATOM     82  C   UNL A   1      48.457  27.340  23.635  1.00  0.00     0.198 A 
ATOM     83  C   UNL A   1      50.233  26.433  24.964  1.00  0.00     0.198 A 
ATOM     84  F   UNL A   1      49.953  26.133  27.284  1.00  0.00    -0.203 F 
ATOM     85  F   UNL A   1      48.019  27.855  22.476  1.00  0.00    -0.200 F 
ATOM     86  C   UNL A   1      49.769  26.915  23.747  1.00  0.00     0.200 A 
ATOM     87  F   UNL A   1      51.515  26.053  25.069  1.00  0.00    -0.200 F 
ATOM     88  F   UNL A   1      50.607  27.053  22.708  1.00  0.00    -0.200 F 
ENDBRANCH  54  78
BRANCH  66  89
ATOM     89  C   UNL A   1      44.821  33.302  27.879  1.00  0.00     0.064 A 
ATOM     90  C   UNL A   1      44.103  33.744  26.753  1.00  0.00     0.173 A 
ATOM     91  C   UNL A   1      45.120  34.312  28.827  1.00  0.00     0.173 A 
ATOM     92  F   UNL A   1      43.619  32.897  25.838  1.00  0.00    -0.203 F 
ATOM     93  C   UNL A   1      43.787  35.088  26.553  1.00  0.00     0.198 A 
ATOM     94  C   UNL A   1      44.726  35.638  28.665  1.00  0.00     0.198 A 
ATOM     95  F   UNL A   1      45.767  34.052  29.971  1.00  0.00    -0.203 F 
ATOM     96  F   UNL A   1      43.156  35.455  25.429  1.00  0.00    -0.200 F 
ATOM     97  C   UNL A   1      44.082  36.032  27.514  1.00  0.00     0.200 A 
ATOM     98  F   UNL A   1      44.952  36.522  29.647  1.00  0.00    -0.200 F 
ATOM     99  F   UNL A   1      43.726  37.310  27.343  1.00  0.00    -0.200 F 
ENDBRANCH  66  89
ENDBRANCH  40  41
ENDBRANCH  33  35
ENDBRANCH  32  33
ENDBRANCH  31  32
ENDBRANCH  30  31
ENDBRANCH  29  30
ENDBRANCH   1  29
TORSDOF 18
ENDMDL
