MODEL 1
REMARK VINA RESULT:     -10.6      0.000      0.000
REMARK SMILES CC[C@@H]1CC[C@H]([C@@H](C)C(=O)OCCOCCOC(=O)c2ccc(-c3c4nc(c(-c5c(F)c(F)c(F)c(F)c5F)c5ccc([nH]5)c(-c5c(F)c(F)c(F)c(F)c5F)c5nc(c(-c6c(F)c(F)c(F)c(F)c6F)c6ccc3[nH]6)C=C5)C=C4)cc2)C1
REMARK SMILES IDX 14 1 13 2 12 3 11 4 9 5 10 6 7 7 8 8 6 9 3 10 4 11 83 12
REMARK SMILES IDX 5 13 2 14 1 15 15 16 16 17 17 18 18 19 19 20 20 21 21 22
REMARK SMILES IDX 82 23 22 24 81 25 23 26 24 27 25 28 75 29 26 30 80 31 74 32
REMARK SMILES IDX 76 33 27 34 79 35 73 36 72 37 28 39 60 40 40 41 59 42 41 43
REMARK SMILES IDX 44 44 58 45 77 46 42 47 43 48 57 50 78 51 45 52 29 53 30 54
REMARK SMILES IDX 38 55 31 56 32 57 36 58 39 59 33 60 34 61 37 62 35 63 61 64
REMARK SMILES IDX 62 65 70 66 63 67 64 68 68 69 71 70 65 71 66 72 69 73 67 74
REMARK SMILES IDX 46 75 47 76 55 77 48 78 49 79 53 80 56 81 50 82 51 83 54 84
REMARK SMILES IDX 52 85
REMARK H PARENT 76 38 44 49
REMARK Flexibility Score: inf
ROOT
ATOM      1  O   UNL A   1      32.873  30.101  25.427  1.00  0.00    -0.374 OA
ENDROOT
BRANCH   1   2
ATOM      2  C   UNL A   1      33.465  28.867  25.819  1.00  0.00     0.202 C 
BRANCH   2   3
ATOM      3  C   UNL A   1      32.516  27.700  26.115  1.00  0.00     0.261 C 
BRANCH   3   4
ATOM      4  O   UNL A   1      32.429  26.710  25.071  1.00  0.00    -0.463 OA
BRANCH   4   5
ATOM      5  C   UNL A   1      31.771  27.117  23.951  1.00  0.00     0.309 C 
ATOM      6  O   UNL A   1      32.298  27.285  22.857  1.00  0.00    -0.252 OA
BRANCH   5   7
ATOM      7  C   UNL A   1      30.312  27.474  24.194  1.00  0.00     0.099 C 
ATOM      8  C   UNL A   1      29.563  26.156  24.411  1.00  0.00     0.020 C 
BRANCH   7   9
ATOM      9  C   UNL A   1      29.610  28.364  23.148  1.00  0.00     0.003 C 
ATOM     10  C   UNL A   1      28.386  30.447  22.887  1.00  0.00    -0.011 C 
ATOM     11  C   UNL A   1      27.377  29.400  23.335  1.00  0.00     0.004 C 
ATOM     12  C   UNL A   1      29.694  29.872  23.426  1.00  0.00     0.008 C 
ATOM     13  C   UNL A   1      28.090  28.076  23.069  1.00  0.00     0.005 C 
BRANCH  10  14
ATOM     14  C   UNL A   1      28.053  31.880  23.315  1.00  0.00     0.000 C 
ATOM     15  C   UNL A   1      28.747  32.992  22.541  1.00  0.00     0.004 C 
ENDBRANCH  10  14
ENDBRANCH   7   9
ENDBRANCH   5   7
ENDBRANCH   4   5
ENDBRANCH   3   4
ENDBRANCH   2   3
ENDBRANCH   1   2
BRANCH   1  16
ATOM     16  C   UNL A   1      31.789  30.582  26.221  1.00  0.00     0.202 C 
BRANCH  16  17
ATOM     17  C   UNL A   1      31.940  32.015  26.742  1.00  0.00     0.261 C 
BRANCH  17  18
ATOM     18  O   UNL A   1      32.776  32.059  27.916  1.00  0.00    -0.460 OA
BRANCH  18  19
ATOM     19  C   UNL A   1      33.751  32.994  27.873  1.00  0.00     0.338 C 
ATOM     20  O   UNL A   1      33.615  34.206  27.779  1.00  0.00    -0.246 OA
BRANCH  19  21
ATOM     21  C   UNL A   1      35.062  32.377  28.136  1.00  0.00     0.060 A 
ATOM     22  C   UNL A   1      35.083  31.001  28.400  1.00  0.00     0.016 A 
ATOM     23  C   UNL A   1      36.227  33.140  28.251  1.00  0.00     0.016 A 
ATOM     24  C   UNL A   1      36.256  30.395  28.847  1.00  0.00     0.010 A 
ATOM     25  C   UNL A   1      37.403  32.529  28.707  1.00  0.00     0.010 A 
ATOM     26  C   UNL A   1      37.410  31.165  29.051  1.00  0.00    -0.014 A 
BRANCH  26  27
ATOM     27  C   UNL A   1      38.553  30.563  29.786  1.00  0.00     0.031 A 
ATOM     28  C   UNL A   1      38.776  30.942  31.226  1.00  0.00     0.074 A 
ATOM     29  C   UNL A   1      39.344  29.643  29.206  1.00  0.00     0.049 A 
ATOM     30  N   UNL A   1      39.679  30.508  32.069  1.00  0.00    -0.248 NA
ATOM     31  C   UNL A   1      37.856  31.940  31.791  1.00  0.00     0.031 C 
ATOM     32  C   UNL A   1      39.216  29.166  27.831  1.00  0.00     0.029 A 
ATOM     33  N   UNL A   1      40.413  28.943  29.709  1.00  0.00    -0.354 N 
ATOM     34  C   UNL A   1      39.434  31.177  33.261  1.00  0.00     0.074 A 
ATOM     35  C   UNL A   1      38.320  32.070  33.026  1.00  0.00     0.031 C 
ATOM     36  C   UNL A   1      40.173  28.252  27.597  1.00  0.00     0.029 A 
ATOM     37  C   UNL A   1      40.991  28.094  28.800  1.00  0.00     0.049 A 
ATOM     38  H   UNL A   1      40.733  29.040  30.635  1.00  0.00     0.167 HD
ATOM     39  C   UNL A   1      40.069  31.049  34.451  1.00  0.00     0.037 A 
ATOM     40  C   UNL A   1      42.066  27.290  28.920  1.00  0.00     0.037 A 
ATOM     41  C   UNL A   1      41.173  30.160  34.696  1.00  0.00     0.049 A 
ATOM     42  C   UNL A   1      42.792  27.208  30.238  1.00  0.00     0.074 A 
ATOM     43  C   UNL A   1      41.862  29.943  35.876  1.00  0.00     0.029 A 
ATOM     44  N   UNL A   1      41.754  29.344  33.738  1.00  0.00    -0.354 N 
ATOM     45  N   UNL A   1      42.528  27.814  31.369  1.00  0.00    -0.248 NA
ATOM     46  C   UNL A   1      43.965  26.322  30.296  1.00  0.00     0.031 C 
ATOM     47  C   UNL A   1      42.890  29.028  35.621  1.00  0.00     0.029 A 
ATOM     48  C   UNL A   1      42.812  28.643  34.293  1.00  0.00     0.049 A 
ATOM     49  H   UNL A   1      41.460  29.274  32.800  1.00  0.00     0.167 HD
ATOM     50  C   UNL A   1      43.481  27.370  32.275  1.00  0.00     0.074 A 
ATOM     51  C   UNL A   1      44.325  26.429  31.567  1.00  0.00     0.031 C 
ATOM     52  C   UNL A   1      43.642  27.708  33.578  1.00  0.00     0.037 A 
BRANCH  39  53
ATOM     53  C   UNL A   1      39.593  31.910  35.583  1.00  0.00     0.064 A 
ATOM     54  C   UNL A   1      40.112  33.196  35.796  1.00  0.00     0.173 A 
ATOM     55  C   UNL A   1      38.581  31.458  36.442  1.00  0.00     0.173 A 
ATOM     56  F   UNL A   1      41.091  33.669  35.009  1.00  0.00    -0.203 F 
ATOM     57  C   UNL A   1      39.649  33.989  36.843  1.00  0.00     0.198 A 
ATOM     58  C   UNL A   1      38.103  32.263  37.473  1.00  0.00     0.198 A 
ATOM     59  F   UNL A   1      38.048  30.238  36.277  1.00  0.00    -0.203 F 
ATOM     60  F   UNL A   1      40.186  35.199  37.053  1.00  0.00    -0.200 F 
ATOM     61  C   UNL A   1      38.642  33.525  37.676  1.00  0.00     0.200 A 
ATOM     62  F   UNL A   1      37.123  31.817  38.270  1.00  0.00    -0.200 F 
ATOM     63  F   UNL A   1      38.194  34.292  38.680  1.00  0.00    -0.200 F 
ENDBRANCH  39  53
BRANCH  40  64
ATOM     64  C   UNL A   1      42.527  26.494  27.753  1.00  0.00     0.064 A 
ATOM     65  C   UNL A   1      43.497  26.991  26.873  1.00  0.00     0.173 A 
ATOM     66  C   UNL A   1      41.991  25.225  27.489  1.00  0.00     0.173 A 
ATOM     67  F   UNL A   1      44.017  28.210  27.070  1.00  0.00    -0.203 F 
ATOM     68  C   UNL A   1      43.906  26.252  25.764  1.00  0.00     0.198 A 
ATOM     69  C   UNL A   1      42.418  24.478  26.394  1.00  0.00     0.198 A 
ATOM     70  F   UNL A   1      41.055  24.709  28.300  1.00  0.00    -0.203 F 
ATOM     71  F   UNL A   1      44.805  26.766  24.915  1.00  0.00    -0.200 F 
ATOM     72  C   UNL A   1      43.370  24.995  25.529  1.00  0.00     0.200 A 
ATOM     73  F   UNL A   1      41.904  23.260  26.175  1.00  0.00    -0.200 F 
ATOM     74  F   UNL A   1      43.765  24.284  24.464  1.00  0.00    -0.200 F 
ENDBRANCH  40  64
BRANCH  52  75
ATOM     75  C   UNL A   1      44.757  27.044  34.332  1.00  0.00     0.064 A 
ATOM     76  C   UNL A   1      44.575  25.811  34.975  1.00  0.00     0.173 A 
ATOM     77  C   UNL A   1      46.033  27.627  34.375  1.00  0.00     0.173 A 
ATOM     78  F   UNL A   1      43.371  25.221  34.975  1.00  0.00    -0.203 F 
ATOM     79  C   UNL A   1      45.626  25.196  35.652  1.00  0.00     0.198 A 
ATOM     80  C   UNL A   1      47.087  26.997  35.030  1.00  0.00     0.198 A 
ATOM     81  F   UNL A   1      46.259  28.802  33.769  1.00  0.00    -0.203 F 
ATOM     82  F   UNL A   1      45.420  24.038  36.294  1.00  0.00    -0.200 F 
ATOM     83  C   UNL A   1      46.881  25.786  35.673  1.00  0.00     0.200 A 
ATOM     84  F   UNL A   1      48.302  27.563  35.040  1.00  0.00    -0.200 F 
ATOM     85  F   UNL A   1      47.893  25.190  36.320  1.00  0.00    -0.200 F 
ENDBRANCH  52  75
ENDBRANCH  26  27
ENDBRANCH  19  21
ENDBRANCH  18  19
ENDBRANCH  17  18
ENDBRANCH  16  17
ENDBRANCH   1  16
TORSDOF 16
ENDMDL
MODEL 2
REMARK VINA RESULT:     -10.6      4.913     10.094
REMARK SMILES CC[C@@H]1CC[C@H]([C@@H](C)C(=O)OCCOCCOC(=O)c2ccc(-c3c4nc(c(-c5c(F)c(F)c(F)c(F)c5F)c5ccc([nH]5)c(-c5c(F)c(F)c(F)c(F)c5F)c5nc(c(-c6c(F)c(F)c(F)c(F)c6F)c6ccc3[nH]6)C=C5)C=C4)cc2)C1
REMARK SMILES IDX 14 1 13 2 12 3 11 4 9 5 10 6 7 7 8 8 6 9 3 10 4 11 83 12
REMARK SMILES IDX 5 13 2 14 1 15 15 16 16 17 17 18 18 19 19 20 20 21 21 22
REMARK SMILES IDX 82 23 22 24 81 25 23 26 24 27 25 28 75 29 26 30 80 31 74 32
REMARK SMILES IDX 76 33 27 34 79 35 73 36 72 37 28 39 60 40 40 41 59 42 41 43
REMARK SMILES IDX 44 44 58 45 77 46 42 47 43 48 57 50 78 51 45 52 29 53 30 54
REMARK SMILES IDX 38 55 31 56 32 57 36 58 39 59 33 60 34 61 37 62 35 63 61 64
REMARK SMILES IDX 62 65 70 66 63 67 64 68 68 69 71 70 65 71 66 72 69 73 67 74
REMARK SMILES IDX 46 75 47 76 55 77 48 78 49 79 53 80 56 81 50 82 51 83 54 84
REMARK SMILES IDX 52 85
REMARK H PARENT 76 38 44 49
REMARK Flexibility Score: inf
ROOT
ATOM      1  O   UNL A   1      45.910  20.988  25.508  1.00  0.00    -0.374 OA
ENDROOT
BRANCH   1   2
ATOM      2  C   UNL A   1      45.048  20.202  24.691  1.00  0.00     0.202 C 
BRANCH   2   3
ATOM      3  C   UNL A   1      43.902  19.465  25.393  1.00  0.00     0.261 C 
BRANCH   3   4
ATOM      4  O   UNL A   1      42.655  20.189  25.438  1.00  0.00    -0.463 OA
BRANCH   4   5
ATOM      5  C   UNL A   1      42.113  20.314  26.681  1.00  0.00     0.309 C 
ATOM      6  O   UNL A   1      41.908  19.379  27.447  1.00  0.00    -0.252 OA
BRANCH   5   7
ATOM      7  C   UNL A   1      41.656  21.727  27.010  1.00  0.00     0.099 C 
ATOM      8  C   UNL A   1      42.440  22.169  28.249  1.00  0.00     0.020 C 
BRANCH   7   9
ATOM      9  C   UNL A   1      40.141  21.968  27.178  1.00  0.00     0.003 C 
ATOM     10  C   UNL A   1      38.126  22.546  25.950  1.00  0.00    -0.011 C 
ATOM     11  C   UNL A   1      38.827  23.855  26.281  1.00  0.00     0.004 C 
ATOM     12  C   UNL A   1      39.287  21.555  25.970  1.00  0.00     0.008 C 
ATOM     13  C   UNL A   1      39.812  23.467  27.381  1.00  0.00     0.005 C 
BRANCH  10  14
ATOM     14  C   UNL A   1      37.288  22.576  24.667  1.00  0.00     0.000 C 
ATOM     15  C   UNL A   1      36.088  23.513  24.669  1.00  0.00     0.004 C 
ENDBRANCH  10  14
ENDBRANCH   7   9
ENDBRANCH   5   7
ENDBRANCH   4   5
ENDBRANCH   3   4
ENDBRANCH   2   3
ENDBRANCH   1   2
BRANCH   1  16
ATOM     16  C   UNL A   1      45.548  22.354  25.707  1.00  0.00     0.202 C 
BRANCH  16  17
ATOM     17  C   UNL A   1      45.324  23.169  24.429  1.00  0.00     0.261 C 
BRANCH  17  18
ATOM     18  O   UNL A   1      44.331  24.194  24.631  1.00  0.00    -0.460 OA
BRANCH  18  19
ATOM     19  C   UNL A   1      44.828  25.380  25.049  1.00  0.00     0.338 C 
ATOM     20  O   UNL A   1      45.845  25.937  24.660  1.00  0.00    -0.246 OA
BRANCH  19  21
ATOM     21  C   UNL A   1      43.872  26.045  25.950  1.00  0.00     0.060 A 
ATOM     22  C   UNL A   1      43.984  27.434  26.094  1.00  0.00     0.016 A 
ATOM     23  C   UNL A   1      42.973  25.321  26.735  1.00  0.00     0.016 A 
ATOM     24  C   UNL A   1      43.245  28.096  27.072  1.00  0.00     0.010 A 
ATOM     25  C   UNL A   1      42.235  25.987  27.723  1.00  0.00     0.010 A 
ATOM     26  C   UNL A   1      42.403  27.370  27.927  1.00  0.00    -0.014 A 
BRANCH  26  27
ATOM     27  C   UNL A   1      41.847  28.043  29.128  1.00  0.00     0.031 A 
ATOM     28  C   UNL A   1      42.576  27.916  30.440  1.00  0.00     0.074 A 
ATOM     29  C   UNL A   1      40.747  28.812  29.047  1.00  0.00     0.049 A 
ATOM     30  N   UNL A   1      42.298  28.453  31.601  1.00  0.00    -0.248 NA
ATOM     31  C   UNL A   1      43.781  27.072  30.441  1.00  0.00     0.031 C 
ATOM     32  C   UNL A   1      39.967  29.044  27.834  1.00  0.00     0.029 A 
ATOM     33  N   UNL A   1      40.099  29.545  30.011  1.00  0.00    -0.354 N 
ATOM     34  C   UNL A   1      43.293  28.016  32.466  1.00  0.00     0.074 A 
ATOM     35  C   UNL A   1      44.162  27.143  31.708  1.00  0.00     0.031 C 
ATOM     36  C   UNL A   1      38.941  29.862  28.126  1.00  0.00     0.029 A 
ATOM     37  C   UNL A   1      38.982  30.195  29.550  1.00  0.00     0.049 A 
ATOM     38  H   UNL A   1      40.407  29.599  30.945  1.00  0.00     0.167 HD
ATOM     39  C   UNL A   1      43.476  28.326  33.773  1.00  0.00     0.037 A 
ATOM     40  C   UNL A   1      38.088  30.962  30.204  1.00  0.00     0.037 A 
ATOM     41  C   UNL A   1      42.620  29.197  34.533  1.00  0.00     0.049 A 
ATOM     42  C   UNL A   1      38.281  31.245  31.672  1.00  0.00     0.074 A 
ATOM     43  C   UNL A   1      42.743  29.590  35.854  1.00  0.00     0.029 A 
ATOM     44  N   UNL A   1      41.477  29.805  34.039  1.00  0.00    -0.354 N 
ATOM     45  N   UNL A   1      39.246  30.859  32.470  1.00  0.00    -0.248 NA
ATOM     46  C   UNL A   1      37.261  32.077  32.327  1.00  0.00     0.031 C 
ATOM     47  C   UNL A   1      41.648  30.402  36.172  1.00  0.00     0.029 A 
ATOM     48  C   UNL A   1      40.869  30.549  35.037  1.00  0.00     0.049 A 
ATOM     49  H   UNL A   1      41.146  29.721  33.115  1.00  0.00     0.167 HD
ATOM     50  C   UNL A   1      38.964  31.416  33.710  1.00  0.00     0.074 A 
ATOM     51  C   UNL A   1      37.744  32.181  33.557  1.00  0.00     0.031 C 
ATOM     52  C   UNL A   1      39.655  31.307  34.871  1.00  0.00     0.037 A 
BRANCH  39  53
ATOM     53  C   UNL A   1      44.645  27.698  34.472  1.00  0.00     0.064 A 
ATOM     54  C   UNL A   1      45.891  28.338  34.539  1.00  0.00     0.173 A 
ATOM     55  C   UNL A   1      44.506  26.459  35.116  1.00  0.00     0.173 A 
ATOM     56  F   UNL A   1      46.078  29.518  33.928  1.00  0.00    -0.203 F 
ATOM     57  C   UNL A   1      46.963  27.748  35.205  1.00  0.00     0.198 A 
ATOM     58  C   UNL A   1      45.572  25.884  35.802  1.00  0.00     0.198 A 
ATOM     59  F   UNL A   1      43.333  25.810  35.085  1.00  0.00    -0.203 F 
ATOM     60  F   UNL A   1      48.156  28.358  35.222  1.00  0.00    -0.200 F 
ATOM     61  C   UNL A   1      46.801  26.526  35.840  1.00  0.00     0.200 A 
ATOM     62  F   UNL A   1      45.411  24.708  36.423  1.00  0.00    -0.200 F 
ATOM     63  F   UNL A   1      47.832  25.963  36.485  1.00  0.00    -0.200 F 
ENDBRANCH  39  53
BRANCH  40  64
ATOM     64  C   UNL A   1      36.920  31.519  29.475  1.00  0.00     0.064 A 
ATOM     65  C   UNL A   1      35.847  30.704  29.093  1.00  0.00     0.173 A 
ATOM     66  C   UNL A   1      36.865  32.878  29.133  1.00  0.00     0.173 A 
ATOM     67  F   UNL A   1      35.868  29.394  29.374  1.00  0.00    -0.203 F 
ATOM     68  C   UNL A   1      34.766  31.226  28.385  1.00  0.00     0.198 A 
ATOM     69  C   UNL A   1      35.773  33.403  28.447  1.00  0.00     0.198 A 
ATOM     70  F   UNL A   1      37.872  33.698  29.472  1.00  0.00    -0.203 F 
ATOM     71  F   UNL A   1      33.770  30.418  27.995  1.00  0.00    -0.200 F 
ATOM     72  C   UNL A   1      34.728  32.576  28.067  1.00  0.00     0.200 A 
ATOM     73  F   UNL A   1      35.737  34.709  28.149  1.00  0.00    -0.200 F 
ATOM     74  F   UNL A   1      33.687  33.078  27.388  1.00  0.00    -0.200 F 
ENDBRANCH  40  64
BRANCH  52  75
ATOM     75  C   UNL A   1      39.125  32.046  36.064  1.00  0.00     0.064 A 
ATOM     76  C   UNL A   1      39.483  33.377  36.322  1.00  0.00     0.173 A 
ATOM     77  C   UNL A   1      38.214  31.429  36.936  1.00  0.00     0.173 A 
ATOM     78  F   UNL A   1      40.361  34.006  35.527  1.00  0.00    -0.203 F 
ATOM     79  C   UNL A   1      38.964  34.058  37.421  1.00  0.00     0.198 A 
ATOM     80  C   UNL A   1      37.677  32.121  38.019  1.00  0.00     0.198 A 
ATOM     81  F   UNL A   1      37.834  30.160  36.728  1.00  0.00    -0.203 F 
ATOM     82  F   UNL A   1      39.351  35.317  37.671  1.00  0.00    -0.200 F 
ATOM     83  C   UNL A   1      38.058  33.432  38.263  1.00  0.00     0.200 A 
ATOM     84  F   UNL A   1      36.793  31.518  38.825  1.00  0.00    -0.200 F 
ATOM     85  F   UNL A   1      37.555  34.090  39.317  1.00  0.00    -0.200 F 
ENDBRANCH  52  75
ENDBRANCH  26  27
ENDBRANCH  19  21
ENDBRANCH  18  19
ENDBRANCH  17  18
ENDBRANCH  16  17
ENDBRANCH   1  16
TORSDOF 16
ENDMDL
MODEL 3
REMARK VINA RESULT:     -10.4      4.390      9.406
REMARK SMILES CC[C@@H]1CC[C@H]([C@@H](C)C(=O)OCCOCCOC(=O)c2ccc(-c3c4nc(c(-c5c(F)c(F)c(F)c(F)c5F)c5ccc([nH]5)c(-c5c(F)c(F)c(F)c(F)c5F)c5nc(c(-c6c(F)c(F)c(F)c(F)c6F)c6ccc3[nH]6)C=C5)C=C4)cc2)C1
REMARK SMILES IDX 14 1 13 2 12 3 11 4 9 5 10 6 7 7 8 8 6 9 3 10 4 11 83 12
REMARK SMILES IDX 5 13 2 14 1 15 15 16 16 17 17 18 18 19 19 20 20 21 21 22
REMARK SMILES IDX 82 23 22 24 81 25 23 26 24 27 25 28 75 29 26 30 80 31 74 32
REMARK SMILES IDX 76 33 27 34 79 35 73 36 72 37 28 39 60 40 40 41 59 42 41 43
REMARK SMILES IDX 44 44 58 45 77 46 42 47 43 48 57 50 78 51 45 52 29 53 30 54
REMARK SMILES IDX 38 55 31 56 32 57 36 58 39 59 33 60 34 61 37 62 35 63 61 64
REMARK SMILES IDX 62 65 70 66 63 67 64 68 68 69 71 70 65 71 66 72 69 73 67 74
REMARK SMILES IDX 46 75 47 76 55 77 48 78 49 79 53 80 56 81 50 82 51 83 54 84
REMARK SMILES IDX 52 85
REMARK H PARENT 76 38 44 49
REMARK Flexibility Score: inf
ROOT
ATOM      1  O   UNL A   1      41.619  21.479  25.640  1.00  0.00    -0.374 OA
ENDROOT
BRANCH   1   2
ATOM      2  C   UNL A   1      40.866  21.917  26.766  1.00  0.00     0.202 C 
BRANCH   2   3
ATOM      3  C   UNL A   1      39.344  21.754  26.693  1.00  0.00     0.261 C 
BRANCH   3   4
ATOM      4  O   UNL A   1      38.779  21.920  25.377  1.00  0.00    -0.463 OA
BRANCH   4   5
ATOM      5  C   UNL A   1      37.900  20.948  25.006  1.00  0.00     0.309 C 
ATOM      6  O   UNL A   1      38.152  19.748  25.005  1.00  0.00    -0.252 OA
BRANCH   5   7
ATOM      7  C   UNL A   1      36.585  21.486  24.464  1.00  0.00     0.099 C 
ATOM      8  C   UNL A   1      36.678  23.014  24.512  1.00  0.00     0.020 C 
BRANCH   7   9
ATOM      9  C   UNL A   1      35.282  20.974  25.112  1.00  0.00     0.003 C 
ATOM     10  C   UNL A   1      33.297  19.642  24.673  1.00  0.00    -0.011 C 
ATOM     11  C   UNL A   1      33.014  21.038  24.139  1.00  0.00     0.004 C 
ATOM     12  C   UNL A   1      34.823  19.591  24.623  1.00  0.00     0.008 C 
ATOM     13  C   UNL A   1      34.080  21.902  24.808  1.00  0.00     0.005 C 
BRANCH  10  14
ATOM     14  C   UNL A   1      32.562  18.515  23.939  1.00  0.00     0.000 C 
ATOM     15  C   UNL A   1      33.417  17.345  23.474  1.00  0.00     0.004 C 
ENDBRANCH  10  14
ENDBRANCH   7   9
ENDBRANCH   5   7
ENDBRANCH   4   5
ENDBRANCH   3   4
ENDBRANCH   2   3
ENDBRANCH   1   2
BRANCH   1  16
ATOM     16  C   UNL A   1      43.013  21.250  25.841  1.00  0.00     0.202 C 
BRANCH  16  17
ATOM     17  C   UNL A   1      43.953  22.178  25.063  1.00  0.00     0.261 C 
BRANCH  17  18
ATOM     18  O   UNL A   1      43.289  23.404  24.696  1.00  0.00    -0.460 OA
BRANCH  18  19
ATOM     19  C   UNL A   1      43.979  24.527  24.999  1.00  0.00     0.338 C 
ATOM     20  O   UNL A   1      45.061  24.877  24.549  1.00  0.00    -0.246 OA
BRANCH  19  21
ATOM     21  C   UNL A   1      43.165  25.413  25.848  1.00  0.00     0.060 A 
ATOM     22  C   UNL A   1      43.702  26.666  26.169  1.00  0.00     0.016 A 
ATOM     23  C   UNL A   1      41.966  24.985  26.424  1.00  0.00     0.016 A 
ATOM     24  C   UNL A   1      43.076  27.470  27.120  1.00  0.00     0.010 A 
ATOM     25  C   UNL A   1      41.342  25.793  27.385  1.00  0.00     0.010 A 
ATOM     26  C   UNL A   1      41.920  27.017  27.771  1.00  0.00    -0.014 A 
BRANCH  26  27
ATOM     27  C   UNL A   1      41.434  27.753  28.966  1.00  0.00     0.031 A 
ATOM     28  C   UNL A   1      42.189  27.619  30.263  1.00  0.00     0.074 A 
ATOM     29  C   UNL A   1      40.378  28.581  28.890  1.00  0.00     0.049 A 
ATOM     30  N   UNL A   1      41.972  28.203  31.415  1.00  0.00    -0.248 NA
ATOM     31  C   UNL A   1      43.343  26.709  30.258  1.00  0.00     0.031 C 
ATOM     32  C   UNL A   1      39.581  28.825  27.690  1.00  0.00     0.029 A 
ATOM     33  N   UNL A   1      39.797  29.375  29.848  1.00  0.00    -0.354 N 
ATOM     34  C   UNL A   1      42.962  27.733  32.268  1.00  0.00     0.074 A 
ATOM     35  C   UNL A   1      43.761  26.791  31.513  1.00  0.00     0.031 C 
ATOM     36  C   UNL A   1      38.611  29.707  27.983  1.00  0.00     0.029 A 
ATOM     37  C   UNL A   1      38.708  30.075  29.396  1.00  0.00     0.049 A 
ATOM     38  H   UNL A   1      40.132  29.437  30.772  1.00  0.00     0.167 HD
ATOM     39  C   UNL A   1      43.196  28.067  33.560  1.00  0.00     0.037 A 
ATOM     40  C   UNL A   1      37.876  30.910  30.049  1.00  0.00     0.037 A 
ATOM     41  C   UNL A   1      42.411  29.006  34.316  1.00  0.00     0.049 A 
ATOM     42  C   UNL A   1      38.122  31.221  31.504  1.00  0.00     0.074 A 
ATOM     43  C   UNL A   1      42.590  29.427  35.622  1.00  0.00     0.029 A 
ATOM     44  N   UNL A   1      41.292  29.665  33.832  1.00  0.00    -0.354 N 
ATOM     45  N   UNL A   1      39.084  30.802  32.289  1.00  0.00    -0.248 NA
ATOM     46  C   UNL A   1      37.168  32.127  32.160  1.00  0.00     0.031 C 
ATOM     47  C   UNL A   1      41.551  30.308  35.943  1.00  0.00     0.029 A 
ATOM     48  C   UNL A   1      40.752  30.469  34.824  1.00  0.00     0.049 A 
ATOM     49  H   UNL A   1      40.932  29.575  32.920  1.00  0.00     0.167 HD
ATOM     50  C   UNL A   1      38.866  31.408  33.519  1.00  0.00     0.074 A 
ATOM     51  C   UNL A   1      37.687  32.236  33.374  1.00  0.00     0.031 C 
ATOM     52  C   UNL A   1      39.580  31.291  34.665  1.00  0.00     0.037 A 
BRANCH  39  53
ATOM     53  C   UNL A   1      44.345  27.393  34.249  1.00  0.00     0.064 A 
ATOM     54  C   UNL A   1      45.612  27.991  34.321  1.00  0.00     0.173 A 
ATOM     55  C   UNL A   1      44.168  26.150  34.875  1.00  0.00     0.173 A 
ATOM     56  F   UNL A   1      45.836  29.172  33.726  1.00  0.00    -0.203 F 
ATOM     57  C   UNL A   1      46.665  27.358  34.976  1.00  0.00     0.198 A 
ATOM     58  C   UNL A   1      45.216  25.532  35.551  1.00  0.00     0.198 A 
ATOM     59  F   UNL A   1      42.974  25.539  34.839  1.00  0.00    -0.203 F 
ATOM     60  F   UNL A   1      47.878  27.929  34.999  1.00  0.00    -0.200 F 
ATOM     61  C   UNL A   1      46.465  26.133  35.595  1.00  0.00     0.200 A 
ATOM     62  F   UNL A   1      45.018  24.353  36.157  1.00  0.00    -0.200 F 
ATOM     63  F   UNL A   1      47.478  25.528  36.231  1.00  0.00    -0.200 F 
ENDBRANCH  39  53
BRANCH  40  64
ATOM     64  C   UNL A   1      36.722  31.514  29.334  1.00  0.00     0.064 A 
ATOM     65  C   UNL A   1      36.704  32.875  29.005  1.00  0.00     0.173 A 
ATOM     66  C   UNL A   1      35.607  30.739  28.980  1.00  0.00     0.173 A 
ATOM     67  F   UNL A   1      37.735  33.661  29.347  1.00  0.00    -0.203 F 
ATOM     68  C   UNL A   1      35.607  33.442  28.358  1.00  0.00     0.198 A 
ATOM     69  C   UNL A   1      34.523  31.302  28.313  1.00  0.00     0.198 A 
ATOM     70  F   UNL A   1      35.576  29.432  29.280  1.00  0.00    -0.203 F 
ATOM     71  F   UNL A   1      35.596  34.755  28.090  1.00  0.00    -0.200 F 
ATOM     72  C   UNL A   1      34.521  32.655  28.009  1.00  0.00     0.200 A 
ATOM     73  F   UNL A   1      33.479  30.536  27.970  1.00  0.00    -0.200 F 
ATOM     74  F   UNL A   1      33.467  33.200  27.385  1.00  0.00    -0.200 F 
ENDBRANCH  40  64
BRANCH  52  75
ATOM     75  C   UNL A   1      39.123  32.091  35.850  1.00  0.00     0.064 A 
ATOM     76  C   UNL A   1      39.544  33.414  36.048  1.00  0.00     0.173 A 
ATOM     77  C   UNL A   1      38.220  31.542  36.773  1.00  0.00     0.173 A 
ATOM     78  F   UNL A   1      40.417  33.978  35.202  1.00  0.00    -0.203 F 
ATOM     79  C   UNL A   1      39.093  34.152  37.140  1.00  0.00     0.198 A 
ATOM     80  C   UNL A   1      37.751  32.291  37.849  1.00  0.00     0.198 A 
ATOM     81  F   UNL A   1      37.781  30.283  36.624  1.00  0.00    -0.203 F 
ATOM     82  F   UNL A   1      39.539  35.401  37.332  1.00  0.00    -0.200 F 
ATOM     83  C   UNL A   1      38.192  33.592  38.035  1.00  0.00     0.200 A 
ATOM     84  F   UNL A   1      36.872  31.753  38.706  1.00  0.00    -0.200 F 
ATOM     85  F   UNL A   1      37.755  34.306  39.081  1.00  0.00    -0.200 F 
ENDBRANCH  52  75
ENDBRANCH  26  27
ENDBRANCH  19  21
ENDBRANCH  18  19
ENDBRANCH  17  18
ENDBRANCH  16  17
ENDBRANCH   1  16
TORSDOF 16
ENDMDL
