MODEL 1
REMARK VINA RESULT:     -12.2      0.000      0.000
REMARK SMILES CC[C@@H](C)[C@@H](NC(=O)CCn1ccc2ccc(Br)cc21)C(=O)OCCOCCOC(=O)c1ccc(-c2c3nc(c(-c4c(F)c(F)c(F)c(F)c4F)c4ccc([nH]4)c(-c4c(F)c(F)c(F)c(F)c4F)c4nc(c(-c5c(F)c(F)c(F)c(F)c5F)c5ccc2[nH]5)C=C4)C=C3)cc1
REMARK SMILES IDX 25 1 24 2 23 3 21 4 22 5 5 6 3 7 4 8 2 9 1 10 6 11 7 12 8 14
REMARK SMILES IDX 9 15 10 16 11 17 12 18 20 19 13 20 14 21 19 22 15 23 17 24
REMARK SMILES IDX 16 25 18 26 26 27 27 28 28 29 29 30 30 31 31 32 32 33 33 34
REMARK SMILES IDX 94 35 34 36 93 37 35 38 36 39 37 40 87 41 38 42 92 43 86 44
REMARK SMILES IDX 88 45 39 46 91 47 85 48 84 49 40 51 72 52 52 53 71 54 53 55
REMARK SMILES IDX 56 56 70 57 89 58 54 59 55 60 69 62 90 63 57 64 41 65 42 66
REMARK SMILES IDX 50 67 43 68 44 69 48 70 51 71 45 72 46 73 49 74 47 75 73 76
REMARK SMILES IDX 74 77 82 78 75 79 76 80 80 81 83 82 77 83 78 84 81 85 79 86
REMARK SMILES IDX 58 87 59 88 67 89 60 90 61 91 65 92 68 93 62 94 63 95 66 96
REMARK SMILES IDX 64 97
REMARK H PARENT 6 13 88 50 56 61
REMARK Flexibility Score: inf
ROOT
ATOM      1  C   UNL A   1      37.671  22.661  25.507  1.00  0.00     0.202 C 
ENDROOT
BRANCH   1   2
ATOM      2  C   UNL A   1      37.074  21.577  24.523  1.00  0.00     0.261 C 
BRANCH   2   3
ATOM      3  O   UNL A   1      35.586  21.601  24.514  1.00  0.00    -0.462 OA
BRANCH   3   4
ATOM      4  C   UNL A   1      34.667  21.073  25.401  1.00  0.00     0.328 C 
ATOM      5  O   UNL A   1      34.810  21.244  26.611  1.00  0.00    -0.250 OA
BRANCH   4   6
ATOM      6  C   UNL A   1      33.344  20.058  24.745  1.00  0.00     0.195 C 
BRANCH   6   7
ATOM      7  C   UNL A   1      32.586  18.531  24.579  1.00  0.00     0.019 C 
ATOM      8  C   UNL A   1      32.638  17.280  25.471  1.00  0.00     0.010 C 
BRANCH   7   9
ATOM      9  C   UNL A   1      32.994  17.904  23.181  1.00  0.00     0.002 C 
ATOM     10  C   UNL A   1      33.962  16.692  23.214  1.00  0.00     0.004 C 
ENDBRANCH   7   9
ENDBRANCH   6   7
BRANCH   6  11
ATOM     11  N   UNL A   1      32.365  20.710  25.594  1.00  0.00    -0.342 N 
ATOM     12  C   UNL A   1      31.701  21.821  25.179  1.00  0.00     0.222 C 
ATOM     13  H   UNL A   1      32.178  20.341  26.488  1.00  0.00     0.164 HD
ATOM     14  O   UNL A   1      30.927  22.373  25.960  1.00  0.00    -0.275 OA
BRANCH  12  15
ATOM     15  C   UNL A   1      31.804  22.255  23.702  1.00  0.00     0.122 C 
BRANCH  15  16
ATOM     16  C   UNL A   1      31.816  23.763  23.155  1.00  0.00     0.132 C 
BRANCH  16  17
ATOM     17  N   UNL A   1      32.586  25.072  23.215  1.00  0.00    -0.347 N 
ATOM     18  C   UNL A   1      33.158  25.398  21.971  1.00  0.00     0.087 A 
ATOM     19  C   UNL A   1      32.735  26.277  24.015  1.00  0.00     0.049 A 
ATOM     20  C   UNL A   1      33.504  26.722  21.917  1.00  0.00     0.028 A 
ATOM     21  C   UNL A   1      33.130  27.320  23.137  1.00  0.00    -0.000 A 
ATOM     22  C   UNL A   1      32.619  26.714  25.383  1.00  0.00     0.042 A 
ATOM     23  C   UNL A   1      33.035  28.678  23.550  1.00  0.00     0.011 A 
ATOM     24  C   UNL A   1      32.370  28.039  25.735  1.00  0.00     0.020 A 
ATOM     25  C   UNL A   1      32.533  29.027  24.806  1.00  0.00     0.016 A 
ATOM     26  Br  UNL A   1      31.749  28.437  27.480  1.00  0.00    -0.051 Br
ENDBRANCH  16  17
ENDBRANCH  15  16
ENDBRANCH  12  15
ENDBRANCH   6  11
ENDBRANCH   4   6
ENDBRANCH   3   4
ENDBRANCH   2   3
ENDBRANCH   1   2
BRANCH   1  27
ATOM     27  O   UNL A   1      38.702  22.255  26.429  1.00  0.00    -0.374 OA
BRANCH  27  28
ATOM     28  C   UNL A   1      39.418  21.044  26.129  1.00  0.00     0.202 C 
BRANCH  28  29
ATOM     29  C   UNL A   1      40.964  21.085  26.053  1.00  0.00     0.261 C 
BRANCH  29  30
ATOM     30  O   UNL A   1      41.392  22.392  25.666  1.00  0.00    -0.460 OA
BRANCH  30  31
ATOM     31  C   UNL A   1      42.710  22.645  25.635  1.00  0.00     0.338 C 
ATOM     32  O   UNL A   1      43.564  22.162  24.902  1.00  0.00    -0.246 OA
BRANCH  31  33
ATOM     33  C   UNL A   1      42.787  23.941  26.316  1.00  0.00     0.060 A 
ATOM     34  C   UNL A   1      43.481  24.118  27.518  1.00  0.00     0.016 A 
ATOM     35  C   UNL A   1      41.876  24.892  25.859  1.00  0.00     0.016 A 
ATOM     36  C   UNL A   1      43.180  25.221  28.313  1.00  0.00     0.010 A 
ATOM     37  C   UNL A   1      41.590  25.995  26.642  1.00  0.00     0.010 A 
ATOM     38  C   UNL A   1      42.207  26.143  27.886  1.00  0.00    -0.014 A 
BRANCH  38  39
ATOM     39  C   UNL A   1      42.033  27.403  28.620  1.00  0.00     0.031 A 
ATOM     40  C   UNL A   1      43.116  28.388  28.321  1.00  0.00     0.074 A 
ATOM     41  C   UNL A   1      40.918  27.755  29.304  1.00  0.00     0.049 A 
ATOM     42  N   UNL A   1      43.926  28.956  29.151  1.00  0.00    -0.248 NA
ATOM     43  C   UNL A   1      43.422  28.671  26.905  1.00  0.00     0.031 C 
ATOM     44  C   UNL A   1      39.672  26.997  29.445  1.00  0.00     0.029 A 
ATOM     45  N   UNL A   1      40.619  28.928  29.944  1.00  0.00    -0.354 N 
ATOM     46  C   UNL A   1      44.723  29.809  28.388  1.00  0.00     0.074 A 
ATOM     47  C   UNL A   1      44.475  29.481  27.010  1.00  0.00     0.031 C 
ATOM     48  C   UNL A   1      38.693  27.810  29.908  1.00  0.00     0.029 A 
ATOM     49  C   UNL A   1      39.263  29.107  30.230  1.00  0.00     0.049 A 
ATOM     50  H   UNL A   1      41.303  29.594  30.183  1.00  0.00     0.167 HD
ATOM     51  C   UNL A   1      45.347  30.878  28.952  1.00  0.00     0.037 A 
ATOM     52  C   UNL A   1      38.648  30.239  30.670  1.00  0.00     0.037 A 
ATOM     53  C   UNL A   1      45.421  30.738  30.381  1.00  0.00     0.049 A 
ATOM     54  C   UNL A   1      39.695  31.109  31.249  1.00  0.00     0.074 A 
ATOM     55  C   UNL A   1      46.038  29.861  31.249  1.00  0.00     0.029 A 
ATOM     56  N   UNL A   1      44.480  31.405  31.118  1.00  0.00    -0.354 N 
ATOM     57  N   UNL A   1      40.355  30.828  32.335  1.00  0.00    -0.248 NA
ATOM     58  C   UNL A   1      40.307  32.090  30.370  1.00  0.00     0.031 C 
ATOM     59  C   UNL A   1      45.129  29.719  32.337  1.00  0.00     0.029 A 
ATOM     60  C   UNL A   1      44.047  30.570  32.110  1.00  0.00     0.049 A 
ATOM     61  H   UNL A   1      44.169  32.326  30.962  1.00  0.00     0.167 HD
ATOM     62  C   UNL A   1      41.649  31.232  32.059  1.00  0.00     0.074 A 
ATOM     63  C   UNL A   1      41.542  32.082  30.874  1.00  0.00     0.031 C 
ATOM     64  C   UNL A   1      42.707  30.602  32.644  1.00  0.00     0.037 A 
BRANCH  51  65
ATOM     65  C   UNL A   1      45.517  32.221  28.281  1.00  0.00     0.064 A 
ATOM     66  C   UNL A   1      44.369  32.957  27.918  1.00  0.00     0.173 A 
ATOM     67  C   UNL A   1      46.726  32.655  27.695  1.00  0.00     0.173 A 
ATOM     68  F   UNL A   1      43.161  32.615  28.391  1.00  0.00    -0.203 F 
ATOM     69  C   UNL A   1      44.421  33.994  26.982  1.00  0.00     0.198 A 
ATOM     70  C   UNL A   1      46.780  33.724  26.803  1.00  0.00     0.198 A 
ATOM     71  F   UNL A   1      47.877  31.995  27.866  1.00  0.00    -0.203 F 
ATOM     72  F   UNL A   1      43.286  34.575  26.571  1.00  0.00    -0.200 F 
ATOM     73  C   UNL A   1      45.625  34.373  26.422  1.00  0.00     0.200 A 
ATOM     74  F   UNL A   1      47.954  34.059  26.249  1.00  0.00    -0.200 F 
ATOM     75  F   UNL A   1      45.669  35.324  25.480  1.00  0.00    -0.200 F 
ENDBRANCH  51  65
BRANCH  52  76
ATOM     76  C   UNL A   1      37.298  30.787  30.357  1.00  0.00     0.064 A 
ATOM     77  C   UNL A   1      36.407  31.174  31.380  1.00  0.00     0.173 A 
ATOM     78  C   UNL A   1      36.986  31.245  29.063  1.00  0.00     0.173 A 
ATOM     79  F   UNL A   1      36.653  30.831  32.653  1.00  0.00    -0.203 F 
ATOM     80  C   UNL A   1      35.296  31.991  31.128  1.00  0.00     0.198 A 
ATOM     81  C   UNL A   1      35.876  32.058  28.813  1.00  0.00     0.198 A 
ATOM     82  F   UNL A   1      37.810  31.000  28.036  1.00  0.00    -0.203 F 
ATOM     83  F   UNL A   1      34.515  32.393  32.139  1.00  0.00    -0.200 F 
ATOM     84  C   UNL A   1      35.039  32.442  29.845  1.00  0.00     0.200 A 
ATOM     85  F   UNL A   1      35.662  32.527  27.575  1.00  0.00    -0.200 F 
ATOM     86  F   UNL A   1      34.020  33.280  29.611  1.00  0.00    -0.200 F 
ENDBRANCH  52  76
BRANCH  64  87
ATOM     87  C   UNL A   1      42.438  29.696  33.811  1.00  0.00     0.064 A 
ATOM     88  C   UNL A   1      42.068  28.344  33.701  1.00  0.00     0.173 A 
ATOM     89  C   UNL A   1      42.758  30.178  35.089  1.00  0.00     0.173 A 
ATOM     90  F   UNL A   1      41.822  27.789  32.507  1.00  0.00    -0.203 F 
ATOM     91  C   UNL A   1      42.016  27.520  34.824  1.00  0.00     0.198 A 
ATOM     92  C   UNL A   1      42.741  29.344  36.200  1.00  0.00     0.198 A 
ATOM     93  F   UNL A   1      43.155  31.451  35.243  1.00  0.00    -0.203 F 
ATOM     94  F   UNL A   1      41.666  26.230  34.695  1.00  0.00    -0.200 F 
ATOM     95  C   UNL A   1      42.367  28.016  36.069  1.00  0.00     0.200 A 
ATOM     96  F   UNL A   1      43.127  29.819  37.392  1.00  0.00    -0.200 F 
ATOM     97  F   UNL A   1      42.374  27.210  37.140  1.00  0.00    -0.200 F 
ENDBRANCH  64  87
ENDBRANCH  38  39
ENDBRANCH  31  33
ENDBRANCH  30  31
ENDBRANCH  29  30
ENDBRANCH  28  29
ENDBRANCH  27  28
ENDBRANCH   1  27
TORSDOF 20
ENDMDL
MODEL 2
REMARK VINA RESULT:     -11.7      2.134      3.229
REMARK SMILES CC[C@@H](C)[C@@H](NC(=O)CCn1ccc2ccc(Br)cc21)C(=O)OCCOCCOC(=O)c1ccc(-c2c3nc(c(-c4c(F)c(F)c(F)c(F)c4F)c4ccc([nH]4)c(-c4c(F)c(F)c(F)c(F)c4F)c4nc(c(-c5c(F)c(F)c(F)c(F)c5F)c5ccc2[nH]5)C=C4)C=C3)cc1
REMARK SMILES IDX 25 1 24 2 23 3 21 4 22 5 5 6 3 7 4 8 2 9 1 10 6 11 7 12 8 14
REMARK SMILES IDX 9 15 10 16 11 17 12 18 20 19 13 20 14 21 19 22 15 23 17 24
REMARK SMILES IDX 16 25 18 26 26 27 27 28 28 29 29 30 30 31 31 32 32 33 33 34
REMARK SMILES IDX 94 35 34 36 93 37 35 38 36 39 37 40 87 41 38 42 92 43 86 44
REMARK SMILES IDX 88 45 39 46 91 47 85 48 84 49 40 51 72 52 52 53 71 54 53 55
REMARK SMILES IDX 56 56 70 57 89 58 54 59 55 60 69 62 90 63 57 64 41 65 42 66
REMARK SMILES IDX 50 67 43 68 44 69 48 70 51 71 45 72 46 73 49 74 47 75 73 76
REMARK SMILES IDX 74 77 82 78 75 79 76 80 80 81 83 82 77 83 78 84 81 85 79 86
REMARK SMILES IDX 58 87 59 88 67 89 60 90 61 91 65 92 68 93 62 94 63 95 66 96
REMARK SMILES IDX 64 97
REMARK H PARENT 6 13 88 50 56 61
REMARK Flexibility Score: inf
ROOT
ATOM      1  C   UNL A   1      40.441  19.743  26.074  1.00  0.00     0.202 C 
ENDROOT
BRANCH   1   2
ATOM      2  C   UNL A   1      39.201  19.192  25.264  1.00  0.00     0.261 C 
BRANCH   2   3
ATOM      3  O   UNL A   1      37.936  19.863  25.668  1.00  0.00    -0.462 OA
BRANCH   3   4
ATOM      4  C   UNL A   1      37.227  20.892  25.076  1.00  0.00     0.328 C 
ATOM      5  O   UNL A   1      37.784  21.962  24.832  1.00  0.00    -0.250 OA
BRANCH   4   6
ATOM      6  C   UNL A   1      35.476  20.653  24.782  1.00  0.00     0.195 C 
BRANCH   6   7
ATOM      7  C   UNL A   1      34.113  19.620  24.689  1.00  0.00     0.019 C 
ATOM      8  C   UNL A   1      33.016  19.307  25.720  1.00  0.00     0.010 C 
BRANCH   7   9
ATOM      9  C   UNL A   1      34.601  18.155  24.333  1.00  0.00     0.002 C 
ATOM     10  C   UNL A   1      33.631  16.992  24.673  1.00  0.00     0.004 C 
ENDBRANCH   7   9
ENDBRANCH   6   7
BRANCH   6  11
ATOM     11  N   UNL A   1      35.131  21.382  25.988  1.00  0.00    -0.342 N 
ATOM     12  C   UNL A   1      34.604  22.634  25.928  1.00  0.00     0.222 C 
ATOM     13  H   UNL A   1      35.281  20.962  26.866  1.00  0.00     0.164 HD
ATOM     14  O   UNL A   1      34.387  23.234  26.980  1.00  0.00    -0.275 OA
BRANCH  12  15
ATOM     15  C   UNL A   1      34.139  23.193  24.567  1.00  0.00     0.122 C 
BRANCH  15  16
ATOM     16  C   UNL A   1      33.358  24.574  24.326  1.00  0.00     0.132 C 
BRANCH  16  17
ATOM     17  N   UNL A   1      32.947  25.872  25.000  1.00  0.00    -0.347 N 
ATOM     18  C   UNL A   1      33.942  26.342  25.877  1.00  0.00     0.087 A 
ATOM     19  C   UNL A   1      32.011  26.978  24.880  1.00  0.00     0.049 A 
ATOM     20  C   UNL A   1      33.755  27.666  26.174  1.00  0.00     0.028 A 
ATOM     21  C   UNL A   1      32.628  28.117  25.459  1.00  0.00    -0.000 A 
ATOM     22  C   UNL A   1      30.689  27.255  24.378  1.00  0.00     0.042 A 
ATOM     23  C   UNL A   1      32.112  29.419  25.204  1.00  0.00     0.011 A 
ATOM     24  C   UNL A   1      30.278  28.529  23.992  1.00  0.00     0.020 A 
ATOM     25  C   UNL A   1      31.013  29.619  24.365  1.00  0.00     0.016 A 
ATOM     26  Br  UNL A   1      28.739  28.720  22.904  1.00  0.00    -0.051 Br
ENDBRANCH  16  17
ENDBRANCH  15  16
ENDBRANCH  12  15
ENDBRANCH   6  11
ENDBRANCH   4   6
ENDBRANCH   3   4
ENDBRANCH   2   3
ENDBRANCH   1   2
BRANCH   1  27
ATOM     27  O   UNL A   1      41.709  19.850  25.397  1.00  0.00    -0.374 OA
BRANCH  27  28
ATOM     28  C   UNL A   1      42.839  19.199  26.003  1.00  0.00     0.202 C 
BRANCH  28  29
ATOM     29  C   UNL A   1      44.127  18.997  25.167  1.00  0.00     0.261 C 
BRANCH  29  30
ATOM     30  O   UNL A   1      44.944  20.166  25.250  1.00  0.00    -0.460 OA
BRANCH  30  31
ATOM     31  C   UNL A   1      44.920  21.032  24.226  1.00  0.00     0.338 C 
ATOM     32  O   UNL A   1      44.602  20.829  23.061  1.00  0.00    -0.246 OA
BRANCH  31  33
ATOM     33  C   UNL A   1      44.889  22.323  24.919  1.00  0.00     0.060 A 
ATOM     34  C   UNL A   1      45.660  22.585  26.057  1.00  0.00     0.016 A 
ATOM     35  C   UNL A   1      43.823  23.148  24.561  1.00  0.00     0.016 A 
ATOM     36  C   UNL A   1      45.291  23.635  26.893  1.00  0.00     0.010 A 
ATOM     37  C   UNL A   1      43.468  24.201  25.385  1.00  0.00     0.010 A 
ATOM     38  C   UNL A   1      44.170  24.423  26.571  1.00  0.00    -0.014 A 
BRANCH  38  39
ATOM     39  C   UNL A   1      43.900  25.646  27.338  1.00  0.00     0.031 A 
ATOM     40  C   UNL A   1      44.840  26.753  26.990  1.00  0.00     0.074 A 
ATOM     41  C   UNL A   1      42.799  25.858  28.097  1.00  0.00     0.049 A 
ATOM     42  N   UNL A   1      45.632  27.401  27.778  1.00  0.00    -0.248 NA
ATOM     43  C   UNL A   1      45.019  27.086  25.563  1.00  0.00     0.031 C 
ATOM     44  C   UNL A   1      41.660  24.959  28.302  1.00  0.00     0.029 A 
ATOM     45  N   UNL A   1      42.408  26.981  28.777  1.00  0.00    -0.354 N 
ATOM     46  C   UNL A   1      46.274  28.350  26.983  1.00  0.00     0.074 A 
ATOM     47  C   UNL A   1      45.977  28.012  25.617  1.00  0.00     0.031 C 
ATOM     48  C   UNL A   1      40.626  25.647  28.842  1.00  0.00     0.029 A 
ATOM     49  C   UNL A   1      41.062  26.997  29.151  1.00  0.00     0.049 A 
ATOM     50  H   UNL A   1      43.026  27.718  28.985  1.00  0.00     0.167 HD
ATOM     51  C   UNL A   1      46.806  29.478  27.526  1.00  0.00     0.037 A 
ATOM     52  C   UNL A   1      40.351  28.045  29.651  1.00  0.00     0.037 A 
ATOM     53  C   UNL A   1      46.989  29.330  28.945  1.00  0.00     0.049 A 
ATOM     54  C   UNL A   1      41.326  29.024  30.179  1.00  0.00     0.074 A 
ATOM     55  C   UNL A   1      47.757  28.521  29.755  1.00  0.00     0.029 A 
ATOM     56  N   UNL A   1      46.026  29.875  29.752  1.00  0.00    -0.354 N 
ATOM     57  N   UNL A   1      42.084  28.809  31.216  1.00  0.00    -0.248 NA
ATOM     58  C   UNL A   1      41.763  30.079  29.282  1.00  0.00     0.031 C 
ATOM     59  C   UNL A   1      46.943  28.262  30.895  1.00  0.00     0.029 A 
ATOM     60  C   UNL A   1      45.758  28.984  30.753  1.00  0.00     0.049 A 
ATOM     61  H   UNL A   1      45.602  30.756  29.633  1.00  0.00     0.167 HD
ATOM     62  C   UNL A   1      43.302  29.364  30.866  1.00  0.00     0.074 A 
ATOM     63  C   UNL A   1      43.021  30.209  29.707  1.00  0.00     0.031 C 
ATOM     64  C   UNL A   1      44.461  28.855  31.371  1.00  0.00     0.037 A 
BRANCH  51  65
ATOM     65  C   UNL A   1      46.776  30.840  26.872  1.00  0.00     0.064 A 
ATOM     66  C   UNL A   1      47.953  31.617  26.851  1.00  0.00     0.173 A 
ATOM     67  C   UNL A   1      45.585  31.533  26.564  1.00  0.00     0.173 A 
ATOM     68  F   UNL A   1      49.138  31.069  27.157  1.00  0.00    -0.203 F 
ATOM     69  C   UNL A   1      47.925  32.995  26.618  1.00  0.00     0.198 A 
ATOM     70  C   UNL A   1      45.570  32.897  26.280  1.00  0.00     0.198 A 
ATOM     71  F   UNL A   1      44.383  30.953  26.642  1.00  0.00    -0.203 F 
ATOM     72  F   UNL A   1      49.050  33.712  26.739  1.00  0.00    -0.200 F 
ATOM     73  C   UNL A   1      46.733  33.635  26.337  1.00  0.00     0.200 A 
ATOM     74  F   UNL A   1      44.399  33.505  26.037  1.00  0.00    -0.200 F 
ATOM     75  F   UNL A   1      46.694  34.963  26.175  1.00  0.00    -0.200 F 
ENDBRANCH  51  65
BRANCH  52  76
ATOM     76  C   UNL A   1      38.929  28.436  29.434  1.00  0.00     0.064 A 
ATOM     77  C   UNL A   1      38.051  28.639  30.518  1.00  0.00     0.173 A 
ATOM     78  C   UNL A   1      38.498  28.933  28.190  1.00  0.00     0.173 A 
ATOM     79  F   UNL A   1      38.401  28.249  31.753  1.00  0.00    -0.203 F 
ATOM     80  C   UNL A   1      36.835  29.323  30.371  1.00  0.00     0.198 A 
ATOM     81  C   UNL A   1      37.285  29.612  28.044  1.00  0.00     0.198 A 
ATOM     82  F   UNL A   1      39.294  28.861  27.115  1.00  0.00    -0.203 F 
ATOM     83  F   UNL A   1      36.062  29.557  31.440  1.00  0.00    -0.200 F 
ATOM     84  C   UNL A   1      36.460  29.820  29.135  1.00  0.00     0.200 A 
ATOM     85  F   UNL A   1      36.952  30.129  26.852  1.00  0.00    -0.200 F 
ATOM     86  F   UNL A   1      35.334  30.535  29.003  1.00  0.00    -0.200 F 
ENDBRANCH  52  76
BRANCH  64  87
ATOM     87  C   UNL A   1      44.374  27.910  32.536  1.00  0.00     0.064 A 
ATOM     88  C   UNL A   1      44.170  28.306  33.869  1.00  0.00     0.173 A 
ATOM     89  C   UNL A   1      44.305  26.539  32.250  1.00  0.00     0.173 A 
ATOM     90  F   UNL A   1      44.144  29.601  34.210  1.00  0.00    -0.203 F 
ATOM     91  C   UNL A   1      43.917  27.366  34.867  1.00  0.00     0.198 A 
ATOM     92  C   UNL A   1      44.016  25.608  33.240  1.00  0.00     0.198 A 
ATOM     93  F   UNL A   1      44.455  26.111  30.987  1.00  0.00    -0.203 F 
ATOM     94  F   UNL A   1      43.718  27.767  36.133  1.00  0.00    -0.200 F 
ATOM     95  C   UNL A   1      43.824  26.021  34.550  1.00  0.00     0.200 A 
ATOM     96  F   UNL A   1      43.882  24.315  32.917  1.00  0.00    -0.200 F 
ATOM     97  F   UNL A   1      43.523  25.122  35.497  1.00  0.00    -0.200 F 
ENDBRANCH  64  87
ENDBRANCH  38  39
ENDBRANCH  31  33
ENDBRANCH  30  31
ENDBRANCH  29  30
ENDBRANCH  28  29
ENDBRANCH  27  28
ENDBRANCH   1  27
TORSDOF 20
ENDMDL
MODEL 3
REMARK VINA RESULT:     -11.6      1.888      2.812
REMARK SMILES CC[C@@H](C)[C@@H](NC(=O)CCn1ccc2ccc(Br)cc21)C(=O)OCCOCCOC(=O)c1ccc(-c2c3nc(c(-c4c(F)c(F)c(F)c(F)c4F)c4ccc([nH]4)c(-c4c(F)c(F)c(F)c(F)c4F)c4nc(c(-c5c(F)c(F)c(F)c(F)c5F)c5ccc2[nH]5)C=C4)C=C3)cc1
REMARK SMILES IDX 25 1 24 2 23 3 21 4 22 5 5 6 3 7 4 8 2 9 1 10 6 11 7 12 8 14
REMARK SMILES IDX 9 15 10 16 11 17 12 18 20 19 13 20 14 21 19 22 15 23 17 24
REMARK SMILES IDX 16 25 18 26 26 27 27 28 28 29 29 30 30 31 31 32 32 33 33 34
REMARK SMILES IDX 94 35 34 36 93 37 35 38 36 39 37 40 87 41 38 42 92 43 86 44
REMARK SMILES IDX 88 45 39 46 91 47 85 48 84 49 40 51 72 52 52 53 71 54 53 55
REMARK SMILES IDX 56 56 70 57 89 58 54 59 55 60 69 62 90 63 57 64 41 65 42 66
REMARK SMILES IDX 50 67 43 68 44 69 48 70 51 71 45 72 46 73 49 74 47 75 73 76
REMARK SMILES IDX 74 77 82 78 75 79 76 80 80 81 83 82 77 83 78 84 81 85 79 86
REMARK SMILES IDX 58 87 59 88 67 89 60 90 61 91 65 92 68 93 62 94 63 95 66 96
REMARK SMILES IDX 64 97
REMARK H PARENT 6 13 88 50 56 61
REMARK Flexibility Score: inf
ROOT
ATOM      1  C   UNL A   1      39.408  21.872  26.227  1.00  0.00     0.202 C 
ENDROOT
BRANCH   1   2
ATOM      2  C   UNL A   1      38.185  21.417  25.337  1.00  0.00     0.261 C 
BRANCH   2   3
ATOM      3  O   UNL A   1      37.427  22.582  24.805  1.00  0.00    -0.462 OA
BRANCH   3   4
ATOM      4  C   UNL A   1      36.486  22.665  23.795  1.00  0.00     0.328 C 
ATOM      5  O   UNL A   1      36.806  23.105  22.691  1.00  0.00    -0.250 OA
BRANCH   4   6
ATOM      6  C   UNL A   1      34.793  22.219  24.177  1.00  0.00     0.195 C 
BRANCH   6   7
ATOM      7  C   UNL A   1      33.659  21.112  24.825  1.00  0.00     0.019 C 
ATOM      8  C   UNL A   1      33.633  19.575  24.811  1.00  0.00     0.010 C 
BRANCH   7   9
ATOM      9  C   UNL A   1      32.227  21.430  24.224  1.00  0.00     0.002 C 
ATOM     10  C   UNL A   1      31.286  22.313  25.087  1.00  0.00     0.004 C 
ENDBRANCH   7   9
ENDBRANCH   6   7
BRANCH   6  11
ATOM     11  N   UNL A   1      34.702  23.260  25.184  1.00  0.00    -0.342 N 
ATOM     12  C   UNL A   1      34.267  24.509  24.869  1.00  0.00     0.222 C 
ATOM     13  H   UNL A   1      34.959  23.058  26.112  1.00  0.00     0.164 HD
ATOM     14  O   UNL A   1      34.268  25.373  25.745  1.00  0.00    -0.275 OA
BRANCH  12  15
ATOM     15  C   UNL A   1      33.633  24.761  23.486  1.00  0.00     0.122 C 
BRANCH  15  16
ATOM     16  C   UNL A   1      33.048  26.156  22.950  1.00  0.00     0.132 C 
BRANCH  16  17
ATOM     17  N   UNL A   1      32.648  27.556  23.387  1.00  0.00    -0.347 N 
ATOM     18  C   UNL A   1      31.443  27.965  22.788  1.00  0.00     0.087 A 
ATOM     19  C   UNL A   1      32.902  28.549  24.418  1.00  0.00     0.049 A 
ATOM     20  C   UNL A   1      30.891  29.024  23.459  1.00  0.00     0.028 A 
ATOM     21  C   UNL A   1      31.721  29.323  24.557  1.00  0.00    -0.000 A 
ATOM     22  C   UNL A   1      33.957  28.979  25.300  1.00  0.00     0.042 A 
ATOM     23  C   UNL A   1      31.536  30.149  25.701  1.00  0.00     0.011 A 
ATOM     24  C   UNL A   1      33.715  29.653  26.495  1.00  0.00     0.020 A 
ATOM     25  C   UNL A   1      32.486  30.205  26.724  1.00  0.00     0.016 A 
ATOM     26  Br  UNL A   1      35.079  29.739  27.807  1.00  0.00    -0.051 Br
ENDBRANCH  16  17
ENDBRANCH  15  16
ENDBRANCH  12  15
ENDBRANCH   6  11
ENDBRANCH   4   6
ENDBRANCH   3   4
ENDBRANCH   2   3
ENDBRANCH   1   2
BRANCH   1  27
ATOM     27  O   UNL A   1      40.140  20.865  26.954  1.00  0.00    -0.374 OA
BRANCH  27  28
ATOM     28  C   UNL A   1      41.428  21.230  27.478  1.00  0.00     0.202 C 
BRANCH  28  29
ATOM     29  C   UNL A   1      41.569  22.552  28.271  1.00  0.00     0.261 C 
BRANCH  29  30
ATOM     30  O   UNL A   1      42.769  23.221  27.883  1.00  0.00    -0.460 OA
BRANCH  30  31
ATOM     31  C   UNL A   1      42.717  24.070  26.845  1.00  0.00     0.338 C 
ATOM     32  O   UNL A   1      42.660  23.812  25.649  1.00  0.00    -0.246 OA
BRANCH  31  33
ATOM     33  C   UNL A   1      42.263  25.307  27.486  1.00  0.00     0.060 A 
ATOM     34  C   UNL A   1      41.264  26.117  26.934  1.00  0.00     0.016 A 
ATOM     35  C   UNL A   1      43.098  25.776  28.499  1.00  0.00     0.016 A 
ATOM     36  C   UNL A   1      41.171  27.445  27.343  1.00  0.00     0.010 A 
ATOM     37  C   UNL A   1      42.994  27.091  28.915  1.00  0.00     0.010 A 
ATOM     38  C   UNL A   1      42.063  27.939  28.313  1.00  0.00    -0.014 A 
BRANCH  38  39
ATOM     39  C   UNL A   1      41.840  29.272  28.888  1.00  0.00     0.031 A 
ATOM     40  C   UNL A   1      42.842  30.272  28.408  1.00  0.00     0.074 A 
ATOM     41  C   UNL A   1      40.737  29.644  29.579  1.00  0.00     0.049 A 
ATOM     42  N   UNL A   1      43.650  30.990  29.115  1.00  0.00    -0.248 NA
ATOM     43  C   UNL A   1      43.064  30.386  26.954  1.00  0.00     0.031 C 
ATOM     44  C   UNL A   1      39.551  28.839  29.882  1.00  0.00     0.029 A 
ATOM     45  N   UNL A   1      40.391  30.871  30.080  1.00  0.00    -0.354 N 
ATOM     46  C   UNL A   1      44.354  31.782  28.209  1.00  0.00     0.074 A 
ATOM     47  C   UNL A   1      44.066  31.263  26.899  1.00  0.00     0.031 C 
ATOM     48  C   UNL A   1      38.542  29.646  30.289  1.00  0.00     0.029 A 
ATOM     49  C   UNL A   1      39.040  31.004  30.412  1.00  0.00     0.049 A 
ATOM     50  H   UNL A   1      41.040  31.601  30.195  1.00  0.00     0.167 HD
ATOM     51  C   UNL A   1      44.932  32.950  28.598  1.00  0.00     0.037 A 
ATOM     52  C   UNL A   1      38.373  32.146  30.737  1.00  0.00     0.037 A 
ATOM     53  C   UNL A   1      45.079  33.002  30.027  1.00  0.00     0.049 A 
ATOM     54  C   UNL A   1      39.386  33.144  31.144  1.00  0.00     0.074 A 
ATOM     55  C   UNL A   1      45.791  32.284  30.966  1.00  0.00     0.029 A 
ATOM     56  N   UNL A   1      44.131  33.703  30.722  1.00  0.00    -0.354 N 
ATOM     57  N   UNL A   1      40.112  33.047  32.220  1.00  0.00    -0.248 NA
ATOM     58  C   UNL A   1      39.892  34.037  30.116  1.00  0.00     0.031 C 
ATOM     59  C   UNL A   1      44.943  32.232  32.109  1.00  0.00     0.029 A 
ATOM     60  C   UNL A   1      43.798  32.980  31.834  1.00  0.00     0.049 A 
ATOM     61  H   UNL A   1      43.753  34.576  30.467  1.00  0.00     0.167 HD
ATOM     62  C   UNL A   1      41.363  33.488  31.827  1.00  0.00     0.074 A 
ATOM     63  C   UNL A   1      41.147  34.167  30.550  1.00  0.00     0.031 C 
ATOM     64  C   UNL A   1      42.485  33.003  32.430  1.00  0.00     0.037 A 
BRANCH  51  65
ATOM     65  C   UNL A   1      44.983  34.202  27.753  1.00  0.00     0.064 A 
ATOM     66  C   UNL A   1      46.225  34.836  27.541  1.00  0.00     0.173 A 
ATOM     67  C   UNL A   1      43.845  34.971  27.426  1.00  0.00     0.173 A 
ATOM     68  F   UNL A   1      47.372  34.210  27.846  1.00  0.00    -0.203 F 
ATOM     69  C   UNL A   1      46.314  36.163  27.110  1.00  0.00     0.198 A 
ATOM     70  C   UNL A   1      43.941  36.276  26.946  1.00  0.00     0.198 A 
ATOM     71  F   UNL A   1      42.602  34.542  27.668  1.00  0.00    -0.203 F 
ATOM     72  F   UNL A   1      47.510  36.763  27.049  1.00  0.00    -0.200 F 
ATOM     73  C   UNL A   1      45.172  36.883  26.817  1.00  0.00     0.200 A 
ATOM     74  F   UNL A   1      42.820  36.968  26.694  1.00  0.00    -0.200 F 
ATOM     75  F   UNL A   1      45.251  38.172  26.464  1.00  0.00    -0.200 F 
ENDBRANCH  51  65
BRANCH  52  76
ATOM     76  C   UNL A   1      36.977  32.568  30.429  1.00  0.00     0.064 A 
ATOM     77  C   UNL A   1      36.077  32.930  31.453  1.00  0.00     0.173 A 
ATOM     78  C   UNL A   1      36.605  32.938  29.123  1.00  0.00     0.173 A 
ATOM     79  F   UNL A   1      36.373  32.668  32.734  1.00  0.00    -0.203 F 
ATOM     80  C   UNL A   1      34.898  33.641  31.188  1.00  0.00     0.198 A 
ATOM     81  C   UNL A   1      35.429  33.646  28.860  1.00  0.00     0.198 A 
ATOM     82  F   UNL A   1      37.429  32.712  28.090  1.00  0.00    -0.203 F 
ATOM     83  F   UNL A   1      34.105  34.027  32.197  1.00  0.00    -0.200 F 
ATOM     84  C   UNL A   1      34.582  34.010  29.892  1.00  0.00     0.200 A 
ATOM     85  F   UNL A   1      35.155  34.037  27.607  1.00  0.00    -0.200 F 
ATOM     86  F   UNL A   1      33.493  34.751  29.642  1.00  0.00    -0.200 F 
ENDBRANCH  52  76
BRANCH  64  87
ATOM     87  C   UNL A   1      42.328  32.243  33.716  1.00  0.00     0.064 A 
ATOM     88  C   UNL A   1      42.133  30.853  33.800  1.00  0.00     0.173 A 
ATOM     89  C   UNL A   1      42.580  32.935  34.909  1.00  0.00     0.173 A 
ATOM     90  F   UNL A   1      41.963  30.109  32.699  1.00  0.00    -0.203 F 
ATOM     91  C   UNL A   1      42.181  30.194  35.028  1.00  0.00     0.198 A 
ATOM     92  C   UNL A   1      42.665  32.269  36.126  1.00  0.00     0.198 A 
ATOM     93  F   UNL A   1      42.812  34.256  34.879  1.00  0.00    -0.203 F 
ATOM     94  F   UNL A   1      41.999  28.865  35.085  1.00  0.00    -0.200 F 
ATOM     95  C   UNL A   1      42.463  30.899  36.187  1.00  0.00     0.200 A 
ATOM     96  F   UNL A   1      42.984  32.952  37.234  1.00  0.00    -0.200 F 
ATOM     97  F   UNL A   1      42.567  30.259  37.359  1.00  0.00    -0.200 F 
ENDBRANCH  64  87
ENDBRANCH  38  39
ENDBRANCH  31  33
ENDBRANCH  30  31
ENDBRANCH  29  30
ENDBRANCH  28  29
ENDBRANCH  27  28
ENDBRANCH   1  27
TORSDOF 20
ENDMDL
