MODEL 1
REMARK VINA RESULT:     -11.4      0.000      0.000
REMARK SMILES CC[N@H+]([C@@H]1CSCC(C)(C)C1)[C@@H]1COC[C@@H]1C(=O)OCCOCCOC(=O)c1ccc(-c2c3nc(c(-c4c(F)c(F)c(F)c(F)c4F)c4ccc([nH]4)c(-c4c(F)c(F)c(F)c(F)c4F)c4nc(c(-c5c(F)c(F)c(F)c(F)c5F)c5ccc2[nH]5)C=C4)C=C3)cc1
REMARK SMILES IDX 22 1 21 2 20 3 19 4 17 5 18 6 16 7 12 8 13 9 14 10 15 11
REMARK SMILES IDX 3 12 2 14 1 15 4 16 5 17 11 18 6 19 8 20 7 21 9 22 10 23
REMARK SMILES IDX 23 24 24 25 25 26 26 27 27 28 28 29 29 30 90 31 30 32 89 33
REMARK SMILES IDX 31 34 32 35 33 36 83 37 34 38 88 39 82 40 84 41 35 42 87 43
REMARK SMILES IDX 81 44 80 45 36 47 68 48 48 49 67 50 49 51 52 52 66 53 85 54
REMARK SMILES IDX 50 55 51 56 65 58 86 59 53 60 37 61 38 62 46 63 39 64 40 65
REMARK SMILES IDX 44 66 47 67 41 68 42 69 45 70 43 71 69 72 70 73 78 74 71 75
REMARK SMILES IDX 72 76 76 77 79 78 73 79 74 80 77 81 75 82 54 83 55 84 63 85
REMARK SMILES IDX 56 86 57 87 61 88 64 89 58 90 59 91 62 92 60 93
REMARK H PARENT 3 13 84 46 52 57
REMARK Flexibility Score: inf
ROOT
ATOM      1  O   UNL A   1      31.461  30.495  25.173  1.00  0.00    -0.374 OA
ENDROOT
BRANCH   1   2
ATOM      2  C   UNL A   1      31.790  29.182  24.710  1.00  0.00     0.202 C 
BRANCH   2   3
ATOM      3  C   UNL A   1      33.082  28.557  25.282  1.00  0.00     0.261 C 
BRANCH   3   4
ATOM      4  O   UNL A   1      33.024  27.112  25.460  1.00  0.00    -0.463 OA
BRANCH   4   5
ATOM      5  C   UNL A   1      32.001  26.602  26.201  1.00  0.00     0.317 C 
ATOM      6  O   UNL A   1      31.682  27.077  27.285  1.00  0.00    -0.252 OA
BRANCH   5   7
ATOM      7  C   UNL A   1      31.377  25.327  25.589  1.00  0.00     0.185 C 
ATOM      8  C   UNL A   1      31.319  25.107  24.054  1.00  0.00     0.227 C 
ATOM      9  C   UNL A   1      30.301  26.198  23.686  1.00  0.00     0.226 C 
ATOM     10  O   UNL A   1      29.301  26.151  24.721  1.00  0.00    -0.374 OA
ATOM     11  C   UNL A   1      29.864  25.435  25.842  1.00  0.00     0.182 C 
BRANCH   8  12
ATOM     12  N   UNL A   1      32.549  24.952  23.273  1.00  0.00    -0.327 N 
ATOM     13  H   UNL A   1      33.087  24.953  24.140  1.00  0.00     0.348 HD
BRANCH  12  14
ATOM     14  C   UNL A   1      32.911  26.053  22.402  1.00  0.00     0.259 C 
ATOM     15  C   UNL A   1      32.496  25.584  21.059  1.00  0.00     0.071 C 
ENDBRANCH  12  14
BRANCH  12  16
ATOM     16  C   UNL A   1      32.994  23.672  22.687  1.00  0.00     0.194 C 
ATOM     17  C   UNL A   1      32.329  22.344  23.087  1.00  0.00     0.134 C 
ATOM     18  C   UNL A   1      34.548  23.544  22.813  1.00  0.00     0.073 C 
ATOM     19  S   UNL A   1      32.728  21.777  24.763  1.00  0.00    -0.155 SA
ATOM     20  C   UNL A   1      35.132  23.127  24.191  1.00  0.00    -0.021 C 
ATOM     21  C   UNL A   1      34.547  21.771  24.620  1.00  0.00     0.076 C 
ATOM     22  C   UNL A   1      34.935  24.159  25.313  1.00  0.00     0.012 C 
ATOM     23  C   UNL A   1      36.660  22.999  24.016  1.00  0.00     0.012 C 
ENDBRANCH  12  16
ENDBRANCH   8  12
ENDBRANCH   5   7
ENDBRANCH   4   5
ENDBRANCH   3   4
ENDBRANCH   2   3
ENDBRANCH   1   2
BRANCH   1  24
ATOM     24  C   UNL A   1      31.760  30.820  26.525  1.00  0.00     0.202 C 
BRANCH  24  25
ATOM     25  C   UNL A   1      31.496  32.287  26.962  1.00  0.00     0.261 C 
BRANCH  25  26
ATOM     26  O   UNL A   1      32.623  33.194  26.902  1.00  0.00    -0.460 OA
BRANCH  26  27
ATOM     27  C   UNL A   1      33.178  33.589  28.071  1.00  0.00     0.338 C 
ATOM     28  O   UNL A   1      32.614  34.263  28.922  1.00  0.00    -0.246 OA
BRANCH  27  29
ATOM     29  C   UNL A   1      34.543  32.999  28.314  1.00  0.00     0.060 A 
ATOM     30  C   UNL A   1      34.584  31.630  28.600  1.00  0.00     0.016 A 
ATOM     31  C   UNL A   1      35.755  33.709  28.320  1.00  0.00     0.016 A 
ATOM     32  C   UNL A   1      35.778  30.994  28.977  1.00  0.00     0.010 A 
ATOM     33  C   UNL A   1      36.966  33.059  28.672  1.00  0.00     0.010 A 
ATOM     34  C   UNL A   1      36.982  31.705  29.069  1.00  0.00    -0.014 A 
BRANCH  34  35
ATOM     35  C   UNL A   1      38.160  31.064  29.760  1.00  0.00     0.031 A 
ATOM     36  C   UNL A   1      38.424  31.375  31.220  1.00  0.00     0.074 A 
ATOM     37  C   UNL A   1      38.934  30.119  29.181  1.00  0.00     0.049 A 
ATOM     38  N   UNL A   1      39.318  30.867  32.037  1.00  0.00    -0.248 NA
ATOM     39  C   UNL A   1      37.554  32.381  31.845  1.00  0.00     0.031 C 
ATOM     40  C   UNL A   1      38.796  29.627  27.815  1.00  0.00     0.029 A 
ATOM     41  N   UNL A   1      39.994  29.390  29.686  1.00  0.00    -0.354 N 
ATOM     42  C   UNL A   1      39.107  31.479  33.267  1.00  0.00     0.074 A 
ATOM     43  C   UNL A   1      38.040  32.439  33.075  1.00  0.00     0.031 C 
ATOM     44  C   UNL A   1      39.741  28.699  27.581  1.00  0.00     0.029 A 
ATOM     45  C   UNL A   1      40.559  28.521  28.781  1.00  0.00     0.049 A 
ATOM     46  H   UNL A   1      40.317  29.485  30.611  1.00  0.00     0.167 HD
ATOM     47  C   UNL A   1      39.712  31.254  34.460  1.00  0.00     0.037 A 
ATOM     48  C   UNL A   1      41.608  27.675  28.892  1.00  0.00     0.037 A 
ATOM     49  C   UNL A   1      40.763  30.299  34.699  1.00  0.00     0.049 A 
ATOM     50  C   UNL A   1      42.339  27.518  30.205  1.00  0.00     0.074 A 
ATOM     51  C   UNL A   1      41.395  29.999  35.897  1.00  0.00     0.029 A 
ATOM     52  N   UNL A   1      41.346  29.496  33.733  1.00  0.00    -0.354 N 
ATOM     53  N   UNL A   1      42.091  28.069  31.365  1.00  0.00    -0.248 NA
ATOM     54  C   UNL A   1      43.493  26.600  30.222  1.00  0.00     0.031 C 
ATOM     55  C   UNL A   1      42.402  29.063  35.643  1.00  0.00     0.029 A 
ATOM     56  C   UNL A   1      42.356  28.732  34.301  1.00  0.00     0.049 A 
ATOM     57  H   UNL A   1      41.084  29.472  32.786  1.00  0.00     0.167 HD
ATOM     58  C   UNL A   1      43.022  27.537  32.252  1.00  0.00     0.074 A 
ATOM     59  C   UNL A   1      43.839  26.612  31.501  1.00  0.00     0.031 C 
ATOM     60  C   UNL A   1      43.172  27.794  33.574  1.00  0.00     0.037 A 
BRANCH  47  61
ATOM     61  C   UNL A   1      39.255  32.078  35.629  1.00  0.00     0.064 A 
ATOM     62  C   UNL A   1      38.334  31.582  36.565  1.00  0.00     0.173 A 
ATOM     63  C   UNL A   1      39.784  33.360  35.843  1.00  0.00     0.173 A 
ATOM     64  F   UNL A   1      37.794  30.365  36.400  1.00  0.00    -0.203 F 
ATOM     65  C   UNL A   1      37.938  32.352  37.655  1.00  0.00     0.198 A 
ATOM     66  C   UNL A   1      39.410  34.113  36.951  1.00  0.00     0.198 A 
ATOM     67  F   UNL A   1      40.677  33.875  34.985  1.00  0.00    -0.203 F 
ATOM     68  F   UNL A   1      37.020  31.878  38.509  1.00  0.00    -0.200 F 
ATOM     69  C   UNL A   1      38.481  33.613  37.852  1.00  0.00     0.200 A 
ATOM     70  F   UNL A   1      39.949  35.324  37.149  1.00  0.00    -0.200 F 
ATOM     71  F   UNL A   1      38.105  34.350  38.906  1.00  0.00    -0.200 F 
ENDBRANCH  47  61
BRANCH  48  72
ATOM     72  C   UNL A   1      42.060  26.887  27.710  1.00  0.00     0.064 A 
ATOM     73  C   UNL A   1      41.568  25.598  27.459  1.00  0.00     0.173 A 
ATOM     74  C   UNL A   1      43.050  27.383  26.849  1.00  0.00     0.173 A 
ATOM     75  F   UNL A   1      40.649  25.062  28.276  1.00  0.00    -0.203 F 
ATOM     76  C   UNL A   1      42.066  24.826  26.410  1.00  0.00     0.198 A 
ATOM     77  C   UNL A   1      43.527  26.623  25.783  1.00  0.00     0.198 A 
ATOM     78  F   UNL A   1      43.565  28.605  27.052  1.00  0.00    -0.203 F 
ATOM     79  F   UNL A   1      41.624  23.574  26.232  1.00  0.00    -0.200 F 
ATOM     80  C   UNL A   1      43.043  25.341  25.571  1.00  0.00     0.200 A 
ATOM     81  F   UNL A   1      44.467  27.127  24.972  1.00  0.00    -0.200 F 
ATOM     82  F   UNL A   1      43.527  24.598  24.568  1.00  0.00    -0.200 F 
ENDBRANCH  48  72
BRANCH  60  83
ATOM     83  C   UNL A   1      44.235  27.040  34.330  1.00  0.00     0.064 A 
ATOM     84  C   UNL A   1      45.524  27.561  34.517  1.00  0.00     0.173 A 
ATOM     85  C   UNL A   1      43.941  25.801  34.923  1.00  0.00     0.173 A 
ATOM     86  F   UNL A   1      45.865  28.734  33.964  1.00  0.00    -0.203 F 
ATOM     87  C   UNL A   1      46.485  26.861  35.246  1.00  0.00     0.198 A 
ATOM     88  C   UNL A   1      44.894  25.119  35.678  1.00  0.00     0.198 A 
ATOM     89  F   UNL A   1      42.723  25.257  34.787  1.00  0.00    -0.203 F 
ATOM     90  F   UNL A   1      47.723  27.359  35.372  1.00  0.00    -0.200 F 
ATOM     91  C   UNL A   1      46.166  25.646  35.833  1.00  0.00     0.200 A 
ATOM     92  F   UNL A   1      44.577  23.952  36.257  1.00  0.00    -0.200 F 
ATOM     93  F   UNL A   1      47.087  24.979  36.543  1.00  0.00    -0.200 F 
ENDBRANCH  60  83
ENDBRANCH  34  35
ENDBRANCH  27  29
ENDBRANCH  26  27
ENDBRANCH  25  26
ENDBRANCH  24  25
ENDBRANCH   1  24
TORSDOF 17
ENDMDL
MODEL 2
REMARK VINA RESULT:     -10.9      4.522     10.238
REMARK SMILES CC[N@H+]([C@@H]1CSCC(C)(C)C1)[C@@H]1COC[C@@H]1C(=O)OCCOCCOC(=O)c1ccc(-c2c3nc(c(-c4c(F)c(F)c(F)c(F)c4F)c4ccc([nH]4)c(-c4c(F)c(F)c(F)c(F)c4F)c4nc(c(-c5c(F)c(F)c(F)c(F)c5F)c5ccc2[nH]5)C=C4)C=C3)cc1
REMARK SMILES IDX 22 1 21 2 20 3 19 4 17 5 18 6 16 7 12 8 13 9 14 10 15 11
REMARK SMILES IDX 3 12 2 14 1 15 4 16 5 17 11 18 6 19 8 20 7 21 9 22 10 23
REMARK SMILES IDX 23 24 24 25 25 26 26 27 27 28 28 29 29 30 90 31 30 32 89 33
REMARK SMILES IDX 31 34 32 35 33 36 83 37 34 38 88 39 82 40 84 41 35 42 87 43
REMARK SMILES IDX 81 44 80 45 36 47 68 48 48 49 67 50 49 51 52 52 66 53 85 54
REMARK SMILES IDX 50 55 51 56 65 58 86 59 53 60 37 61 38 62 46 63 39 64 40 65
REMARK SMILES IDX 44 66 47 67 41 68 42 69 45 70 43 71 69 72 70 73 78 74 71 75
REMARK SMILES IDX 72 76 76 77 79 78 73 79 74 80 77 81 75 82 54 83 55 84 63 85
REMARK SMILES IDX 56 86 57 87 61 88 64 89 58 90 59 91 62 92 60 93
REMARK H PARENT 3 13 84 46 52 57
REMARK Flexibility Score: inf
ROOT
ATOM      1  O   UNL A   1      37.245  21.422  25.467  1.00  0.00    -0.374 OA
ENDROOT
BRANCH   1   2
ATOM      2  C   UNL A   1      35.915  21.941  25.558  1.00  0.00     0.202 C 
BRANCH   2   3
ATOM      3  C   UNL A   1      35.786  23.474  25.703  1.00  0.00     0.261 C 
BRANCH   3   4
ATOM      4  O   UNL A   1      34.617  24.044  25.047  1.00  0.00    -0.463 OA
BRANCH   4   5
ATOM      5  C   UNL A   1      34.497  23.877  23.700  1.00  0.00     0.317 C 
ATOM      6  O   UNL A   1      35.473  23.793  22.964  1.00  0.00    -0.252 OA
BRANCH   5   7
ATOM      7  C   UNL A   1      33.032  23.913  23.206  1.00  0.00     0.185 C 
ATOM      8  C   UNL A   1      31.853  23.518  24.134  1.00  0.00     0.227 C 
ATOM      9  C   UNL A   1      32.134  22.013  24.266  1.00  0.00     0.226 C 
ATOM     10  O   UNL A   1      32.532  21.583  22.951  1.00  0.00    -0.374 OA
ATOM     11  C   UNL A   1      32.899  22.759  22.198  1.00  0.00     0.182 C 
BRANCH   8  12
ATOM     12  N   UNL A   1      31.534  24.316  25.320  1.00  0.00    -0.327 N 
ATOM     13  H   UNL A   1      32.339  24.910  25.123  1.00  0.00     0.348 HD
BRANCH  12  14
ATOM     14  C   UNL A   1      31.646  23.649  26.603  1.00  0.00     0.259 C 
ATOM     15  C   UNL A   1      30.305  23.050  26.801  1.00  0.00     0.071 C 
ENDBRANCH  12  14
BRANCH  12  16
ATOM     16  C   UNL A   1      30.461  25.330  25.366  1.00  0.00     0.194 C 
ATOM     17  C   UNL A   1      29.940  25.989  24.078  1.00  0.00     0.134 C 
ATOM     18  C   UNL A   1      30.818  26.431  26.417  1.00  0.00     0.073 C 
ATOM     19  S   UNL A   1      31.092  27.164  23.315  1.00  0.00    -0.155 SA
ATOM     20  C   UNL A   1      31.844  27.523  26.004  1.00  0.00    -0.021 C 
ATOM     21  C   UNL A   1      31.349  28.261  24.750  1.00  0.00     0.076 C 
ATOM     22  C   UNL A   1      33.275  27.007  25.775  1.00  0.00     0.012 C 
ATOM     23  C   UNL A   1      31.949  28.515  27.181  1.00  0.00     0.012 C 
ENDBRANCH  12  16
ENDBRANCH   8  12
ENDBRANCH   5   7
ENDBRANCH   4   5
ENDBRANCH   3   4
ENDBRANCH   2   3
ENDBRANCH   1   2
BRANCH   1  24
ATOM     24  C   UNL A   1      37.409  20.077  25.032  1.00  0.00     0.202 C 
BRANCH  24  25
ATOM     25  C   UNL A   1      38.853  19.506  25.069  1.00  0.00     0.261 C 
BRANCH  25  26
ATOM     26  O   UNL A   1      39.602  19.717  26.290  1.00  0.00    -0.460 OA
BRANCH  26  27
ATOM     27  C   UNL A   1      40.862  20.197  26.182  1.00  0.00     0.338 C 
ATOM     28  O   UNL A   1      41.750  19.689  25.511  1.00  0.00    -0.246 OA
BRANCH  27  29
ATOM     29  C   UNL A   1      41.056  21.526  26.864  1.00  0.00     0.060 A 
ATOM     30  C   UNL A   1      40.486  22.637  26.231  1.00  0.00     0.016 A 
ATOM     31  C   UNL A   1      41.787  21.746  28.043  1.00  0.00     0.016 A 
ATOM     32  C   UNL A   1      40.712  23.943  26.694  1.00  0.00     0.010 A 
ATOM     33  C   UNL A   1      41.990  23.064  28.528  1.00  0.00     0.010 A 
ATOM     34  C   UNL A   1      41.508  24.186  27.821  1.00  0.00    -0.014 A 
BRANCH  34  35
ATOM     35  C   UNL A   1      41.968  25.595  28.102  1.00  0.00     0.031 A 
ATOM     36  C   UNL A   1      43.313  26.056  27.576  1.00  0.00     0.074 A 
ATOM     37  C   UNL A   1      41.188  26.523  28.699  1.00  0.00     0.049 A 
ATOM     38  N   UNL A   1      43.865  27.247  27.615  1.00  0.00    -0.248 NA
ATOM     39  C   UNL A   1      44.136  25.043  26.900  1.00  0.00     0.031 C 
ATOM     40  C   UNL A   1      39.839  26.301  29.208  1.00  0.00     0.029 A 
ATOM     41  N   UNL A   1      41.424  27.859  28.968  1.00  0.00    -0.354 N 
ATOM     42  C   UNL A   1      45.086  27.127  26.962  1.00  0.00     0.074 A 
ATOM     43  C   UNL A   1      45.221  25.735  26.587  1.00  0.00     0.031 C 
ATOM     44  C   UNL A   1      39.374  27.444  29.743  1.00  0.00     0.029 A 
ATOM     45  C   UNL A   1      40.389  28.491  29.618  1.00  0.00     0.049 A 
ATOM     46  H   UNL A   1      42.258  28.317  28.717  1.00  0.00     0.167 HD
ATOM     47  C   UNL A   1      46.005  28.079  26.665  1.00  0.00     0.037 A 
ATOM     48  C   UNL A   1      40.258  29.761  30.063  1.00  0.00     0.037 A 
ATOM     49  C   UNL A   1      45.903  29.476  27.002  1.00  0.00     0.049 A 
ATOM     50  C   UNL A   1      41.344  30.782  29.816  1.00  0.00     0.074 A 
ATOM     51  C   UNL A   1      46.788  30.499  26.697  1.00  0.00     0.029 A 
ATOM     52  N   UNL A   1      44.869  30.048  27.722  1.00  0.00    -0.354 N 
ATOM     53  N   UNL A   1      42.466  30.659  29.153  1.00  0.00    -0.248 NA
ATOM     54  C   UNL A   1      41.131  32.133  30.369  1.00  0.00     0.031 C 
ATOM     55  C   UNL A   1      46.322  31.677  27.289  1.00  0.00     0.029 A 
ATOM     56  C   UNL A   1      45.115  31.403  27.906  1.00  0.00     0.049 A 
ATOM     57  H   UNL A   1      44.079  29.567  28.055  1.00  0.00     0.167 HD
ATOM     58  C   UNL A   1      43.066  31.914  29.173  1.00  0.00     0.074 A 
ATOM     59  C   UNL A   1      42.184  32.792  29.907  1.00  0.00     0.031 C 
ATOM     60  C   UNL A   1      44.243  32.297  28.621  1.00  0.00     0.037 A 
BRANCH  47  61
ATOM     61  C   UNL A   1      47.239  27.638  25.930  1.00  0.00     0.064 A 
ATOM     62  C   UNL A   1      48.376  27.175  26.610  1.00  0.00     0.173 A 
ATOM     63  C   UNL A   1      47.264  27.631  24.527  1.00  0.00     0.173 A 
ATOM     64  F   UNL A   1      48.404  27.169  27.951  1.00  0.00    -0.203 F 
ATOM     65  C   UNL A   1      49.502  26.749  25.913  1.00  0.00     0.198 A 
ATOM     66  C   UNL A   1      48.379  27.175  23.833  1.00  0.00     0.198 A 
ATOM     67  F   UNL A   1      46.198  28.053  23.830  1.00  0.00    -0.203 F 
ATOM     68  F   UNL A   1      50.594  26.357  26.582  1.00  0.00    -0.200 F 
ATOM     69  C   UNL A   1      49.501  26.742  24.525  1.00  0.00     0.200 A 
ATOM     70  F   UNL A   1      48.370  27.152  22.493  1.00  0.00    -0.200 F 
ATOM     71  F   UNL A   1      50.583  26.325  23.855  1.00  0.00    -0.200 F 
ENDBRANCH  47  61
BRANCH  48  72
ATOM     72  C   UNL A   1      39.036  30.168  30.813  1.00  0.00     0.064 A 
ATOM     73  C   UNL A   1      37.920  30.704  30.154  1.00  0.00     0.173 A 
ATOM     74  C   UNL A   1      38.991  30.095  32.213  1.00  0.00     0.173 A 
ATOM     75  F   UNL A   1      37.927  30.832  28.819  1.00  0.00    -0.203 F 
ATOM     76  C   UNL A   1      36.817  31.175  30.868  1.00  0.00     0.198 A 
ATOM     77  C   UNL A   1      37.878  30.538  32.923  1.00  0.00     0.198 A 
ATOM     78  F   UNL A   1      40.037  29.603  32.893  1.00  0.00    -0.203 F 
ATOM     79  F   UNL A   1      35.792  31.742  30.218  1.00  0.00    -0.200 F 
ATOM     80  C   UNL A   1      36.797  31.088  32.252  1.00  0.00     0.200 A 
ATOM     81  F   UNL A   1      37.860  30.448  34.260  1.00  0.00    -0.200 F 
ATOM     82  F   UNL A   1      35.742  31.547  32.938  1.00  0.00    -0.200 F 
ENDBRANCH  48  72
BRANCH  60  83
ATOM     83  C   UNL A   1      44.649  33.743  28.741  1.00  0.00     0.064 A 
ATOM     84  C   UNL A   1      45.476  34.198  29.779  1.00  0.00     0.173 A 
ATOM     85  C   UNL A   1      44.248  34.676  27.771  1.00  0.00     0.173 A 
ATOM     86  F   UNL A   1      45.880  33.355  30.740  1.00  0.00    -0.203 F 
ATOM     87  C   UNL A   1      45.866  35.535  29.854  1.00  0.00     0.198 A 
ATOM     88  C   UNL A   1      44.665  36.005  27.832  1.00  0.00     0.198 A 
ATOM     89  F   UNL A   1      43.464  34.298  26.750  1.00  0.00    -0.203 F 
ATOM     90  F   UNL A   1      46.620  35.954  30.880  1.00  0.00    -0.200 F 
ATOM     91  C   UNL A   1      45.468  36.434  28.877  1.00  0.00     0.200 A 
ATOM     92  F   UNL A   1      44.292  36.868  26.877  1.00  0.00    -0.200 F 
ATOM     93  F   UNL A   1      45.853  37.717  28.945  1.00  0.00    -0.200 F 
ENDBRANCH  60  83
ENDBRANCH  34  35
ENDBRANCH  27  29
ENDBRANCH  26  27
ENDBRANCH  25  26
ENDBRANCH  24  25
ENDBRANCH   1  24
TORSDOF 17
ENDMDL
MODEL 3
REMARK VINA RESULT:     -10.7      1.370      2.692
REMARK SMILES CC[N@H+]([C@@H]1CSCC(C)(C)C1)[C@@H]1COC[C@@H]1C(=O)OCCOCCOC(=O)c1ccc(-c2c3nc(c(-c4c(F)c(F)c(F)c(F)c4F)c4ccc([nH]4)c(-c4c(F)c(F)c(F)c(F)c4F)c4nc(c(-c5c(F)c(F)c(F)c(F)c5F)c5ccc2[nH]5)C=C4)C=C3)cc1
REMARK SMILES IDX 22 1 21 2 20 3 19 4 17 5 18 6 16 7 12 8 13 9 14 10 15 11
REMARK SMILES IDX 3 12 2 14 1 15 4 16 5 17 11 18 6 19 8 20 7 21 9 22 10 23
REMARK SMILES IDX 23 24 24 25 25 26 26 27 27 28 28 29 29 30 90 31 30 32 89 33
REMARK SMILES IDX 31 34 32 35 33 36 83 37 34 38 88 39 82 40 84 41 35 42 87 43
REMARK SMILES IDX 81 44 80 45 36 47 68 48 48 49 67 50 49 51 52 52 66 53 85 54
REMARK SMILES IDX 50 55 51 56 65 58 86 59 53 60 37 61 38 62 46 63 39 64 40 65
REMARK SMILES IDX 44 66 47 67 41 68 42 69 45 70 43 71 69 72 70 73 78 74 71 75
REMARK SMILES IDX 72 76 76 77 79 78 73 79 74 80 77 81 75 82 54 83 55 84 63 85
REMARK SMILES IDX 56 86 57 87 61 88 64 89 58 90 59 91 62 92 60 93
REMARK H PARENT 3 13 84 46 52 57
REMARK Flexibility Score: inf
ROOT
ATOM      1  O   UNL A   1      30.754  29.660  24.053  1.00  0.00    -0.374 OA
ENDROOT
BRANCH   1   2
ATOM      2  C   UNL A   1      30.728  28.233  24.161  1.00  0.00     0.202 C 
BRANCH   2   3
ATOM      3  C   UNL A   1      30.268  27.460  22.904  1.00  0.00     0.261 C 
BRANCH   3   4
ATOM      4  O   UNL A   1      31.227  26.475  22.421  1.00  0.00    -0.463 OA
BRANCH   4   5
ATOM      5  C   UNL A   1      31.298  25.281  23.073  1.00  0.00     0.317 C 
ATOM      6  O   UNL A   1      30.302  24.719  23.513  1.00  0.00    -0.252 OA
BRANCH   5   7
ATOM      7  C   UNL A   1      32.746  24.782  23.280  1.00  0.00     0.185 C 
ATOM      8  C   UNL A   1      33.399  24.742  24.687  1.00  0.00     0.227 C 
ATOM      9  C   UNL A   1      33.515  26.252  24.949  1.00  0.00     0.226 C 
ATOM     10  O   UNL A   1      33.927  26.826  23.695  1.00  0.00    -0.374 OA
ATOM     11  C   UNL A   1      33.655  25.856  22.659  1.00  0.00     0.182 C 
BRANCH   8  12
ATOM     12  N   UNL A   1      32.880  23.850  25.727  1.00  0.00    -0.327 N 
ATOM     13  H   UNL A   1      32.562  23.207  25.002  1.00  0.00     0.348 HD
BRANCH  12  14
ATOM     14  C   UNL A   1      31.784  24.356  26.531  1.00  0.00     0.259 C 
ATOM     15  C   UNL A   1      30.745  23.307  26.400  1.00  0.00     0.071 C 
ENDBRANCH  12  14
BRANCH  12  16
ATOM     16  C   UNL A   1      33.725  22.946  26.532  1.00  0.00     0.194 C 
ATOM     17  C   UNL A   1      35.254  22.933  26.363  1.00  0.00     0.134 C 
ATOM     18  C   UNL A   1      33.172  21.486  26.445  1.00  0.00     0.073 C 
ATOM     19  S   UNL A   1      35.835  22.187  24.816  1.00  0.00    -0.155 SA
ATOM     20  C   UNL A   1      33.492  20.664  25.166  1.00  0.00    -0.021 C 
ATOM     21  C   UNL A   1      35.014  20.564  24.974  1.00  0.00     0.076 C 
ATOM     22  C   UNL A   1      32.838  21.193  23.879  1.00  0.00     0.012 C 
ATOM     23  C   UNL A   1      32.904  19.252  25.375  1.00  0.00     0.012 C 
ENDBRANCH  12  16
ENDBRANCH   8  12
ENDBRANCH   5   7
ENDBRANCH   4   5
ENDBRANCH   3   4
ENDBRANCH   2   3
ENDBRANCH   1   2
BRANCH   1  24
ATOM     24  C   UNL A   1      31.095  30.411  25.212  1.00  0.00     0.202 C 
BRANCH  24  25
ATOM     25  C   UNL A   1      32.470  30.100  25.863  1.00  0.00     0.261 C 
BRANCH  25  26
ATOM     26  O   UNL A   1      32.633  30.484  27.250  1.00  0.00    -0.460 OA
BRANCH  26  27
ATOM     27  C   UNL A   1      33.392  31.571  27.518  1.00  0.00     0.338 C 
ATOM     28  O   UNL A   1      32.970  32.716  27.608  1.00  0.00    -0.246 OA
BRANCH  27  29
ATOM     29  C   UNL A   1      34.824  31.234  27.844  1.00  0.00     0.060 A 
ATOM     30  C   UNL A   1      35.111  29.879  28.045  1.00  0.00     0.016 A 
ATOM     31  C   UNL A   1      35.870  32.158  28.001  1.00  0.00     0.016 A 
ATOM     32  C   UNL A   1      36.374  29.454  28.486  1.00  0.00     0.010 A 
ATOM     33  C   UNL A   1      37.155  31.724  28.418  1.00  0.00     0.010 A 
ATOM     34  C   UNL A   1      37.406  30.370  28.728  1.00  0.00    -0.014 A 
BRANCH  34  35
ATOM     35  C   UNL A   1      38.631  29.912  29.480  1.00  0.00     0.031 A 
ATOM     36  C   UNL A   1      38.879  30.428  30.884  1.00  0.00     0.074 A 
ATOM     37  C   UNL A   1      39.471  28.960  29.016  1.00  0.00     0.049 A 
ATOM     38  N   UNL A   1      39.811  30.096  31.747  1.00  0.00    -0.248 NA
ATOM     39  C   UNL A   1      37.938  31.439  31.386  1.00  0.00     0.031 C 
ATOM     40  C   UNL A   1      39.364  28.287  27.726  1.00  0.00     0.029 A 
ATOM     41  N   UNL A   1      40.585  28.382  29.596  1.00  0.00    -0.354 N 
ATOM     42  C   UNL A   1      39.561  30.845  32.890  1.00  0.00     0.074 A 
ATOM     43  C   UNL A   1      38.425  31.691  32.592  1.00  0.00     0.031 C 
ATOM     44  C   UNL A   1      40.374  27.408  27.600  1.00  0.00     0.029 A 
ATOM     45  C   UNL A   1      41.209  27.447  28.801  1.00  0.00     0.049 A 
ATOM     46  H   UNL A   1      40.904  28.618  30.496  1.00  0.00     0.167 HD
ATOM     47  C   UNL A   1      40.186  30.820  34.094  1.00  0.00     0.037 A 
ATOM     48  C   UNL A   1      42.318  26.702  29.005  1.00  0.00     0.037 A 
ATOM     49  C   UNL A   1      41.307  29.984  34.439  1.00  0.00     0.049 A 
ATOM     50  C   UNL A   1      43.065  26.769  30.317  1.00  0.00     0.074 A 
ATOM     51  C   UNL A   1      41.964  29.888  35.656  1.00  0.00     0.029 A 
ATOM     52  N   UNL A   1      41.943  29.108  33.576  1.00  0.00    -0.354 N 
ATOM     53  N   UNL A   1      42.782  27.446  31.401  1.00  0.00    -0.248 NA
ATOM     54  C   UNL A   1      44.285  25.948  30.436  1.00  0.00     0.031 C 
ATOM     55  C   UNL A   1      43.037  29.004  35.511  1.00  0.00     0.029 A 
ATOM     56  C   UNL A   1      43.010  28.499  34.223  1.00  0.00     0.049 A 
ATOM     57  H   UNL A   1      41.679  28.943  32.643  1.00  0.00     0.167 HD
ATOM     58  C   UNL A   1      43.754  27.103  32.336  1.00  0.00     0.074 A 
ATOM     59  C   UNL A   1      44.634  26.151  31.698  1.00  0.00     0.031 C 
ATOM     60  C   UNL A   1      43.891  27.539  33.611  1.00  0.00     0.037 A 
BRANCH  47  61
ATOM     61  C   UNL A   1      39.674  31.753  35.154  1.00  0.00     0.064 A 
ATOM     62  C   UNL A   1      40.128  33.077  35.254  1.00  0.00     0.173 A 
ATOM     63  C   UNL A   1      38.677  31.330  36.048  1.00  0.00     0.173 A 
ATOM     64  F   UNL A   1      41.084  33.526  34.427  1.00  0.00    -0.203 F 
ATOM     65  C   UNL A   1      39.625  33.934  36.229  1.00  0.00     0.198 A 
ATOM     66  C   UNL A   1      38.154  32.199  37.000  1.00  0.00     0.198 A 
ATOM     67  F   UNL A   1      38.201  30.078  35.986  1.00  0.00    -0.203 F 
ATOM     68  F   UNL A   1      40.108  35.178  36.338  1.00  0.00    -0.200 F 
ATOM     69  C   UNL A   1      38.634  33.497  37.095  1.00  0.00     0.200 A 
ATOM     70  F   UNL A   1      37.185  31.781  37.825  1.00  0.00    -0.200 F 
ATOM     71  F   UNL A   1      38.146  34.326  38.029  1.00  0.00    -0.200 F 
ENDBRANCH  47  61
BRANCH  48  72
ATOM     72  C   UNL A   1      42.823  25.803  27.928  1.00  0.00     0.064 A 
ATOM     73  C   UNL A   1      43.699  26.270  26.938  1.00  0.00     0.173 A 
ATOM     74  C   UNL A   1      42.377  24.477  27.829  1.00  0.00     0.173 A 
ATOM     75  F   UNL A   1      44.124  27.542  26.964  1.00  0.00    -0.203 F 
ATOM     76  C   UNL A   1      44.090  25.454  25.876  1.00  0.00     0.198 A 
ATOM     77  C   UNL A   1      42.792  23.652  26.785  1.00  0.00     0.198 A 
ATOM     78  F   UNL A   1      41.528  23.984  28.742  1.00  0.00    -0.203 F 
ATOM     79  F   UNL A   1      44.876  25.944  24.909  1.00  0.00    -0.200 F 
ATOM     80  C   UNL A   1      43.638  24.144  25.803  1.00  0.00     0.200 A 
ATOM     81  F   UNL A   1      42.356  22.387  26.721  1.00  0.00    -0.200 F 
ATOM     82  F   UNL A   1      44.007  23.362  24.781  1.00  0.00    -0.200 F 
ENDBRANCH  48  72
BRANCH  60  83
ATOM     83  C   UNL A   1      45.010  26.969  34.443  1.00  0.00     0.064 A 
ATOM     84  C   UNL A   1      46.264  27.592  34.528  1.00  0.00     0.173 A 
ATOM     85  C   UNL A   1      44.806  25.809  35.209  1.00  0.00     0.173 A 
ATOM     86  F   UNL A   1      46.519  28.695  33.809  1.00  0.00    -0.203 F 
ATOM     87  C   UNL A   1      47.277  27.064  35.328  1.00  0.00     0.198 A 
ATOM     88  C   UNL A   1      45.811  25.302  36.032  1.00  0.00     0.198 A 
ATOM     89  F   UNL A   1      43.625  25.174  35.175  1.00  0.00    -0.203 F 
ATOM     90  F   UNL A   1      48.480  27.654  35.357  1.00  0.00    -0.200 F 
ATOM     91  C   UNL A   1      47.047  25.926  36.085  1.00  0.00     0.200 A 
ATOM     92  F   UNL A   1      45.580  24.210  36.775  1.00  0.00    -0.200 F 
ATOM     93  F   UNL A   1      48.019  25.427  36.862  1.00  0.00    -0.200 F 
ENDBRANCH  60  83
ENDBRANCH  34  35
ENDBRANCH  27  29
ENDBRANCH  26  27
ENDBRANCH  25  26
ENDBRANCH  24  25
ENDBRANCH   1  24
TORSDOF 17
ENDMDL
