MODEL 1
REMARK VINA RESULT:     -11.6      0.000      0.000
REMARK SMILES CCCc1cc(OC(F)(F)F)cc2c1O[C@@H](C(F)(F)F)C(C(=O)OCCOCCOC(=O)c1ccc(-c3c4nc(c(-c5c(F)c(F)c(F)c(F)c5F)c5ccc([nH]5)c(-c5c(F)c(F)c(F)c(F)c5F)c5nc(c(-c6c(F)c(F)c(F)c(F)c6F)c6ccc3[nH]6)C=C5)C=C4)cc1)=C2
REMARK SMILES IDX 27 1 26 2 25 3 24 4 22 5 23 6 21 7 4 8 5 9 14 10 6 11 13 12
REMARK SMILES IDX 15 13 12 14 96 15 16 16 3 17 2 18 1 19 7 20 8 21 9 22 10 23
REMARK SMILES IDX 11 24 17 25 18 26 19 27 20 28 28 29 29 30 30 31 31 32 32 33
REMARK SMILES IDX 33 34 34 35 95 36 35 37 94 38 36 39 37 40 38 41 88 42 39 43
REMARK SMILES IDX 93 44 87 45 89 46 40 47 92 48 86 49 85 50 41 52 73 53 53 54
REMARK SMILES IDX 72 55 54 56 57 57 71 58 90 59 55 60 56 61 70 63 91 64 58 65
REMARK SMILES IDX 42 66 43 67 51 68 44 69 45 70 49 71 52 72 46 73 47 74 50 75
REMARK SMILES IDX 48 76 74 77 75 78 83 79 76 80 77 81 81 82 84 83 78 84 79 85
REMARK SMILES IDX 82 86 80 87 59 88 60 89 68 90 61 91 62 92 66 93 69 94 63 95
REMARK SMILES IDX 64 96 67 97 65 98
REMARK H PARENT 89 51 57 62
REMARK Flexibility Score: inf
ROOT
ATOM      1  O   UNL A   1      33.155  31.091  27.121  1.00  0.00    -0.374 OA
ENDROOT
BRANCH   1   2
ATOM      2  C   UNL A   1      33.124  29.736  26.689  1.00  0.00     0.202 C 
BRANCH   2   3
ATOM      3  C   UNL A   1      31.912  29.253  25.887  1.00  0.00     0.261 C 
BRANCH   3   4
ATOM      4  O   UNL A   1      32.165  28.008  25.223  1.00  0.00    -0.460 OA
BRANCH   4   5
ATOM      5  C   UNL A   1      31.934  26.911  25.983  1.00  0.00     0.338 C 
ATOM      6  O   UNL A   1      31.254  26.864  26.996  1.00  0.00    -0.246 OA
BRANCH   5   7
ATOM      7  C   UNL A   1      32.532  25.713  25.373  1.00  0.00     0.087 C 
ATOM      8  C   UNL A   1      33.383  21.721  24.510  1.00  0.00    -0.002 A 
ATOM      9  C   UNL A   1      34.592  21.189  24.982  1.00  0.00     0.054 A 
ATOM     10  C   UNL A   1      33.139  23.085  24.729  1.00  0.00     0.131 A 
ATOM     11  C   UNL A   1      35.575  21.992  25.566  1.00  0.00     0.130 A 
ATOM     12  C   UNL A   1      34.084  23.893  25.390  1.00  0.00     0.021 A 
ATOM     13  O   UNL A   1      31.902  23.571  24.382  1.00  0.00    -0.475 OA
ATOM     14  C   UNL A   1      35.314  23.350  25.765  1.00  0.00     0.058 A 
ATOM     15  C   UNL A   1      33.688  25.225  25.849  1.00  0.00     0.027 C 
ATOM     16  C   UNL A   1      31.817  25.011  24.242  1.00  0.00     0.316 C 
BRANCH   8  17
ATOM     17  C   UNL A   1      32.334  20.811  23.900  1.00  0.00     0.039 C 
BRANCH  17  18
ATOM     18  C   UNL A   1      32.528  19.301  24.106  1.00  0.00     0.001 C 
ATOM     19  C   UNL A   1      32.477  18.461  22.836  1.00  0.00     0.004 C 
ENDBRANCH  17  18
ENDBRANCH   8  17
BRANCH  11  20
ATOM     20  O   UNL A   1      36.790  21.566  26.025  1.00  0.00    -0.406 OA
BRANCH  20  21
ATOM     21  C   UNL A   1      37.797  21.294  25.062  1.00  0.00     0.573 C 
ATOM     22  F   UNL A   1      38.964  21.880  25.403  1.00  0.00    -0.132 F 
ATOM     23  F   UNL A   1      37.985  19.964  24.913  1.00  0.00    -0.132 F 
ATOM     24  F   UNL A   1      37.405  21.798  23.871  1.00  0.00    -0.132 F 
ENDBRANCH  20  21
ENDBRANCH  11  20
BRANCH  16  25
ATOM     25  C   UNL A   1      30.359  25.388  23.934  1.00  0.00     0.430 C 
ATOM     26  F   UNL A   1      30.288  26.552  23.247  1.00  0.00    -0.167 F 
ATOM     27  F   UNL A   1      29.798  24.448  23.127  1.00  0.00    -0.167 F 
ATOM     28  F   UNL A   1      29.583  25.473  25.033  1.00  0.00    -0.167 F 
ENDBRANCH  16  25
ENDBRANCH   5   7
ENDBRANCH   4   5
ENDBRANCH   3   4
ENDBRANCH   2   3
ENDBRANCH   1   2
BRANCH   1  29
ATOM     29  C   UNL A   1      32.014  31.914  26.892  1.00  0.00     0.202 C 
BRANCH  29  30
ATOM     30  C   UNL A   1      32.134  33.429  27.105  1.00  0.00     0.261 C 
BRANCH  30  31
ATOM     31  O   UNL A   1      32.539  33.793  28.435  1.00  0.00    -0.460 OA
BRANCH  31  32
ATOM     32  C   UNL A   1      33.683  34.518  28.489  1.00  0.00     0.338 C 
ATOM     33  O   UNL A   1      33.797  35.733  28.439  1.00  0.00    -0.246 OA
BRANCH  32  34
ATOM     34  C   UNL A   1      34.821  33.641  28.809  1.00  0.00     0.060 A 
ATOM     35  C   UNL A   1      34.558  32.483  29.553  1.00  0.00     0.016 A 
ATOM     36  C   UNL A   1      36.129  33.991  28.473  1.00  0.00     0.016 A 
ATOM     37  C   UNL A   1      35.609  31.691  30.003  1.00  0.00     0.010 A 
ATOM     38  C   UNL A   1      37.185  33.199  28.935  1.00  0.00     0.010 A 
ATOM     39  C   UNL A   1      36.931  32.066  29.731  1.00  0.00    -0.014 A 
BRANCH  39  40
ATOM     40  C   UNL A   1      38.040  31.345  30.400  1.00  0.00     0.031 A 
ATOM     41  C   UNL A   1      38.354  31.657  31.837  1.00  0.00     0.074 A 
ATOM     42  C   UNL A   1      38.727  30.393  29.748  1.00  0.00     0.049 A 
ATOM     43  N   UNL A   1      39.282  31.158  32.613  1.00  0.00    -0.248 NA
ATOM     44  C   UNL A   1      37.507  32.670  32.487  1.00  0.00     0.031 C 
ATOM     45  C   UNL A   1      38.488  29.977  28.367  1.00  0.00     0.029 A 
ATOM     46  N   UNL A   1      39.769  29.603  30.163  1.00  0.00    -0.354 N 
ATOM     47  C   UNL A   1      39.137  31.799  33.837  1.00  0.00     0.074 A 
ATOM     48  C   UNL A   1      38.056  32.750  33.690  1.00  0.00     0.031 C 
ATOM     49  C   UNL A   1      39.363  29.009  28.046  1.00  0.00     0.029 A 
ATOM     50  C   UNL A   1      40.244  28.764  29.187  1.00  0.00     0.049 A 
ATOM     51  H   UNL A   1      40.141  29.635  31.074  1.00  0.00     0.167 HD
ATOM     52  C   UNL A   1      39.835  31.602  34.981  1.00  0.00     0.037 A 
ATOM     53  C   UNL A   1      41.286  27.909  29.207  1.00  0.00     0.037 A 
ATOM     54  C   UNL A   1      40.907  30.653  35.121  1.00  0.00     0.049 A 
ATOM     55  C   UNL A   1      42.092  27.763  30.472  1.00  0.00     0.074 A 
ATOM     56  C   UNL A   1      41.661  30.361  36.244  1.00  0.00     0.029 A 
ATOM     57  N   UNL A   1      41.387  29.847  34.098  1.00  0.00    -0.354 N 
ATOM     58  N   UNL A   1      41.928  28.347  31.633  1.00  0.00    -0.248 NA
ATOM     59  C   UNL A   1      43.227  26.830  30.427  1.00  0.00     0.031 C 
ATOM     60  C   UNL A   1      42.638  29.426  35.885  1.00  0.00     0.029 A 
ATOM     61  C   UNL A   1      42.449  29.083  34.556  1.00  0.00     0.049 A 
ATOM     62  H   UNL A   1      41.027  29.821  33.183  1.00  0.00     0.167 HD
ATOM     63  C   UNL A   1      42.917  27.834  32.464  1.00  0.00     0.074 A 
ATOM     64  C   UNL A   1      43.664  26.876  31.677  1.00  0.00     0.031 C 
ATOM     65  C   UNL A   1      43.184  28.130  33.761  1.00  0.00     0.037 A 
BRANCH  52  66
ATOM     66  C   UNL A   1      39.478  32.453  36.168  1.00  0.00     0.064 A 
ATOM     67  C   UNL A   1      40.131  33.666  36.435  1.00  0.00     0.173 A 
ATOM     68  C   UNL A   1      38.444  32.062  37.033  1.00  0.00     0.173 A 
ATOM     69  F   UNL A   1      41.135  34.079  35.647  1.00  0.00    -0.203 F 
ATOM     70  C   UNL A   1      39.780  34.441  37.537  1.00  0.00     0.198 A 
ATOM     71  C   UNL A   1      38.074  32.856  38.115  1.00  0.00     0.198 A 
ATOM     72  F   UNL A   1      37.784  30.913  36.824  1.00  0.00    -0.203 F 
ATOM     73  F   UNL A   1      40.452  35.572  37.800  1.00  0.00    -0.200 F 
ATOM     74  C   UNL A   1      38.747  34.040  38.371  1.00  0.00     0.200 A 
ATOM     75  F   UNL A   1      37.066  32.474  38.911  1.00  0.00    -0.200 F 
ATOM     76  F   UNL A   1      38.406  34.792  39.426  1.00  0.00    -0.200 F 
ENDBRANCH  52  66
BRANCH  53  77
ATOM     77  C   UNL A   1      41.635  27.134  27.988  1.00  0.00     0.064 A 
ATOM     78  C   UNL A   1      41.107  25.854  27.765  1.00  0.00     0.173 A 
ATOM     79  C   UNL A   1      42.523  27.647  27.030  1.00  0.00     0.173 A 
ATOM     80  F   UNL A   1      40.274  25.309  28.662  1.00  0.00    -0.203 F 
ATOM     81  C   UNL A   1      41.471  25.110  26.644  1.00  0.00     0.198 A 
ATOM     82  C   UNL A   1      42.860  26.916  25.893  1.00  0.00     0.198 A 
ATOM     83  F   UNL A   1      43.058  28.866  27.194  1.00  0.00    -0.203 F 
ATOM     84  F   UNL A   1      40.992  23.869  26.484  1.00  0.00    -0.200 F 
ATOM     85  C   UNL A   1      42.342  25.644  25.706  1.00  0.00     0.200 A 
ATOM     86  F   UNL A   1      43.690  27.442  24.983  1.00  0.00    -0.200 F 
ATOM     87  F   UNL A   1      42.689  24.928  24.627  1.00  0.00    -0.200 F 
ENDBRANCH  53  77
BRANCH  65  88
ATOM     88  C   UNL A   1      44.310  27.385  34.421  1.00  0.00     0.064 A 
ATOM     89  C   UNL A   1      45.612  27.904  34.471  1.00  0.00     0.173 A 
ATOM     90  C   UNL A   1      44.076  26.147  35.040  1.00  0.00     0.173 A 
ATOM     91  F   UNL A   1      45.894  29.077  33.884  1.00  0.00    -0.203 F 
ATOM     92  C   UNL A   1      46.644  27.197  35.085  1.00  0.00     0.198 A 
ATOM     93  C   UNL A   1      45.100  25.459  35.685  1.00  0.00     0.198 A 
ATOM     94  F   UNL A   1      42.847  25.607  35.031  1.00  0.00    -0.203 F 
ATOM     95  F   UNL A   1      47.891  27.686  35.067  1.00  0.00    -0.200 F 
ATOM     96  C   UNL A   1      46.386  25.980  35.697  1.00  0.00     0.200 A 
ATOM     97  F   UNL A   1      44.845  24.293  36.292  1.00  0.00    -0.200 F 
ATOM     98  F   UNL A   1      47.377  25.304  36.293  1.00  0.00    -0.200 F 
ENDBRANCH  65  88
ENDBRANCH  39  40
ENDBRANCH  32  34
ENDBRANCH  31  32
ENDBRANCH  30  31
ENDBRANCH  29  30
ENDBRANCH   1  29
TORSDOF 19
ENDMDL
MODEL 2
REMARK VINA RESULT:     -11.3      4.309     10.395
REMARK SMILES CCCc1cc(OC(F)(F)F)cc2c1O[C@@H](C(F)(F)F)C(C(=O)OCCOCCOC(=O)c1ccc(-c3c4nc(c(-c5c(F)c(F)c(F)c(F)c5F)c5ccc([nH]5)c(-c5c(F)c(F)c(F)c(F)c5F)c5nc(c(-c6c(F)c(F)c(F)c(F)c6F)c6ccc3[nH]6)C=C5)C=C4)cc1)=C2
REMARK SMILES IDX 27 1 26 2 25 3 24 4 22 5 23 6 21 7 4 8 5 9 14 10 6 11 13 12
REMARK SMILES IDX 15 13 12 14 96 15 16 16 3 17 2 18 1 19 7 20 8 21 9 22 10 23
REMARK SMILES IDX 11 24 17 25 18 26 19 27 20 28 28 29 29 30 30 31 31 32 32 33
REMARK SMILES IDX 33 34 34 35 95 36 35 37 94 38 36 39 37 40 38 41 88 42 39 43
REMARK SMILES IDX 93 44 87 45 89 46 40 47 92 48 86 49 85 50 41 52 73 53 53 54
REMARK SMILES IDX 72 55 54 56 57 57 71 58 90 59 55 60 56 61 70 63 91 64 58 65
REMARK SMILES IDX 42 66 43 67 51 68 44 69 45 70 49 71 52 72 46 73 47 74 50 75
REMARK SMILES IDX 48 76 74 77 75 78 83 79 76 80 77 81 81 82 84 83 78 84 79 85
REMARK SMILES IDX 82 86 80 87 59 88 60 89 68 90 61 91 62 92 66 93 69 94 63 95
REMARK SMILES IDX 64 96 67 97 65 98
REMARK H PARENT 89 51 57 62
REMARK Flexibility Score: inf
ROOT
ATOM      1  O   UNL A   1      36.815  20.716  25.023  1.00  0.00    -0.374 OA
ENDROOT
BRANCH   1   2
ATOM      2  C   UNL A   1      37.405  21.933  24.582  1.00  0.00     0.202 C 
BRANCH   2   3
ATOM      3  C   UNL A   1      36.539  23.195  24.553  1.00  0.00     0.261 C 
BRANCH   3   4
ATOM      4  O   UNL A   1      35.182  22.909  24.186  1.00  0.00    -0.460 OA
BRANCH   4   5
ATOM      5  C   UNL A   1      34.301  22.965  25.213  1.00  0.00     0.338 C 
ATOM      6  O   UNL A   1      34.204  22.163  26.128  1.00  0.00    -0.246 OA
BRANCH   5   7
ATOM      7  C   UNL A   1      33.507  24.203  25.156  1.00  0.00     0.087 C 
ATOM      8  C   UNL A   1      31.882  27.800  23.806  1.00  0.00    -0.002 A 
ATOM      9  C   UNL A   1      32.347  28.991  24.385  1.00  0.00     0.054 A 
ATOM     10  C   UNL A   1      32.369  26.590  24.321  1.00  0.00     0.131 A 
ATOM     11  C   UNL A   1      33.189  28.991  25.500  1.00  0.00     0.130 A 
ATOM     12  C   UNL A   1      33.282  26.573  25.392  1.00  0.00     0.021 A 
ATOM     13  O   UNL A   1      32.013  25.435  23.668  1.00  0.00    -0.475 OA
ATOM     14  C   UNL A   1      33.653  27.773  26.003  1.00  0.00     0.058 A 
ATOM     15  C   UNL A   1      33.980  25.327  25.717  1.00  0.00     0.027 C 
ATOM     16  C   UNL A   1      32.184  24.214  24.428  1.00  0.00     0.316 C 
BRANCH   8  17
ATOM     17  C   UNL A   1      30.985  27.845  22.585  1.00  0.00     0.039 C 
BRANCH  17  18
ATOM     18  C   UNL A   1      29.760  28.768  22.663  1.00  0.00     0.001 C 
ATOM     19  C   UNL A   1      28.473  28.101  23.131  1.00  0.00     0.004 C 
ENDBRANCH  17  18
ENDBRANCH   8  17
BRANCH  11  20
ATOM     20  O   UNL A   1      33.664  30.098  26.145  1.00  0.00    -0.406 OA
BRANCH  20  21
ATOM     21  C   UNL A   1      32.860  30.653  27.176  1.00  0.00     0.573 C 
ATOM     22  F   UNL A   1      32.225  31.764  26.749  1.00  0.00    -0.132 F 
ATOM     23  F   UNL A   1      31.953  29.758  27.624  1.00  0.00    -0.132 F 
ATOM     24  F   UNL A   1      33.658  30.995  28.212  1.00  0.00    -0.132 F 
ENDBRANCH  20  21
ENDBRANCH  11  20
BRANCH  16  25
ATOM     25  C   UNL A   1      31.819  23.021  23.528  1.00  0.00     0.430 C 
ATOM     26  F   UNL A   1      31.691  21.883  24.250  1.00  0.00    -0.167 F 
ATOM     27  F   UNL A   1      30.606  23.231  22.949  1.00  0.00    -0.167 F 
ATOM     28  F   UNL A   1      32.699  22.815  22.528  1.00  0.00    -0.167 F 
ENDBRANCH  16  25
ENDBRANCH   5   7
ENDBRANCH   4   5
ENDBRANCH   3   4
ENDBRANCH   2   3
ENDBRANCH   1   2
BRANCH   1  29
ATOM     29  C   UNL A   1      37.602  19.527  25.019  1.00  0.00     0.202 C 
BRANCH  29  30
ATOM     30  C   UNL A   1      39.101  19.625  25.332  1.00  0.00     0.261 C 
BRANCH  30  31
ATOM     31  O   UNL A   1      39.383  20.198  26.619  1.00  0.00    -0.460 OA
BRANCH  31  32
ATOM     32  C   UNL A   1      40.700  20.421  26.852  1.00  0.00     0.338 C 
ATOM     33  O   UNL A   1      41.636  19.676  26.608  1.00  0.00    -0.246 OA
BRANCH  32  34
ATOM     34  C   UNL A   1      40.905  21.811  27.292  1.00  0.00     0.060 A 
ATOM     35  C   UNL A   1      40.330  22.828  26.519  1.00  0.00     0.016 A 
ATOM     36  C   UNL A   1      41.722  22.118  28.381  1.00  0.00     0.016 A 
ATOM     37  C   UNL A   1      40.605  24.161  26.807  1.00  0.00     0.010 A 
ATOM     38  C   UNL A   1      42.005  23.458  28.663  1.00  0.00     0.010 A 
ATOM     39  C   UNL A   1      41.476  24.483  27.856  1.00  0.00    -0.014 A 
BRANCH  39  40
ATOM     40  C   UNL A   1      41.936  25.884  28.009  1.00  0.00     0.031 A 
ATOM     41  C   UNL A   1      43.271  26.282  27.443  1.00  0.00     0.074 A 
ATOM     42  C   UNL A   1      41.153  26.797  28.607  1.00  0.00     0.049 A 
ATOM     43  N   UNL A   1      43.873  27.444  27.472  1.00  0.00    -0.248 NA
ATOM     44  C   UNL A   1      44.030  25.229  26.752  1.00  0.00     0.031 C 
ATOM     45  C   UNL A   1      39.825  26.537  29.159  1.00  0.00     0.029 A 
ATOM     46  N   UNL A   1      41.364  28.131  28.849  1.00  0.00    -0.354 N 
ATOM     47  C   UNL A   1      45.081  27.260  26.811  1.00  0.00     0.074 A 
ATOM     48  C   UNL A   1      45.144  25.867  26.426  1.00  0.00     0.031 C 
ATOM     49  C   UNL A   1      39.340  27.676  29.681  1.00  0.00     0.029 A 
ATOM     50  C   UNL A   1      40.338  28.734  29.531  1.00  0.00     0.049 A 
ATOM     51  H   UNL A   1      42.176  28.609  28.562  1.00  0.00     0.167 HD
ATOM     52  C   UNL A   1      46.043  28.175  26.542  1.00  0.00     0.037 A 
ATOM     53  C   UNL A   1      40.225  29.994  29.997  1.00  0.00     0.037 A 
ATOM     54  C   UNL A   1      45.973  29.560  26.926  1.00  0.00     0.049 A 
ATOM     55  C   UNL A   1      41.344  30.972  29.746  1.00  0.00     0.074 A 
ATOM     56  C   UNL A   1      46.884  30.572  26.679  1.00  0.00     0.029 A 
ATOM     57  N   UNL A   1      44.934  30.127  27.650  1.00  0.00    -0.354 N 
ATOM     58  N   UNL A   1      42.467  30.800  29.093  1.00  0.00    -0.248 NA
ATOM     59  C   UNL A   1      41.173  32.325  30.294  1.00  0.00     0.031 C 
ATOM     60  C   UNL A   1      46.428  31.735  27.308  1.00  0.00     0.029 A 
ATOM     61  C   UNL A   1      45.199  31.467  27.888  1.00  0.00     0.049 A 
ATOM     62  H   UNL A   1      44.127  29.649  27.950  1.00  0.00     0.167 HD
ATOM     63  C   UNL A   1      43.123  32.025  29.126  1.00  0.00     0.074 A 
ATOM     64  C   UNL A   1      42.261  32.937  29.848  1.00  0.00     0.031 C 
ATOM     65  C   UNL A   1      44.329  32.365  28.608  1.00  0.00     0.037 A 
BRANCH  52  66
ATOM     66  C   UNL A   1      47.272  27.699  25.818  1.00  0.00     0.064 A 
ATOM     67  C   UNL A   1      47.368  27.732  24.419  1.00  0.00     0.173 A 
ATOM     68  C   UNL A   1      48.382  27.234  26.540  1.00  0.00     0.173 A 
ATOM     69  F   UNL A   1      46.331  28.155  23.681  1.00  0.00    -0.203 F 
ATOM     70  C   UNL A   1      48.519  27.293  23.769  1.00  0.00     0.198 A 
ATOM     71  C   UNL A   1      49.543  26.827  25.888  1.00  0.00     0.198 A 
ATOM     72  F   UNL A   1      48.346  27.183  27.880  1.00  0.00    -0.203 F 
ATOM     73  F   UNL A   1      48.569  27.287  22.429  1.00  0.00    -0.200 F 
ATOM     74  C   UNL A   1      49.608  26.848  24.504  1.00  0.00     0.200 A 
ATOM     75  F   UNL A   1      50.599  26.411  26.601  1.00  0.00    -0.200 F 
ATOM     76  F   UNL A   1      50.717  26.433  23.877  1.00  0.00    -0.200 F 
ENDBRANCH  52  66
BRANCH  53  77
ATOM     77  C   UNL A   1      39.016  30.400  30.758  1.00  0.00     0.064 A 
ATOM     78  C   UNL A   1      37.893  30.931  30.108  1.00  0.00     0.173 A 
ATOM     79  C   UNL A   1      38.964  30.287  32.156  1.00  0.00     0.173 A 
ATOM     80  F   UNL A   1      37.901  31.083  28.776  1.00  0.00    -0.203 F 
ATOM     81  C   UNL A   1      36.777  31.354  30.827  1.00  0.00     0.198 A 
ATOM     82  C   UNL A   1      37.836  30.679  32.871  1.00  0.00     0.198 A 
ATOM     83  F   UNL A   1      40.012  29.786  32.828  1.00  0.00    -0.203 F 
ATOM     84  F   UNL A   1      35.739  31.907  30.185  1.00  0.00    -0.200 F 
ATOM     85  C   UNL A   1      36.747  31.221  32.207  1.00  0.00     0.200 A 
ATOM     86  F   UNL A   1      37.806  30.535  34.203  1.00  0.00    -0.200 F 
ATOM     87  F   UNL A   1      35.672  31.626  32.898  1.00  0.00    -0.200 F 
ENDBRANCH  53  77
BRANCH  65  88
ATOM     88  C   UNL A   1      44.774  33.791  28.772  1.00  0.00     0.064 A 
ATOM     89  C   UNL A   1      45.569  34.198  29.855  1.00  0.00     0.173 A 
ATOM     90  C   UNL A   1      44.427  34.759  27.816  1.00  0.00     0.173 A 
ATOM     91  F   UNL A   1      45.919  33.317  30.804  1.00  0.00    -0.203 F 
ATOM     92  C   UNL A   1      45.969  35.525  29.992  1.00  0.00     0.198 A 
ATOM     93  C   UNL A   1      44.858  36.077  27.936  1.00  0.00     0.198 A 
ATOM     94  F   UNL A   1      43.676  34.423  26.756  1.00  0.00    -0.203 F 
ATOM     95  F   UNL A   1      46.677  35.902  31.065  1.00  0.00    -0.200 F 
ATOM     96  C   UNL A   1      45.620  36.461  29.029  1.00  0.00     0.200 A 
ATOM     97  F   UNL A   1      44.535  36.975  26.996  1.00  0.00    -0.200 F 
ATOM     98  F   UNL A   1      46.011  37.736  29.159  1.00  0.00    -0.200 F 
ENDBRANCH  65  88
ENDBRANCH  39  40
ENDBRANCH  32  34
ENDBRANCH  31  32
ENDBRANCH  30  31
ENDBRANCH  29  30
ENDBRANCH   1  29
TORSDOF 19
ENDMDL
MODEL 3
REMARK VINA RESULT:     -11.2      1.267      7.203
REMARK SMILES CCCc1cc(OC(F)(F)F)cc2c1O[C@@H](C(F)(F)F)C(C(=O)OCCOCCOC(=O)c1ccc(-c3c4nc(c(-c5c(F)c(F)c(F)c(F)c5F)c5ccc([nH]5)c(-c5c(F)c(F)c(F)c(F)c5F)c5nc(c(-c6c(F)c(F)c(F)c(F)c6F)c6ccc3[nH]6)C=C5)C=C4)cc1)=C2
REMARK SMILES IDX 27 1 26 2 25 3 24 4 22 5 23 6 21 7 4 8 5 9 14 10 6 11 13 12
REMARK SMILES IDX 15 13 12 14 96 15 16 16 3 17 2 18 1 19 7 20 8 21 9 22 10 23
REMARK SMILES IDX 11 24 17 25 18 26 19 27 20 28 28 29 29 30 30 31 31 32 32 33
REMARK SMILES IDX 33 34 34 35 95 36 35 37 94 38 36 39 37 40 38 41 88 42 39 43
REMARK SMILES IDX 93 44 87 45 89 46 40 47 92 48 86 49 85 50 41 52 73 53 53 54
REMARK SMILES IDX 72 55 54 56 57 57 71 58 90 59 55 60 56 61 70 63 91 64 58 65
REMARK SMILES IDX 42 66 43 67 51 68 44 69 45 70 49 71 52 72 46 73 47 74 50 75
REMARK SMILES IDX 48 76 74 77 75 78 83 79 76 80 77 81 81 82 84 83 78 84 79 85
REMARK SMILES IDX 82 86 80 87 59 88 60 89 68 90 61 91 62 92 66 93 69 94 63 95
REMARK SMILES IDX 64 96 67 97 65 98
REMARK H PARENT 89 51 57 62
REMARK Flexibility Score: inf
ROOT
ATOM      1  O   UNL A   1      33.198  30.344  26.996  1.00  0.00    -0.374 OA
ENDROOT
BRANCH   1   2
ATOM      2  C   UNL A   1      32.119  30.459  26.076  1.00  0.00     0.202 C 
BRANCH   2   3
ATOM      3  C   UNL A   1      31.417  29.180  25.613  1.00  0.00     0.261 C 
BRANCH   3   4
ATOM      4  O   UNL A   1      32.339  28.101  25.410  1.00  0.00    -0.460 OA
BRANCH   4   5
ATOM      5  C   UNL A   1      32.058  26.983  26.121  1.00  0.00     0.338 C 
ATOM      6  O   UNL A   1      31.346  26.915  27.110  1.00  0.00    -0.246 OA
BRANCH   5   7
ATOM      7  C   UNL A   1      32.647  25.794  25.484  1.00  0.00     0.087 C 
ATOM      8  C   UNL A   1      33.474  21.815  24.542  1.00  0.00    -0.002 A 
ATOM      9  C   UNL A   1      34.684  21.268  24.996  1.00  0.00     0.054 A 
ATOM     10  C   UNL A   1      33.238  23.176  24.788  1.00  0.00     0.131 A 
ATOM     11  C   UNL A   1      35.674  22.057  25.588  1.00  0.00     0.130 A 
ATOM     12  C   UNL A   1      34.190  23.967  25.457  1.00  0.00     0.021 A 
ATOM     13  O   UNL A   1      32.000  23.674  24.458  1.00  0.00    -0.475 OA
ATOM     14  C   UNL A   1      35.421  23.412  25.813  1.00  0.00     0.058 A 
ATOM     15  C   UNL A   1      33.804  25.292  25.943  1.00  0.00     0.027 C 
ATOM     16  C   UNL A   1      31.921  25.116  24.346  1.00  0.00     0.316 C 
BRANCH   8  17
ATOM     17  C   UNL A   1      32.417  20.921  23.922  1.00  0.00     0.039 C 
BRANCH  17  18
ATOM     18  C   UNL A   1      32.597  19.407  24.113  1.00  0.00     0.001 C 
ATOM     19  C   UNL A   1      32.229  18.553  22.906  1.00  0.00     0.004 C 
ENDBRANCH  17  18
ENDBRANCH   8  17
BRANCH  11  20
ATOM     20  O   UNL A   1      36.890  21.617  26.030  1.00  0.00    -0.406 OA
BRANCH  20  21
ATOM     21  C   UNL A   1      37.856  21.261  25.051  1.00  0.00     0.573 C 
ATOM     22  F   UNL A   1      39.109  21.447  25.517  1.00  0.00    -0.132 F 
ATOM     23  F   UNL A   1      37.706  19.977  24.660  1.00  0.00    -0.132 F 
ATOM     24  F   UNL A   1      37.687  22.052  23.968  1.00  0.00    -0.132 F 
ENDBRANCH  20  21
ENDBRANCH  11  20
BRANCH  16  25
ATOM     25  C   UNL A   1      30.462  25.504  24.055  1.00  0.00     0.430 C 
ATOM     26  F   UNL A   1      30.389  26.710  23.442  1.00  0.00    -0.167 F 
ATOM     27  F   UNL A   1      29.910  24.615  23.187  1.00  0.00    -0.167 F 
ATOM     28  F   UNL A   1      29.681  25.517  25.153  1.00  0.00    -0.167 F 
ENDBRANCH  16  25
ENDBRANCH   5   7
ENDBRANCH   4   5
ENDBRANCH   3   4
ENDBRANCH   2   3
ENDBRANCH   1   2
BRANCH   1  29
ATOM     29  C   UNL A   1      33.616  31.502  27.716  1.00  0.00     0.202 C 
BRANCH  29  30
ATOM     30  C   UNL A   1      33.020  32.866  27.344  1.00  0.00     0.261 C 
BRANCH  30  31
ATOM     31  O   UNL A   1      32.451  33.569  28.460  1.00  0.00    -0.460 OA
BRANCH  31  32
ATOM     32  C   UNL A   1      33.135  34.682  28.823  1.00  0.00     0.338 C 
ATOM     33  O   UNL A   1      32.814  35.845  28.640  1.00  0.00    -0.246 OA
BRANCH  32  34
ATOM     34  C   UNL A   1      34.285  34.313  29.665  1.00  0.00     0.060 A 
ATOM     35  C   UNL A   1      35.566  34.487  29.125  1.00  0.00     0.016 A 
ATOM     36  C   UNL A   1      34.113  33.721  30.917  1.00  0.00     0.016 A 
ATOM     37  C   UNL A   1      36.681  34.029  29.818  1.00  0.00     0.010 A 
ATOM     38  C   UNL A   1      35.234  33.252  31.607  1.00  0.00     0.010 A 
ATOM     39  C   UNL A   1      36.519  33.372  31.045  1.00  0.00    -0.014 A 
BRANCH  39  40
ATOM     40  C   UNL A   1      37.684  32.693  31.662  1.00  0.00     0.031 A 
ATOM     41  C   UNL A   1      38.304  31.519  30.957  1.00  0.00     0.074 A 
ATOM     42  C   UNL A   1      38.208  33.148  32.813  1.00  0.00     0.049 A 
ATOM     43  N   UNL A   1      39.317  30.773  31.318  1.00  0.00    -0.248 NA
ATOM     44  C   UNL A   1      37.701  31.133  29.673  1.00  0.00     0.031 C 
ATOM     45  C   UNL A   1      37.716  34.300  33.566  1.00  0.00     0.029 A 
ATOM     46  N   UNL A   1      39.272  32.692  33.550  1.00  0.00    -0.354 N 
ATOM     47  C   UNL A   1      39.468  29.827  30.311  1.00  0.00     0.074 A 
ATOM     48  C   UNL A   1      38.419  30.070  29.344  1.00  0.00     0.031 C 
ATOM     49  C   UNL A   1      38.475  34.459  34.663  1.00  0.00     0.029 A 
ATOM     50  C   UNL A   1      39.482  33.399  34.706  1.00  0.00     0.049 A 
ATOM     51  H   UNL A   1      39.830  31.929  33.275  1.00  0.00     0.167 HD
ATOM     52  C   UNL A   1      40.403  28.854  30.201  1.00  0.00     0.037 A 
ATOM     53  C   UNL A   1      40.374  33.201  35.696  1.00  0.00     0.037 A 
ATOM     54  C   UNL A   1      41.445  28.620  31.167  1.00  0.00     0.049 A 
ATOM     55  C   UNL A   1      41.358  32.064  35.582  1.00  0.00     0.074 A 
ATOM     56  C   UNL A   1      42.456  27.675  31.134  1.00  0.00     0.029 A 
ATOM     57  N   UNL A   1      41.603  29.333  32.347  1.00  0.00    -0.354 N 
ATOM     58  N   UNL A   1      41.515  31.196  34.613  1.00  0.00    -0.248 NA
ATOM     59  C   UNL A   1      42.293  31.886  36.701  1.00  0.00     0.031 C 
ATOM     60  C   UNL A   1      43.186  27.774  32.323  1.00  0.00     0.029 A 
ATOM     61  C   UNL A   1      42.674  28.826  33.066  1.00  0.00     0.049 A 
ATOM     62  H   UNL A   1      41.039  30.088  32.630  1.00  0.00     0.167 HD
ATOM     63  C   UNL A   1      42.581  30.389  34.990  1.00  0.00     0.074 A 
ATOM     64  C   UNL A   1      43.045  30.885  36.269  1.00  0.00     0.031 C 
ATOM     65  C   UNL A   1      43.127  29.332  34.338  1.00  0.00     0.037 A 
BRANCH  52  66
ATOM     66  C   UNL A   1      40.325  27.947  29.005  1.00  0.00     0.064 A 
ATOM     67  C   UNL A   1      41.017  28.226  27.817  1.00  0.00     0.173 A 
ATOM     68  C   UNL A   1      39.574  26.763  29.062  1.00  0.00     0.173 A 
ATOM     69  F   UNL A   1      41.739  29.351  27.704  1.00  0.00    -0.203 F 
ATOM     70  C   UNL A   1      40.936  27.369  26.722  1.00  0.00     0.198 A 
ATOM     71  C   UNL A   1      39.523  25.892  27.978  1.00  0.00     0.198 A 
ATOM     72  F   UNL A   1      38.895  26.445  30.175  1.00  0.00    -0.203 F 
ATOM     73  F   UNL A   1      41.565  27.682  25.580  1.00  0.00    -0.200 F 
ATOM     74  C   UNL A   1      40.196  26.199  26.806  1.00  0.00     0.200 A 
ATOM     75  F   UNL A   1      38.819  24.755  28.067  1.00  0.00    -0.200 F 
ATOM     76  F   UNL A   1      40.127  25.372  25.754  1.00  0.00    -0.200 F 
ENDBRANCH  52  66
BRANCH  53  77
ATOM     77  C   UNL A   1      40.373  34.089  36.888  1.00  0.00     0.064 A 
ATOM     78  C   UNL A   1      41.222  35.203  36.964  1.00  0.00     0.173 A 
ATOM     79  C   UNL A   1      39.538  33.831  37.985  1.00  0.00     0.173 A 
ATOM     80  F   UNL A   1      42.056  35.478  35.952  1.00  0.00    -0.203 F 
ATOM     81  C   UNL A   1      41.252  36.008  38.101  1.00  0.00     0.198 A 
ATOM     82  C   UNL A   1      39.544  34.656  39.107  1.00  0.00     0.198 A 
ATOM     83  F   UNL A   1      38.706  32.779  37.964  1.00  0.00    -0.203 F 
ATOM     84  F   UNL A   1      42.111  37.034  38.169  1.00  0.00    -0.200 F 
ATOM     85  C   UNL A   1      40.409  35.738  39.169  1.00  0.00     0.200 A 
ATOM     86  F   UNL A   1      38.718  34.400  40.130  1.00  0.00    -0.200 F 
ATOM     87  F   UNL A   1      40.436  36.516  40.260  1.00  0.00    -0.200 F 
ENDBRANCH  53  77
BRANCH  65  88
ATOM     88  C   UNL A   1      44.309  28.661  34.980  1.00  0.00     0.064 A 
ATOM     89  C   UNL A   1      44.159  27.565  35.844  1.00  0.00     0.173 A 
ATOM     90  C   UNL A   1      45.613  29.100  34.702  1.00  0.00     0.173 A 
ATOM     91  F   UNL A   1      42.935  27.112  36.154  1.00  0.00    -0.203 F 
ATOM     92  C   UNL A   1      45.267  26.958  36.431  1.00  0.00     0.198 A 
ATOM     93  C   UNL A   1      46.720  28.469  35.261  1.00  0.00     0.198 A 
ATOM     94  F   UNL A   1      45.815  30.138  33.875  1.00  0.00    -0.203 F 
ATOM     95  F   UNL A   1      45.095  25.952  37.299  1.00  0.00    -0.200 F 
ATOM     96  C   UNL A   1      46.546  27.405  36.134  1.00  0.00     0.200 A 
ATOM     97  F   UNL A   1      47.955  28.891  34.958  1.00  0.00    -0.200 F 
ATOM     98  F   UNL A   1      47.611  26.816  36.695  1.00  0.00    -0.200 F 
ENDBRANCH  65  88
ENDBRANCH  39  40
ENDBRANCH  32  34
ENDBRANCH  31  32
ENDBRANCH  30  31
ENDBRANCH  29  30
ENDBRANCH   1  29
TORSDOF 19
ENDMDL
