MODEL 1
REMARK VINA RESULT:     -11.4      0.000      0.000
REMARK SMILES CCc1n[nH]c(C(=O)N[C@@]2(C(=O)OCCOCCOC(=O)c3ccc(-c4c5nc(c(-c6c(F)c(F)c(F)c(F)c6F)c6ccc([nH]6)c(-c6c(F)c(F)c(F)c(F)c6F)c6nc(c(-c7c(F)c(F)c(F)c(F)c7F)c7ccc4[nH]7)C=C6)C=C5)cc3)CCCC[C@H]2C)n1
REMARK SMILES IDX 15 1 14 2 13 3 11 4 12 5 10 6 85 7 89 8 86 9 88 10 90 11
REMARK SMILES IDX 87 12 9 13 7 14 8 15 6 17 3 18 4 19 91 20 5 21 2 23 1 24
REMARK SMILES IDX 16 25 17 26 18 27 19 28 20 29 21 30 22 31 23 32 84 33 24 34
REMARK SMILES IDX 83 35 25 36 26 37 27 38 77 39 28 40 82 41 76 42 78 43 29 44
REMARK SMILES IDX 81 45 75 46 74 47 30 49 62 50 42 51 61 52 43 53 46 54 60 55
REMARK SMILES IDX 79 56 44 57 45 58 59 60 80 61 47 62 31 63 32 64 40 65 33 66
REMARK SMILES IDX 34 67 38 68 41 69 35 70 36 71 39 72 37 73 63 74 64 75 72 76
REMARK SMILES IDX 65 77 66 78 70 79 73 80 67 81 68 82 71 83 69 84 48 85 49 86
REMARK SMILES IDX 57 87 50 88 51 89 55 90 58 91 52 92 53 93 56 94 54 95
REMARK H PARENT 9 16 5 22 78 48 46 59
REMARK Flexibility Score: inf
ROOT
ATOM      1  C   UNL A   1      37.797  22.323  25.424  1.00  0.00     0.202 C 
ENDROOT
BRANCH   1   2
ATOM      2  C   UNL A   1      37.051  23.600  25.010  1.00  0.00     0.261 C 
BRANCH   2   3
ATOM      3  O   UNL A   1      35.624  23.561  25.226  1.00  0.00    -0.461 OA
BRANCH   3   4
ATOM      4  C   UNL A   1      34.881  23.597  24.085  1.00  0.00     0.332 C 
ATOM      5  O   UNL A   1      35.337  23.326  22.975  1.00  0.00    -0.249 OA
BRANCH   4   6
ATOM      6  C   UNL A   1      33.369  23.917  24.330  1.00  0.00     0.141 C 
ATOM      7  C   UNL A   1      32.408  23.097  23.433  1.00  0.00     0.041 C 
ATOM      8  C   UNL A   1      33.160  25.448  24.001  1.00  0.00     0.023 C 
ATOM      9  C   UNL A   1      30.952  23.534  23.577  1.00  0.00     0.003 C 
ATOM     10  C   UNL A   1      31.681  25.891  23.944  1.00  0.00     0.006 C 
ATOM     11  C   UNL A   1      33.883  26.418  24.952  1.00  0.00     0.011 C 
ATOM     12  C   UNL A   1      30.790  24.971  23.127  1.00  0.00     0.000 C 
BRANCH   6  13
ATOM     13  N   UNL A   1      33.115  23.647  25.772  1.00  0.00    -0.333 N 
ATOM     14  C   UNL A   1      32.959  22.432  26.428  1.00  0.00     0.289 C 
ATOM     15  O   UNL A   1      32.880  22.468  27.657  1.00  0.00    -0.266 OA
ATOM     16  H   UNL A   1      33.047  24.444  26.345  1.00  0.00     0.165 HD
BRANCH  14  17
ATOM     17  C   UNL A   1      32.973  21.176  25.702  1.00  0.00     0.214 A 
ATOM     18  C   UNL A   1      33.506  19.339  24.785  1.00  0.00     0.151 A 
ATOM     19  N   UNL A   1      32.170  19.282  24.795  1.00  0.00    -0.158 NA
ATOM     20  N   UNL A   1      34.026  20.485  25.313  1.00  0.00    -0.207 NA
ATOM     21  N   UNL A   1      31.855  20.460  25.376  1.00  0.00    -0.255 N 
ATOM     22  H   UNL A   1      30.935  20.765  25.543  1.00  0.00     0.192 HD
BRANCH  18  23
ATOM     23  C   UNL A   1      34.391  18.233  24.339  1.00  0.00     0.076 C 
ATOM     24  C   UNL A   1      33.686  17.206  23.475  1.00  0.00     0.012 C 
ENDBRANCH  18  23
ENDBRANCH  14  17
ENDBRANCH   6  13
ENDBRANCH   4   6
ENDBRANCH   3   4
ENDBRANCH   2   3
ENDBRANCH   1   2
BRANCH   1  25
ATOM     25  O   UNL A   1      37.776  21.224  24.510  1.00  0.00    -0.374 OA
BRANCH  25  26
ATOM     26  C   UNL A   1      37.665  19.928  25.094  1.00  0.00     0.202 C 
BRANCH  26  27
ATOM     27  C   UNL A   1      38.979  19.203  25.376  1.00  0.00     0.261 C 
BRANCH  27  28
ATOM     28  O   UNL A   1      39.817  20.016  26.209  1.00  0.00    -0.460 OA
BRANCH  28  29
ATOM     29  C   UNL A   1      41.128  19.694  26.126  1.00  0.00     0.338 C 
ATOM     30  O   UNL A   1      41.607  18.631  25.771  1.00  0.00    -0.246 OA
BRANCH  29  31
ATOM     31  C   UNL A   1      41.958  20.885  26.381  1.00  0.00     0.060 A 
ATOM     32  C   UNL A   1      42.265  21.148  27.719  1.00  0.00     0.016 A 
ATOM     33  C   UNL A   1      42.377  21.752  25.367  1.00  0.00     0.016 A 
ATOM     34  C   UNL A   1      42.894  22.336  28.062  1.00  0.00     0.010 A 
ATOM     35  C   UNL A   1      43.014  22.948  25.712  1.00  0.00     0.010 A 
ATOM     36  C   UNL A   1      43.217  23.267  27.066  1.00  0.00    -0.014 A 
BRANCH  36  37
ATOM     37  C   UNL A   1      43.568  24.639  27.496  1.00  0.00     0.031 A 
ATOM     38  C   UNL A   1      44.966  25.133  27.239  1.00  0.00     0.074 A 
ATOM     39  C   UNL A   1      42.618  25.462  27.970  1.00  0.00     0.049 A 
ATOM     40  N   UNL A   1      45.465  26.333  27.397  1.00  0.00    -0.248 NA
ATOM     41  C   UNL A   1      45.930  24.146  26.723  1.00  0.00     0.031 C 
ATOM     42  C   UNL A   1      41.227  25.091  28.217  1.00  0.00     0.029 A 
ATOM     43  N   UNL A   1      42.678  26.792  28.301  1.00  0.00    -0.354 N 
ATOM     44  C   UNL A   1      46.787  26.248  26.978  1.00  0.00     0.074 A 
ATOM     45  C   UNL A   1      47.033  24.872  26.610  1.00  0.00     0.031 C 
ATOM     46  C   UNL A   1      40.556  26.173  28.649  1.00  0.00     0.029 A 
ATOM     47  C   UNL A   1      41.476  27.306  28.720  1.00  0.00     0.049 A 
ATOM     48  H   UNL A   1      43.503  27.326  28.244  1.00  0.00     0.167 HD
ATOM     49  C   UNL A   1      47.706  27.237  26.884  1.00  0.00     0.037 A 
ATOM     50  C   UNL A   1      41.162  28.556  29.110  1.00  0.00     0.037 A 
ATOM     51  C   UNL A   1      47.458  28.602  27.263  1.00  0.00     0.049 A 
ATOM     52  C   UNL A   1      42.226  29.622  29.054  1.00  0.00     0.074 A 
ATOM     53  C   UNL A   1      48.327  29.678  27.247  1.00  0.00     0.029 A 
ATOM     54  N   UNL A   1      46.240  29.077  27.727  1.00  0.00    -0.354 N 
ATOM     55  N   UNL A   1      43.468  29.535  28.645  1.00  0.00    -0.248 NA
ATOM     56  C   UNL A   1      41.836  30.966  29.501  1.00  0.00     0.031 C 
ATOM     57  C   UNL A   1      47.643  30.798  27.733  1.00  0.00     0.029 A 
ATOM     58  C   UNL A   1      46.336  30.429  28.009  1.00  0.00     0.049 A 
ATOM     59  H   UNL A   1      45.426  28.533  27.840  1.00  0.00     0.167 HD
ATOM     60  C   UNL A   1      43.999  30.812  28.758  1.00  0.00     0.074 A 
ATOM     61  C   UNL A   1      42.934  31.662  29.250  1.00  0.00     0.031 C 
ATOM     62  C   UNL A   1      45.254  31.249  28.490  1.00  0.00     0.037 A 
BRANCH  49  63
ATOM     63  C   UNL A   1      49.063  26.877  26.356  1.00  0.00     0.064 A 
ATOM     64  C   UNL A   1      50.067  26.378  27.199  1.00  0.00     0.173 A 
ATOM     65  C   UNL A   1      49.353  26.993  24.988  1.00  0.00     0.173 A 
ATOM     66  F   UNL A   1      49.847  26.267  28.517  1.00  0.00    -0.203 F 
ATOM     67  C   UNL A   1      51.315  26.019  26.695  1.00  0.00     0.198 A 
ATOM     68  C   UNL A   1      50.593  26.610  24.483  1.00  0.00     0.198 A 
ATOM     69  F   UNL A   1      48.429  27.466  24.139  1.00  0.00    -0.203 F 
ATOM     70  F   UNL A   1      52.271  25.577  27.524  1.00  0.00    -0.200 F 
ATOM     71  C   UNL A   1      51.574  26.128  25.336  1.00  0.00     0.200 A 
ATOM     72  F   UNL A   1      50.838  26.707  23.169  1.00  0.00    -0.200 F 
ATOM     73  F   UNL A   1      52.771  25.771  24.850  1.00  0.00    -0.200 F 
ENDBRANCH  49  63
BRANCH  50  74
ATOM     74  C   UNL A   1      39.788  28.874  29.580  1.00  0.00     0.064 A 
ATOM     75  C   UNL A   1      39.409  28.675  30.916  1.00  0.00     0.173 A 
ATOM     76  C   UNL A   1      38.809  29.343  28.690  1.00  0.00     0.173 A 
ATOM     77  F   UNL A   1      40.301  28.210  31.802  1.00  0.00    -0.203 F 
ATOM     78  C   UNL A   1      38.099  28.898  31.335  1.00  0.00     0.198 A 
ATOM     79  C   UNL A   1      37.507  29.596  29.117  1.00  0.00     0.198 A 
ATOM     80  F   UNL A   1      39.118  29.552  27.402  1.00  0.00    -0.203 F 
ATOM     81  F   UNL A   1      37.750  28.639  32.602  1.00  0.00    -0.200 F 
ATOM     82  C   UNL A   1      37.150  29.362  30.435  1.00  0.00     0.200 A 
ATOM     83  F   UNL A   1      36.598  30.057  28.247  1.00  0.00    -0.200 F 
ATOM     84  F   UNL A   1      35.889  29.571  30.837  1.00  0.00    -0.200 F 
ENDBRANCH  50  74
BRANCH  62  85
ATOM     85  C   UNL A   1      45.523  32.711  28.694  1.00  0.00     0.064 A 
ATOM     86  C   UNL A   1      45.312  33.646  27.669  1.00  0.00     0.173 A 
ATOM     87  C   UNL A   1      45.990  33.183  29.929  1.00  0.00     0.173 A 
ATOM     88  F   UNL A   1      44.879  33.242  26.465  1.00  0.00    -0.203 F 
ATOM     89  C   UNL A   1      45.598  34.994  27.862  1.00  0.00     0.198 A 
ATOM     90  C   UNL A   1      46.244  34.536  30.129  1.00  0.00     0.198 A 
ATOM     91  F   UNL A   1      46.198  32.330  30.944  1.00  0.00    -0.203 F 
ATOM     92  F   UNL A   1      45.451  35.860  26.850  1.00  0.00    -0.200 F 
ATOM     93  C   UNL A   1      46.060  35.438  29.093  1.00  0.00     0.200 A 
ATOM     94  F   UNL A   1      46.678  34.966  31.322  1.00  0.00    -0.200 F 
ATOM     95  F   UNL A   1      46.340  36.737  29.274  1.00  0.00    -0.200 F 
ENDBRANCH  62  85
ENDBRANCH  36  37
ENDBRANCH  29  31
ENDBRANCH  28  29
ENDBRANCH  27  28
ENDBRANCH  26  27
ENDBRANCH  25  26
ENDBRANCH   1  25
TORSDOF 17
ENDMDL
MODEL 2
REMARK VINA RESULT:     -11.3      5.532      9.524
REMARK SMILES CCc1n[nH]c(C(=O)N[C@@]2(C(=O)OCCOCCOC(=O)c3ccc(-c4c5nc(c(-c6c(F)c(F)c(F)c(F)c6F)c6ccc([nH]6)c(-c6c(F)c(F)c(F)c(F)c6F)c6nc(c(-c7c(F)c(F)c(F)c(F)c7F)c7ccc4[nH]7)C=C6)C=C5)cc3)CCCC[C@H]2C)n1
REMARK SMILES IDX 15 1 14 2 13 3 11 4 12 5 10 6 85 7 89 8 86 9 88 10 90 11
REMARK SMILES IDX 87 12 9 13 7 14 8 15 6 17 3 18 4 19 91 20 5 21 2 23 1 24
REMARK SMILES IDX 16 25 17 26 18 27 19 28 20 29 21 30 22 31 23 32 84 33 24 34
REMARK SMILES IDX 83 35 25 36 26 37 27 38 77 39 28 40 82 41 76 42 78 43 29 44
REMARK SMILES IDX 81 45 75 46 74 47 30 49 62 50 42 51 61 52 43 53 46 54 60 55
REMARK SMILES IDX 79 56 44 57 45 58 59 60 80 61 47 62 31 63 32 64 40 65 33 66
REMARK SMILES IDX 34 67 38 68 41 69 35 70 36 71 39 72 37 73 63 74 64 75 72 76
REMARK SMILES IDX 65 77 66 78 70 79 73 80 67 81 68 82 71 83 69 84 48 85 49 86
REMARK SMILES IDX 57 87 50 88 51 89 55 90 58 91 52 92 53 93 56 94 54 95
REMARK H PARENT 9 16 5 22 78 48 46 59
REMARK Flexibility Score: inf
ROOT
ATOM      1  C   UNL A   1      33.088  30.462  27.047  1.00  0.00     0.202 C 
ENDROOT
BRANCH   1   2
ATOM      2  C   UNL A   1      33.304  28.947  27.171  1.00  0.00     0.261 C 
BRANCH   2   3
ATOM      3  O   UNL A   1      33.052  28.201  25.962  1.00  0.00    -0.461 OA
BRANCH   3   4
ATOM      4  C   UNL A   1      32.036  27.299  26.059  1.00  0.00     0.332 C 
ATOM      5  O   UNL A   1      31.197  27.323  26.959  1.00  0.00    -0.249 OA
BRANCH   4   6
ATOM      6  C   UNL A   1      31.974  26.291  24.863  1.00  0.00     0.141 C 
ATOM      7  C   UNL A   1      30.541  26.062  24.317  1.00  0.00     0.041 C 
ATOM      8  C   UNL A   1      32.524  24.908  25.392  1.00  0.00     0.023 C 
ATOM      9  C   UNL A   1      30.484  24.964  23.258  1.00  0.00     0.003 C 
ATOM     10  C   UNL A   1      32.307  23.724  24.425  1.00  0.00     0.006 C 
ATOM     11  C   UNL A   1      34.014  24.910  25.775  1.00  0.00     0.011 C 
ATOM     12  C   UNL A   1      30.901  23.637  23.858  1.00  0.00     0.000 C 
BRANCH   6  13
ATOM     13  N   UNL A   1      32.865  26.845  23.806  1.00  0.00    -0.333 N 
ATOM     14  C   UNL A   1      32.680  27.950  22.985  1.00  0.00     0.289 C 
ATOM     15  O   UNL A   1      33.627  28.278  22.268  1.00  0.00    -0.266 OA
ATOM     16  H   UNL A   1      33.709  26.357  23.668  1.00  0.00     0.165 HD
BRANCH  14  17
ATOM     17  C   UNL A   1      31.455  28.727  23.032  1.00  0.00     0.214 A 
ATOM     18  C   UNL A   1      29.499  29.496  22.751  1.00  0.00     0.151 A 
ATOM     19  N   UNL A   1      29.899  30.121  23.862  1.00  0.00    -0.158 NA
ATOM     20  N   UNL A   1      30.427  28.654  22.210  1.00  0.00    -0.207 NA
ATOM     21  N   UNL A   1      31.145  29.622  24.017  1.00  0.00    -0.255 N 
ATOM     22  H   UNL A   1      31.754  29.872  24.748  1.00  0.00     0.192 HD
BRANCH  18  23
ATOM     23  C   UNL A   1      28.135  29.601  22.174  1.00  0.00     0.076 C 
ATOM     24  C   UNL A   1      28.019  30.650  21.084  1.00  0.00     0.012 C 
ENDBRANCH  18  23
ENDBRANCH  14  17
ENDBRANCH   6  13
ENDBRANCH   4   6
ENDBRANCH   3   4
ENDBRANCH   2   3
ENDBRANCH   1   2
BRANCH   1  25
ATOM     25  O   UNL A   1      31.757  30.918  26.797  1.00  0.00    -0.374 OA
BRANCH  25  26
ATOM     26  C   UNL A   1      31.555  32.328  26.869  1.00  0.00     0.202 C 
BRANCH  26  27
ATOM     27  C   UNL A   1      32.782  33.166  27.217  1.00  0.00     0.261 C 
BRANCH  27  28
ATOM     28  O   UNL A   1      32.451  34.117  28.238  1.00  0.00    -0.460 OA
BRANCH  28  29
ATOM     29  C   UNL A   1      33.511  34.846  28.654  1.00  0.00     0.338 C 
ATOM     30  O   UNL A   1      33.544  36.044  28.875  1.00  0.00    -0.246 OA
BRANCH  29  31
ATOM     31  C   UNL A   1      34.642  33.957  28.974  1.00  0.00     0.060 A 
ATOM     32  C   UNL A   1      34.328  32.786  29.672  1.00  0.00     0.016 A 
ATOM     33  C   UNL A   1      35.969  34.271  28.665  1.00  0.00     0.016 A 
ATOM     34  C   UNL A   1      35.346  31.981  30.161  1.00  0.00     0.010 A 
ATOM     35  C   UNL A   1      36.996  33.457  29.155  1.00  0.00     0.010 A 
ATOM     36  C   UNL A   1      36.684  32.345  29.956  1.00  0.00    -0.014 A 
BRANCH  36  37
ATOM     37  C   UNL A   1      37.714  31.659  30.768  1.00  0.00     0.031 A 
ATOM     38  C   UNL A   1      38.550  30.595  30.111  1.00  0.00     0.074 A 
ATOM     39  C   UNL A   1      37.986  32.084  32.013  1.00  0.00     0.049 A 
ATOM     40  N   UNL A   1      39.597  29.959  30.572  1.00  0.00    -0.248 NA
ATOM     41  C   UNL A   1      38.163  30.200  28.746  1.00  0.00     0.031 C 
ATOM     42  C   UNL A   1      37.260  33.135  32.723  1.00  0.00     0.029 A 
ATOM     43  N   UNL A   1      38.967  31.699  32.890  1.00  0.00    -0.354 N 
ATOM     44  C   UNL A   1      40.004  29.112  29.548  1.00  0.00     0.074 A 
ATOM     45  C   UNL A   1      39.065  29.272  28.461  1.00  0.00     0.031 C 
ATOM     46  C   UNL A   1      37.830  33.324  33.925  1.00  0.00     0.029 A 
ATOM     47  C   UNL A   1      38.951  32.397  34.072  1.00  0.00     0.049 A 
ATOM     48  H   UNL A   1      39.621  30.990  32.691  1.00  0.00     0.167 HD
ATOM     49  C   UNL A   1      41.082  28.295  29.510  1.00  0.00     0.037 A 
ATOM     50  C   UNL A   1      39.759  32.296  35.145  1.00  0.00     0.037 A 
ATOM     51  C   UNL A   1      42.006  28.132  30.599  1.00  0.00     0.049 A 
ATOM     52  C   UNL A   1      40.913  31.329  35.095  1.00  0.00     0.074 A 
ATOM     53  C   UNL A   1      43.110  27.302  30.684  1.00  0.00     0.029 A 
ATOM     54  N   UNL A   1      41.931  28.823  31.800  1.00  0.00    -0.354 N 
ATOM     55  N   UNL A   1      41.296  30.543  34.117  1.00  0.00    -0.248 NA
ATOM     56  C   UNL A   1      41.757  31.248  36.294  1.00  0.00     0.031 C 
ATOM     57  C   UNL A   1      43.682  27.467  31.950  1.00  0.00     0.029 A 
ATOM     58  C   UNL A   1      42.963  28.432  32.635  1.00  0.00     0.049 A 
ATOM     59  H   UNL A   1      41.244  29.493  32.025  1.00  0.00     0.167 HD
ATOM     60  C   UNL A   1      42.438  29.897  34.572  1.00  0.00     0.074 A 
ATOM     61  C   UNL A   1      42.699  30.403  35.903  1.00  0.00     0.031 C 
ATOM     62  C   UNL A   1      43.201  28.962  33.953  1.00  0.00     0.037 A 
BRANCH  49  63
ATOM     63  C   UNL A   1      41.315  27.512  28.251  1.00  0.00     0.064 A 
ATOM     64  C   UNL A   1      42.135  28.005  27.225  1.00  0.00     0.173 A 
ATOM     65  C   UNL A   1      40.749  26.239  28.083  1.00  0.00     0.173 A 
ATOM     66  F   UNL A   1      42.684  29.225  27.328  1.00  0.00    -0.203 F 
ATOM     67  C   UNL A   1      42.370  27.259  26.072  1.00  0.00     0.198 A 
ATOM     68  C   UNL A   1      41.006  25.486  26.940  1.00  0.00     0.198 A 
ATOM     69  F   UNL A   1      39.956  25.722  29.033  1.00  0.00    -0.203 F 
ATOM     70  F   UNL A   1      43.128  27.765  25.090  1.00  0.00    -0.200 F 
ATOM     71  C   UNL A   1      41.812  25.997  25.935  1.00  0.00     0.200 A 
ATOM     72  F   UNL A   1      40.473  24.262  26.813  1.00  0.00    -0.200 F 
ATOM     73  F   UNL A   1      42.047  25.275  24.830  1.00  0.00    -0.200 F 
ENDBRANCH  49  63
BRANCH  50  74
ATOM     74  C   UNL A   1      39.514  33.130  36.351  1.00  0.00     0.064 A 
ATOM     75  C   UNL A   1      38.598  32.736  37.337  1.00  0.00     0.173 A 
ATOM     76  C   UNL A   1      40.160  34.364  36.520  1.00  0.00     0.173 A 
ATOM     77  F   UNL A   1      37.939  31.574  37.213  1.00  0.00    -0.203 F 
ATOM     78  C   UNL A   1      38.313  33.557  38.426  1.00  0.00     0.198 A 
ATOM     79  C   UNL A   1      39.898  35.171  37.626  1.00  0.00     0.198 A 
ATOM     80  F   UNL A   1      41.046  34.788  35.608  1.00  0.00    -0.203 F 
ATOM     81  F   UNL A   1      37.387  33.184  39.320  1.00  0.00    -0.200 F 
ATOM     82  C   UNL A   1      38.965  34.773  38.570  1.00  0.00     0.200 A 
ATOM     83  F   UNL A   1      40.541  36.337  37.767  1.00  0.00    -0.200 F 
ATOM     84  F   UNL A   1      38.687  35.566  39.614  1.00  0.00    -0.200 F 
ENDBRANCH  50  74
BRANCH  62  85
ATOM     85  C   UNL A   1      44.400  28.460  34.702  1.00  0.00     0.064 A 
ATOM     86  C   UNL A   1      45.646  29.098  34.604  1.00  0.00     0.173 A 
ATOM     87  C   UNL A   1      44.300  27.334  35.532  1.00  0.00     0.173 A 
ATOM     88  F   UNL A   1      45.795  30.171  33.812  1.00  0.00    -0.203 F 
ATOM     89  C   UNL A   1      46.758  28.601  35.277  1.00  0.00     0.198 A 
ATOM     90  C   UNL A   1      45.406  26.858  36.229  1.00  0.00     0.198 A 
ATOM     91  F   UNL A   1      43.128  26.694  35.667  1.00  0.00    -0.203 F 
ATOM     92  F   UNL A   1      47.952  29.187  35.119  1.00  0.00    -0.200 F 
ATOM     93  C   UNL A   1      46.636  27.484  36.092  1.00  0.00     0.200 A 
ATOM     94  F   UNL A   1      45.285  25.787  37.026  1.00  0.00    -0.200 F 
ATOM     95  F   UNL A   1      47.710  27.004  36.736  1.00  0.00    -0.200 F 
ENDBRANCH  62  85
ENDBRANCH  36  37
ENDBRANCH  29  31
ENDBRANCH  28  29
ENDBRANCH  27  28
ENDBRANCH  26  27
ENDBRANCH  25  26
ENDBRANCH   1  25
TORSDOF 17
ENDMDL
MODEL 3
REMARK VINA RESULT:     -11.3      4.404      9.678
REMARK SMILES CCc1n[nH]c(C(=O)N[C@@]2(C(=O)OCCOCCOC(=O)c3ccc(-c4c5nc(c(-c6c(F)c(F)c(F)c(F)c6F)c6ccc([nH]6)c(-c6c(F)c(F)c(F)c(F)c6F)c6nc(c(-c7c(F)c(F)c(F)c(F)c7F)c7ccc4[nH]7)C=C6)C=C5)cc3)CCCC[C@H]2C)n1
REMARK SMILES IDX 15 1 14 2 13 3 11 4 12 5 10 6 85 7 89 8 86 9 88 10 90 11
REMARK SMILES IDX 87 12 9 13 7 14 8 15 6 17 3 18 4 19 91 20 5 21 2 23 1 24
REMARK SMILES IDX 16 25 17 26 18 27 19 28 20 29 21 30 22 31 23 32 84 33 24 34
REMARK SMILES IDX 83 35 25 36 26 37 27 38 77 39 28 40 82 41 76 42 78 43 29 44
REMARK SMILES IDX 81 45 75 46 74 47 30 49 62 50 42 51 61 52 43 53 46 54 60 55
REMARK SMILES IDX 79 56 44 57 45 58 59 60 80 61 47 62 31 63 32 64 40 65 33 66
REMARK SMILES IDX 34 67 38 68 41 69 35 70 36 71 39 72 37 73 63 74 64 75 72 76
REMARK SMILES IDX 65 77 66 78 70 79 73 80 67 81 68 82 71 83 69 84 48 85 49 86
REMARK SMILES IDX 57 87 50 88 51 89 55 90 58 91 52 92 53 93 56 94 54 95
REMARK H PARENT 9 16 5 22 78 48 46 59
REMARK Flexibility Score: inf
ROOT
ATOM      1  C   UNL A   1      31.143  25.623  26.132  1.00  0.00     0.202 C 
ENDROOT
BRANCH   1   2
ATOM      2  C   UNL A   1      31.407  24.295  26.856  1.00  0.00     0.261 C 
BRANCH   2   3
ATOM      3  O   UNL A   1      32.039  23.281  26.045  1.00  0.00    -0.461 OA
BRANCH   3   4
ATOM      4  C   UNL A   1      33.199  22.789  26.564  1.00  0.00     0.332 C 
ATOM      5  O   UNL A   1      33.317  22.435  27.736  1.00  0.00    -0.249 OA
BRANCH   4   6
ATOM      6  C   UNL A   1      34.338  22.620  25.504  1.00  0.00     0.141 C 
ATOM      7  C   UNL A   1      35.156  21.315  25.674  1.00  0.00     0.041 C 
ATOM      8  C   UNL A   1      35.323  23.842  25.683  1.00  0.00     0.023 C 
ATOM      9  C   UNL A   1      36.355  21.244  24.731  1.00  0.00     0.003 C 
ATOM     10  C   UNL A   1      36.644  23.716  24.892  1.00  0.00     0.006 C 
ATOM     11  C   UNL A   1      34.719  25.214  25.335  1.00  0.00     0.011 C 
ATOM     12  C   UNL A   1      37.326  22.367  25.035  1.00  0.00     0.000 C 
BRANCH   6  13
ATOM     13  N   UNL A   1      33.676  22.665  24.170  1.00  0.00    -0.333 N 
ATOM     14  C   UNL A   1      32.926  21.691  23.525  1.00  0.00     0.289 C 
ATOM     15  O   UNL A   1      32.377  22.017  22.470  1.00  0.00    -0.266 OA
ATOM     16  H   UNL A   1      33.786  23.508  23.674  1.00  0.00     0.165 HD
BRANCH  14  17
ATOM     17  C   UNL A   1      32.734  20.377  24.108  1.00  0.00     0.214 A 
ATOM     18  C   UNL A   1      32.830  18.318  24.609  1.00  0.00     0.151 A 
ATOM     19  N   UNL A   1      32.179  18.840  25.653  1.00  0.00    -0.158 NA
ATOM     20  N   UNL A   1      33.166  19.221  23.643  1.00  0.00    -0.207 NA
ATOM     21  N   UNL A   1      32.125  20.146  25.310  1.00  0.00    -0.255 N 
ATOM     22  H   UNL A   1      31.700  20.845  25.857  1.00  0.00     0.192 HD
BRANCH  18  23
ATOM     23  C   UNL A   1      33.258  16.900  24.511  1.00  0.00     0.076 C 
ATOM     24  C   UNL A   1      34.132  16.615  23.304  1.00  0.00     0.012 C 
ENDBRANCH  18  23
ENDBRANCH  14  17
ENDBRANCH   6  13
ENDBRANCH   4   6
ENDBRANCH   3   4
ENDBRANCH   2   3
ENDBRANCH   1   2
BRANCH   1  25
ATOM     25  O   UNL A   1      31.297  26.826  26.888  1.00  0.00    -0.374 OA
BRANCH  25  26
ATOM     26  C   UNL A   1      31.872  27.931  26.195  1.00  0.00     0.202 C 
BRANCH  26  27
ATOM     27  C   UNL A   1      32.036  29.217  27.000  1.00  0.00     0.261 C 
BRANCH  27  28
ATOM     28  O   UNL A   1      33.113  29.997  26.463  1.00  0.00    -0.460 OA
BRANCH  28  29
ATOM     29  C   UNL A   1      33.508  30.999  27.281  1.00  0.00     0.338 C 
ATOM     30  O   UNL A   1      32.804  31.838  27.816  1.00  0.00    -0.246 OA
BRANCH  29  31
ATOM     31  C   UNL A   1      34.943  30.864  27.590  1.00  0.00     0.060 A 
ATOM     32  C   UNL A   1      35.471  29.571  27.515  1.00  0.00     0.016 A 
ATOM     33  C   UNL A   1      35.738  31.938  27.999  1.00  0.00     0.016 A 
ATOM     34  C   UNL A   1      36.764  29.328  27.954  1.00  0.00     0.010 A 
ATOM     35  C   UNL A   1      37.044  31.694  28.438  1.00  0.00     0.010 A 
ATOM     36  C   UNL A   1      37.534  30.377  28.472  1.00  0.00    -0.014 A 
BRANCH  36  37
ATOM     37  C   UNL A   1      38.756  30.023  29.229  1.00  0.00     0.031 A 
ATOM     38  C   UNL A   1      38.909  30.554  30.629  1.00  0.00     0.074 A 
ATOM     39  C   UNL A   1      39.629  29.134  28.726  1.00  0.00     0.049 A 
ATOM     40  N   UNL A   1      39.815  30.270  31.530  1.00  0.00    -0.248 NA
ATOM     41  C   UNL A   1      37.899  31.527  31.080  1.00  0.00     0.031 C 
ATOM     42  C   UNL A   1      39.548  28.532  27.397  1.00  0.00     0.029 A 
ATOM     43  N   UNL A   1      40.741  28.563  29.289  1.00  0.00    -0.354 N 
ATOM     44  C   UNL A   1      39.469  31.008  32.656  1.00  0.00     0.074 A 
ATOM     45  C   UNL A   1      38.305  31.793  32.312  1.00  0.00     0.031 C 
ATOM     46  C   UNL A   1      40.561  27.662  27.249  1.00  0.00     0.029 A 
ATOM     47  C   UNL A   1      41.366  27.658  28.468  1.00  0.00     0.049 A 
ATOM     48  H   UNL A   1      41.060  28.781  30.194  1.00  0.00     0.167 HD
ATOM     49  C   UNL A   1      40.056  31.009  33.875  1.00  0.00     0.037 A 
ATOM     50  C   UNL A   1      42.464  26.909  28.688  1.00  0.00     0.037 A 
ATOM     51  C   UNL A   1      41.221  30.233  34.206  1.00  0.00     0.049 A 
ATOM     52  C   UNL A   1      43.133  26.981  30.036  1.00  0.00     0.074 A 
ATOM     53  C   UNL A   1      41.922  30.188  35.398  1.00  0.00     0.029 A 
ATOM     54  N   UNL A   1      41.855  29.362  33.333  1.00  0.00    -0.354 N 
ATOM     55  N   UNL A   1      42.791  27.672  31.097  1.00  0.00    -0.248 NA
ATOM     56  C   UNL A   1      44.334  26.155  30.221  1.00  0.00     0.031 C 
ATOM     57  C   UNL A   1      43.001  29.312  35.234  1.00  0.00     0.029 A 
ATOM     58  C   UNL A   1      42.945  28.779  33.957  1.00  0.00     0.049 A 
ATOM     59  H   UNL A   1      41.572  29.184  32.407  1.00  0.00     0.167 HD
ATOM     60  C   UNL A   1      43.714  27.344  32.081  1.00  0.00     0.074 A 
ATOM     61  C   UNL A   1      44.615  26.372  31.497  1.00  0.00     0.031 C 
ATOM     62  C   UNL A   1      43.818  27.808  33.351  1.00  0.00     0.037 A 
BRANCH  49  63
ATOM     63  C   UNL A   1      39.449  31.878  34.937  1.00  0.00     0.064 A 
ATOM     64  C   UNL A   1      38.617  31.343  35.932  1.00  0.00     0.173 A 
ATOM     65  C   UNL A   1      39.734  33.251  34.989  1.00  0.00     0.173 A 
ATOM     66  F   UNL A   1      38.298  30.040  35.915  1.00  0.00    -0.203 F 
ATOM     67  C   UNL A   1      38.080  32.152  36.931  1.00  0.00     0.198 A 
ATOM     68  C   UNL A   1      39.217  34.052  36.005  1.00  0.00     0.198 A 
ATOM     69  F   UNL A   1      40.524  33.813  34.062  1.00  0.00    -0.203 F 
ATOM     70  F   UNL A   1      37.259  31.626  37.850  1.00  0.00    -0.200 F 
ATOM     71  C   UNL A   1      38.388  33.503  36.971  1.00  0.00     0.200 A 
ATOM     72  F   UNL A   1      39.523  35.356  36.047  1.00  0.00    -0.200 F 
ATOM     73  F   UNL A   1      37.882  34.279  37.940  1.00  0.00    -0.200 F 
ENDBRANCH  49  63
BRANCH  50  74
ATOM     74  C   UNL A   1      42.999  26.027  27.618  1.00  0.00     0.064 A 
ATOM     75  C   UNL A   1      43.958  26.485  26.704  1.00  0.00     0.173 A 
ATOM     76  C   UNL A   1      42.525  24.715  27.459  1.00  0.00     0.173 A 
ATOM     77  F   UNL A   1      44.429  27.738  26.800  1.00  0.00    -0.203 F 
ATOM     78  C   UNL A   1      44.398  25.681  25.654  1.00  0.00     0.198 A 
ATOM     79  C   UNL A   1      42.989  23.900  26.428  1.00  0.00     0.198 A 
ATOM     80  F   UNL A   1      41.609  24.225  28.306  1.00  0.00    -0.203 F 
ATOM     81  F   UNL A   1      45.268  26.167  24.759  1.00  0.00    -0.200 F 
ATOM     82  C   UNL A   1      43.914  24.388  25.519  1.00  0.00     0.200 A 
ATOM     83  F   UNL A   1      42.529  22.647  26.310  1.00  0.00    -0.200 F 
ATOM     84  F   UNL A   1      44.332  23.616  24.506  1.00  0.00    -0.200 F 
ENDBRANCH  50  74
BRANCH  62  85
ATOM     85  C   UNL A   1      44.924  27.240  34.192  1.00  0.00     0.064 A 
ATOM     86  C   UNL A   1      44.750  26.062  34.934  1.00  0.00     0.173 A 
ATOM     87  C   UNL A   1      46.171  27.878  34.251  1.00  0.00     0.173 A 
ATOM     88  F   UNL A   1      43.570  25.423  34.921  1.00  0.00    -0.203 F 
ATOM     89  C   UNL A   1      45.773  25.566  35.737  1.00  0.00     0.198 A 
ATOM     90  C   UNL A   1      47.202  27.362  35.029  1.00  0.00     0.198 A 
ATOM     91  F   UNL A   1      46.391  29.002  33.551  1.00  0.00    -0.203 F 
ATOM     92  F   UNL A   1      45.565  24.476  36.488  1.00  0.00    -0.200 F 
ATOM     93  C   UNL A   1      47.000  26.215  35.781  1.00  0.00     0.200 A 
ATOM     94  F   UNL A   1      48.391  27.981  35.061  1.00  0.00    -0.200 F 
ATOM     95  F   UNL A   1      47.982  25.738  36.559  1.00  0.00    -0.200 F 
ENDBRANCH  62  85
ENDBRANCH  36  37
ENDBRANCH  29  31
ENDBRANCH  28  29
ENDBRANCH  27  28
ENDBRANCH  26  27
ENDBRANCH  25  26
ENDBRANCH   1  25
TORSDOF 17
ENDMDL
