MODEL 1
REMARK VINA RESULT:     -11.1      0.000      0.000
REMARK SMILES CC[C@@](C)(NC(=O)N1CCCC[C@@H]1C)C(=O)OCCOCCOC(=O)c1ccc(-c2c3nc(c(-c4c(F)c(F)c(F)c(F)c4F)c4ccc([nH]4)c(-c4c(F)c(F)c(F)c(F)c4F)c4nc(c(-c5c(F)c(F)c(F)c(F)c5F)c5ccc2[nH]5)C=C4)C=C3)cc1
REMARK SMILES IDX 20 1 19 2 18 3 17 4 15 5 16 6 3 7 4 8 2 9 1 10 5 11 6 12
REMARK SMILES IDX 7 14 8 15 9 16 13 17 10 18 12 19 14 20 11 21 21 22 22 23
REMARK SMILES IDX 23 24 24 25 25 26 26 27 27 28 88 29 28 30 87 31 29 32 30 33
REMARK SMILES IDX 31 34 81 35 32 36 86 37 80 38 82 39 33 40 85 41 79 42 78 43
REMARK SMILES IDX 34 45 66 46 46 47 65 48 47 49 50 50 64 51 83 52 48 53 49 54
REMARK SMILES IDX 63 56 84 57 51 58 35 59 36 60 44 61 37 62 38 63 42 64 45 65
REMARK SMILES IDX 39 66 40 67 43 68 41 69 67 70 68 71 76 72 69 73 70 74 74 75
REMARK SMILES IDX 77 76 71 77 72 78 75 79 73 80 52 81 53 82 61 83 54 84 55 85
REMARK SMILES IDX 59 86 62 87 56 88 57 89 60 90 58 91
REMARK H PARENT 5 13 82 44 50 55
REMARK Flexibility Score: inf
ROOT
ATOM      1  O   UNL A   1      30.853  25.908  26.772  1.00  0.00    -0.374 OA
ENDROOT
BRANCH   1   2
ATOM      2  C   UNL A   1      30.292  24.950  25.842  1.00  0.00     0.202 C 
BRANCH   2   3
ATOM      3  C   UNL A   1      30.843  23.559  25.400  1.00  0.00     0.261 C 
BRANCH   3   4
ATOM      4  O   UNL A   1      32.011  23.620  24.614  1.00  0.00    -0.462 OA
BRANCH   4   5
ATOM      5  C   UNL A   1      33.183  23.598  25.284  1.00  0.00     0.331 C 
ATOM      6  O   UNL A   1      33.329  23.053  26.351  1.00  0.00    -0.249 OA
BRANCH   5   7
ATOM      7  C   UNL A   1      34.269  24.386  24.503  1.00  0.00     0.136 C 
ATOM      8  C   UNL A   1      34.677  25.690  25.185  1.00  0.00     0.047 C 
BRANCH   7   9
ATOM      9  C   UNL A   1      35.506  23.404  24.465  1.00  0.00     0.037 C 
ATOM     10  C   UNL A   1      36.645  23.684  25.459  1.00  0.00     0.007 C 
ENDBRANCH   7   9
BRANCH   7  11
ATOM     11  N   UNL A   1      33.889  24.696  23.076  1.00  0.00    -0.322 N 
ATOM     12  C   UNL A   1      33.188  25.599  22.348  1.00  0.00     0.318 C 
ATOM     13  H   UNL A   1      34.278  24.019  22.476  1.00  0.00     0.166 HD
ATOM     14  O   UNL A   1      33.277  25.463  21.127  1.00  0.00    -0.249 OA
BRANCH  12  15
ATOM     15  N   UNL A   1      32.357  26.558  22.902  1.00  0.00    -0.322 N 
ATOM     16  C   UNL A   1      30.913  26.418  22.687  1.00  0.00     0.121 C 
ATOM     17  C   UNL A   1      32.881  27.909  23.078  1.00  0.00     0.083 C 
ATOM     18  C   UNL A   1      29.890  27.510  22.931  1.00  0.00     0.022 C 
ATOM     19  C   UNL A   1      31.835  29.033  22.910  1.00  0.00     0.025 C 
ATOM     20  C   UNL A   1      34.035  28.201  22.109  1.00  0.00     0.031 C 
ATOM     21  C   UNL A   1      30.480  28.748  23.532  1.00  0.00     0.004 C 
ENDBRANCH  12  15
ENDBRANCH   7  11
ENDBRANCH   5   7
ENDBRANCH   4   5
ENDBRANCH   3   4
ENDBRANCH   2   3
ENDBRANCH   1   2
BRANCH   1  22
ATOM     22  C   UNL A   1      31.866  26.914  26.531  1.00  0.00     0.202 C 
BRANCH  22  23
ATOM     23  C   UNL A   1      31.753  28.475  27.010  1.00  0.00     0.261 C 
BRANCH  23  24
ATOM     24  O   UNL A   1      32.420  29.579  26.260  1.00  0.00    -0.460 OA
BRANCH  24  25
ATOM     25  C   UNL A   1      32.870  30.771  26.828  1.00  0.00     0.338 C 
ATOM     26  O   UNL A   1      32.199  31.793  26.879  1.00  0.00    -0.246 OA
BRANCH  25  27
ATOM     27  C   UNL A   1      34.270  30.691  27.520  1.00  0.00     0.060 A 
ATOM     28  C   UNL A   1      34.922  29.493  27.784  1.00  0.00     0.016 A 
ATOM     29  C   UNL A   1      35.035  31.808  27.881  1.00  0.00     0.016 A 
ATOM     30  C   UNL A   1      36.035  29.332  28.620  1.00  0.00     0.010 A 
ATOM     31  C   UNL A   1      36.293  31.670  28.577  1.00  0.00     0.010 A 
ATOM     32  C   UNL A   1      36.787  30.419  29.012  1.00  0.00    -0.014 A 
BRANCH  32  33
ATOM     33  C   UNL A   1      38.000  30.203  29.892  1.00  0.00     0.031 A 
ATOM     34  C   UNL A   1      39.158  29.409  29.345  1.00  0.00     0.074 A 
ATOM     35  C   UNL A   1      38.187  30.789  31.105  1.00  0.00     0.049 A 
ATOM     36  N   UNL A   1      40.169  28.852  29.966  1.00  0.00    -0.248 NA
ATOM     37  C   UNL A   1      39.182  29.235  27.886  1.00  0.00     0.031 C 
ATOM     38  C   UNL A   1      37.292  31.752  31.751  1.00  0.00     0.029 A 
ATOM     39  N   UNL A   1      39.223  30.670  32.019  1.00  0.00    -0.354 N 
ATOM     40  C   UNL A   1      40.893  28.184  28.986  1.00  0.00     0.074 A 
ATOM     41  C   UNL A   1      40.226  28.437  27.725  1.00  0.00     0.031 C 
ATOM     42  C   UNL A   1      37.819  32.149  32.922  1.00  0.00     0.029 A 
ATOM     43  C   UNL A   1      39.032  31.383  33.186  1.00  0.00     0.049 A 
ATOM     44  H   UNL A   1      40.025  30.124  31.850  1.00  0.00     0.167 HD
ATOM     45  C   UNL A   1      41.999  27.412  29.125  1.00  0.00     0.037 A 
ATOM     46  C   UNL A   1      39.702  31.374  34.361  1.00  0.00     0.037 A 
ATOM     47  C   UNL A   1      42.699  27.211  30.367  1.00  0.00     0.049 A 
ATOM     48  C   UNL A   1      40.877  30.441  34.533  1.00  0.00     0.074 A 
ATOM     49  C   UNL A   1      43.760  26.364  30.643  1.00  0.00     0.029 A 
ATOM     50  N   UNL A   1      42.426  27.900  31.539  1.00  0.00    -0.354 N 
ATOM     51  N   UNL A   1      41.438  29.643  33.656  1.00  0.00    -0.248 NA
ATOM     52  C   UNL A   1      41.494  30.379  35.869  1.00  0.00     0.031 C 
ATOM     53  C   UNL A   1      44.114  26.526  31.988  1.00  0.00     0.029 A 
ATOM     54  C   UNL A   1      43.303  27.506  32.537  1.00  0.00     0.049 A 
ATOM     55  H   UNL A   1      41.714  28.571  31.646  1.00  0.00     0.167 HD
ATOM     56  C   UNL A   1      42.471  29.000  34.327  1.00  0.00     0.074 A 
ATOM     57  C   UNL A   1      42.485  29.521  35.676  1.00  0.00     0.031 C 
ATOM     58  C   UNL A   1      43.323  28.049  33.871  1.00  0.00     0.037 A 
BRANCH  45  59
ATOM     59  C   UNL A   1      42.455  26.656  27.911  1.00  0.00     0.064 A 
ATOM     60  C   UNL A   1      43.423  27.160  27.032  1.00  0.00     0.173 A 
ATOM     61  C   UNL A   1      41.877  25.412  27.608  1.00  0.00     0.173 A 
ATOM     62  F   UNL A   1      43.989  28.353  27.264  1.00  0.00    -0.203 F 
ATOM     63  C   UNL A   1      43.760  26.469  25.869  1.00  0.00     0.198 A 
ATOM     64  C   UNL A   1      42.240  24.710  26.463  1.00  0.00     0.198 A 
ATOM     65  F   UNL A   1      40.949  24.882  28.419  1.00  0.00    -0.203 F 
ATOM     66  F   UNL A   1      44.634  27.004  25.004  1.00  0.00    -0.200 F 
ATOM     67  C   UNL A   1      43.171  25.245  25.587  1.00  0.00     0.200 A 
ATOM     68  F   UNL A   1      41.676  23.523  26.199  1.00  0.00    -0.200 F 
ATOM     69  F   UNL A   1      43.488  24.590  24.463  1.00  0.00    -0.200 F 
ENDBRANCH  45  59
BRANCH  46  70
ATOM     70  C   UNL A   1      39.229  32.187  35.527  1.00  0.00     0.064 A 
ATOM     71  C   UNL A   1      39.701  33.490  35.757  1.00  0.00     0.173 A 
ATOM     72  C   UNL A   1      38.360  31.645  36.489  1.00  0.00     0.173 A 
ATOM     73  F   UNL A   1      40.569  34.048  34.899  1.00  0.00    -0.203 F 
ATOM     74  C   UNL A   1      39.344  34.202  36.904  1.00  0.00     0.198 A 
ATOM     75  C   UNL A   1      37.972  32.372  37.614  1.00  0.00     0.198 A 
ATOM     76  F   UNL A   1      37.889  30.397  36.342  1.00  0.00    -0.203 F 
ATOM     77  F   UNL A   1      39.869  35.415  37.129  1.00  0.00    -0.200 F 
ATOM     78  C   UNL A   1      38.474  33.645  37.827  1.00  0.00     0.200 A 
ATOM     79  F   UNL A   1      37.122  31.830  38.498  1.00  0.00    -0.200 F 
ATOM     80  F   UNL A   1      38.133  34.326  38.930  1.00  0.00    -0.200 F 
ENDBRANCH  46  70
BRANCH  58  81
ATOM     81  C   UNL A   1      44.372  27.546  34.820  1.00  0.00     0.064 A 
ATOM     82  C   UNL A   1      44.129  26.474  35.691  1.00  0.00     0.173 A 
ATOM     83  C   UNL A   1      45.651  28.125  34.833  1.00  0.00     0.173 A 
ATOM     84  F   UNL A   1      42.918  25.897  35.728  1.00  0.00    -0.203 F 
ATOM     85  C   UNL A   1      45.118  26.017  36.558  1.00  0.00     0.198 A 
ATOM     86  C   UNL A   1      46.646  27.648  35.681  1.00  0.00     0.198 A 
ATOM     87  F   UNL A   1      45.937  29.150  34.017  1.00  0.00    -0.203 F 
ATOM     88  F   UNL A   1      44.847  25.023  37.415  1.00  0.00    -0.200 F 
ATOM     89  C   UNL A   1      46.377  26.600  36.548  1.00  0.00     0.200 A 
ATOM     90  F   UNL A   1      47.865  28.204  35.663  1.00  0.00    -0.200 F 
ATOM     91  F   UNL A   1      47.329  26.156  37.381  1.00  0.00    -0.200 F 
ENDBRANCH  58  81
ENDBRANCH  32  33
ENDBRANCH  25  27
ENDBRANCH  24  25
ENDBRANCH  23  24
ENDBRANCH  22  23
ENDBRANCH   1  22
TORSDOF 17
ENDMDL
MODEL 2
REMARK VINA RESULT:     -10.9      4.197      9.510
REMARK SMILES CC[C@@](C)(NC(=O)N1CCCC[C@@H]1C)C(=O)OCCOCCOC(=O)c1ccc(-c2c3nc(c(-c4c(F)c(F)c(F)c(F)c4F)c4ccc([nH]4)c(-c4c(F)c(F)c(F)c(F)c4F)c4nc(c(-c5c(F)c(F)c(F)c(F)c5F)c5ccc2[nH]5)C=C4)C=C3)cc1
REMARK SMILES IDX 20 1 19 2 18 3 17 4 15 5 16 6 3 7 4 8 2 9 1 10 5 11 6 12
REMARK SMILES IDX 7 14 8 15 9 16 13 17 10 18 12 19 14 20 11 21 21 22 22 23
REMARK SMILES IDX 23 24 24 25 25 26 26 27 27 28 88 29 28 30 87 31 29 32 30 33
REMARK SMILES IDX 31 34 81 35 32 36 86 37 80 38 82 39 33 40 85 41 79 42 78 43
REMARK SMILES IDX 34 45 66 46 46 47 65 48 47 49 50 50 64 51 83 52 48 53 49 54
REMARK SMILES IDX 63 56 84 57 51 58 35 59 36 60 44 61 37 62 38 63 42 64 45 65
REMARK SMILES IDX 39 66 40 67 43 68 41 69 67 70 68 71 76 72 69 73 70 74 74 75
REMARK SMILES IDX 77 76 71 77 72 78 75 79 73 80 52 81 53 82 61 83 54 84 55 85
REMARK SMILES IDX 59 86 62 87 56 88 57 89 60 90 58 91
REMARK H PARENT 5 13 82 44 50 55
REMARK Flexibility Score: inf
ROOT
ATOM      1  O   UNL A   1      33.501  19.703  24.906  1.00  0.00    -0.374 OA
ENDROOT
BRANCH   1   2
ATOM      2  C   UNL A   1      32.414  20.432  24.288  1.00  0.00     0.202 C 
BRANCH   2   3
ATOM      3  C   UNL A   1      32.442  21.421  23.082  1.00  0.00     0.261 C 
BRANCH   3   4
ATOM      4  O   UNL A   1      32.363  22.781  23.445  1.00  0.00    -0.462 OA
BRANCH   4   5
ATOM      5  C   UNL A   1      33.449  23.536  23.170  1.00  0.00     0.331 C 
ATOM      6  O   UNL A   1      34.463  23.093  22.690  1.00  0.00    -0.249 OA
BRANCH   5   7
ATOM      7  C   UNL A   1      33.202  25.011  23.585  1.00  0.00     0.136 C 
ATOM      8  C   UNL A   1      34.137  25.491  24.693  1.00  0.00     0.047 C 
BRANCH   7   9
ATOM      9  C   UNL A   1      33.484  25.835  22.268  1.00  0.00     0.037 C 
ATOM     10  C   UNL A   1      32.338  25.923  21.246  1.00  0.00     0.007 C 
ENDBRANCH   7   9
BRANCH   7  11
ATOM     11  N   UNL A   1      31.781  25.296  24.007  1.00  0.00    -0.322 N 
ATOM     12  C   UNL A   1      31.037  26.253  24.610  1.00  0.00     0.318 C 
ATOM     13  H   UNL A   1      31.206  24.536  23.762  1.00  0.00     0.166 HD
ATOM     14  O   UNL A   1      29.824  26.039  24.621  1.00  0.00    -0.249 OA
BRANCH  12  15
ATOM     15  N   UNL A   1      31.573  27.357  25.252  1.00  0.00    -0.322 N 
ATOM     16  C   UNL A   1      31.443  27.429  26.711  1.00  0.00     0.121 C 
ATOM     17  C   UNL A   1      31.636  28.619  24.521  1.00  0.00     0.083 C 
ATOM     18  C   UNL A   1      31.673  28.678  27.542  1.00  0.00     0.022 C 
ATOM     19  C   UNL A   1      31.454  29.880  25.395  1.00  0.00     0.025 C 
ATOM     20  C   UNL A   1      30.592  28.678  23.399  1.00  0.00     0.031 C 
ATOM     21  C   UNL A   1      32.163  29.841  26.736  1.00  0.00     0.004 C 
ENDBRANCH  12  15
ENDBRANCH   7  11
ENDBRANCH   5   7
ENDBRANCH   4   5
ENDBRANCH   3   4
ENDBRANCH   2   3
ENDBRANCH   1   2
BRANCH   1  22
ATOM     22  C   UNL A   1      34.911  20.032  24.930  1.00  0.00     0.202 C 
BRANCH  22  23
ATOM     23  C   UNL A   1      35.543  21.339  25.684  1.00  0.00     0.261 C 
BRANCH  23  24
ATOM     24  O   UNL A   1      36.821  21.967  25.233  1.00  0.00    -0.460 OA
BRANCH  24  25
ATOM     25  C   UNL A   1      38.092  21.576  25.652  1.00  0.00     0.338 C 
ATOM     26  O   UNL A   1      38.552  20.457  25.465  1.00  0.00    -0.246 OA
BRANCH  25  27
ATOM     27  C   UNL A   1      38.964  22.711  26.283  1.00  0.00     0.060 A 
ATOM     28  C   UNL A   1      38.649  24.060  26.177  1.00  0.00     0.016 A 
ATOM     29  C   UNL A   1      40.102  22.486  27.067  1.00  0.00     0.016 A 
ATOM     30  C   UNL A   1      39.504  25.128  26.485  1.00  0.00     0.010 A 
ATOM     31  C   UNL A   1      40.904  23.578  27.568  1.00  0.00     0.010 A 
ATOM     32  C   UNL A   1      40.646  24.927  27.231  1.00  0.00    -0.014 A 
BRANCH  32  33
ATOM     33  C   UNL A   1      41.530  26.109  27.568  1.00  0.00     0.031 A 
ATOM     34  C   UNL A   1      41.002  27.160  28.510  1.00  0.00     0.074 A 
ATOM     35  C   UNL A   1      42.830  26.232  27.188  1.00  0.00     0.049 A 
ATOM     36  N   UNL A   1      41.427  28.379  28.738  1.00  0.00    -0.248 NA
ATOM     37  C   UNL A   1      39.840  26.770  29.319  1.00  0.00     0.031 C 
ATOM     38  C   UNL A   1      43.613  25.246  26.439  1.00  0.00     0.029 A 
ATOM     39  N   UNL A   1      43.742  27.254  27.402  1.00  0.00    -0.354 N 
ATOM     40  C   UNL A   1      40.527  28.929  29.643  1.00  0.00     0.074 A 
ATOM     41  C   UNL A   1      39.557  27.899  29.950  1.00  0.00     0.031 C 
ATOM     42  C   UNL A   1      44.871  25.691  26.282  1.00  0.00     0.029 A 
ATOM     43  C   UNL A   1      44.970  27.048  26.804  1.00  0.00     0.049 A 
ATOM     44  H   UNL A   1      43.533  28.056  27.934  1.00  0.00     0.167 HD
ATOM     45  C   UNL A   1      40.498  30.185  30.155  1.00  0.00     0.037 A 
ATOM     46  C   UNL A   1      46.028  27.872  26.625  1.00  0.00     0.037 A 
ATOM     47  C   UNL A   1      41.497  31.190  29.900  1.00  0.00     0.049 A 
ATOM     48  C   UNL A   1      45.946  29.297  27.120  1.00  0.00     0.074 A 
ATOM     49  C   UNL A   1      41.508  32.522  30.276  1.00  0.00     0.029 A 
ATOM     50  N   UNL A   1      42.689  30.956  29.231  1.00  0.00    -0.354 N 
ATOM     51  N   UNL A   1      44.992  29.884  27.802  1.00  0.00    -0.248 NA
ATOM     52  C   UNL A   1      47.073  30.187  26.791  1.00  0.00     0.031 C 
ATOM     53  C   UNL A   1      42.697  33.100  29.814  1.00  0.00     0.029 A 
ATOM     54  C   UNL A   1      43.446  32.116  29.190  1.00  0.00     0.049 A 
ATOM     55  H   UNL A   1      42.957  30.093  28.841  1.00  0.00     0.167 HD
ATOM     56  C   UNL A   1      45.408  31.197  27.992  1.00  0.00     0.074 A 
ATOM     57  C   UNL A   1      46.713  31.317  27.383  1.00  0.00     0.031 C 
ATOM     58  C   UNL A   1      44.756  32.218  28.601  1.00  0.00     0.037 A 
BRANCH  45  59
ATOM     59  C   UNL A   1      39.292  30.558  30.967  1.00  0.00     0.064 A 
ATOM     60  C   UNL A   1      39.240  30.391  32.357  1.00  0.00     0.173 A 
ATOM     61  C   UNL A   1      38.149  31.061  30.324  1.00  0.00     0.173 A 
ATOM     62  F   UNL A   1      40.297  29.893  33.017  1.00  0.00    -0.203 F 
ATOM     63  C   UNL A   1      38.074  30.669  33.067  1.00  0.00     0.198 A 
ATOM     64  C   UNL A   1      36.996  31.368  31.040  1.00  0.00     0.198 A 
ATOM     65  F   UNL A   1      38.147  31.245  28.994  1.00  0.00    -0.203 F 
ATOM     66  F   UNL A   1      38.022  30.431  34.386  1.00  0.00    -0.200 F 
ATOM     67  C   UNL A   1      36.955  31.158  32.410  1.00  0.00     0.200 A 
ATOM     68  F   UNL A   1      35.921  31.850  30.403  1.00  0.00    -0.200 F 
ATOM     69  F   UNL A   1      35.831  31.412  33.093  1.00  0.00    -0.200 F 
ENDBRANCH  45  59
BRANCH  46  70
ATOM     70  C   UNL A   1      47.229  27.430  25.846  1.00  0.00     0.064 A 
ATOM     71  C   UNL A   1      48.380  26.937  26.483  1.00  0.00     0.173 A 
ATOM     72  C   UNL A   1      47.287  27.575  24.450  1.00  0.00     0.173 A 
ATOM     73  F   UNL A   1      48.405  26.817  27.820  1.00  0.00    -0.203 F 
ATOM     74  C   UNL A   1      49.536  26.631  25.763  1.00  0.00     0.198 A 
ATOM     75  C   UNL A   1      48.428  27.232  23.727  1.00  0.00     0.198 A 
ATOM     76  F   UNL A   1      46.230  28.062  23.781  1.00  0.00    -0.203 F 
ATOM     77  F   UNL A   1      50.641  26.231  26.409  1.00  0.00    -0.200 F 
ATOM     78  C   UNL A   1      49.557  26.772  24.385  1.00  0.00     0.200 A 
ATOM     79  F   UNL A   1      48.437  27.362  22.392  1.00  0.00    -0.200 F 
ATOM     80  F   UNL A   1      50.668  26.482  23.692  1.00  0.00    -0.200 F 
ENDBRANCH  46  70
BRANCH  58  81
ATOM     81  C   UNL A   1      45.465  33.539  28.685  1.00  0.00     0.064 A 
ATOM     82  C   UNL A   1      45.306  34.527  27.703  1.00  0.00     0.173 A 
ATOM     83  C   UNL A   1      46.289  33.832  29.783  1.00  0.00     0.173 A 
ATOM     84  F   UNL A   1      44.542  34.290  26.625  1.00  0.00    -0.203 F 
ATOM     85  C   UNL A   1      45.965  35.750  27.803  1.00  0.00     0.198 A 
ATOM     86  C   UNL A   1      46.925  35.065  29.894  1.00  0.00     0.198 A 
ATOM     87  F   UNL A   1      46.471  32.923  30.752  1.00  0.00    -0.203 F 
ATOM     88  F   UNL A   1      45.836  36.660  26.828  1.00  0.00    -0.200 F 
ATOM     89  C   UNL A   1      46.769  36.020  28.901  1.00  0.00     0.200 A 
ATOM     90  F   UNL A   1      47.692  35.329  30.961  1.00  0.00    -0.200 F 
ATOM     91  F   UNL A   1      47.400  37.198  28.998  1.00  0.00    -0.200 F 
ENDBRANCH  58  81
ENDBRANCH  32  33
ENDBRANCH  25  27
ENDBRANCH  24  25
ENDBRANCH  23  24
ENDBRANCH  22  23
ENDBRANCH   1  22
TORSDOF 17
ENDMDL
MODEL 3
REMARK VINA RESULT:     -10.8      1.056      3.188
REMARK SMILES CC[C@@](C)(NC(=O)N1CCCC[C@@H]1C)C(=O)OCCOCCOC(=O)c1ccc(-c2c3nc(c(-c4c(F)c(F)c(F)c(F)c4F)c4ccc([nH]4)c(-c4c(F)c(F)c(F)c(F)c4F)c4nc(c(-c5c(F)c(F)c(F)c(F)c5F)c5ccc2[nH]5)C=C4)C=C3)cc1
REMARK SMILES IDX 20 1 19 2 18 3 17 4 15 5 16 6 3 7 4 8 2 9 1 10 5 11 6 12
REMARK SMILES IDX 7 14 8 15 9 16 13 17 10 18 12 19 14 20 11 21 21 22 22 23
REMARK SMILES IDX 23 24 24 25 25 26 26 27 27 28 88 29 28 30 87 31 29 32 30 33
REMARK SMILES IDX 31 34 81 35 32 36 86 37 80 38 82 39 33 40 85 41 79 42 78 43
REMARK SMILES IDX 34 45 66 46 46 47 65 48 47 49 50 50 64 51 83 52 48 53 49 54
REMARK SMILES IDX 63 56 84 57 51 58 35 59 36 60 44 61 37 62 38 63 42 64 45 65
REMARK SMILES IDX 39 66 40 67 43 68 41 69 67 70 68 71 76 72 69 73 70 74 74 75
REMARK SMILES IDX 77 76 71 77 72 78 75 79 73 80 52 81 53 82 61 83 54 84 55 85
REMARK SMILES IDX 59 86 62 87 56 88 57 89 60 90 58 91
REMARK H PARENT 5 13 82 44 50 55
REMARK Flexibility Score: inf
ROOT
ATOM      1  O   UNL A   1      31.402  28.959  23.058  1.00  0.00    -0.374 OA
ENDROOT
BRANCH   1   2
ATOM      2  C   UNL A   1      32.798  28.830  22.692  1.00  0.00     0.202 C 
BRANCH   2   3
ATOM      3  C   UNL A   1      33.569  27.590  22.146  1.00  0.00     0.261 C 
BRANCH   3   4
ATOM      4  O   UNL A   1      33.332  26.398  22.860  1.00  0.00    -0.462 OA
BRANCH   4   5
ATOM      5  C   UNL A   1      32.238  25.694  22.497  1.00  0.00     0.331 C 
ATOM      6  O   UNL A   1      31.846  25.612  21.360  1.00  0.00    -0.249 OA
BRANCH   5   7
ATOM      7  C   UNL A   1      31.570  25.051  23.744  1.00  0.00     0.136 C 
ATOM      8  C   UNL A   1      31.880  25.791  25.043  1.00  0.00     0.047 C 
BRANCH   7   9
ATOM      9  C   UNL A   1      30.023  25.143  23.443  1.00  0.00     0.037 C 
ATOM     10  C   UNL A   1      29.247  26.274  24.138  1.00  0.00     0.007 C 
ENDBRANCH   7   9
BRANCH   7  11
ATOM     11  N   UNL A   1      31.912  23.593  23.934  1.00  0.00    -0.322 N 
ATOM     12  C   UNL A   1      32.944  22.796  24.300  1.00  0.00     0.318 C 
ATOM     13  H   UNL A   1      31.125  23.040  23.724  1.00  0.00     0.166 HD
ATOM     14  O   UNL A   1      32.665  21.601  24.407  1.00  0.00    -0.249 OA
BRANCH  12  15
ATOM     15  N   UNL A   1      34.244  23.243  24.465  1.00  0.00    -0.322 N 
ATOM     16  C   UNL A   1      35.265  22.730  23.545  1.00  0.00     0.121 C 
ATOM     17  C   UNL A   1      34.679  23.627  25.804  1.00  0.00     0.083 C 
ATOM     18  C   UNL A   1      36.762  22.847  23.759  1.00  0.00     0.022 C 
ATOM     19  C   UNL A   1      36.167  23.339  26.105  1.00  0.00     0.025 C 
ATOM     20  C   UNL A   1      33.844  22.938  26.891  1.00  0.00     0.031 C 
ATOM     21  C   UNL A   1      37.124  23.650  24.970  1.00  0.00     0.004 C 
ENDBRANCH  12  15
ENDBRANCH   7  11
ENDBRANCH   5   7
ENDBRANCH   4   5
ENDBRANCH   3   4
ENDBRANCH   2   3
ENDBRANCH   1   2
BRANCH   1  22
ATOM     22  C   UNL A   1      30.829  29.609  24.218  1.00  0.00     0.202 C 
BRANCH  22  23
ATOM     23  C   UNL A   1      31.418  29.475  25.738  1.00  0.00     0.261 C 
BRANCH  23  24
ATOM     24  O   UNL A   1      32.828  29.836  26.071  1.00  0.00    -0.460 OA
BRANCH  24  25
ATOM     25  C   UNL A   1      33.206  30.901  26.889  1.00  0.00     0.338 C 
ATOM     26  O   UNL A   1      32.470  31.839  27.164  1.00  0.00    -0.246 OA
BRANCH  25  27
ATOM     27  C   UNL A   1      34.618  30.764  27.548  1.00  0.00     0.060 A 
ATOM     28  C   UNL A   1      35.211  29.540  27.832  1.00  0.00     0.016 A 
ATOM     29  C   UNL A   1      35.453  31.847  27.854  1.00  0.00     0.016 A 
ATOM     30  C   UNL A   1      36.336  29.343  28.644  1.00  0.00     0.010 A 
ATOM     31  C   UNL A   1      36.719  31.661  28.523  1.00  0.00     0.010 A 
ATOM     32  C   UNL A   1      37.156  30.398  28.984  1.00  0.00    -0.014 A 
BRANCH  32  33
ATOM     33  C   UNL A   1      38.379  30.142  29.839  1.00  0.00     0.031 A 
ATOM     34  C   UNL A   1      39.504  29.321  29.264  1.00  0.00     0.074 A 
ATOM     35  C   UNL A   1      38.604  30.712  31.053  1.00  0.00     0.049 A 
ATOM     36  N   UNL A   1      40.511  28.731  29.861  1.00  0.00    -0.248 NA
ATOM     37  C   UNL A   1      39.497  29.159  27.803  1.00  0.00     0.031 C 
ATOM     38  C   UNL A   1      37.748  31.694  31.723  1.00  0.00     0.029 A 
ATOM     39  N   UNL A   1      39.653  30.557  31.946  1.00  0.00    -0.354 N 
ATOM     40  C   UNL A   1      41.198  28.052  28.862  1.00  0.00     0.074 A 
ATOM     41  C   UNL A   1      40.515  28.334  27.617  1.00  0.00     0.031 C 
ATOM     42  C   UNL A   1      38.308  32.066  32.887  1.00  0.00     0.029 A 
ATOM     43  C   UNL A   1      39.503  31.265  33.122  1.00  0.00     0.049 A 
ATOM     44  H   UNL A   1      40.436  29.990  31.758  1.00  0.00     0.167 HD
ATOM     45  C   UNL A   1      42.285  27.249  28.974  1.00  0.00     0.037 A 
ATOM     46  C   UNL A   1      40.195  31.228  34.284  1.00  0.00     0.037 A 
ATOM     47  C   UNL A   1      43.002  27.018  30.202  1.00  0.00     0.049 A 
ATOM     48  C   UNL A   1      41.347  30.261  34.426  1.00  0.00     0.074 A 
ATOM     49  C   UNL A   1      44.044  26.141  30.451  1.00  0.00     0.029 A 
ATOM     50  N   UNL A   1      42.770  27.705  31.384  1.00  0.00    -0.354 N 
ATOM     51  N   UNL A   1      41.869  29.457  33.533  1.00  0.00    -0.248 NA
ATOM     52  C   UNL A   1      41.987  30.171  35.750  1.00  0.00     0.031 C 
ATOM     53  C   UNL A   1      44.427  26.282  31.790  1.00  0.00     0.029 A 
ATOM     54  C   UNL A   1      43.654  27.279  32.362  1.00  0.00     0.049 A 
ATOM     55  H   UNL A   1      42.079  28.394  31.510  1.00  0.00     0.167 HD
ATOM     56  C   UNL A   1      42.897  28.780  34.179  1.00  0.00     0.074 A 
ATOM     57  C   UNL A   1      42.950  29.289  35.531  1.00  0.00     0.031 C 
ATOM     58  C   UNL A   1      43.713  27.810  33.699  1.00  0.00     0.037 A 
BRANCH  45  59
ATOM     59  C   UNL A   1      42.697  26.491  27.746  1.00  0.00     0.064 A 
ATOM     60  C   UNL A   1      42.183  25.225  27.437  1.00  0.00     0.173 A 
ATOM     61  C   UNL A   1      43.660  27.038  26.881  1.00  0.00     0.173 A 
ATOM     62  F   UNL A   1      41.279  24.649  28.242  1.00  0.00    -0.203 F 
ATOM     63  C   UNL A   1      42.652  24.514  26.333  1.00  0.00     0.198 A 
ATOM     64  C   UNL A   1      44.102  26.339  25.763  1.00  0.00     0.198 A 
ATOM     65  F   UNL A   1      44.181  28.249  27.129  1.00  0.00    -0.203 F 
ATOM     66  F   UNL A   1      42.201  23.273  26.098  1.00  0.00    -0.200 F 
ATOM     67  C   UNL A   1      43.608  25.071  25.497  1.00  0.00     0.200 A 
ATOM     68  F   UNL A   1      45.018  26.885  24.951  1.00  0.00    -0.200 F 
ATOM     69  F   UNL A   1      44.065  24.381  24.445  1.00  0.00    -0.200 F 
ENDBRANCH  45  59
BRANCH  46  70
ATOM     70  C   UNL A   1      39.766  32.044  35.465  1.00  0.00     0.064 A 
ATOM     71  C   UNL A   1      38.779  31.588  36.355  1.00  0.00     0.173 A 
ATOM     72  C   UNL A   1      40.271  33.337  35.680  1.00  0.00     0.173 A 
ATOM     73  F   UNL A   1      38.224  30.380  36.178  1.00  0.00    -0.203 F 
ATOM     74  C   UNL A   1      38.303  32.397  37.390  1.00  0.00     0.198 A 
ATOM     75  C   UNL A   1      39.824  34.128  36.738  1.00  0.00     0.198 A 
ATOM     76  F   UNL A   1      41.200  33.842  34.854  1.00  0.00    -0.203 F 
ATOM     77  F   UNL A   1      37.310  31.960  38.177  1.00  0.00    -0.200 F 
ATOM     78  C   UNL A   1      38.831  33.663  37.585  1.00  0.00     0.200 A 
ATOM     79  F   UNL A   1      40.346  35.349  36.926  1.00  0.00    -0.200 F 
ATOM     80  F   UNL A   1      38.373  34.441  38.575  1.00  0.00    -0.200 F 
ENDBRANCH  46  70
BRANCH  58  81
ATOM     81  C   UNL A   1      44.766  27.270  34.624  1.00  0.00     0.064 A 
ATOM     82  C   UNL A   1      44.535  26.148  35.433  1.00  0.00     0.173 A 
ATOM     83  C   UNL A   1      46.036  27.867  34.677  1.00  0.00     0.173 A 
ATOM     84  F   UNL A   1      43.334  25.551  35.431  1.00  0.00    -0.203 F 
ATOM     85  C   UNL A   1      45.528  25.657  36.279  1.00  0.00     0.198 A 
ATOM     86  C   UNL A   1      47.034  27.358  35.503  1.00  0.00     0.198 A 
ATOM     87  F   UNL A   1      46.309  28.940  33.921  1.00  0.00    -0.203 F 
ATOM     88  F   UNL A   1      45.268  24.613  37.077  1.00  0.00    -0.200 F 
ATOM     89  C   UNL A   1      46.777  26.259  36.309  1.00  0.00     0.200 A 
ATOM     90  F   UNL A   1      48.244  27.933  35.523  1.00  0.00    -0.200 F 
ATOM     91  F   UNL A   1      47.732  25.784  37.120  1.00  0.00    -0.200 F 
ENDBRANCH  58  81
ENDBRANCH  32  33
ENDBRANCH  25  27
ENDBRANCH  24  25
ENDBRANCH  23  24
ENDBRANCH  22  23
ENDBRANCH   1  22
TORSDOF 17
ENDMDL
