MODEL 1
REMARK VINA RESULT:     -12.4      0.000      0.000
REMARK SMILES NC(=O)[C@@H]1CCC[N@@H+]1[C@@H](C(=O)OCCOCCOC(=O)c1ccc(-c2c3nc(c(-c4c(F)c(F)c(F)c(F)c4F)c4ccc([nH]4)c(-c4c(F)c(F)c(F)c(F)c4F)c4nc(c(-c5c(F)c(F)c(F)c(F)c5F)c5ccc2[nH]5)C=C4)C=C3)cc1)c1c[nH]c2cc(OCc3ccccc3)ccc12
REMARK SMILES IDX 14 1 13 2 12 3 10 4 11 5 9 6 8 7 4 8 5 9 6 10 7 11 2 13 1 14
REMARK SMILES IDX 3 17 84 18 85 19 100 20 86 21 87 22 99 23 88 25 98 26 89 27
REMARK SMILES IDX 90 28 91 29 92 30 93 31 97 32 94 33 96 34 95 35 15 36 16 37
REMARK SMILES IDX 17 38 18 39 19 40 20 41 21 42 22 43 83 44 23 45 82 46 24 47
REMARK SMILES IDX 25 48 26 49 76 50 27 51 81 52 75 53 77 54 28 55 80 56 74 57
REMARK SMILES IDX 73 58 29 60 61 61 41 62 60 63 42 64 45 65 59 66 78 67 43 68
REMARK SMILES IDX 44 69 58 71 79 72 46 73 30 74 31 75 39 76 32 77 33 78 37 79
REMARK SMILES IDX 40 80 34 81 35 82 38 83 36 84 62 85 63 86 71 87 64 88 65 89
REMARK SMILES IDX 69 90 72 91 66 92 67 93 70 94 68 95 47 96 48 97 56 98 49 99
REMARK SMILES IDX 50 100 54 101 57 102 51 103 52 104 55 105 53 106
REMARK H PARENT 8 12 1 15 1 16 86 24 77 59 45 70
REMARK Flexibility Score: inf
ROOT
ATOM      1  C   UNL A   1      36.966  22.213  23.812  1.00  0.00     0.202 C 
ENDROOT
BRANCH   1   2
ATOM      2  C   UNL A   1      35.894  23.294  23.975  1.00  0.00     0.261 C 
BRANCH   2   3
ATOM      3  O   UNL A   1      35.066  23.410  22.798  1.00  0.00    -0.459 OA
BRANCH   3   4
ATOM      4  C   UNL A   1      33.730  23.616  23.015  1.00  0.00     0.370 C 
ATOM      5  O   UNL A   1      32.966  24.055  22.156  1.00  0.00    -0.245 OA
BRANCH   4   6
ATOM      6  C   UNL A   1      33.266  23.264  24.435  1.00  0.00     0.329 C 
BRANCH   6   7
ATOM      7  N   UNL A   1      32.731  21.888  24.664  1.00  0.00    -0.309 N 
ATOM      8  C   UNL A   1      32.924  21.063  25.857  1.00  0.00     0.275 C 
ATOM      9  C   UNL A   1      33.505  19.768  25.291  1.00  0.00     0.081 C 
ATOM     10  C   UNL A   1      32.705  19.582  24.020  1.00  0.00     0.068 C 
ATOM     11  C   UNL A   1      32.423  21.002  23.550  1.00  0.00     0.264 C 
ATOM     12  H   UNL A   1      32.002  22.548  24.936  1.00  0.00     0.349 HD
BRANCH   8  13
ATOM     13  C   UNL A   1      33.714  21.582  27.051  1.00  0.00     0.275 C 
ATOM     14  N   UNL A   1      35.071  21.394  26.930  1.00  0.00    -0.365 N 
ATOM     15  H   UNL A   1      35.675  21.694  27.648  1.00  0.00     0.159 HD
ATOM     16  H   UNL A   1      35.438  20.961  26.126  1.00  0.00     0.159 HD
ATOM     17  O   UNL A   1      33.254  22.080  28.070  1.00  0.00    -0.268 OA
ENDBRANCH   8  13
ENDBRANCH   6   7
BRANCH   6  18
ATOM     18  C   UNL A   1      32.278  24.288  25.053  1.00  0.00     0.046 A 
ATOM     19  C   UNL A   1      31.034  23.931  25.558  1.00  0.00     0.094 A 
ATOM     20  C   UNL A   1      32.137  25.714  24.893  1.00  0.00     0.009 A 
ATOM     21  N   UNL A   1      30.164  24.734  24.855  1.00  0.00    -0.361 N 
ATOM     22  C   UNL A   1      30.840  25.835  24.395  1.00  0.00     0.050 A 
ATOM     23  C   UNL A   1      32.919  26.886  24.909  1.00  0.00     0.015 A 
ATOM     24  H   UNL A   1      29.209  24.546  24.706  1.00  0.00     0.166 HD
ATOM     25  C   UNL A   1      30.450  26.889  23.568  1.00  0.00     0.073 A 
ATOM     26  C   UNL A   1      32.463  28.045  24.238  1.00  0.00     0.047 A 
ATOM     27  C   UNL A   1      31.301  27.995  23.474  1.00  0.00     0.121 A 
BRANCH  27  28
ATOM     28  O   UNL A   1      30.906  28.914  22.541  1.00  0.00    -0.489 OA
BRANCH  28  29
ATOM     29  C   UNL A   1      29.517  29.035  22.228  1.00  0.00     0.265 C 
BRANCH  29  30
ATOM     30  C   UNL A   1      29.022  30.466  22.237  1.00  0.00    -0.011 A 
ATOM     31  C   UNL A   1      28.445  30.998  21.076  1.00  0.00     0.007 A 
ATOM     32  C   UNL A   1      29.106  31.287  23.373  1.00  0.00     0.007 A 
ATOM     33  C   UNL A   1      28.004  32.323  21.043  1.00  0.00     0.000 A 
ATOM     34  C   UNL A   1      28.681  32.613  23.336  1.00  0.00     0.000 A 
ATOM     35  C   UNL A   1      28.135  33.133  22.169  1.00  0.00     0.000 A 
ENDBRANCH  29  30
ENDBRANCH  28  29
ENDBRANCH  27  28
ENDBRANCH   6  18
ENDBRANCH   4   6
ENDBRANCH   3   4
ENDBRANCH   2   3
ENDBRANCH   1   2
BRANCH   1  36
ATOM     36  O   UNL A   1      37.564  21.671  24.991  1.00  0.00    -0.374 OA
BRANCH  36  37
ATOM     37  C   UNL A   1      37.815  20.274  25.006  1.00  0.00     0.202 C 
BRANCH  37  38
ATOM     38  C   UNL A   1      39.173  19.793  25.531  1.00  0.00     0.261 C 
BRANCH  38  39
ATOM     39  O   UNL A   1      40.080  20.851  25.830  1.00  0.00    -0.460 OA
BRANCH  39  40
ATOM     40  C   UNL A   1      40.599  20.770  27.076  1.00  0.00     0.338 C 
ATOM     41  O   UNL A   1      40.920  19.778  27.700  1.00  0.00    -0.246 OA
BRANCH  40  42
ATOM     42  C   UNL A   1      40.889  22.132  27.538  1.00  0.00     0.060 A 
ATOM     43  C   UNL A   1      40.189  23.172  26.920  1.00  0.00     0.016 A 
ATOM     44  C   UNL A   1      41.855  22.383  28.513  1.00  0.00     0.016 A 
ATOM     45  C   UNL A   1      40.489  24.487  27.247  1.00  0.00     0.010 A 
ATOM     46  C   UNL A   1      42.158  23.704  28.839  1.00  0.00     0.010 A 
ATOM     47  C   UNL A   1      41.501  24.758  28.179  1.00  0.00    -0.014 A 
BRANCH  47  48
ATOM     48  C   UNL A   1      41.979  26.149  28.324  1.00  0.00     0.031 A 
ATOM     49  C   UNL A   1      43.304  26.521  27.727  1.00  0.00     0.074 A 
ATOM     50  C   UNL A   1      41.210  27.075  28.919  1.00  0.00     0.049 A 
ATOM     51  N   UNL A   1      43.911  27.680  27.706  1.00  0.00    -0.248 NA
ATOM     52  C   UNL A   1      44.046  25.439  27.058  1.00  0.00     0.031 C 
ATOM     53  C   UNL A   1      39.883  26.833  29.482  1.00  0.00     0.029 A 
ATOM     54  N   UNL A   1      41.433  28.409  29.136  1.00  0.00    -0.354 N 
ATOM     55  C   UNL A   1      45.097  27.469  27.018  1.00  0.00     0.074 A 
ATOM     56  C   UNL A   1      45.150  26.064  26.677  1.00  0.00     0.031 C 
ATOM     57  C   UNL A   1      39.404  27.988  29.974  1.00  0.00     0.029 A 
ATOM     58  C   UNL A   1      40.404  29.038  29.790  1.00  0.00     0.049 A 
ATOM     59  H   UNL A   1      42.254  28.872  28.851  1.00  0.00     0.167 HD
ATOM     60  C   UNL A   1      46.049  28.373  26.687  1.00  0.00     0.037 A 
ATOM     61  C   UNL A   1      40.295  30.316  30.201  1.00  0.00     0.037 A 
ATOM     62  C   UNL A   1      45.993  29.767  27.036  1.00  0.00     0.049 A 
ATOM     63  C   UNL A   1      41.421  31.276  29.919  1.00  0.00     0.074 A 
ATOM     64  C   UNL A   1      46.902  30.768  26.744  1.00  0.00     0.029 A 
ATOM     65  N   UNL A   1      44.972  30.353  27.770  1.00  0.00    -0.354 N 
ATOM     66  N   UNL A   1      42.531  31.078  29.248  1.00  0.00    -0.248 NA
ATOM     67  C   UNL A   1      41.282  32.637  30.457  1.00  0.00     0.031 C 
ATOM     68  C   UNL A   1      46.459  31.948  27.351  1.00  0.00     0.029 A 
ATOM     69  C   UNL A   1      45.246  31.695  27.974  1.00  0.00     0.049 A 
ATOM     70  H   UNL A   1      44.171  29.884  28.098  1.00  0.00     0.167 HD
ATOM     71  C   UNL A   1      43.206  32.292  29.257  1.00  0.00     0.074 A 
ATOM     72  C   UNL A   1      42.376  33.224  29.993  1.00  0.00     0.031 C 
ATOM     73  C   UNL A   1      44.405  32.608  28.706  1.00  0.00     0.037 A 
BRANCH  60  74
ATOM     74  C   UNL A   1      47.245  27.866  25.933  1.00  0.00     0.064 A 
ATOM     75  C   UNL A   1      48.414  27.457  26.592  1.00  0.00     0.173 A 
ATOM     76  C   UNL A   1      47.219  27.785  24.533  1.00  0.00     0.173 A 
ATOM     77  F   UNL A   1      48.497  27.530  27.929  1.00  0.00    -0.203 F 
ATOM     78  C   UNL A   1      49.524  27.016  25.874  1.00  0.00     0.198 A 
ATOM     79  C   UNL A   1      48.318  27.315  23.821  1.00  0.00     0.198 A 
ATOM     80  F   UNL A   1      46.124  28.162  23.853  1.00  0.00    -0.203 F 
ATOM     81  F   UNL A   1      50.649  26.683  26.522  1.00  0.00    -0.200 F 
ATOM     82  C   UNL A   1      49.473  26.940  24.491  1.00  0.00     0.200 A 
ATOM     83  F   UNL A   1      48.264  27.232  22.485  1.00  0.00    -0.200 F 
ATOM     84  F   UNL A   1      50.541  26.516  23.801  1.00  0.00    -0.200 F 
ENDBRANCH  60  74
BRANCH  61  85
ATOM     85  C   UNL A   1      39.077  30.761  30.926  1.00  0.00     0.064 A 
ATOM     86  C   UNL A   1      38.970  30.615  32.315  1.00  0.00     0.173 A 
ATOM     87  C   UNL A   1      37.990  31.328  30.244  1.00  0.00     0.173 A 
ATOM     88  F   UNL A   1      39.972  30.055  33.009  1.00  0.00    -0.203 F 
ATOM     89  C   UNL A   1      37.817  31.006  32.994  1.00  0.00     0.198 A 
ATOM     90  C   UNL A   1      36.849  31.744  30.926  1.00  0.00     0.198 A 
ATOM     91  F   UNL A   1      38.041  31.488  28.913  1.00  0.00    -0.203 F 
ATOM     92  F   UNL A   1      37.723  30.816  34.317  1.00  0.00    -0.200 F 
ATOM     93  C   UNL A   1      36.761  31.576  32.300  1.00  0.00     0.200 A 
ATOM     94  F   UNL A   1      35.836  32.305  30.252  1.00  0.00    -0.200 F 
ATOM     95  F   UNL A   1      35.653  31.955  32.952  1.00  0.00    -0.200 F 
ENDBRANCH  61  85
BRANCH  73  96
ATOM     96  C   UNL A   1      44.881  34.025  28.852  1.00  0.00     0.064 A 
ATOM     97  C   UNL A   1      44.527  35.019  27.928  1.00  0.00     0.173 A 
ATOM     98  C   UNL A   1      45.653  34.403  29.962  1.00  0.00     0.173 A 
ATOM     99  F   UNL A   1      43.804  34.704  26.842  1.00  0.00    -0.203 F 
ATOM    100  C   UNL A   1      44.944  36.335  28.100  1.00  0.00     0.198 A 
ATOM    101  C   UNL A   1      46.042  35.727  30.146  1.00  0.00     0.198 A 
ATOM    102  F   UNL A   1      46.012  33.492  30.878  1.00  0.00    -0.203 F 
ATOM    103  F   UNL A   1      44.629  37.261  27.183  1.00  0.00    -0.200 F 
ATOM    104  C   UNL A   1      45.692  36.690  29.213  1.00  0.00     0.200 A 
ATOM    105  F   UNL A   1      46.752  36.070  31.230  1.00  0.00    -0.200 F 
ATOM    106  F   UNL A   1      46.081  37.961  29.383  1.00  0.00    -0.200 F 
ENDBRANCH  73  96
ENDBRANCH  47  48
ENDBRANCH  40  42
ENDBRANCH  39  40
ENDBRANCH  38  39
ENDBRANCH  37  38
ENDBRANCH  36  37
ENDBRANCH   1  36
TORSDOF 20
ENDMDL
MODEL 2
REMARK VINA RESULT:     -12.3      4.765     10.881
REMARK SMILES NC(=O)[C@@H]1CCC[N@@H+]1[C@@H](C(=O)OCCOCCOC(=O)c1ccc(-c2c3nc(c(-c4c(F)c(F)c(F)c(F)c4F)c4ccc([nH]4)c(-c4c(F)c(F)c(F)c(F)c4F)c4nc(c(-c5c(F)c(F)c(F)c(F)c5F)c5ccc2[nH]5)C=C4)C=C3)cc1)c1c[nH]c2cc(OCc3ccccc3)ccc12
REMARK SMILES IDX 14 1 13 2 12 3 10 4 11 5 9 6 8 7 4 8 5 9 6 10 7 11 2 13 1 14
REMARK SMILES IDX 3 17 84 18 85 19 100 20 86 21 87 22 99 23 88 25 98 26 89 27
REMARK SMILES IDX 90 28 91 29 92 30 93 31 97 32 94 33 96 34 95 35 15 36 16 37
REMARK SMILES IDX 17 38 18 39 19 40 20 41 21 42 22 43 83 44 23 45 82 46 24 47
REMARK SMILES IDX 25 48 26 49 76 50 27 51 81 52 75 53 77 54 28 55 80 56 74 57
REMARK SMILES IDX 73 58 29 60 61 61 41 62 60 63 42 64 45 65 59 66 78 67 43 68
REMARK SMILES IDX 44 69 58 71 79 72 46 73 30 74 31 75 39 76 32 77 33 78 37 79
REMARK SMILES IDX 40 80 34 81 35 82 38 83 36 84 62 85 63 86 71 87 64 88 65 89
REMARK SMILES IDX 69 90 72 91 66 92 67 93 70 94 68 95 47 96 48 97 56 98 49 99
REMARK SMILES IDX 50 100 54 101 57 102 51 103 52 104 55 105 53 106
REMARK H PARENT 8 12 1 15 1 16 86 24 77 59 45 70
REMARK Flexibility Score: inf
ROOT
ATOM      1  C   UNL A   1      32.577  29.457  27.272  1.00  0.00     0.202 C 
ENDROOT
BRANCH   1   2
ATOM      2  C   UNL A   1      33.625  28.455  26.781  1.00  0.00     0.261 C 
BRANCH   2   3
ATOM      3  O   UNL A   1      33.462  28.153  25.379  1.00  0.00    -0.459 OA
BRANCH   3   4
ATOM      4  C   UNL A   1      32.672  27.076  25.079  1.00  0.00     0.370 C 
ATOM      5  O   UNL A   1      32.280  26.271  25.922  1.00  0.00    -0.245 OA
BRANCH   4   6
ATOM      6  C   UNL A   1      32.329  26.949  23.589  1.00  0.00     0.329 C 
BRANCH   6   7
ATOM      7  N   UNL A   1      30.886  26.821  23.222  1.00  0.00    -0.309 N 
ATOM      8  C   UNL A   1      29.965  27.913  22.904  1.00  0.00     0.275 C 
ATOM      9  C   UNL A   1      28.809  27.686  23.876  1.00  0.00     0.081 C 
ATOM     10  C   UNL A   1      28.672  26.178  23.870  1.00  0.00     0.068 C 
ATOM     11  C   UNL A   1      30.095  25.679  23.658  1.00  0.00     0.264 C 
ATOM     12  H   UNL A   1      31.429  26.699  22.368  1.00  0.00     0.349 HD
BRANCH   8  13
ATOM     13  C   UNL A   1      30.438  29.360  22.891  1.00  0.00     0.275 C 
ATOM     14  N   UNL A   1      30.659  29.850  21.625  1.00  0.00    -0.365 N 
ATOM     15  H   UNL A   1      30.967  30.778  21.502  1.00  0.00     0.159 HD
ATOM     16  H   UNL A   1      30.507  29.274  20.841  1.00  0.00     0.159 HD
ATOM     17  O   UNL A   1      30.670  30.062  23.867  1.00  0.00    -0.268 OA
ENDBRANCH   8  13
ENDBRANCH   6   7
BRANCH   6  18
ATOM     18  C   UNL A   1      33.127  25.846  22.844  1.00  0.00     0.046 A 
ATOM     19  C   UNL A   1      32.901  25.515  21.514  1.00  0.00     0.094 A 
ATOM     20  C   UNL A   1      33.866  24.701  23.316  1.00  0.00     0.009 A 
ATOM     21  N   UNL A   1      32.643  24.164  21.564  1.00  0.00    -0.361 N 
ATOM     22  C   UNL A   1      33.202  23.640  22.701  1.00  0.00     0.050 A 
ATOM     23  C   UNL A   1      34.843  24.365  24.273  1.00  0.00     0.015 A 
ATOM     24  H   UNL A   1      32.137  23.655  20.889  1.00  0.00     0.166 HD
ATOM     25  C   UNL A   1      33.153  22.362  23.260  1.00  0.00     0.073 A 
ATOM     26  C   UNL A   1      34.953  23.030  24.727  1.00  0.00     0.047 A 
ATOM     27  C   UNL A   1      34.030  22.076  24.311  1.00  0.00     0.121 A 
BRANCH  27  28
ATOM     28  O   UNL A   1      33.819  20.851  24.884  1.00  0.00    -0.489 OA
BRANCH  28  29
ATOM     29  C   UNL A   1      32.691  20.077  24.474  1.00  0.00     0.265 C 
BRANCH  29  30
ATOM     30  C   UNL A   1      32.940  18.583  24.519  1.00  0.00    -0.011 A 
ATOM     31  C   UNL A   1      32.580  17.864  25.667  1.00  0.00     0.007 A 
ATOM     32  C   UNL A   1      33.508  17.880  23.446  1.00  0.00     0.007 A 
ATOM     33  C   UNL A   1      32.821  16.491  25.751  1.00  0.00     0.000 A 
ATOM     34  C   UNL A   1      33.764  16.513  23.535  1.00  0.00     0.000 A 
ATOM     35  C   UNL A   1      33.426  15.819  24.691  1.00  0.00     0.000 A 
ENDBRANCH  29  30
ENDBRANCH  28  29
ENDBRANCH  27  28
ENDBRANCH   6  18
ENDBRANCH   4   6
ENDBRANCH   3   4
ENDBRANCH   2   3
ENDBRANCH   1   2
BRANCH   1  36
ATOM     36  O   UNL A   1      32.638  30.796  26.776  1.00  0.00    -0.374 OA
BRANCH  36  37
ATOM     37  C   UNL A   1      33.224  31.773  27.622  1.00  0.00     0.202 C 
BRANCH  37  38
ATOM     38  C   UNL A   1      32.941  33.250  27.318  1.00  0.00     0.261 C 
BRANCH  38  39
ATOM     39  O   UNL A   1      32.284  33.939  28.379  1.00  0.00    -0.460 OA
BRANCH  39  40
ATOM     40  C   UNL A   1      32.973  35.014  28.823  1.00  0.00     0.338 C 
ATOM     41  O   UNL A   1      32.671  36.189  28.751  1.00  0.00    -0.246 OA
BRANCH  40  42
ATOM     42  C   UNL A   1      34.126  34.532  29.591  1.00  0.00     0.060 A 
ATOM     43  C   UNL A   1      35.380  34.637  28.982  1.00  0.00     0.016 A 
ATOM     44  C   UNL A   1      33.975  33.949  30.850  1.00  0.00     0.016 A 
ATOM     45  C   UNL A   1      36.495  34.111  29.618  1.00  0.00     0.010 A 
ATOM     46  C   UNL A   1      35.095  33.418  31.487  1.00  0.00     0.010 A 
ATOM     47  C   UNL A   1      36.351  33.465  30.855  1.00  0.00    -0.014 A 
BRANCH  47  48
ATOM     48  C   UNL A   1      37.492  32.695  31.392  1.00  0.00     0.031 A 
ATOM     49  C   UNL A   1      38.004  33.028  32.762  1.00  0.00     0.074 A 
ATOM     50  C   UNL A   1      38.014  31.674  30.693  1.00  0.00     0.049 A 
ATOM     51  N   UNL A   1      38.970  32.473  33.446  1.00  0.00    -0.248 NA
ATOM     52  C   UNL A   1      37.331  34.137  33.459  1.00  0.00     0.031 C 
ATOM     53  C   UNL A   1      37.554  31.230  29.379  1.00  0.00     0.029 A 
ATOM     54  N   UNL A   1      39.038  30.818  31.002  1.00  0.00    -0.354 N 
ATOM     55  C   UNL A   1      39.016  33.157  34.653  1.00  0.00     0.074 A 
ATOM     56  C   UNL A   1      38.013  34.197  34.593  1.00  0.00     0.031 C 
ATOM     57  C   UNL A   1      38.291  30.173  28.996  1.00  0.00     0.029 A 
ATOM     58  C   UNL A   1      39.292  29.891  30.023  1.00  0.00     0.049 A 
ATOM     59  H   UNL A   1      39.543  30.863  31.846  1.00  0.00     0.167 HD
ATOM     60  C   UNL A   1      39.814  32.924  35.722  1.00  0.00     0.037 A 
ATOM     61  C   UNL A   1      40.238  28.933  29.965  1.00  0.00     0.037 A 
ATOM     62  C   UNL A   1      40.815  31.892  35.771  1.00  0.00     0.049 A 
ATOM     63  C   UNL A   1      41.188  28.770  31.122  1.00  0.00     0.074 A 
ATOM     64  C   UNL A   1      41.672  31.568  36.807  1.00  0.00     0.029 A 
ATOM     65  N   UNL A   1      41.100  31.022  34.727  1.00  0.00    -0.354 N 
ATOM     66  N   UNL A   1      41.213  29.404  32.271  1.00  0.00    -0.248 NA
ATOM     67  C   UNL A   1      42.246  27.761  30.972  1.00  0.00     0.031 C 
ATOM     68  C   UNL A   1      42.515  30.541  36.369  1.00  0.00     0.029 A 
ATOM     69  C   UNL A   1      42.146  30.186  35.080  1.00  0.00     0.049 A 
ATOM     70  H   UNL A   1      40.628  31.003  33.863  1.00  0.00     0.167 HD
ATOM     71  C   UNL A   1      42.266  28.853  32.989  1.00  0.00     0.074 A 
ATOM     72  C   UNL A   1      42.850  27.825  32.151  1.00  0.00     0.031 C 
ATOM     73  C   UNL A   1      42.710  29.167  34.232  1.00  0.00     0.037 A 
BRANCH  60  74
ATOM     74  C   UNL A   1      39.652  33.828  36.910  1.00  0.00     0.064 A 
ATOM     75  C   UNL A   1      38.801  33.499  37.976  1.00  0.00     0.173 A 
ATOM     76  C   UNL A   1      40.361  35.035  36.985  1.00  0.00     0.173 A 
ATOM     77  F   UNL A   1      38.088  32.363  37.947  1.00  0.00    -0.203 F 
ATOM     78  C   UNL A   1      38.642  34.363  39.058  1.00  0.00     0.198 A 
ATOM     79  C   UNL A   1      40.223  35.881  38.081  1.00  0.00     0.198 A 
ATOM     80  F   UNL A   1      41.190  35.397  35.993  1.00  0.00    -0.203 F 
ATOM     81  F   UNL A   1      37.781  34.054  40.038  1.00  0.00    -0.200 F 
ATOM     82  C   UNL A   1      39.357  35.549  39.112  1.00  0.00     0.200 A 
ATOM     83  F   UNL A   1      40.923  37.023  38.137  1.00  0.00    -0.200 F 
ATOM     84  F   UNL A   1      39.203  36.380  40.152  1.00  0.00    -0.200 F 
ENDBRANCH  60  74
BRANCH  61  85
ATOM     85  C   UNL A   1      40.334  28.058  28.769  1.00  0.00     0.064 A 
ATOM     86  C   UNL A   1      39.688  26.815  28.730  1.00  0.00     0.173 A 
ATOM     87  C   UNL A   1      41.084  28.439  27.646  1.00  0.00     0.173 A 
ATOM     88  F   UNL A   1      38.980  26.395  29.789  1.00  0.00    -0.203 F 
ATOM     89  C   UNL A   1      39.799  25.980  27.619  1.00  0.00     0.198 A 
ATOM     90  C   UNL A   1      41.172  27.616  26.526  1.00  0.00     0.198 A 
ATOM     91  F   UNL A   1      41.723  29.618  27.634  1.00  0.00    -0.203 F 
ATOM     92  F   UNL A   1      39.207  24.778  27.626  1.00  0.00    -0.200 F 
ATOM     93  C   UNL A   1      40.535  26.384  26.516  1.00  0.00     0.200 A 
ATOM     94  F   UNL A   1      41.874  28.017  25.458  1.00  0.00    -0.200 F 
ATOM     95  F   UNL A   1      40.640  25.583  25.447  1.00  0.00    -0.200 F 
ENDBRANCH  61  85
BRANCH  73  96
ATOM     96  C   UNL A   1      43.866  28.376  34.774  1.00  0.00     0.064 A 
ATOM     97  C   UNL A   1      45.188  28.828  34.650  1.00  0.00     0.173 A 
ATOM     98  C   UNL A   1      43.642  27.181  35.476  1.00  0.00     0.173 A 
ATOM     99  F   UNL A   1      45.455  29.956  33.975  1.00  0.00    -0.203 F 
ATOM    100  C   UNL A   1      46.245  28.103  35.194  1.00  0.00     0.198 A 
ATOM    101  C   UNL A   1      44.699  26.475  36.043  1.00  0.00     0.198 A 
ATOM    102  F   UNL A   1      42.396  26.709  35.627  1.00  0.00    -0.203 F 
ATOM    103  F   UNL A   1      47.504  28.531  35.028  1.00  0.00    -0.200 F 
ATOM    104  C   UNL A   1      45.999  26.932  35.897  1.00  0.00     0.200 A 
ATOM    105  F   UNL A   1      44.457  25.353  36.735  1.00  0.00    -0.200 F 
ATOM    106  F   UNL A   1      47.016  26.243  36.431  1.00  0.00    -0.200 F 
ENDBRANCH  73  96
ENDBRANCH  47  48
ENDBRANCH  40  42
ENDBRANCH  39  40
ENDBRANCH  38  39
ENDBRANCH  37  38
ENDBRANCH  36  37
ENDBRANCH   1  36
TORSDOF 20
ENDMDL
MODEL 3
REMARK VINA RESULT:     -12.3      1.725      2.508
REMARK SMILES NC(=O)[C@@H]1CCC[N@@H+]1[C@@H](C(=O)OCCOCCOC(=O)c1ccc(-c2c3nc(c(-c4c(F)c(F)c(F)c(F)c4F)c4ccc([nH]4)c(-c4c(F)c(F)c(F)c(F)c4F)c4nc(c(-c5c(F)c(F)c(F)c(F)c5F)c5ccc2[nH]5)C=C4)C=C3)cc1)c1c[nH]c2cc(OCc3ccccc3)ccc12
REMARK SMILES IDX 14 1 13 2 12 3 10 4 11 5 9 6 8 7 4 8 5 9 6 10 7 11 2 13 1 14
REMARK SMILES IDX 3 17 84 18 85 19 100 20 86 21 87 22 99 23 88 25 98 26 89 27
REMARK SMILES IDX 90 28 91 29 92 30 93 31 97 32 94 33 96 34 95 35 15 36 16 37
REMARK SMILES IDX 17 38 18 39 19 40 20 41 21 42 22 43 83 44 23 45 82 46 24 47
REMARK SMILES IDX 25 48 26 49 76 50 27 51 81 52 75 53 77 54 28 55 80 56 74 57
REMARK SMILES IDX 73 58 29 60 61 61 41 62 60 63 42 64 45 65 59 66 78 67 43 68
REMARK SMILES IDX 44 69 58 71 79 72 46 73 30 74 31 75 39 76 32 77 33 78 37 79
REMARK SMILES IDX 40 80 34 81 35 82 38 83 36 84 62 85 63 86 71 87 64 88 65 89
REMARK SMILES IDX 69 90 72 91 66 92 67 93 70 94 68 95 47 96 48 97 56 98 49 99
REMARK SMILES IDX 50 100 54 101 57 102 51 103 52 104 55 105 53 106
REMARK H PARENT 8 12 1 15 1 16 86 24 77 59 45 70
REMARK Flexibility Score: inf
ROOT
ATOM      1  C   UNL A   1      37.596  22.511  25.833  1.00  0.00     0.202 C 
ENDROOT
BRANCH   1   2
ATOM      2  C   UNL A   1      37.054  23.460  24.761  1.00  0.00     0.261 C 
BRANCH   2   3
ATOM      3  O   UNL A   1      36.344  22.749  23.725  1.00  0.00    -0.459 OA
BRANCH   3   4
ATOM      4  C   UNL A   1      35.017  23.056  23.579  1.00  0.00     0.370 C 
ATOM      5  O   UNL A   1      34.597  23.860  22.748  1.00  0.00    -0.245 OA
BRANCH   4   6
ATOM      6  C   UNL A   1      34.094  22.319  24.559  1.00  0.00     0.329 C 
BRANCH   6   7
ATOM      7  N   UNL A   1      32.884  21.648  23.995  1.00  0.00    -0.309 N 
ATOM      8  C   UNL A   1      32.522  20.237  24.134  1.00  0.00     0.275 C 
ATOM      9  C   UNL A   1      32.342  19.782  22.687  1.00  0.00     0.081 C 
ATOM     10  C   UNL A   1      31.652  20.972  22.056  1.00  0.00     0.068 C 
ATOM     11  C   UNL A   1      32.217  22.168  22.809  1.00  0.00     0.264 C 
ATOM     12  H   UNL A   1      32.615  22.062  24.887  1.00  0.00     0.349 HD
BRANCH   8  13
ATOM     13  C   UNL A   1      33.388  19.281  24.942  1.00  0.00     0.275 C 
ATOM     14  N   UNL A   1      32.955  19.115  26.237  1.00  0.00    -0.365 N 
ATOM     15  H   UNL A   1      33.445  18.516  26.847  1.00  0.00     0.159 HD
ATOM     16  H   UNL A   1      32.156  19.594  26.554  1.00  0.00     0.159 HD
ATOM     17  O   UNL A   1      34.408  18.720  24.562  1.00  0.00    -0.268 OA
ENDBRANCH   8  13
ENDBRANCH   6   7
BRANCH   6  18
ATOM     18  C   UNL A   1      33.663  23.165  25.786  1.00  0.00     0.046 A 
ATOM     19  C   UNL A   1      32.927  22.646  26.843  1.00  0.00     0.094 A 
ATOM     20  C   UNL A   1      33.487  24.585  25.968  1.00  0.00     0.009 A 
ATOM     21  N   UNL A   1      31.829  23.474  26.902  1.00  0.00    -0.361 N 
ATOM     22  C   UNL A   1      32.142  24.679  26.325  1.00  0.00     0.050 A 
ATOM     23  C   UNL A   1      34.161  25.797  25.726  1.00  0.00     0.015 A 
ATOM     24  H   UNL A   1      30.957  23.239  27.296  1.00  0.00     0.166 HD
ATOM     25  C   UNL A   1      31.371  25.809  26.052  1.00  0.00     0.073 A 
ATOM     26  C   UNL A   1      33.429  27.004  25.632  1.00  0.00     0.047 A 
ATOM     27  C   UNL A   1      32.038  26.977  25.670  1.00  0.00     0.121 A 
BRANCH  27  28
ATOM     28  O   UNL A   1      31.199  27.990  25.292  1.00  0.00    -0.489 OA
BRANCH  28  29
ATOM     29  C   UNL A   1      31.051  28.288  23.903  1.00  0.00     0.265 C 
BRANCH  29  30
ATOM     30  C   UNL A   1      29.851  29.162  23.601  1.00  0.00    -0.011 A 
ATOM     31  C   UNL A   1      28.700  28.579  23.053  1.00  0.00     0.007 A 
ATOM     32  C   UNL A   1      29.837  30.541  23.861  1.00  0.00     0.007 A 
ATOM     33  C   UNL A   1      27.588  29.361  22.738  1.00  0.00     0.000 A 
ATOM     34  C   UNL A   1      28.733  31.325  23.532  1.00  0.00     0.000 A 
ATOM     35  C   UNL A   1      27.610  30.736  22.964  1.00  0.00     0.000 A 
ENDBRANCH  29  30
ENDBRANCH  28  29
ENDBRANCH  27  28
ENDBRANCH   6  18
ENDBRANCH   4   6
ENDBRANCH   3   4
ENDBRANCH   2   3
ENDBRANCH   1   2
BRANCH   1  36
ATOM     36  O   UNL A   1      38.689  21.657  25.488  1.00  0.00    -0.374 OA
BRANCH  36  37
ATOM     37  C   UNL A   1      38.374  20.333  25.086  1.00  0.00     0.202 C 
BRANCH  37  38
ATOM     38  C   UNL A   1      39.329  19.208  25.503  1.00  0.00     0.261 C 
BRANCH  38  39
ATOM     39  O   UNL A   1      40.231  19.577  26.543  1.00  0.00    -0.460 OA
BRANCH  39  40
ATOM     40  C   UNL A   1      41.530  19.482  26.180  1.00  0.00     0.338 C 
ATOM     41  O   UNL A   1      42.089  18.571  25.601  1.00  0.00    -0.246 OA
BRANCH  40  42
ATOM     42  C   UNL A   1      42.177  20.770  26.454  1.00  0.00     0.060 A 
ATOM     43  C   UNL A   1      42.289  21.149  27.794  1.00  0.00     0.016 A 
ATOM     44  C   UNL A   1      42.614  21.602  25.423  1.00  0.00     0.016 A 
ATOM     45  C   UNL A   1      42.804  22.398  28.111  1.00  0.00     0.010 A 
ATOM     46  C   UNL A   1      43.128  22.858  25.741  1.00  0.00     0.010 A 
ATOM     47  C   UNL A   1      43.189  23.272  27.084  1.00  0.00    -0.014 A 
BRANCH  47  48
ATOM     48  C   UNL A   1      43.491  24.678  27.424  1.00  0.00     0.031 A 
ATOM     49  C   UNL A   1      44.882  25.191  27.191  1.00  0.00     0.074 A 
ATOM     50  C   UNL A   1      42.523  25.495  27.868  1.00  0.00     0.049 A 
ATOM     51  N   UNL A   1      45.369  26.389  27.388  1.00  0.00    -0.248 NA
ATOM     52  C   UNL A   1      45.856  24.222  26.660  1.00  0.00     0.031 C 
ATOM     53  C   UNL A   1      41.127  25.114  28.074  1.00  0.00     0.029 A 
ATOM     54  N   UNL A   1      42.568  26.820  28.211  1.00  0.00    -0.354 N 
ATOM     55  C   UNL A   1      46.699  26.320  26.998  1.00  0.00     0.074 A 
ATOM     56  C   UNL A   1      46.958  24.954  26.597  1.00  0.00     0.031 C 
ATOM     57  C   UNL A   1      40.443  26.189  28.502  1.00  0.00     0.029 A 
ATOM     58  C   UNL A   1      41.360  27.320  28.631  1.00  0.00     0.049 A 
ATOM     59  H   UNL A   1      43.387  27.363  28.162  1.00  0.00     0.167 HD
ATOM     60  C   UNL A   1      47.618  27.314  26.963  1.00  0.00     0.037 A 
ATOM     61  C   UNL A   1      41.043  28.550  29.078  1.00  0.00     0.037 A 
ATOM     62  C   UNL A   1      47.356  28.668  27.371  1.00  0.00     0.049 A 
ATOM     63  C   UNL A   1      42.113  29.608  29.137  1.00  0.00     0.074 A 
ATOM     64  C   UNL A   1      48.214  29.753  27.369  1.00  0.00     0.029 A 
ATOM     65  N   UNL A   1      46.141  29.119  27.867  1.00  0.00    -0.354 N 
ATOM     66  N   UNL A   1      43.363  29.545  28.745  1.00  0.00    -0.248 NA
ATOM     67  C   UNL A   1      41.728  30.908  29.704  1.00  0.00     0.031 C 
ATOM     68  C   UNL A   1      47.536  30.846  27.919  1.00  0.00     0.029 A 
ATOM     69  C   UNL A   1      46.237  30.457  28.211  1.00  0.00     0.049 A 
ATOM     70  H   UNL A   1      45.330  28.568  27.962  1.00  0.00     0.167 HD
ATOM     71  C   UNL A   1      43.905  30.800  28.992  1.00  0.00     0.074 A 
ATOM     72  C   UNL A   1      42.844  31.608  29.557  1.00  0.00     0.031 C 
ATOM     73  C   UNL A   1      45.167  31.245  28.769  1.00  0.00     0.037 A 
BRANCH  60  74
ATOM     74  C   UNL A   1      48.999  26.957  26.495  1.00  0.00     0.064 A 
ATOM     75  C   UNL A   1      49.975  26.470  27.378  1.00  0.00     0.173 A 
ATOM     76  C   UNL A   1      49.349  27.099  25.144  1.00  0.00     0.173 A 
ATOM     77  F   UNL A   1      49.697  26.330  28.683  1.00  0.00    -0.203 F 
ATOM     78  C   UNL A   1      51.260  26.170  26.930  1.00  0.00     0.198 A 
ATOM     79  C   UNL A   1      50.624  26.769  24.695  1.00  0.00     0.198 A 
ATOM     80  F   UNL A   1      48.453  27.559  24.258  1.00  0.00    -0.203 F 
ATOM     81  F   UNL A   1      52.192  25.760  27.802  1.00  0.00    -0.200 F 
ATOM     82  C   UNL A   1      51.582  26.315  25.590  1.00  0.00     0.200 A 
ATOM     83  F   UNL A   1      50.931  26.899  23.397  1.00  0.00    -0.200 F 
ATOM     84  F   UNL A   1      52.818  26.026  25.160  1.00  0.00    -0.200 F 
ENDBRANCH  60  74
BRANCH  61  85
ATOM     85  C   UNL A   1      39.652  28.846  29.509  1.00  0.00     0.064 A 
ATOM     86  C   UNL A   1      38.725  29.407  28.620  1.00  0.00     0.173 A 
ATOM     87  C   UNL A   1      39.225  28.587  30.820  1.00  0.00     0.173 A 
ATOM     88  F   UNL A   1      39.093  29.696  27.363  1.00  0.00    -0.203 F 
ATOM     89  C   UNL A   1      37.427  29.710  29.030  1.00  0.00     0.198 A 
ATOM     90  C   UNL A   1      37.920  28.865  31.220  1.00  0.00     0.198 A 
ATOM     91  F   UNL A   1      40.074  28.052  31.710  1.00  0.00    -0.203 F 
ATOM     92  F   UNL A   1      36.574  30.286  28.172  1.00  0.00    -0.200 F 
ATOM     93  C   UNL A   1      37.025  29.433  30.327  1.00  0.00     0.200 A 
ATOM     94  F   UNL A   1      37.533  28.584  32.472  1.00  0.00    -0.200 F 
ATOM     95  F   UNL A   1      35.777  29.722  30.720  1.00  0.00    -0.200 F 
ENDBRANCH  61  85
BRANCH  73  96
ATOM     96  C   UNL A   1      45.466  32.677  29.111  1.00  0.00     0.064 A 
ATOM     97  C   UNL A   1      45.230  33.715  28.198  1.00  0.00     0.173 A 
ATOM     98  C   UNL A   1      45.941  33.017  30.387  1.00  0.00     0.173 A 
ATOM     99  F   UNL A   1      44.790  33.439  26.961  1.00  0.00    -0.203 F 
ATOM    100  C   UNL A   1      45.474  35.041  28.545  1.00  0.00     0.198 A 
ATOM    101  C   UNL A   1      46.156  34.347  30.740  1.00  0.00     0.198 A 
ATOM    102  F   UNL A   1      46.179  32.062  31.298  1.00  0.00    -0.203 F 
ATOM    103  F   UNL A   1      45.279  36.014  27.645  1.00  0.00    -0.200 F 
ATOM    104  C   UNL A   1      45.928  35.356  29.818  1.00  0.00     0.200 A 
ATOM    105  F   UNL A   1      46.580  34.650  31.974  1.00  0.00    -0.200 F 
ATOM    106  F   UNL A   1      46.150  36.634  30.155  1.00  0.00    -0.200 F 
ENDBRANCH  73  96
ENDBRANCH  47  48
ENDBRANCH  40  42
ENDBRANCH  39  40
ENDBRANCH  38  39
ENDBRANCH  37  38
ENDBRANCH  36  37
ENDBRANCH   1  36
TORSDOF 20
ENDMDL
