MODEL 1
REMARK VINA RESULT:      -9.9      0.000      0.000
REMARK SMILES O=C(N[C@@H](Cc1ccccc1)C(=O)N[C@@H](CS)C(=O)N[C@@H](CO)C(=O)OCCOCCOC(=O)c1ccc(-c2c3nc(c(-c4c(F)c(F)c(F)c(F)c4F)c4ccc([nH]4)c(-c4c(F)c(F)c(F)c(F)c4F)c4nc(c(-c5c(F)c(F)c(F)c(F)c5F)c5ccc2[nH]5)C=C4)C=C3)cc1)c1ccc(F)cc1
REMARK SMILES IDX 27 1 26 2 24 3 25 4 21 5 20 6 18 7 19 8 15 10 14 11 12 12
REMARK SMILES IDX 13 13 4 15 3 16 1 17 2 18 98 20 99 21 104 22 100 23 103 24
REMARK SMILES IDX 101 25 102 26 5 27 6 28 7 29 11 30 8 31 10 32 9 33 16 34
REMARK SMILES IDX 17 35 22 37 23 38 28 40 29 41 30 42 31 43 32 44 33 45 34 46
REMARK SMILES IDX 35 47 36 48 97 49 37 50 96 51 38 52 39 53 40 54 90 55 41 56
REMARK SMILES IDX 95 57 89 58 91 59 42 60 94 61 88 62 87 63 43 65 75 66 55 67
REMARK SMILES IDX 74 68 56 69 59 70 73 71 92 72 57 73 58 74 72 76 93 77 60 78
REMARK SMILES IDX 44 79 45 80 53 81 46 82 47 83 51 84 54 85 48 86 49 87 52 88
REMARK SMILES IDX 50 89 76 90 77 91 85 92 78 93 79 94 83 95 86 96 80 97 81 98
REMARK SMILES IDX 84 99 82 100 61 101 62 102 70 103 63 104 64 105 68 106
REMARK SMILES IDX 71 107 65 108 66 109 69 110 67 111
REMARK H PARENT 20 9 14 14 3 19 17 36 23 39 91 64 59 75
REMARK Flexibility Score: inf
ROOT
ATOM      1  C   UNL A   1      34.441  32.419  28.387  1.00  0.00     0.261 C 
ENDROOT
BRANCH   1   2
ATOM      2  O   UNL A   1      33.650  31.826  27.346  1.00  0.00    -0.462 OA
BRANCH   2   3
ATOM      3  C   UNL A   1      33.860  30.495  27.150  1.00  0.00     0.331 C 
ATOM      4  O   UNL A   1      34.715  29.833  27.727  1.00  0.00    -0.250 OA
BRANCH   3   5
ATOM      5  C   UNL A   1      32.936  29.918  26.072  1.00  0.00     0.218 C 
BRANCH   5   6
ATOM      6  N   UNL A   1      33.613  29.040  25.086  1.00  0.00    -0.339 N 
ATOM      7  C   UNL A   1      33.550  27.683  25.250  1.00  0.00     0.244 C 
ATOM      8  O   UNL A   1      34.254  27.175  26.126  1.00  0.00    -0.273 OA
ATOM      9  H   UNL A   1      34.100  29.428  24.324  1.00  0.00     0.164 HD
BRANCH   7  10
ATOM     10  C   UNL A   1      32.611  26.829  24.340  1.00  0.00     0.181 C 
BRANCH  10  11
ATOM     11  N   UNL A   1      31.423  26.529  25.145  1.00  0.00    -0.342 N 
ATOM     12  C   UNL A   1      31.265  25.551  26.086  1.00  0.00     0.243 C 
ATOM     13  O   UNL A   1      30.621  25.858  27.096  1.00  0.00    -0.273 OA
ATOM     14  H   UNL A   1      30.639  27.104  24.987  1.00  0.00     0.164 HD
BRANCH  12  15
ATOM     15  C   UNL A   1      31.818  24.114  25.931  1.00  0.00     0.176 C 
BRANCH  15  16
ATOM     16  N   UNL A   1      32.560  23.676  27.114  1.00  0.00    -0.340 N 
ATOM     17  O   UNL A   1      34.326  22.883  28.271  1.00  0.00    -0.269 OA
ATOM     18  C   UNL A   1      33.845  23.185  27.183  1.00  0.00     0.251 C 
ATOM     19  H   UNL A   1      32.077  23.740  27.970  1.00  0.00     0.164 HD
BRANCH  18  20
ATOM     20  C   UNL A   1      34.624  22.935  25.945  1.00  0.00     0.040 A 
ATOM     21  C   UNL A   1      35.171  21.679  25.648  1.00  0.00     0.017 A 
ATOM     22  C   UNL A   1      34.816  24.008  25.064  1.00  0.00     0.017 A 
ATOM     23  C   UNL A   1      35.974  21.522  24.516  1.00  0.00     0.040 A 
ATOM     24  C   UNL A   1      35.609  23.843  23.926  1.00  0.00     0.040 A 
ATOM     25  C   UNL A   1      36.193  22.606  23.671  1.00  0.00     0.123 A 
ATOM     26  F   UNL A   1      36.978  22.457  22.596  1.00  0.00    -0.207 F 
ENDBRANCH  18  20
ENDBRANCH  15  16
BRANCH  15  27
ATOM     27  C   UNL A   1      30.899  23.057  25.293  1.00  0.00     0.070 C 
BRANCH  27  28
ATOM     28  C   UNL A   1      31.499  21.998  24.403  1.00  0.00    -0.045 A 
ATOM     29  C   UNL A   1      31.859  20.743  24.911  1.00  0.00     0.004 A 
ATOM     30  C   UNL A   1      31.759  22.277  23.055  1.00  0.00     0.004 A 
ATOM     31  C   UNL A   1      32.432  19.779  24.078  1.00  0.00     0.000 A 
ATOM     32  C   UNL A   1      32.293  21.301  22.213  1.00  0.00     0.000 A 
ATOM     33  C   UNL A   1      32.631  20.051  22.724  1.00  0.00     0.000 A 
ENDBRANCH  27  28
ENDBRANCH  15  27
ENDBRANCH  12  15
ENDBRANCH  10  11
BRANCH  10  34
ATOM     34  C   UNL A   1      32.301  27.337  22.929  1.00  0.00     0.101 C 
BRANCH  34  35
ATOM     35  S   UNL A   1      30.640  28.018  22.648  1.00  0.00    -0.177 SA
ATOM     36  H   UNL A   1      30.413  28.125  21.312  1.00  0.00     0.102 HD
ENDBRANCH  34  35
ENDBRANCH  10  34
ENDBRANCH   7  10
ENDBRANCH   5   6
BRANCH   5  37
ATOM     37  C   UNL A   1      31.786  29.198  26.795  1.00  0.00     0.193 C 
BRANCH  37  38
ATOM     38  O   UNL A   1      32.284  28.441  27.901  1.00  0.00    -0.394 OA
ATOM     39  H   UNL A   1      31.545  28.177  28.471  1.00  0.00     0.210 HD
ENDBRANCH  37  38
ENDBRANCH   5  37
ENDBRANCH   3   5
ENDBRANCH   2   3
ENDBRANCH   1   2
BRANCH   1  40
ATOM     40  C   UNL A   1      34.068  33.891  28.576  1.00  0.00     0.202 C 
BRANCH  40  41
ATOM     41  O   UNL A   1      33.356  34.208  29.773  1.00  0.00    -0.374 OA
BRANCH  41  42
ATOM     42  C   UNL A   1      34.110  34.740  30.862  1.00  0.00     0.202 C 
BRANCH  42  43
ATOM     43  C   UNL A   1      34.502  33.751  31.967  1.00  0.00     0.261 C 
BRANCH  43  44
ATOM     44  O   UNL A   1      35.913  33.772  32.248  1.00  0.00    -0.460 OA
BRANCH  44  45
ATOM     45  C   UNL A   1      36.419  32.580  32.653  1.00  0.00     0.338 C 
ATOM     46  O   UNL A   1      35.867  31.730  33.328  1.00  0.00    -0.246 OA
BRANCH  45  47
ATOM     47  C   UNL A   1      37.727  32.340  32.018  1.00  0.00     0.060 A 
ATOM     48  C   UNL A   1      37.821  32.572  30.641  1.00  0.00     0.016 A 
ATOM     49  C   UNL A   1      38.800  31.793  32.726  1.00  0.00     0.016 A 
ATOM     50  C   UNL A   1      38.980  32.217  29.956  1.00  0.00     0.010 A 
ATOM     51  C   UNL A   1      39.961  31.430  32.032  1.00  0.00     0.010 A 
ATOM     52  C   UNL A   1      40.042  31.607  30.639  1.00  0.00    -0.014 A 
BRANCH  52  53
ATOM     53  C   UNL A   1      41.168  31.056  29.846  1.00  0.00     0.031 A 
ATOM     54  C   UNL A   1      42.393  31.897  29.620  1.00  0.00     0.074 A 
ATOM     55  C   UNL A   1      41.135  29.784  29.414  1.00  0.00     0.049 A 
ATOM     56  N   UNL A   1      43.539  31.568  29.079  1.00  0.00    -0.248 NA
ATOM     57  C   UNL A   1      42.319  33.295  30.070  1.00  0.00     0.031 C 
ATOM     58  C   UNL A   1      40.013  28.865  29.591  1.00  0.00     0.029 A 
ATOM     59  N   UNL A   1      42.084  29.040  28.759  1.00  0.00    -0.354 N 
ATOM     60  C   UNL A   1      44.327  32.711  29.136  1.00  0.00     0.074 A 
ATOM     61  C   UNL A   1      43.512  33.754  29.724  1.00  0.00     0.031 C 
ATOM     62  C   UNL A   1      40.345  27.670  29.072  1.00  0.00     0.029 A 
ATOM     63  C   UNL A   1      41.696  27.746  28.520  1.00  0.00     0.049 A 
ATOM     64  H   UNL A   1      42.959  29.400  28.486  1.00  0.00     0.167 HD
ATOM     65  C   UNL A   1      45.616  32.871  28.752  1.00  0.00     0.037 A 
ATOM     66  C   UNL A   1      42.362  26.734  27.931  1.00  0.00     0.037 A 
ATOM     67  C   UNL A   1      46.421  31.838  28.154  1.00  0.00     0.049 A 
ATOM     68  C   UNL A   1      43.776  26.952  27.463  1.00  0.00     0.074 A 
ATOM     69  C   UNL A   1      47.740  31.898  27.739  1.00  0.00     0.029 A 
ATOM     70  N   UNL A   1      45.974  30.554  27.876  1.00  0.00    -0.354 N 
ATOM     71  N   UNL A   1      44.527  28.023  27.561  1.00  0.00    -0.248 NA
ATOM     72  C   UNL A   1      44.438  25.812  26.815  1.00  0.00     0.031 C 
ATOM     73  C   UNL A   1      48.077  30.665  27.166  1.00  0.00     0.029 A 
ATOM     74  C   UNL A   1      46.983  29.820  27.270  1.00  0.00     0.049 A 
ATOM     75  H   UNL A   1      45.073  30.214  28.078  1.00  0.00     0.167 HD
ATOM     76  C   UNL A   1      45.754  27.682  27.008  1.00  0.00     0.074 A 
ATOM     77  C   UNL A   1      45.652  26.295  26.596  1.00  0.00     0.031 C 
ATOM     78  C   UNL A   1      46.864  28.446  26.854  1.00  0.00     0.037 A 
BRANCH  65  79
ATOM     79  C   UNL A   1      46.226  34.230  28.949  1.00  0.00     0.064 A 
ATOM     80  C   UNL A   1      46.854  34.587  30.152  1.00  0.00     0.173 A 
ATOM     81  C   UNL A   1      46.188  35.184  27.921  1.00  0.00     0.173 A 
ATOM     82  F   UNL A   1      46.904  33.716  31.172  1.00  0.00    -0.203 F 
ATOM     83  C   UNL A   1      47.392  35.859  30.330  1.00  0.00     0.198 A 
ATOM     84  C   UNL A   1      46.751  36.446  28.092  1.00  0.00     0.198 A 
ATOM     85  F   UNL A   1      45.603  34.894  26.750  1.00  0.00    -0.203 F 
ATOM     86  F   UNL A   1      47.939  36.195  31.507  1.00  0.00    -0.200 F 
ATOM     87  C   UNL A   1      47.344  36.785  29.300  1.00  0.00     0.200 A 
ATOM     88  F   UNL A   1      46.713  37.336  27.093  1.00  0.00    -0.200 F 
ATOM     89  F   UNL A   1      47.861  38.010  29.473  1.00  0.00    -0.200 F 
ENDBRANCH  65  79
BRANCH  66  90
ATOM     90  C   UNL A   1      41.705  25.411  27.779  1.00  0.00     0.064 A 
ATOM     91  C   UNL A   1      40.653  25.226  26.871  1.00  0.00     0.173 A 
ATOM     92  C   UNL A   1      42.116  24.306  28.538  1.00  0.00     0.173 A 
ATOM     93  F   UNL A   1      40.210  26.259  26.142  1.00  0.00    -0.203 F 
ATOM     94  C   UNL A   1      40.032  23.987  26.735  1.00  0.00     0.198 A 
ATOM     95  C   UNL A   1      41.510  23.061  28.383  1.00  0.00     0.198 A 
ATOM     96  F   UNL A   1      43.116  24.434  29.423  1.00  0.00    -0.203 F 
ATOM     97  F   UNL A   1      39.004  23.845  25.886  1.00  0.00    -0.200 F 
ATOM     98  C   UNL A   1      40.464  22.904  27.486  1.00  0.00     0.200 A 
ATOM     99  F   UNL A   1      41.938  22.015  29.103  1.00  0.00    -0.200 F 
ATOM    100  F   UNL A   1      39.870  21.711  27.349  1.00  0.00    -0.200 F 
ENDBRANCH  66  90
BRANCH  78 101
ATOM    101  C   UNL A   1      48.061  27.788  26.227  1.00  0.00     0.064 A 
ATOM    102  C   UNL A   1      48.187  27.666  24.835  1.00  0.00     0.173 A 
ATOM    103  C   UNL A   1      49.096  27.280  27.027  1.00  0.00     0.173 A 
ATOM    104  F   UNL A   1      47.219  28.123  24.027  1.00  0.00    -0.203 F 
ATOM    105  C   UNL A   1      49.285  27.023  24.269  1.00  0.00     0.198 A 
ATOM    106  C   UNL A   1      50.207  26.665  26.456  1.00  0.00     0.198 A 
ATOM    107  F   UNL A   1      49.029  27.378  28.363  1.00  0.00    -0.203 F 
ATOM    108  F   UNL A   1      49.354  26.864  22.940  1.00  0.00    -0.200 F 
ATOM    109  C   UNL A   1      50.296  26.527  25.079  1.00  0.00     0.200 A 
ATOM    110  F   UNL A   1      51.188  26.196  27.240  1.00  0.00    -0.200 F 
ATOM    111  F   UNL A   1      51.350  25.906  24.533  1.00  0.00    -0.200 F 
ENDBRANCH  78 101
ENDBRANCH  52  53
ENDBRANCH  45  47
ENDBRANCH  44  45
ENDBRANCH  43  44
ENDBRANCH  42  43
ENDBRANCH  41  42
ENDBRANCH  40  41
ENDBRANCH   1  40
TORSDOF 26
ENDMDL
MODEL 2
REMARK VINA RESULT:      -9.7      5.333     10.526
REMARK SMILES O=C(N[C@@H](Cc1ccccc1)C(=O)N[C@@H](CS)C(=O)N[C@@H](CO)C(=O)OCCOCCOC(=O)c1ccc(-c2c3nc(c(-c4c(F)c(F)c(F)c(F)c4F)c4ccc([nH]4)c(-c4c(F)c(F)c(F)c(F)c4F)c4nc(c(-c5c(F)c(F)c(F)c(F)c5F)c5ccc2[nH]5)C=C4)C=C3)cc1)c1ccc(F)cc1
REMARK SMILES IDX 27 1 26 2 24 3 25 4 21 5 20 6 18 7 19 8 15 10 14 11 12 12
REMARK SMILES IDX 13 13 4 15 3 16 1 17 2 18 98 20 99 21 104 22 100 23 103 24
REMARK SMILES IDX 101 25 102 26 5 27 6 28 7 29 11 30 8 31 10 32 9 33 16 34
REMARK SMILES IDX 17 35 22 37 23 38 28 40 29 41 30 42 31 43 32 44 33 45 34 46
REMARK SMILES IDX 35 47 36 48 97 49 37 50 96 51 38 52 39 53 40 54 90 55 41 56
REMARK SMILES IDX 95 57 89 58 91 59 42 60 94 61 88 62 87 63 43 65 75 66 55 67
REMARK SMILES IDX 74 68 56 69 59 70 73 71 92 72 57 73 58 74 72 76 93 77 60 78
REMARK SMILES IDX 44 79 45 80 53 81 46 82 47 83 51 84 54 85 48 86 49 87 52 88
REMARK SMILES IDX 50 89 76 90 77 91 85 92 78 93 79 94 83 95 86 96 80 97 81 98
REMARK SMILES IDX 84 99 82 100 61 101 62 102 70 103 63 104 64 105 68 106
REMARK SMILES IDX 71 107 65 108 66 109 69 110 67 111
REMARK H PARENT 20 9 14 14 3 19 17 36 23 39 91 64 59 75
REMARK Flexibility Score: inf
ROOT
ATOM      1  C   UNL A   1      37.709  22.352  25.742  1.00  0.00     0.261 C 
ENDROOT
BRANCH   1   2
ATOM      2  O   UNL A   1      37.285  22.548  24.385  1.00  0.00    -0.462 OA
BRANCH   2   3
ATOM      3  C   UNL A   1      35.980  22.247  24.140  1.00  0.00     0.331 C 
ATOM      4  O   UNL A   1      35.395  22.490  23.091  1.00  0.00    -0.250 OA
BRANCH   3   5
ATOM      5  C   UNL A   1      35.296  21.615  25.357  1.00  0.00     0.218 C 
BRANCH   5   6
ATOM      6  N   UNL A   1      34.216  22.440  25.954  1.00  0.00    -0.339 N 
ATOM      7  C   UNL A   1      33.923  23.655  25.399  1.00  0.00     0.244 C 
ATOM      8  O   UNL A   1      34.700  24.589  25.613  1.00  0.00    -0.273 OA
ATOM      9  H   UNL A   1      33.717  22.116  26.738  1.00  0.00     0.164 HD
BRANCH   7  10
ATOM     10  C   UNL A   1      32.637  23.827  24.529  1.00  0.00     0.181 C 
BRANCH  10  11
ATOM     11  N   UNL A   1      33.056  24.535  23.315  1.00  0.00    -0.342 N 
ATOM     12  C   UNL A   1      32.786  25.825  22.954  1.00  0.00     0.243 C 
ATOM     13  O   UNL A   1      33.705  26.448  22.410  1.00  0.00    -0.273 OA
ATOM     14  H   UNL A   1      33.600  24.016  22.680  1.00  0.00     0.164 HD
BRANCH  12  15
ATOM     15  C   UNL A   1      31.412  26.506  23.166  1.00  0.00     0.176 C 
BRANCH  15  16
ATOM     16  N   UNL A   1      30.758  26.060  24.397  1.00  0.00    -0.340 N 
ATOM     17  O   UNL A   1      30.271  26.068  26.599  1.00  0.00    -0.269 OA
ATOM     18  C   UNL A   1      30.921  26.546  25.675  1.00  0.00     0.251 C 
ATOM     19  H   UNL A   1      30.119  25.317  24.298  1.00  0.00     0.164 HD
BRANCH  18  20
ATOM     20  C   UNL A   1      31.942  27.585  25.962  1.00  0.00     0.040 A 
ATOM     21  C   UNL A   1      31.653  28.954  25.898  1.00  0.00     0.017 A 
ATOM     22  C   UNL A   1      33.235  27.157  26.296  1.00  0.00     0.017 A 
ATOM     23  C   UNL A   1      32.675  29.889  26.086  1.00  0.00     0.040 A 
ATOM     24  C   UNL A   1      34.250  28.096  26.496  1.00  0.00     0.040 A 
ATOM     25  C   UNL A   1      33.964  29.452  26.375  1.00  0.00     0.123 A 
ATOM     26  F   UNL A   1      34.944  30.350  26.538  1.00  0.00    -0.207 F 
ENDBRANCH  18  20
ENDBRANCH  15  16
BRANCH  15  27
ATOM     27  C   UNL A   1      31.302  28.010  22.860  1.00  0.00     0.070 C 
BRANCH  27  28
ATOM     28  C   UNL A   1      29.943  28.661  22.836  1.00  0.00    -0.045 A 
ATOM     29  C   UNL A   1      28.785  27.933  23.141  1.00  0.00     0.004 A 
ATOM     30  C   UNL A   1      29.812  30.001  22.450  1.00  0.00     0.004 A 
ATOM     31  C   UNL A   1      27.530  28.545  23.094  1.00  0.00     0.000 A 
ATOM     32  C   UNL A   1      28.563  30.624  22.444  1.00  0.00     0.000 A 
ATOM     33  C   UNL A   1      27.421  29.896  22.765  1.00  0.00     0.000 A 
ENDBRANCH  27  28
ENDBRANCH  15  27
ENDBRANCH  12  15
ENDBRANCH  10  11
BRANCH  10  34
ATOM     34  C   UNL A   1      31.761  22.599  24.269  1.00  0.00     0.101 C 
BRANCH  34  35
ATOM     35  S   UNL A   1      32.068  21.684  22.728  1.00  0.00    -0.177 SA
ATOM     36  H   UNL A   1      30.889  21.466  22.088  1.00  0.00     0.102 HD
ENDBRANCH  34  35
ENDBRANCH  10  34
ENDBRANCH   7  10
ENDBRANCH   5   6
BRANCH   5  37
ATOM     37  C   UNL A   1      34.793  20.227  24.928  1.00  0.00     0.193 C 
BRANCH  37  38
ATOM     38  O   UNL A   1      35.881  19.300  24.854  1.00  0.00    -0.394 OA
ATOM     39  H   UNL A   1      36.043  18.922  25.732  1.00  0.00     0.210 HD
ENDBRANCH  37  38
ENDBRANCH   5  37
ENDBRANCH   3   5
ENDBRANCH   2   3
ENDBRANCH   1   2
BRANCH   1  40
ATOM     40  C   UNL A   1      38.929  21.429  25.797  1.00  0.00     0.202 C 
BRANCH  40  41
ATOM     41  O   UNL A   1      39.885  21.715  26.819  1.00  0.00    -0.374 OA
BRANCH  41  42
ATOM     42  C   UNL A   1      41.234  21.312  26.586  1.00  0.00     0.202 C 
BRANCH  42  43
ATOM     43  C   UNL A   1      42.228  22.427  26.237  1.00  0.00     0.261 C 
BRANCH  43  44
ATOM     44  O   UNL A   1      41.572  23.645  25.843  1.00  0.00    -0.460 OA
BRANCH  44  45
ATOM     45  C   UNL A   1      42.384  24.732  25.812  1.00  0.00     0.338 C 
ATOM     46  O   UNL A   1      43.319  24.939  25.059  1.00  0.00    -0.246 OA
BRANCH  45  47
ATOM     47  C   UNL A   1      41.888  25.766  26.736  1.00  0.00     0.060 A 
ATOM     48  C   UNL A   1      42.517  27.016  26.694  1.00  0.00     0.016 A 
ATOM     49  C   UNL A   1      40.913  25.489  27.697  1.00  0.00     0.016 A 
ATOM     50  C   UNL A   1      42.201  27.983  27.644  1.00  0.00     0.010 A 
ATOM     51  C   UNL A   1      40.602  26.462  28.656  1.00  0.00     0.010 A 
ATOM     52  C   UNL A   1      41.272  27.700  28.655  1.00  0.00    -0.014 A 
BRANCH  52  53
ATOM     53  C   UNL A   1      41.116  28.673  29.764  1.00  0.00     0.031 A 
ATOM     54  C   UNL A   1      39.968  29.642  29.740  1.00  0.00     0.074 A 
ATOM     55  C   UNL A   1      41.936  28.625  30.828  1.00  0.00     0.049 A 
ATOM     56  N   UNL A   1      39.567  30.479  30.664  1.00  0.00    -0.248 NA
ATOM     57  C   UNL A   1      39.160  29.669  28.512  1.00  0.00     0.031 C 
ATOM     58  C   UNL A   1      43.070  27.716  30.975  1.00  0.00     0.029 A 
ATOM     59  N   UNL A   1      41.924  29.345  31.996  1.00  0.00    -0.354 N 
ATOM     60  C   UNL A   1      38.453  31.119  30.137  1.00  0.00     0.074 A 
ATOM     61  C   UNL A   1      38.269  30.608  28.795  1.00  0.00     0.031 C 
ATOM     62  C   UNL A   1      43.636  27.919  32.177  1.00  0.00     0.029 A 
ATOM     63  C   UNL A   1      42.911  28.978  32.876  1.00  0.00     0.049 A 
ATOM     64  H   UNL A   1      41.270  30.056  32.184  1.00  0.00     0.167 HD
ATOM     65  C   UNL A   1      37.647  32.036  30.725  1.00  0.00     0.037 A 
ATOM     66  C   UNL A   1      43.189  29.439  34.110  1.00  0.00     0.037 A 
ATOM     67  C   UNL A   1      37.838  32.556  32.053  1.00  0.00     0.049 A 
ATOM     68  C   UNL A   1      42.310  30.497  34.720  1.00  0.00     0.074 A 
ATOM     69  C   UNL A   1      37.072  33.480  32.742  1.00  0.00     0.029 A 
ATOM     70  N   UNL A   1      38.884  32.201  32.894  1.00  0.00    -0.354 N 
ATOM     71  N   UNL A   1      41.234  31.066  34.232  1.00  0.00    -0.248 NA
ATOM     72  C   UNL A   1      42.679  30.966  36.063  1.00  0.00     0.031 C 
ATOM     73  C   UNL A   1      37.680  33.720  33.980  1.00  0.00     0.029 A 
ATOM     74  C   UNL A   1      38.798  32.907  34.085  1.00  0.00     0.049 A 
ATOM     75  H   UNL A   1      39.585  31.545  32.678  1.00  0.00     0.167 HD
ATOM     76  C   UNL A   1      40.786  31.942  35.211  1.00  0.00     0.074 A 
ATOM     77  C   UNL A   1      41.696  31.813  36.332  1.00  0.00     0.031 C 
ATOM     78  C   UNL A   1      39.718  32.778  35.186  1.00  0.00     0.037 A 
BRANCH  65  79
ATOM     79  C   UNL A   1      36.492  32.552  29.914  1.00  0.00     0.064 A 
ATOM     80  C   UNL A   1      35.366  31.757  29.648  1.00  0.00     0.173 A 
ATOM     81  C   UNL A   1      36.507  33.858  29.403  1.00  0.00     0.173 A 
ATOM     82  F   UNL A   1      35.309  30.496  30.101  1.00  0.00    -0.203 F 
ATOM     83  C   UNL A   1      34.315  32.239  28.873  1.00  0.00     0.198 A 
ATOM     84  C   UNL A   1      35.442  34.347  28.651  1.00  0.00     0.198 A 
ATOM     85  F   UNL A   1      37.557  34.661  29.630  1.00  0.00    -0.203 F 
ATOM     86  F   UNL A   1      33.275  31.443  28.587  1.00  0.00    -0.200 F 
ATOM     87  C   UNL A   1      34.351  33.534  28.379  1.00  0.00     0.200 A 
ATOM     88  F   UNL A   1      35.474  35.601  28.183  1.00  0.00    -0.200 F 
ATOM     89  F   UNL A   1      33.339  33.997  27.632  1.00  0.00    -0.200 F 
ENDBRANCH  65  79
BRANCH  66  90
ATOM     90  C   UNL A   1      44.338  28.876  34.864  1.00  0.00     0.064 A 
ATOM     91  C   UNL A   1      45.605  29.473  34.802  1.00  0.00     0.173 A 
ATOM     92  C   UNL A   1      44.193  27.732  35.660  1.00  0.00     0.173 A 
ATOM     93  F   UNL A   1      45.799  30.554  34.033  1.00  0.00    -0.203 F 
ATOM     94  C   UNL A   1      46.685  28.940  35.502  1.00  0.00     0.198 A 
ATOM     95  C   UNL A   1      45.268  27.214  36.380  1.00  0.00     0.198 A 
ATOM     96  F   UNL A   1      43.001  27.123  35.749  1.00  0.00    -0.203 F 
ATOM     97  F   UNL A   1      47.895  29.508  35.397  1.00  0.00    -0.200 F 
ATOM     98  C   UNL A   1      46.515  27.815  36.295  1.00  0.00     0.200 A 
ATOM     99  F   UNL A   1      45.096  26.134  37.153  1.00  0.00    -0.200 F 
ATOM    100  F   UNL A   1      47.552  27.307  36.974  1.00  0.00    -0.200 F 
ENDBRANCH  66  90
BRANCH  78 101
ATOM    101  C   UNL A   1      39.472  33.605  36.416  1.00  0.00     0.064 A 
ATOM    102  C   UNL A   1      38.728  33.109  37.499  1.00  0.00     0.173 A 
ATOM    103  C   UNL A   1      39.991  34.904  36.517  1.00  0.00     0.173 A 
ATOM    104  F   UNL A   1      38.198  31.878  37.445  1.00  0.00    -0.203 F 
ATOM    105  C   UNL A   1      38.479  33.899  38.618  1.00  0.00     0.198 A 
ATOM    106  C   UNL A   1      39.766  35.680  37.651  1.00  0.00     0.198 A 
ATOM    107  F   UNL A   1      40.717  35.423  35.516  1.00  0.00    -0.203 F 
ATOM    108  F   UNL A   1      37.714  33.427  39.611  1.00  0.00    -0.200 F 
ATOM    109  C   UNL A   1      39.002  35.182  38.695  1.00  0.00     0.200 A 
ATOM    110  F   UNL A   1      40.281  36.915  37.730  1.00  0.00    -0.200 F 
ATOM    111  F   UNL A   1      38.758  35.942  39.772  1.00  0.00    -0.200 F 
ENDBRANCH  78 101
ENDBRANCH  52  53
ENDBRANCH  45  47
ENDBRANCH  44  45
ENDBRANCH  43  44
ENDBRANCH  42  43
ENDBRANCH  41  42
ENDBRANCH  40  41
ENDBRANCH   1  40
TORSDOF 26
ENDMDL
MODEL 3
REMARK VINA RESULT:      -9.6      4.828      9.907
REMARK SMILES O=C(N[C@@H](Cc1ccccc1)C(=O)N[C@@H](CS)C(=O)N[C@@H](CO)C(=O)OCCOCCOC(=O)c1ccc(-c2c3nc(c(-c4c(F)c(F)c(F)c(F)c4F)c4ccc([nH]4)c(-c4c(F)c(F)c(F)c(F)c4F)c4nc(c(-c5c(F)c(F)c(F)c(F)c5F)c5ccc2[nH]5)C=C4)C=C3)cc1)c1ccc(F)cc1
REMARK SMILES IDX 27 1 26 2 24 3 25 4 21 5 20 6 18 7 19 8 15 10 14 11 12 12
REMARK SMILES IDX 13 13 4 15 3 16 1 17 2 18 98 20 99 21 104 22 100 23 103 24
REMARK SMILES IDX 101 25 102 26 5 27 6 28 7 29 11 30 8 31 10 32 9 33 16 34
REMARK SMILES IDX 17 35 22 37 23 38 28 40 29 41 30 42 31 43 32 44 33 45 34 46
REMARK SMILES IDX 35 47 36 48 97 49 37 50 96 51 38 52 39 53 40 54 90 55 41 56
REMARK SMILES IDX 95 57 89 58 91 59 42 60 94 61 88 62 87 63 43 65 75 66 55 67
REMARK SMILES IDX 74 68 56 69 59 70 73 71 92 72 57 73 58 74 72 76 93 77 60 78
REMARK SMILES IDX 44 79 45 80 53 81 46 82 47 83 51 84 54 85 48 86 49 87 52 88
REMARK SMILES IDX 50 89 76 90 77 91 85 92 78 93 79 94 83 95 86 96 80 97 81 98
REMARK SMILES IDX 84 99 82 100 61 101 62 102 70 103 63 104 64 105 68 106
REMARK SMILES IDX 71 107 65 108 66 109 69 110 67 111
REMARK H PARENT 20 9 14 14 3 19 17 36 23 39 91 64 59 75
REMARK Flexibility Score: inf
ROOT
ATOM      1  C   UNL A   1      37.668  22.388  25.756  1.00  0.00     0.261 C 
ENDROOT
BRANCH   1   2
ATOM      2  O   UNL A   1      37.158  22.611  24.433  1.00  0.00    -0.462 OA
BRANCH   2   3
ATOM      3  C   UNL A   1      35.808  22.487  24.307  1.00  0.00     0.331 C 
ATOM      4  O   UNL A   1      35.167  22.825  23.319  1.00  0.00    -0.250 OA
BRANCH   3   5
ATOM      5  C   UNL A   1      35.160  21.925  25.578  1.00  0.00     0.218 C 
BRANCH   5   6
ATOM      6  N   UNL A   1      34.358  22.909  26.347  1.00  0.00    -0.339 N 
ATOM      7  C   UNL A   1      34.247  24.188  25.878  1.00  0.00     0.244 C 
ATOM      8  O   UNL A   1      35.218  24.938  26.010  1.00  0.00    -0.273 OA
ATOM      9  H   UNL A   1      33.911  22.643  27.182  1.00  0.00     0.164 HD
BRANCH   7  10
ATOM     10  C   UNL A   1      32.920  24.661  25.204  1.00  0.00     0.181 C 
BRANCH  10  11
ATOM     11  N   UNL A   1      33.314  25.494  24.063  1.00  0.00    -0.342 N 
ATOM     12  C   UNL A   1      33.033  26.812  23.840  1.00  0.00     0.243 C 
ATOM     13  O   UNL A   1      33.939  27.493  23.349  1.00  0.00    -0.273 OA
ATOM     14  H   UNL A   1      33.850  25.046  23.368  1.00  0.00     0.164 HD
BRANCH  12  15
ATOM     15  C   UNL A   1      31.659  27.458  24.144  1.00  0.00     0.176 C 
BRANCH  15  16
ATOM     16  N   UNL A   1      31.140  27.064  25.455  1.00  0.00    -0.340 N 
ATOM     17  O   UNL A   1      30.895  27.156  27.695  1.00  0.00    -0.269 OA
ATOM     18  C   UNL A   1      31.444  27.594  26.688  1.00  0.00     0.251 C 
ATOM     19  H   UNL A   1      30.490  26.325  25.453  1.00  0.00     0.164 HD
BRANCH  18  20
ATOM     20  C   UNL A   1      32.497  28.632  26.825  1.00  0.00     0.040 A 
ATOM     21  C   UNL A   1      33.861  28.313  26.843  1.00  0.00     0.017 A 
ATOM     22  C   UNL A   1      32.088  29.967  26.951  1.00  0.00     0.017 A 
ATOM     23  C   UNL A   1      34.806  29.319  27.067  1.00  0.00     0.040 A 
ATOM     24  C   UNL A   1      33.037  30.970  27.161  1.00  0.00     0.040 A 
ATOM     25  C   UNL A   1      34.385  30.635  27.233  1.00  0.00     0.123 A 
ATOM     26  F   UNL A   1      35.292  31.593  27.466  1.00  0.00    -0.207 F 
ENDBRANCH  18  20
ENDBRANCH  15  16
BRANCH  15  27
ATOM     27  C   UNL A   1      31.464  28.938  23.769  1.00  0.00     0.070 C 
BRANCH  27  28
ATOM     28  C   UNL A   1      30.069  29.469  23.559  1.00  0.00    -0.045 A 
ATOM     29  C   UNL A   1      29.065  28.667  23.001  1.00  0.00     0.004 A 
ATOM     30  C   UNL A   1      29.769  30.801  23.872  1.00  0.00     0.004 A 
ATOM     31  C   UNL A   1      27.781  29.180  22.794  1.00  0.00     0.000 A 
ATOM     32  C   UNL A   1      28.477  31.301  23.705  1.00  0.00     0.000 A 
ATOM     33  C   UNL A   1      27.482  30.490  23.164  1.00  0.00     0.000 A 
ENDBRANCH  27  28
ENDBRANCH  15  27
ENDBRANCH  12  15
ENDBRANCH  10  11
BRANCH  10  34
ATOM     34  C   UNL A   1      31.853  23.613  24.877  1.00  0.00     0.101 C 
BRANCH  34  35
ATOM     35  S   UNL A   1      31.059  23.731  23.246  1.00  0.00    -0.177 SA
ATOM     36  H   UNL A   1      31.986  23.521  22.274  1.00  0.00     0.102 HD
ENDBRANCH  34  35
ENDBRANCH  10  34
ENDBRANCH   7  10
ENDBRANCH   5   6
BRANCH   5  37
ATOM     37  C   UNL A   1      34.330  20.700  25.162  1.00  0.00     0.193 C 
BRANCH  37  38
ATOM     38  O   UNL A   1      33.568  20.210  26.270  1.00  0.00    -0.394 OA
ATOM     39  H   UNL A   1      32.834  20.818  26.450  1.00  0.00     0.210 HD
ENDBRANCH  37  38
ENDBRANCH   5  37
ENDBRANCH   3   5
ENDBRANCH   2   3
ENDBRANCH   1   2
BRANCH   1  40
ATOM     40  C   UNL A   1      38.870  21.441  25.718  1.00  0.00     0.202 C 
BRANCH  40  41
ATOM     41  O   UNL A   1      39.851  21.633  26.737  1.00  0.00    -0.374 OA
BRANCH  41  42
ATOM     42  C   UNL A   1      41.190  21.236  26.441  1.00  0.00     0.202 C 
BRANCH  42  43
ATOM     43  C   UNL A   1      42.180  22.363  26.119  1.00  0.00     0.261 C 
BRANCH  43  44
ATOM     44  O   UNL A   1      41.520  23.579  25.726  1.00  0.00    -0.460 OA
BRANCH  44  45
ATOM     45  C   UNL A   1      42.333  24.664  25.674  1.00  0.00     0.338 C 
ATOM     46  O   UNL A   1      43.193  24.908  24.847  1.00  0.00    -0.246 OA
BRANCH  45  47
ATOM     47  C   UNL A   1      41.935  25.649  26.694  1.00  0.00     0.060 A 
ATOM     48  C   UNL A   1      42.507  26.924  26.609  1.00  0.00     0.016 A 
ATOM     49  C   UNL A   1      41.115  25.305  27.771  1.00  0.00     0.016 A 
ATOM     50  C   UNL A   1      42.294  27.850  27.627  1.00  0.00     0.010 A 
ATOM     51  C   UNL A   1      40.908  26.236  28.798  1.00  0.00     0.010 A 
ATOM     52  C   UNL A   1      41.527  27.499  28.747  1.00  0.00    -0.014 A 
BRANCH  52  53
ATOM     53  C   UNL A   1      41.494  28.431  29.901  1.00  0.00     0.031 A 
ATOM     54  C   UNL A   1      42.673  28.497  30.830  1.00  0.00     0.074 A 
ATOM     55  C   UNL A   1      40.462  29.278  30.059  1.00  0.00     0.049 A 
ATOM     56  N   UNL A   1      42.912  29.329  31.812  1.00  0.00    -0.248 NA
ATOM     57  C   UNL A   1      43.727  27.493  30.622  1.00  0.00     0.031 C 
ATOM     58  C   UNL A   1      39.274  29.324  29.211  1.00  0.00     0.029 A 
ATOM     59  N   UNL A   1      40.264  30.278  30.977  1.00  0.00    -0.354 N 
ATOM     60  C   UNL A   1      44.148  28.960  32.329  1.00  0.00     0.074 A 
ATOM     61  C   UNL A   1      44.587  27.801  31.581  1.00  0.00     0.031 C 
ATOM     62  C   UNL A   1      38.475  30.317  29.636  1.00  0.00     0.029 A 
ATOM     63  C   UNL A   1      39.091  30.967  30.791  1.00  0.00     0.049 A 
ATOM     64  H   UNL A   1      40.901  30.482  31.700  1.00  0.00     0.167 HD
ATOM     65  C   UNL A   1      44.859  29.546  33.322  1.00  0.00     0.037 A 
ATOM     66  C   UNL A   1      38.580  32.011  31.471  1.00  0.00     0.037 A 
ATOM     67  C   UNL A   1      44.416  30.689  34.075  1.00  0.00     0.049 A 
ATOM     68  C   UNL A   1      39.366  32.610  32.607  1.00  0.00     0.074 A 
ATOM     69  C   UNL A   1      45.066  31.362  35.095  1.00  0.00     0.029 A 
ATOM     70  N   UNL A   1      43.195  31.326  33.895  1.00  0.00    -0.354 N 
ATOM     71  N   UNL A   1      40.552  32.283  33.060  1.00  0.00    -0.248 NA
ATOM     72  C   UNL A   1      38.743  33.736  33.316  1.00  0.00     0.031 C 
ATOM     73  C   UNL A   1      44.220  32.375  35.564  1.00  0.00     0.029 A 
ATOM     74  C   UNL A   1      43.062  32.366  34.803  1.00  0.00     0.049 A 
ATOM     75  H   UNL A   1      42.521  31.075  33.223  1.00  0.00     0.167 HD
ATOM     76  C   UNL A   1      40.827  33.172  34.090  1.00  0.00     0.074 A 
ATOM     77  C   UNL A   1      39.691  34.067  34.181  1.00  0.00     0.031 C 
ATOM     78  C   UNL A   1      41.921  33.241  34.889  1.00  0.00     0.037 A 
BRANCH  65  79
ATOM     79  C   UNL A   1      46.189  28.936  33.663  1.00  0.00     0.064 A 
ATOM     80  C   UNL A   1      47.373  29.351  33.035  1.00  0.00     0.173 A 
ATOM     81  C   UNL A   1      46.282  27.929  34.636  1.00  0.00     0.173 A 
ATOM     82  F   UNL A   1      47.336  30.301  32.088  1.00  0.00    -0.203 F 
ATOM     83  C   UNL A   1      48.594  28.758  33.343  1.00  0.00     0.198 A 
ATOM     84  C   UNL A   1      47.509  27.357  34.961  1.00  0.00     0.198 A 
ATOM     85  F   UNL A   1      45.182  27.496  35.269  1.00  0.00    -0.203 F 
ATOM     86  F   UNL A   1      49.703  29.134  32.690  1.00  0.00    -0.200 F 
ATOM     87  C   UNL A   1      48.663  27.766  34.308  1.00  0.00     0.200 A 
ATOM     88  F   UNL A   1      47.575  26.405  35.901  1.00  0.00    -0.200 F 
ATOM     89  F   UNL A   1      49.839  27.194  34.602  1.00  0.00    -0.200 F 
ENDBRANCH  65  79
BRANCH  66  90
ATOM     90  C   UNL A   1      37.266  32.576  31.073  1.00  0.00     0.064 A 
ATOM     91  C   UNL A   1      37.134  33.345  29.908  1.00  0.00     0.173 A 
ATOM     92  C   UNL A   1      36.117  32.357  31.846  1.00  0.00     0.173 A 
ATOM     93  F   UNL A   1      38.209  33.602  29.150  1.00  0.00    -0.203 F 
ATOM     94  C   UNL A   1      35.902  33.882  29.538  1.00  0.00     0.198 A 
ATOM     95  C   UNL A   1      34.882  32.874  31.462  1.00  0.00     0.198 A 
ATOM     96  F   UNL A   1      36.194  31.630  32.970  1.00  0.00    -0.203 F 
ATOM     97  F   UNL A   1      35.810  34.646  28.441  1.00  0.00    -0.200 F 
ATOM     98  C   UNL A   1      34.777  33.642  30.312  1.00  0.00     0.200 A 
ATOM     99  F   UNL A   1      33.795  32.630  32.206  1.00  0.00    -0.200 F 
ATOM    100  F   UNL A   1      33.592  34.152  29.952  1.00  0.00    -0.200 F 
ENDBRANCH  66  90
BRANCH  78 101
ATOM    101  C   UNL A   1      41.942  34.335  35.920  1.00  0.00     0.064 A 
ATOM    102  C   UNL A   1      42.551  35.573  35.665  1.00  0.00     0.173 A 
ATOM    103  C   UNL A   1      41.342  34.145  37.174  1.00  0.00     0.173 A 
ATOM    104  F   UNL A   1      43.151  35.800  34.486  1.00  0.00    -0.203 F 
ATOM    105  C   UNL A   1      42.593  36.565  36.641  1.00  0.00     0.198 A 
ATOM    106  C   UNL A   1      41.360  35.150  38.136  1.00  0.00     0.198 A 
ATOM    107  F   UNL A   1      40.739  32.983  37.466  1.00  0.00    -0.203 F 
ATOM    108  F   UNL A   1      43.234  37.716  36.396  1.00  0.00    -0.200 F 
ATOM    109  C   UNL A   1      41.994  36.355  37.874  1.00  0.00     0.200 A 
ATOM    110  F   UNL A   1      40.770  34.949  39.324  1.00  0.00    -0.200 F 
ATOM    111  F   UNL A   1      42.039  37.309  38.814  1.00  0.00    -0.200 F 
ENDBRANCH  78 101
ENDBRANCH  52  53
ENDBRANCH  45  47
ENDBRANCH  44  45
ENDBRANCH  43  44
ENDBRANCH  42  43
ENDBRANCH  41  42
ENDBRANCH  40  41
ENDBRANCH   1  40
TORSDOF 26
ENDMDL
