MODEL 1
REMARK VINA RESULT:     -12.2      0.000      0.000
REMARK SMILES Cc1ccccc1NC(=O)NC[C@@H]1CC[C@@H](C(=O)OCCOCCOC(=O)c2ccc(-c3c4nc(c(-c5c(F)c(F)c(F)c(F)c5F)c5ccc([nH]5)c(-c5c(F)c(F)c(F)c(F)c5F)c5nc(c(-c6c(F)c(F)c(F)c(F)c6F)c6ccc3[nH]6)C=C5)C=C4)cc2)O1
REMARK SMILES IDX 21 1 20 2 19 3 17 4 18 5 16 6 13 7 14 8 91 9 15 10 12 11
REMARK SMILES IDX 11 12 8 13 9 14 10 16 7 18 1 19 2 20 3 21 4 22 6 23 5 24
REMARK SMILES IDX 22 25 23 26 24 27 25 28 26 29 27 30 28 31 29 32 90 33 30 34
REMARK SMILES IDX 89 35 31 36 32 37 33 38 83 39 34 40 88 41 82 42 84 43 35 44
REMARK SMILES IDX 87 45 81 46 80 47 36 49 68 50 48 51 67 52 49 53 52 54 66 55
REMARK SMILES IDX 85 56 50 57 51 58 65 60 86 61 53 62 37 63 38 64 46 65 39 66
REMARK SMILES IDX 40 67 44 68 47 69 41 70 42 71 45 72 43 73 69 74 70 75 78 76
REMARK SMILES IDX 71 77 72 78 76 79 79 80 73 81 74 82 77 83 75 84 54 85 55 86
REMARK SMILES IDX 63 87 56 88 57 89 61 90 64 91 58 92 59 93 62 94 60 95
REMARK H PARENT 8 15 11 17 84 48 52 59
REMARK Flexibility Score: inf
ROOT
ATOM      1  C   UNL A   1      33.828  34.044  28.106  1.00  0.00     0.202 C 
ENDROOT
BRANCH   1   2
ATOM      2  C   UNL A   1      33.190  32.765  27.631  1.00  0.00     0.261 C 
BRANCH   2   3
ATOM      3  O   UNL A   1      33.757  31.581  28.224  1.00  0.00    -0.461 OA
BRANCH   3   4
ATOM      4  C   UNL A   1      33.971  30.478  27.435  1.00  0.00     0.335 C 
ATOM      5  O   UNL A   1      35.062  29.981  27.177  1.00  0.00    -0.249 OA
BRANCH   4   6
ATOM      6  C   UNL A   1      32.631  29.945  26.940  1.00  0.00     0.228 C 
ATOM      7  C   UNL A   1      32.548  28.419  25.177  1.00  0.00     0.138 C 
ATOM      8  C   UNL A   1      31.867  27.777  26.369  1.00  0.00     0.037 C 
ATOM      9  O   UNL A   1      32.583  29.818  25.505  1.00  0.00    -0.361 OA
ATOM     10  C   UNL A   1      32.387  28.562  27.520  1.00  0.00     0.047 C 
BRANCH   7  11
ATOM     11  C   UNL A   1      31.813  28.166  23.845  1.00  0.00     0.149 C 
BRANCH  11  12
ATOM     12  N   UNL A   1      32.707  27.606  22.833  1.00  0.00    -0.335 N 
ATOM     13  N   UNL A   1      32.817  25.209  23.024  1.00  0.00    -0.308 N 
ATOM     14  C   UNL A   1      33.065  26.385  22.422  1.00  0.00     0.319 C 
ATOM     15  H   UNL A   1      32.953  24.459  22.401  1.00  0.00     0.171 HD
ATOM     16  O   UNL A   1      33.646  26.333  21.330  1.00  0.00    -0.249 OA
ATOM     17  H   UNL A   1      33.164  28.311  22.322  1.00  0.00     0.165 HD
BRANCH  13  18
ATOM     18  C   UNL A   1      32.418  24.747  24.290  1.00  0.00     0.045 A 
ATOM     19  C   UNL A   1      34.802  24.873  25.249  1.00  0.00     0.046 C 
ATOM     20  C   UNL A   1      33.357  24.461  25.299  1.00  0.00    -0.027 A 
ATOM     21  C   UNL A   1      32.927  23.854  26.503  1.00  0.00     0.005 A 
ATOM     22  C   UNL A   1      31.588  23.571  26.731  1.00  0.00     0.000 A 
ATOM     23  C   UNL A   1      31.083  24.631  24.630  1.00  0.00     0.026 A 
ATOM     24  C   UNL A   1      30.658  24.002  25.807  1.00  0.00     0.002 A 
ENDBRANCH  13  18
ENDBRANCH  11  12
ENDBRANCH   7  11
ENDBRANCH   4   6
ENDBRANCH   3   4
ENDBRANCH   2   3
ENDBRANCH   1   2
BRANCH   1  25
ATOM     25  O   UNL A   1      32.881  34.676  28.947  1.00  0.00    -0.374 OA
BRANCH  25  26
ATOM     26  C   UNL A   1      32.948  36.087  29.028  1.00  0.00     0.202 C 
BRANCH  26  27
ATOM     27  C   UNL A   1      32.879  36.625  30.466  1.00  0.00     0.261 C 
BRANCH  27  28
ATOM     28  O   UNL A   1      32.899  35.527  31.404  1.00  0.00    -0.460 OA
BRANCH  28  29
ATOM     29  C   UNL A   1      33.989  35.447  32.222  1.00  0.00     0.338 C 
ATOM     30  O   UNL A   1      34.449  36.364  32.876  1.00  0.00    -0.246 OA
BRANCH  29  31
ATOM     31  C   UNL A   1      34.705  34.160  31.972  1.00  0.00     0.060 A 
ATOM     32  C   UNL A   1      34.566  33.079  32.866  1.00  0.00     0.016 A 
ATOM     33  C   UNL A   1      35.753  34.168  31.060  1.00  0.00     0.016 A 
ATOM     34  C   UNL A   1      35.571  32.097  32.957  1.00  0.00     0.010 A 
ATOM     35  C   UNL A   1      36.788  33.281  31.243  1.00  0.00     0.010 A 
ATOM     36  C   UNL A   1      36.733  32.258  32.209  1.00  0.00    -0.014 A 
BRANCH  36  37
ATOM     37  C   UNL A   1      38.005  31.538  32.365  1.00  0.00     0.031 A 
ATOM     38  C   UNL A   1      38.166  30.287  31.579  1.00  0.00     0.074 A 
ATOM     39  C   UNL A   1      39.113  32.167  32.839  1.00  0.00     0.049 A 
ATOM     40  N   UNL A   1      39.257  29.612  31.516  1.00  0.00    -0.248 NA
ATOM     41  C   UNL A   1      37.096  29.670  30.796  1.00  0.00     0.031 C 
ATOM     42  C   UNL A   1      40.508  31.953  32.425  1.00  0.00     0.029 A 
ATOM     43  N   UNL A   1      39.241  33.200  33.781  1.00  0.00    -0.354 N 
ATOM     44  C   UNL A   1      39.163  28.742  30.459  1.00  0.00     0.074 A 
ATOM     45  C   UNL A   1      37.764  28.726  30.126  1.00  0.00     0.031 C 
ATOM     46  C   UNL A   1      41.343  32.577  33.274  1.00  0.00     0.029 A 
ATOM     47  C   UNL A   1      40.527  33.100  34.348  1.00  0.00     0.049 A 
ATOM     48  H   UNL A   1      38.557  33.873  34.003  1.00  0.00     0.167 HD
ATOM     49  C   UNL A   1      40.329  28.246  29.954  1.00  0.00     0.037 A 
ATOM     50  C   UNL A   1      40.682  32.886  35.682  1.00  0.00     0.037 A 
ATOM     51  C   UNL A   1      41.448  28.591  30.851  1.00  0.00     0.049 A 
ATOM     52  C   UNL A   1      41.337  31.548  35.863  1.00  0.00     0.074 A 
ATOM     53  C   UNL A   1      42.528  29.452  30.768  1.00  0.00     0.029 A 
ATOM     54  N   UNL A   1      41.354  28.219  32.195  1.00  0.00    -0.354 N 
ATOM     55  N   UNL A   1      41.263  30.607  34.960  1.00  0.00    -0.248 NA
ATOM     56  C   UNL A   1      42.233  31.208  36.960  1.00  0.00     0.031 C 
ATOM     57  C   UNL A   1      43.037  29.641  32.090  1.00  0.00     0.029 A 
ATOM     58  C   UNL A   1      42.289  28.873  32.972  1.00  0.00     0.049 A 
ATOM     59  H   UNL A   1      40.700  27.572  32.545  1.00  0.00     0.167 HD
ATOM     60  C   UNL A   1      42.157  29.624  35.255  1.00  0.00     0.074 A 
ATOM     61  C   UNL A   1      42.704  30.017  36.543  1.00  0.00     0.031 C 
ATOM     62  C   UNL A   1      42.407  28.587  34.404  1.00  0.00     0.037 A 
BRANCH  49  63
ATOM     63  C   UNL A   1      40.518  27.568  28.606  1.00  0.00     0.064 A 
ATOM     64  C   UNL A   1      40.009  26.266  28.392  1.00  0.00     0.173 A 
ATOM     65  C   UNL A   1      41.240  28.089  27.510  1.00  0.00     0.173 A 
ATOM     66  F   UNL A   1      39.309  25.627  29.339  1.00  0.00    -0.203 F 
ATOM     67  C   UNL A   1      40.207  25.559  27.198  1.00  0.00     0.198 A 
ATOM     68  C   UNL A   1      41.405  27.397  26.303  1.00  0.00     0.198 A 
ATOM     69  F   UNL A   1      41.858  29.271  27.552  1.00  0.00    -0.203 F 
ATOM     70  F   UNL A   1      39.729  24.312  27.075  1.00  0.00    -0.200 F 
ATOM     71  C   UNL A   1      40.897  26.129  26.149  1.00  0.00     0.200 A 
ATOM     72  F   UNL A   1      42.081  27.974  25.297  1.00  0.00    -0.200 F 
ATOM     73  F   UNL A   1      41.080  25.458  25.004  1.00  0.00    -0.200 F 
ENDBRANCH  49  63
BRANCH  50  74
ATOM     74  C   UNL A   1      39.597  33.566  36.451  1.00  0.00     0.064 A 
ATOM     75  C   UNL A   1      38.682  32.697  37.095  1.00  0.00     0.173 A 
ATOM     76  C   UNL A   1      39.805  34.822  37.040  1.00  0.00     0.173 A 
ATOM     77  F   UNL A   1      38.450  31.476  36.583  1.00  0.00    -0.203 F 
ATOM     78  C   UNL A   1      38.175  32.983  38.362  1.00  0.00     0.198 A 
ATOM     79  C   UNL A   1      39.277  35.110  38.305  1.00  0.00     0.198 A 
ATOM     80  F   UNL A   1      40.661  35.692  36.488  1.00  0.00    -0.203 F 
ATOM     81  F   UNL A   1      37.483  32.050  39.032  1.00  0.00    -0.200 F 
ATOM     82  C   UNL A   1      38.513  34.170  38.985  1.00  0.00     0.200 A 
ATOM     83  F   UNL A   1      39.607  36.253  38.924  1.00  0.00    -0.200 F 
ATOM     84  F   UNL A   1      38.168  34.375  40.266  1.00  0.00    -0.200 F 
ENDBRANCH  50  74
BRANCH  62  85
ATOM     85  C   UNL A   1      42.854  27.219  34.857  1.00  0.00     0.064 A 
ATOM     86  C   UNL A   1      41.974  26.143  35.066  1.00  0.00     0.173 A 
ATOM     87  C   UNL A   1      44.231  26.888  34.911  1.00  0.00     0.173 A 
ATOM     88  F   UNL A   1      40.651  26.267  34.904  1.00  0.00    -0.203 F 
ATOM     89  C   UNL A   1      42.428  24.865  35.388  1.00  0.00     0.198 A 
ATOM     90  C   UNL A   1      44.680  25.593  35.150  1.00  0.00     0.198 A 
ATOM     91  F   UNL A   1      45.191  27.797  34.691  1.00  0.00    -0.203 F 
ATOM     92  F   UNL A   1      41.538  23.894  35.637  1.00  0.00    -0.200 F 
ATOM     93  C   UNL A   1      43.779  24.585  35.415  1.00  0.00     0.200 A 
ATOM     94  F   UNL A   1      45.992  25.325  35.092  1.00  0.00    -0.200 F 
ATOM     95  F   UNL A   1      44.209  23.344  35.669  1.00  0.00    -0.200 F 
ENDBRANCH  62  85
ENDBRANCH  36  37
ENDBRANCH  29  31
ENDBRANCH  28  29
ENDBRANCH  27  28
ENDBRANCH  26  27
ENDBRANCH  25  26
ENDBRANCH   1  25
TORSDOF 17
ENDMDL
MODEL 2
REMARK VINA RESULT:     -12.2      5.831     11.757
REMARK SMILES Cc1ccccc1NC(=O)NC[C@@H]1CC[C@@H](C(=O)OCCOCCOC(=O)c2ccc(-c3c4nc(c(-c5c(F)c(F)c(F)c(F)c5F)c5ccc([nH]5)c(-c5c(F)c(F)c(F)c(F)c5F)c5nc(c(-c6c(F)c(F)c(F)c(F)c6F)c6ccc3[nH]6)C=C5)C=C4)cc2)O1
REMARK SMILES IDX 21 1 20 2 19 3 17 4 18 5 16 6 13 7 14 8 91 9 15 10 12 11
REMARK SMILES IDX 11 12 8 13 9 14 10 16 7 18 1 19 2 20 3 21 4 22 6 23 5 24
REMARK SMILES IDX 22 25 23 26 24 27 25 28 26 29 27 30 28 31 29 32 90 33 30 34
REMARK SMILES IDX 89 35 31 36 32 37 33 38 83 39 34 40 88 41 82 42 84 43 35 44
REMARK SMILES IDX 87 45 81 46 80 47 36 49 68 50 48 51 67 52 49 53 52 54 66 55
REMARK SMILES IDX 85 56 50 57 51 58 65 60 86 61 53 62 37 63 38 64 46 65 39 66
REMARK SMILES IDX 40 67 44 68 47 69 41 70 42 71 45 72 43 73 69 74 70 75 78 76
REMARK SMILES IDX 71 77 72 78 76 79 79 80 73 81 74 82 77 83 75 84 54 85 55 86
REMARK SMILES IDX 63 87 56 88 57 89 61 90 64 91 58 92 59 93 62 94 60 95
REMARK H PARENT 8 15 11 17 84 48 52 59
REMARK Flexibility Score: inf
ROOT
ATOM      1  C   UNL A   1      40.945  19.746  26.793  1.00  0.00     0.202 C 
ENDROOT
BRANCH   1   2
ATOM      2  C   UNL A   1      40.544  21.150  26.421  1.00  0.00     0.261 C 
BRANCH   2   3
ATOM      3  O   UNL A   1      39.236  21.238  25.824  1.00  0.00    -0.461 OA
BRANCH   3   4
ATOM      4  C   UNL A   1      38.466  22.348  26.070  1.00  0.00     0.335 C 
ATOM      5  O   UNL A   1      38.877  23.433  26.468  1.00  0.00    -0.249 OA
BRANCH   4   6
ATOM      6  C   UNL A   1      37.009  22.032  25.750  1.00  0.00     0.228 C 
ATOM      7  C   UNL A   1      35.561  23.722  25.050  1.00  0.00     0.138 C 
ATOM      8  C   UNL A   1      35.574  22.656  23.973  1.00  0.00     0.037 C 
ATOM      9  O   UNL A   1      36.107  23.061  26.203  1.00  0.00    -0.361 OA
ATOM     10  C   UNL A   1      36.831  21.912  24.246  1.00  0.00     0.047 C 
BRANCH   7  11
ATOM     11  C   UNL A   1      34.156  24.289  25.333  1.00  0.00     0.149 C 
BRANCH  11  12
ATOM     12  N   UNL A   1      33.614  23.787  26.594  1.00  0.00    -0.335 N 
ATOM     13  N   UNL A   1      32.689  21.583  26.308  1.00  0.00    -0.308 N 
ATOM     14  C   UNL A   1      33.086  22.641  27.037  1.00  0.00     0.319 C 
ATOM     15  H   UNL A   1      32.585  20.785  26.875  1.00  0.00     0.171 HD
ATOM     16  O   UNL A   1      33.006  22.524  28.267  1.00  0.00    -0.249 OA
ATOM     17  H   UNL A   1      33.647  24.470  27.301  1.00  0.00     0.165 HD
BRANCH  13  18
ATOM     18  C   UNL A   1      32.382  21.294  24.968  1.00  0.00     0.045 A 
ATOM     19  C   UNL A   1      32.736  18.765  25.279  1.00  0.00     0.046 C 
ATOM     20  C   UNL A   1      32.528  19.996  24.443  1.00  0.00    -0.027 A 
ATOM     21  C   UNL A   1      32.357  19.780  23.055  1.00  0.00     0.005 A 
ATOM     22  C   UNL A   1      32.005  20.815  22.201  1.00  0.00     0.000 A 
ATOM     23  C   UNL A   1      31.846  22.250  24.126  1.00  0.00     0.026 A 
ATOM     24  C   UNL A   1      31.706  22.046  22.748  1.00  0.00     0.002 A 
ENDBRANCH  13  18
ENDBRANCH  11  12
ENDBRANCH   7  11
ENDBRANCH   4   6
ENDBRANCH   3   4
ENDBRANCH   2   3
ENDBRANCH   1   2
BRANCH   1  25
ATOM     25  O   UNL A   1      41.729  19.256  25.721  1.00  0.00    -0.374 OA
BRANCH  25  26
ATOM     26  C   UNL A   1      42.677  18.253  26.037  1.00  0.00     0.202 C 
BRANCH  26  27
ATOM     27  C   UNL A   1      44.098  18.575  25.549  1.00  0.00     0.261 C 
BRANCH  27  28
ATOM     28  O   UNL A   1      44.078  19.760  24.721  1.00  0.00    -0.460 OA
BRANCH  28  29
ATOM     29  C   UNL A   1      44.963  20.745  25.049  1.00  0.00     0.338 C 
ATOM     30  O   UNL A   1      46.136  20.577  25.323  1.00  0.00    -0.246 OA
BRANCH  29  31
ATOM     31  C   UNL A   1      44.219  22.013  25.313  1.00  0.00     0.060 A 
ATOM     32  C   UNL A   1      44.185  23.037  24.343  1.00  0.00     0.016 A 
ATOM     33  C   UNL A   1      43.867  22.299  26.626  1.00  0.00     0.016 A 
ATOM     34  C   UNL A   1      43.964  24.373  24.726  1.00  0.00     0.010 A 
ATOM     35  C   UNL A   1      43.781  23.617  27.010  1.00  0.00     0.010 A 
ATOM     36  C   UNL A   1      43.861  24.672  26.081  1.00  0.00    -0.014 A 
BRANCH  36  37
ATOM     37  C   UNL A   1      43.927  25.998  26.713  1.00  0.00     0.031 A 
ATOM     38  C   UNL A   1      42.639  26.717  26.894  1.00  0.00     0.074 A 
ATOM     39  C   UNL A   1      44.998  26.362  27.467  1.00  0.00     0.049 A 
ATOM     40  N   UNL A   1      42.517  27.825  27.532  1.00  0.00    -0.248 NA
ATOM     41  C   UNL A   1      41.361  26.255  26.353  1.00  0.00     0.031 C 
ATOM     42  C   UNL A   1      44.996  27.189  28.683  1.00  0.00     0.029 A 
ATOM     43  N   UNL A   1      46.355  26.027  27.342  1.00  0.00    -0.354 N 
ATOM     44  C   UNL A   1      41.185  28.021  27.801  1.00  0.00     0.074 A 
ATOM     45  C   UNL A   1      40.501  27.091  26.943  1.00  0.00     0.031 C 
ATOM     46  C   UNL A   1      46.253  27.532  29.012  1.00  0.00     0.029 A 
ATOM     47  C   UNL A   1      47.104  27.059  27.942  1.00  0.00     0.049 A 
ATOM     48  H   UNL A   1      46.718  25.217  26.914  1.00  0.00     0.167 HD
ATOM     49  C   UNL A   1      40.873  28.884  28.810  1.00  0.00     0.037 A 
ATOM     50  C   UNL A   1      47.994  27.785  27.213  1.00  0.00     0.037 A 
ATOM     51  C   UNL A   1      42.083  29.614  29.234  1.00  0.00     0.049 A 
ATOM     52  C   UNL A   1      47.511  29.205  27.172  1.00  0.00     0.074 A 
ATOM     53  C   UNL A   1      42.881  29.594  30.364  1.00  0.00     0.029 A 
ATOM     54  N   UNL A   1      42.807  30.311  28.263  1.00  0.00    -0.354 N 
ATOM     55  N   UNL A   1      46.254  29.519  27.344  1.00  0.00    -0.248 NA
ATOM     56  C   UNL A   1      48.378  30.371  27.095  1.00  0.00     0.031 C 
ATOM     57  C   UNL A   1      44.117  30.231  30.035  1.00  0.00     0.029 A 
ATOM     58  C   UNL A   1      44.061  30.665  28.717  1.00  0.00     0.049 A 
ATOM     59  H   UNL A   1      42.466  30.521  27.363  1.00  0.00     0.167 HD
ATOM     60  C   UNL A   1      46.144  30.862  27.528  1.00  0.00     0.074 A 
ATOM     61  C   UNL A   1      47.492  31.361  27.312  1.00  0.00     0.031 C 
ATOM     62  C   UNL A   1      44.967  31.456  27.881  1.00  0.00     0.037 A 
BRANCH  49  63
ATOM     63  C   UNL A   1      39.535  29.003  29.520  1.00  0.00     0.064 A 
ATOM     64  C   UNL A   1      38.448  29.643  28.881  1.00  0.00     0.173 A 
ATOM     65  C   UNL A   1      39.257  28.586  30.842  1.00  0.00     0.173 A 
ATOM     66  F   UNL A   1      38.552  30.106  27.627  1.00  0.00    -0.203 F 
ATOM     67  C   UNL A   1      37.209  29.846  29.504  1.00  0.00     0.198 A 
ATOM     68  C   UNL A   1      38.007  28.755  31.451  1.00  0.00     0.198 A 
ATOM     69  F   UNL A   1      40.180  28.032  31.629  1.00  0.00    -0.203 F 
ATOM     70  F   UNL A   1      36.233  30.494  28.852  1.00  0.00    -0.200 F 
ATOM     71  C   UNL A   1      36.985  29.392  30.787  1.00  0.00     0.200 A 
ATOM     72  F   UNL A   1      37.814  28.305  32.701  1.00  0.00    -0.200 F 
ATOM     73  F   UNL A   1      35.799  29.577  31.382  1.00  0.00    -0.200 F 
ENDBRANCH  49  63
BRANCH  50  74
ATOM     74  C   UNL A   1      48.636  26.929  26.170  1.00  0.00     0.064 A 
ATOM     75  C   UNL A   1      48.221  27.191  24.840  1.00  0.00     0.173 A 
ATOM     76  C   UNL A   1      49.933  26.426  26.344  1.00  0.00     0.173 A 
ATOM     77  F   UNL A   1      46.992  27.686  24.611  1.00  0.00    -0.203 F 
ATOM     78  C   UNL A   1      49.121  27.156  23.776  1.00  0.00     0.198 A 
ATOM     79  C   UNL A   1      50.827  26.374  25.266  1.00  0.00     0.198 A 
ATOM     80  F   UNL A   1      50.394  26.160  27.574  1.00  0.00    -0.203 F 
ATOM     81  F   UNL A   1      48.750  27.610  22.570  1.00  0.00    -0.200 F 
ATOM     82  C   UNL A   1      50.437  26.792  24.001  1.00  0.00     0.200 A 
ATOM     83  F   UNL A   1      52.108  26.034  25.474  1.00  0.00    -0.200 F 
ATOM     84  F   UNL A   1      51.342  26.918  23.018  1.00  0.00    -0.200 F 
ENDBRANCH  50  74
BRANCH  62  85
ATOM     85  C   UNL A   1      44.600  32.874  27.517  1.00  0.00     0.064 A 
ATOM     86  C   UNL A   1      44.054  33.241  26.274  1.00  0.00     0.173 A 
ATOM     87  C   UNL A   1      44.607  33.898  28.496  1.00  0.00     0.173 A 
ATOM     88  F   UNL A   1      43.847  32.347  25.299  1.00  0.00    -0.203 F 
ATOM     89  C   UNL A   1      43.633  34.542  26.004  1.00  0.00     0.198 A 
ATOM     90  C   UNL A   1      44.107  35.172  28.248  1.00  0.00     0.198 A 
ATOM     91  F   UNL A   1      45.056  33.690  29.742  1.00  0.00    -0.203 F 
ATOM     92  F   UNL A   1      43.180  34.845  24.780  1.00  0.00    -0.200 F 
ATOM     93  C   UNL A   1      43.644  35.503  26.994  1.00  0.00     0.200 A 
ATOM     94  F   UNL A   1      44.052  36.068  29.244  1.00  0.00    -0.200 F 
ATOM     95  F   UNL A   1      43.186  36.736  26.746  1.00  0.00    -0.200 F 
ENDBRANCH  62  85
ENDBRANCH  36  37
ENDBRANCH  29  31
ENDBRANCH  28  29
ENDBRANCH  27  28
ENDBRANCH  26  27
ENDBRANCH  25  26
ENDBRANCH   1  25
TORSDOF 17
ENDMDL
MODEL 3
REMARK VINA RESULT:     -12.2      5.814     11.764
REMARK SMILES Cc1ccccc1NC(=O)NC[C@@H]1CC[C@@H](C(=O)OCCOCCOC(=O)c2ccc(-c3c4nc(c(-c5c(F)c(F)c(F)c(F)c5F)c5ccc([nH]5)c(-c5c(F)c(F)c(F)c(F)c5F)c5nc(c(-c6c(F)c(F)c(F)c(F)c6F)c6ccc3[nH]6)C=C5)C=C4)cc2)O1
REMARK SMILES IDX 21 1 20 2 19 3 17 4 18 5 16 6 13 7 14 8 91 9 15 10 12 11
REMARK SMILES IDX 11 12 8 13 9 14 10 16 7 18 1 19 2 20 3 21 4 22 6 23 5 24
REMARK SMILES IDX 22 25 23 26 24 27 25 28 26 29 27 30 28 31 29 32 90 33 30 34
REMARK SMILES IDX 89 35 31 36 32 37 33 38 83 39 34 40 88 41 82 42 84 43 35 44
REMARK SMILES IDX 87 45 81 46 80 47 36 49 68 50 48 51 67 52 49 53 52 54 66 55
REMARK SMILES IDX 85 56 50 57 51 58 65 60 86 61 53 62 37 63 38 64 46 65 39 66
REMARK SMILES IDX 40 67 44 68 47 69 41 70 42 71 45 72 43 73 69 74 70 75 78 76
REMARK SMILES IDX 71 77 72 78 76 79 79 80 73 81 74 82 77 83 75 84 54 85 55 86
REMARK SMILES IDX 63 87 56 88 57 89 61 90 64 91 58 92 59 93 62 94 60 95
REMARK H PARENT 8 15 11 17 84 48 52 59
REMARK Flexibility Score: inf
ROOT
ATOM      1  C   UNL A   1      40.893  20.317  26.937  1.00  0.00     0.202 C 
ENDROOT
BRANCH   1   2
ATOM      2  C   UNL A   1      40.155  21.559  26.513  1.00  0.00     0.261 C 
BRANCH   2   3
ATOM      3  O   UNL A   1      38.950  21.290  25.771  1.00  0.00    -0.461 OA
BRANCH   3   4
ATOM      4  C   UNL A   1      38.023  22.292  25.621  1.00  0.00     0.335 C 
ATOM      5  O   UNL A   1      38.067  23.396  26.154  1.00  0.00    -0.249 OA
BRANCH   4   6
ATOM      6  C   UNL A   1      36.930  21.829  24.664  1.00  0.00     0.228 C 
ATOM      7  C   UNL A   1      34.745  22.609  24.902  1.00  0.00     0.138 C 
ATOM      8  C   UNL A   1      35.208  22.969  23.505  1.00  0.00     0.037 C 
ATOM      9  O   UNL A   1      35.672  21.598  25.330  1.00  0.00    -0.361 OA
ATOM     10  C   UNL A   1      36.689  22.895  23.610  1.00  0.00     0.047 C 
BRANCH   7  11
ATOM     11  C   UNL A   1      33.290  22.101  24.951  1.00  0.00     0.149 C 
BRANCH  11  12
ATOM     12  N   UNL A   1      32.556  22.672  26.079  1.00  0.00    -0.335 N 
ATOM     13  N   UNL A   1      31.625  24.814  25.495  1.00  0.00    -0.308 N 
ATOM     14  C   UNL A   1      31.790  23.746  26.296  1.00  0.00     0.319 C 
ATOM     15  H   UNL A   1      30.827  25.328  25.755  1.00  0.00     0.171 HD
ATOM     16  O   UNL A   1      31.112  23.725  27.332  1.00  0.00    -0.249 OA
ATOM     17  H   UNL A   1      32.651  22.123  26.890  1.00  0.00     0.165 HD
BRANCH  13  18
ATOM     18  C   UNL A   1      32.269  25.402  24.393  1.00  0.00     0.045 A 
ATOM     19  C   UNL A   1      33.782  26.866  25.872  1.00  0.00     0.046 C 
ATOM     20  C   UNL A   1      33.186  26.457  24.554  1.00  0.00    -0.027 A 
ATOM     21  C   UNL A   1      33.694  27.123  23.413  1.00  0.00     0.005 A 
ATOM     22  C   UNL A   1      33.339  26.730  22.130  1.00  0.00     0.000 A 
ATOM     23  C   UNL A   1      32.094  24.919  23.110  1.00  0.00     0.026 A 
ATOM     24  C   UNL A   1      32.570  25.594  21.980  1.00  0.00     0.002 A 
ENDBRANCH  13  18
ENDBRANCH  11  12
ENDBRANCH   7  11
ENDBRANCH   4   6
ENDBRANCH   3   4
ENDBRANCH   2   3
ENDBRANCH   1   2
BRANCH   1  25
ATOM     25  O   UNL A   1      41.481  19.780  25.767  1.00  0.00    -0.374 OA
BRANCH  25  26
ATOM     26  C   UNL A   1      42.533  18.853  25.954  1.00  0.00     0.202 C 
BRANCH  26  27
ATOM     27  C   UNL A   1      43.713  19.058  24.991  1.00  0.00     0.261 C 
BRANCH  27  28
ATOM     28  O   UNL A   1      44.838  19.622  25.702  1.00  0.00    -0.460 OA
BRANCH  28  29
ATOM     29  C   UNL A   1      45.493  20.647  25.085  1.00  0.00     0.338 C 
ATOM     30  O   UNL A   1      46.634  20.603  24.663  1.00  0.00    -0.246 OA
BRANCH  29  31
ATOM     31  C   UNL A   1      44.721  21.913  25.266  1.00  0.00     0.060 A 
ATOM     32  C   UNL A   1      44.768  22.926  24.287  1.00  0.00     0.016 A 
ATOM     33  C   UNL A   1      44.249  22.208  26.539  1.00  0.00     0.016 A 
ATOM     34  C   UNL A   1      44.504  24.264  24.635  1.00  0.00     0.010 A 
ATOM     35  C   UNL A   1      44.120  23.529  26.900  1.00  0.00     0.010 A 
ATOM     36  C   UNL A   1      44.276  24.575  25.971  1.00  0.00    -0.014 A 
BRANCH  36  37
ATOM     37  C   UNL A   1      44.276  25.909  26.593  1.00  0.00     0.031 A 
ATOM     38  C   UNL A   1      42.964  26.599  26.692  1.00  0.00     0.074 A 
ATOM     39  C   UNL A   1      45.294  26.304  27.403  1.00  0.00     0.049 A 
ATOM     40  N   UNL A   1      42.781  27.709  27.311  1.00  0.00    -0.248 NA
ATOM     41  C   UNL A   1      41.730  26.102  26.083  1.00  0.00     0.031 C 
ATOM     42  C   UNL A   1      45.203  27.141  28.609  1.00  0.00     0.029 A 
ATOM     43  N   UNL A   1      46.663  25.999  27.359  1.00  0.00    -0.354 N 
ATOM     44  C   UNL A   1      41.431  27.877  27.501  1.00  0.00     0.074 A 
ATOM     45  C   UNL A   1      40.819  26.924  26.615  1.00  0.00     0.031 C 
ATOM     46  C   UNL A   1      46.431  27.515  29.005  1.00  0.00     0.029 A 
ATOM     47  C   UNL A   1      47.353  27.053  27.991  1.00  0.00     0.049 A 
ATOM     48  H   UNL A   1      47.068  25.194  26.961  1.00  0.00     0.167 HD
ATOM     49  C   UNL A   1      41.043  28.742  28.482  1.00  0.00     0.037 A 
ATOM     50  C   UNL A   1      48.266  27.793  27.307  1.00  0.00     0.037 A 
ATOM     51  C   UNL A   1      42.209  29.502  28.967  1.00  0.00     0.049 A 
ATOM     52  C   UNL A   1      47.754  29.201  27.224  1.00  0.00     0.074 A 
ATOM     53  C   UNL A   1      42.941  29.511  30.142  1.00  0.00     0.029 A 
ATOM     54  N   UNL A   1      42.972  30.208  28.032  1.00  0.00    -0.354 N 
ATOM     55  N   UNL A   1      46.483  29.487  27.320  1.00  0.00    -0.248 NA
ATOM     56  C   UNL A   1      48.598  30.386  27.185  1.00  0.00     0.031 C 
ATOM     57  C   UNL A   1      44.180  30.174  29.877  1.00  0.00     0.029 A 
ATOM     58  C   UNL A   1      44.189  30.595  28.554  1.00  0.00     0.049 A 
ATOM     59  H   UNL A   1      42.678  30.402  27.113  1.00  0.00     0.167 HD
ATOM     60  C   UNL A   1      46.332  30.830  27.484  1.00  0.00     0.074 A 
ATOM     61  C   UNL A   1      47.679  31.358  27.341  1.00  0.00     0.031 C 
ATOM     62  C   UNL A   1      45.124  31.399  27.764  1.00  0.00     0.037 A 
BRANCH  49  63
ATOM     63  C   UNL A   1      39.663  28.835  29.114  1.00  0.00     0.064 A 
ATOM     64  C   UNL A   1      38.583  29.376  28.378  1.00  0.00     0.173 A 
ATOM     65  C   UNL A   1      39.334  28.490  30.443  1.00  0.00     0.173 A 
ATOM     66  F   UNL A   1      38.733  29.763  27.103  1.00  0.00    -0.203 F 
ATOM     67  C   UNL A   1      37.304  29.553  28.922  1.00  0.00     0.198 A 
ATOM     68  C   UNL A   1      38.046  28.632  30.975  1.00  0.00     0.198 A 
ATOM     69  F   UNL A   1      40.238  28.036  31.312  1.00  0.00    -0.203 F 
ATOM     70  F   UNL A   1      36.334  30.107  28.179  1.00  0.00    -0.200 F 
ATOM     71  C   UNL A   1      37.033  29.171  30.219  1.00  0.00     0.200 A 
ATOM     72  F   UNL A   1      37.808  28.253  32.241  1.00  0.00    -0.200 F 
ATOM     73  F   UNL A   1      35.808  29.332  30.739  1.00  0.00    -0.200 F 
ENDBRANCH  49  63
BRANCH  50  74
ATOM     74  C   UNL A   1      48.986  26.943  26.310  1.00  0.00     0.064 A 
ATOM     75  C   UNL A   1      48.653  27.193  24.956  1.00  0.00     0.173 A 
ATOM     76  C   UNL A   1      50.278  26.461  26.569  1.00  0.00     0.173 A 
ATOM     77  F   UNL A   1      47.434  27.668  24.647  1.00  0.00    -0.203 F 
ATOM     78  C   UNL A   1      49.619  27.168  23.951  1.00  0.00     0.198 A 
ATOM     79  C   UNL A   1      51.239  26.419  25.551  1.00  0.00     0.198 A 
ATOM     80  F   UNL A   1      50.663  26.208  27.827  1.00  0.00    -0.203 F 
ATOM     81  F   UNL A   1      49.318  27.612  22.721  1.00  0.00    -0.200 F 
ATOM     82  C   UNL A   1      50.923  26.826  24.261  1.00  0.00     0.200 A 
ATOM     83  F   UNL A   1      52.509  26.100  25.842  1.00  0.00    -0.200 F 
ATOM     84  F   UNL A   1      51.887  26.962  23.337  1.00  0.00    -0.200 F 
ENDBRANCH  50  74
BRANCH  62  85
ATOM     85  C   UNL A   1      44.746  32.805  27.365  1.00  0.00     0.064 A 
ATOM     86  C   UNL A   1      44.138  33.128  26.139  1.00  0.00     0.173 A 
ATOM     87  C   UNL A   1      44.811  33.865  28.302  1.00  0.00     0.173 A 
ATOM     88  F   UNL A   1      43.874  32.200  25.211  1.00  0.00    -0.203 F 
ATOM     89  C   UNL A   1      43.711  34.421  25.841  1.00  0.00     0.198 A 
ATOM     90  C   UNL A   1      44.306  35.133  28.031  1.00  0.00     0.198 A 
ATOM     91  F   UNL A   1      45.323  33.701  29.529  1.00  0.00    -0.203 F 
ATOM     92  F   UNL A   1      43.195  34.681  24.632  1.00  0.00    -0.200 F 
ATOM     93  C   UNL A   1      43.780  35.420  26.791  1.00  0.00     0.200 A 
ATOM     94  F   UNL A   1      44.309  36.067  28.993  1.00  0.00    -0.200 F 
ATOM     95  F   UNL A   1      43.316  36.645  26.520  1.00  0.00    -0.200 F 
ENDBRANCH  62  85
ENDBRANCH  36  37
ENDBRANCH  29  31
ENDBRANCH  28  29
ENDBRANCH  27  28
ENDBRANCH  26  27
ENDBRANCH  25  26
ENDBRANCH   1  25
TORSDOF 17
ENDMDL
