MODEL 1
REMARK VINA RESULT:     -11.5      0.000      0.000
REMARK SMILES Cc1cccc(NC(=O)C[C@H]([NH2+]C(C)C)C(=O)OCCOCCOC(=O)c2ccc(-c3c4nc(c(-c5c(F)c(F)c(F)c(F)c5F)c5ccc([nH]5)c(-c5c(F)c(F)c(F)c(F)c5F)c5nc(c(-c6c(F)c(F)c(F)c(F)c6F)c6ccc3[nH]6)C=C5)C=C4)cc2)c1
REMARK SMILES IDX 20 1 19 2 18 3 16 4 17 5 11 6 10 7 8 8 7 9 9 11 6 12 1 13
REMARK SMILES IDX 2 14 3 15 90 16 4 17 5 18 12 19 13 22 14 23 15 24 21 25
REMARK SMILES IDX 22 26 23 27 24 28 25 29 26 30 27 31 28 32 89 33 29 34 88 35
REMARK SMILES IDX 30 36 31 37 32 38 82 39 33 40 87 41 81 42 83 43 34 44 86 45
REMARK SMILES IDX 80 46 79 47 35 49 67 50 47 51 66 52 48 53 51 54 65 55 84 56
REMARK SMILES IDX 49 57 50 58 64 60 85 61 52 62 36 63 37 64 45 65 38 66 39 67
REMARK SMILES IDX 43 68 46 69 40 70 41 71 44 72 42 73 68 74 69 75 77 76 70 77
REMARK SMILES IDX 71 78 75 79 78 80 72 81 73 82 76 83 74 84 53 85 54 86 62 87
REMARK SMILES IDX 55 88 56 89 60 90 63 91 57 92 58 93 61 94 59 95
REMARK H PARENT 7 10 12 20 12 21 83 48 51 59
REMARK Flexibility Score: inf
ROOT
ATOM      1  C   UNL A   1      34.712  24.282  25.353  1.00  0.00     0.202 C 
ENDROOT
BRANCH   1   2
ATOM      2  C   UNL A   1      34.810  23.213  26.391  1.00  0.00     0.261 C 
BRANCH   2   3
ATOM      3  O   UNL A   1      34.342  22.078  25.712  1.00  0.00    -0.459 OA
BRANCH   3   4
ATOM      4  C   UNL A   1      35.157  21.062  25.374  1.00  0.00     0.365 C 
ATOM      5  O   UNL A   1      36.350  20.981  25.605  1.00  0.00    -0.245 OA
BRANCH   4   6
ATOM      6  C   UNL A   1      34.271  20.078  24.588  1.00  0.00     0.303 C 
BRANCH   6   7
ATOM      7  C   UNL A   1      32.772  20.534  24.580  1.00  0.00     0.177 C 
BRANCH   7   8
ATOM      8  C   UNL A   1      32.329  21.015  23.207  1.00  0.00     0.231 C 
ATOM      9  N   UNL A   1      32.261  22.255  22.544  1.00  0.00    -0.326 N 
ATOM     10  H   UNL A   1      32.513  22.201  21.593  1.00  0.00     0.169 HD
ATOM     11  O   UNL A   1      32.058  20.038  22.468  1.00  0.00    -0.274 OA
BRANCH   9  12
ATOM     12  C   UNL A   1      31.908  23.560  22.952  1.00  0.00     0.041 A 
ATOM     13  C   UNL A   1      28.763  26.610  23.946  1.00  0.00     0.044 C 
ATOM     14  C   UNL A   1      30.257  26.296  23.816  1.00  0.00    -0.049 A 
ATOM     15  C   UNL A   1      31.212  27.087  22.627  1.00  0.00     0.003 A 
ATOM     16  C   UNL A   1      30.547  24.575  24.105  1.00  0.00     0.029 A 
ATOM     17  C   UNL A   1      32.444  26.301  21.663  1.00  0.00     0.002 A 
ATOM     18  C   UNL A   1      32.807  24.603  21.774  1.00  0.00     0.026 A 
ENDBRANCH   9  12
ENDBRANCH   7   8
ENDBRANCH   6   7
BRANCH   6  19
ATOM     19  N   UNL A   1      34.446  18.649  25.006  1.00  0.00    -0.332 N 
ATOM     20  H   UNL A   1      34.446  18.623  26.026  1.00  0.00     0.347 HD
ATOM     21  H   UNL A   1      35.319  18.350  24.571  1.00  0.00     0.347 HD
BRANCH  19  22
ATOM     22  C   UNL A   1      33.433  17.685  24.536  1.00  0.00     0.176 C 
ATOM     23  C   UNL A   1      33.922  17.002  23.262  1.00  0.00     0.075 C 
ATOM     24  C   UNL A   1      33.146  16.599  25.587  1.00  0.00     0.075 C 
ENDBRANCH  19  22
ENDBRANCH   6  19
ENDBRANCH   4   6
ENDBRANCH   3   4
ENDBRANCH   2   3
ENDBRANCH   1   2
BRANCH   1  25
ATOM     25  O   UNL A   1      33.695  25.140  25.819  1.00  0.00    -0.374 OA
BRANCH  25  26
ATOM     26  C   UNL A   1      33.742  26.435  25.250  1.00  0.00     0.202 C 
BRANCH  26  27
ATOM     27  C   UNL A   1      33.242  27.525  26.210  1.00  0.00     0.261 C 
BRANCH  27  28
ATOM     28  O   UNL A   1      34.333  28.449  26.459  1.00  0.00    -0.460 OA
BRANCH  28  29
ATOM     29  C   UNL A   1      34.140  29.405  27.414  1.00  0.00     0.338 C 
ATOM     30  O   UNL A   1      33.074  29.947  27.657  1.00  0.00    -0.246 OA
BRANCH  29  31
ATOM     31  C   UNL A   1      35.472  29.912  27.908  1.00  0.00     0.060 A 
ATOM     32  C   UNL A   1      36.532  30.212  27.050  1.00  0.00     0.016 A 
ATOM     33  C   UNL A   1      35.786  29.725  29.243  1.00  0.00     0.016 A 
ATOM     34  C   UNL A   1      37.880  30.110  27.501  1.00  0.00     0.010 A 
ATOM     35  C   UNL A   1      37.088  29.366  29.586  1.00  0.00     0.010 A 
ATOM     36  C   UNL A   1      38.167  29.466  28.697  1.00  0.00    -0.014 A 
BRANCH  36  37
ATOM     37  C   UNL A   1      39.518  29.169  29.260  1.00  0.00     0.031 A 
ATOM     38  C   UNL A   1      39.914  27.781  29.015  1.00  0.00     0.074 A 
ATOM     39  C   UNL A   1      40.462  29.998  29.804  1.00  0.00     0.049 A 
ATOM     40  N   UNL A   1      40.772  27.149  29.729  1.00  0.00    -0.248 NA
ATOM     41  C   UNL A   1      39.288  26.928  27.998  1.00  0.00     0.031 C 
ATOM     42  C   UNL A   1      41.934  29.936  29.905  1.00  0.00     0.029 A 
ATOM     43  N   UNL A   1      40.341  31.311  30.186  1.00  0.00    -0.354 N 
ATOM     44  C   UNL A   1      41.166  26.107  28.935  1.00  0.00     0.074 A 
ATOM     45  C   UNL A   1      40.022  25.829  28.121  1.00  0.00     0.031 C 
ATOM     46  C   UNL A   1      42.447  30.975  30.636  1.00  0.00     0.029 A 
ATOM     47  C   UNL A   1      41.327  31.807  31.096  1.00  0.00     0.049 A 
ATOM     48  H   UNL A   1      39.613  31.881  29.849  1.00  0.00     0.167 HD
ATOM     49  C   UNL A   1      42.501  25.854  28.832  1.00  0.00     0.037 A 
ATOM     50  C   UNL A   1      41.109  32.532  32.265  1.00  0.00     0.037 A 
ATOM     51  C   UNL A   1      43.275  26.717  29.774  1.00  0.00     0.049 A 
ATOM     52  C   UNL A   1      41.596  31.361  33.246  1.00  0.00     0.074 A 
ATOM     53  C   UNL A   1      44.300  27.643  29.637  1.00  0.00     0.029 A 
ATOM     54  N   UNL A   1      42.794  26.911  31.083  1.00  0.00    -0.354 N 
ATOM     55  N   UNL A   1      41.645  30.100  32.841  1.00  0.00    -0.248 NA
ATOM     56  C   UNL A   1      42.267  31.489  34.548  1.00  0.00     0.031 C 
ATOM     57  C   UNL A   1      44.417  28.379  30.867  1.00  0.00     0.029 A 
ATOM     58  C   UNL A   1      43.422  27.955  31.744  1.00  0.00     0.049 A 
ATOM     59  H   UNL A   1      42.085  26.362  31.488  1.00  0.00     0.167 HD
ATOM     60  C   UNL A   1      42.553  29.390  33.571  1.00  0.00     0.074 A 
ATOM     61  C   UNL A   1      42.797  30.253  34.720  1.00  0.00     0.031 C 
ATOM     62  C   UNL A   1      43.135  28.211  33.165  1.00  0.00     0.037 A 
BRANCH  49  63
ATOM     63  C   UNL A   1      43.114  24.984  27.733  1.00  0.00     0.064 A 
ATOM     64  C   UNL A   1      42.899  23.592  27.742  1.00  0.00     0.173 A 
ATOM     65  C   UNL A   1      43.899  25.421  26.634  1.00  0.00     0.173 A 
ATOM     66  F   UNL A   1      42.190  23.002  28.711  1.00  0.00    -0.203 F 
ATOM     67  C   UNL A   1      43.389  22.737  26.744  1.00  0.00     0.198 A 
ATOM     68  C   UNL A   1      44.370  24.573  25.628  1.00  0.00     0.198 A 
ATOM     69  F   UNL A   1      44.279  26.683  26.450  1.00  0.00    -0.203 F 
ATOM     70  F   UNL A   1      43.142  21.423  26.823  1.00  0.00    -0.200 F 
ATOM     71  C   UNL A   1      44.109  23.229  25.677  1.00  0.00     0.200 A 
ATOM     72  F   UNL A   1      45.073  25.088  24.607  1.00  0.00    -0.200 F 
ATOM     73  F   UNL A   1      44.544  22.419  24.705  1.00  0.00    -0.200 F 
ENDBRANCH  49  63
BRANCH  50  74
ATOM     74  C   UNL A   1      39.637  33.385  32.328  1.00  0.00     0.064 A 
ATOM     75  C   UNL A   1      37.854  32.910  32.016  1.00  0.00     0.173 A 
ATOM     76  C   UNL A   1      39.985  34.150  33.846  1.00  0.00     0.173 A 
ATOM     77  F   UNL A   1      37.648  32.353  30.802  1.00  0.00    -0.203 F 
ATOM     78  C   UNL A   1      36.561  33.054  33.625  1.00  0.00     0.198 A 
ATOM     79  C   UNL A   1      38.879  34.257  35.194  1.00  0.00     0.198 A 
ATOM     80  F   UNL A   1      41.031  35.005  33.838  1.00  0.00    -0.203 F 
ATOM     81  F   UNL A   1      35.285  32.649  33.856  1.00  0.00    -0.200 F 
ATOM     82  C   UNL A   1      37.250  33.676  35.163  1.00  0.00     0.200 A 
ATOM     83  F   UNL A   1      38.995  35.448  35.813  1.00  0.00    -0.200 F 
ATOM     84  F   UNL A   1      36.472  33.873  36.233  1.00  0.00    -0.200 F 
ENDBRANCH  50  74
BRANCH  62  85
ATOM     85  C   UNL A   1      43.533  27.120  34.128  1.00  0.00     0.064 A 
ATOM     86  C   UNL A   1      44.859  26.924  34.534  1.00  0.00     0.173 A 
ATOM     87  C   UNL A   1      42.552  26.399  34.858  1.00  0.00     0.173 A 
ATOM     88  F   UNL A   1      45.862  27.653  34.026  1.00  0.00    -0.203 F 
ATOM     89  C   UNL A   1      45.189  26.008  35.529  1.00  0.00     0.198 A 
ATOM     90  C   UNL A   1      42.880  25.558  35.913  1.00  0.00     0.198 A 
ATOM     91  F   UNL A   1      41.240  26.514  34.610  1.00  0.00    -0.203 F 
ATOM     92  F   UNL A   1      46.478  25.803  35.833  1.00  0.00    -0.200 F 
ATOM     93  C   UNL A   1      44.202  25.336  36.226  1.00  0.00     0.200 A 
ATOM     94  F   UNL A   1      41.905  24.988  36.635  1.00  0.00    -0.200 F 
ATOM     95  F   UNL A   1      44.524  24.487  37.210  1.00  0.00    -0.200 F 
ENDBRANCH  62  85
ENDBRANCH  36  37
ENDBRANCH  29  31
ENDBRANCH  28  29
ENDBRANCH  27  28
ENDBRANCH  26  27
ENDBRANCH  25  26
ENDBRANCH   1  25
TORSDOF 19
ENDMDL
MODEL 2
REMARK VINA RESULT:     -11.2      3.115      8.905
REMARK SMILES Cc1cccc(NC(=O)C[C@H]([NH2+]C(C)C)C(=O)OCCOCCOC(=O)c2ccc(-c3c4nc(c(-c5c(F)c(F)c(F)c(F)c5F)c5ccc([nH]5)c(-c5c(F)c(F)c(F)c(F)c5F)c5nc(c(-c6c(F)c(F)c(F)c(F)c6F)c6ccc3[nH]6)C=C5)C=C4)cc2)c1
REMARK SMILES IDX 20 1 19 2 18 3 16 4 17 5 11 6 10 7 8 8 7 9 9 11 6 12 1 13
REMARK SMILES IDX 2 14 3 15 90 16 4 17 5 18 12 19 13 22 14 23 15 24 21 25
REMARK SMILES IDX 22 26 23 27 24 28 25 29 26 30 27 31 28 32 89 33 29 34 88 35
REMARK SMILES IDX 30 36 31 37 32 38 82 39 33 40 87 41 81 42 83 43 34 44 86 45
REMARK SMILES IDX 80 46 79 47 35 49 67 50 47 51 66 52 48 53 51 54 65 55 84 56
REMARK SMILES IDX 49 57 50 58 64 60 85 61 52 62 36 63 37 64 45 65 38 66 39 67
REMARK SMILES IDX 43 68 46 69 40 70 41 71 44 72 42 73 68 74 69 75 77 76 70 77
REMARK SMILES IDX 71 78 75 79 78 80 72 81 73 82 76 83 74 84 53 85 54 86 62 87
REMARK SMILES IDX 55 88 56 89 60 90 63 91 57 92 58 93 61 94 59 95
REMARK H PARENT 7 10 12 20 12 21 83 48 51 59
REMARK Flexibility Score: inf
ROOT
ATOM      1  C   UNL A   1      35.925  22.967  23.685  1.00  0.00     0.202 C 
ENDROOT
BRANCH   1   2
ATOM      2  C   UNL A   1      34.623  23.455  23.140  1.00  0.00     0.261 C 
BRANCH   2   3
ATOM      3  O   UNL A   1      33.775  23.382  24.255  1.00  0.00    -0.459 OA
BRANCH   3   4
ATOM      4  C   UNL A   1      32.442  23.245  24.129  1.00  0.00     0.365 C 
ATOM      5  O   UNL A   1      31.726  23.818  23.328  1.00  0.00    -0.245 OA
BRANCH   4   6
ATOM      6  C   UNL A   1      32.029  22.270  25.247  1.00  0.00     0.303 C 
BRANCH   6   7
ATOM      7  C   UNL A   1      31.814  23.015  26.609  1.00  0.00     0.177 C 
BRANCH   7   8
ATOM      8  C   UNL A   1      30.492  23.765  26.646  1.00  0.00     0.231 C 
ATOM      9  N   UNL A   1      29.909  24.825  25.926  1.00  0.00    -0.326 N 
ATOM     10  H   UNL A   1      28.948  24.695  25.754  1.00  0.00     0.169 HD
ATOM     11  O   UNL A   1      29.704  23.222  27.458  1.00  0.00    -0.274 OA
BRANCH   9  12
ATOM     12  C   UNL A   1      30.410  26.034  25.398  1.00  0.00     0.041 A 
ATOM     13  C   UNL A   1      31.655  30.313  25.973  1.00  0.00     0.044 C 
ATOM     14  C   UNL A   1      31.483  29.141  25.000  1.00  0.00    -0.049 A 
ATOM     15  C   UNL A   1      30.338  29.232  23.723  1.00  0.00     0.003 A 
ATOM     16  C   UNL A   1      31.649  27.605  25.861  1.00  0.00     0.029 A 
ATOM     17  C   UNL A   1      29.306  27.909  23.223  1.00  0.00     0.002 A 
ATOM     18  C   UNL A   1      29.295  26.356  24.006  1.00  0.00     0.026 A 
ENDBRANCH   9  12
ENDBRANCH   7   8
ENDBRANCH   6   7
BRANCH   6  19
ATOM     19  N   UNL A   1      32.933  21.080  25.367  1.00  0.00    -0.332 N 
ATOM     20  H   UNL A   1      33.021  20.858  26.358  1.00  0.00     0.347 HD
ATOM     21  H   UNL A   1      33.802  21.358  24.911  1.00  0.00     0.347 HD
BRANCH  19  22
ATOM     22  C   UNL A   1      32.512  19.849  24.671  1.00  0.00     0.176 C 
ATOM     23  C   UNL A   1      32.255  20.151  23.197  1.00  0.00     0.075 C 
ATOM     24  C   UNL A   1      33.584  18.748  24.758  1.00  0.00     0.075 C 
ENDBRANCH  19  22
ENDBRANCH   6  19
ENDBRANCH   4   6
ENDBRANCH   3   4
ENDBRANCH   2   3
ENDBRANCH   1   2
BRANCH   1  25
ATOM     25  O   UNL A   1      35.620  21.725  24.281  1.00  0.00    -0.374 OA
BRANCH  25  26
ATOM     26  C   UNL A   1      36.346  21.475  25.469  1.00  0.00     0.202 C 
BRANCH  26  27
ATOM     27  C   UNL A   1      37.762  20.941  25.199  1.00  0.00     0.261 C 
BRANCH  27  28
ATOM     28  O   UNL A   1      38.700  22.035  25.360  1.00  0.00    -0.460 OA
BRANCH  28  29
ATOM     29  C   UNL A   1      39.788  21.816  26.155  1.00  0.00     0.338 C 
ATOM     30  O   UNL A   1      40.463  20.800  26.154  1.00  0.00    -0.246 OA
BRANCH  29  31
ATOM     31  C   UNL A   1      39.852  22.865  27.237  1.00  0.00     0.060 A 
ATOM     32  C   UNL A   1      38.992  23.964  27.277  1.00  0.00     0.016 A 
ATOM     33  C   UNL A   1      41.010  22.954  27.991  1.00  0.00     0.016 A 
ATOM     34  C   UNL A   1      39.403  25.185  27.886  1.00  0.00     0.010 A 
ATOM     35  C   UNL A   1      41.498  24.214  28.331  1.00  0.00     0.010 A 
ATOM     36  C   UNL A   1      40.738  25.386  28.210  1.00  0.00    -0.014 A 
BRANCH  36  37
ATOM     37  C   UNL A   1      41.359  26.636  28.741  1.00  0.00     0.031 A 
ATOM     38  C   UNL A   1      40.443  27.775  28.658  1.00  0.00     0.074 A 
ATOM     39  C   UNL A   1      42.540  26.834  29.407  1.00  0.00     0.049 A 
ATOM     40  N   UNL A   1      40.829  28.998  28.623  1.00  0.00    -0.248 NA
ATOM     41  C   UNL A   1      38.992  27.636  28.491  1.00  0.00     0.031 C 
ATOM     42  C   UNL A   1      43.000  27.841  30.384  1.00  0.00     0.029 A 
ATOM     43  N   UNL A   1      43.589  25.967  29.580  1.00  0.00    -0.354 N 
ATOM     44  C   UNL A   1      39.720  29.710  28.989  1.00  0.00     0.074 A 
ATOM     45  C   UNL A   1      38.621  28.910  28.541  1.00  0.00     0.031 C 
ATOM     46  C   UNL A   1      44.322  27.683  30.707  1.00  0.00     0.029 A 
ATOM     47  C   UNL A   1      44.848  26.548  29.937  1.00  0.00     0.049 A 
ATOM     48  H   UNL A   1      43.481  24.996  29.464  1.00  0.00     0.167 HD
ATOM     49  C   UNL A   1      39.874  30.695  29.916  1.00  0.00     0.037 A 
ATOM     50  C   UNL A   1      46.089  26.294  29.361  1.00  0.00     0.037 A 
ATOM     51  C   UNL A   1      41.318  30.896  30.238  1.00  0.00     0.049 A 
ATOM     52  C   UNL A   1      46.235  27.748  28.702  1.00  0.00     0.074 A 
ATOM     53  C   UNL A   1      42.080  30.850  31.398  1.00  0.00     0.029 A 
ATOM     54  N   UNL A   1      42.263  30.894  29.194  1.00  0.00    -0.354 N 
ATOM     55  N   UNL A   1      45.180  28.526  28.511  1.00  0.00    -0.248 NA
ATOM     56  C   UNL A   1      47.465  28.518  28.468  1.00  0.00     0.031 C 
ATOM     57  C   UNL A   1      43.469  30.820  31.031  1.00  0.00     0.029 A 
ATOM     58  C   UNL A   1      43.570  30.781  29.643  1.00  0.00     0.049 A 
ATOM     59  H   UNL A   1      42.021  30.965  28.243  1.00  0.00     0.167 HD
ATOM     60  C   UNL A   1      45.543  29.840  28.473  1.00  0.00     0.074 A 
ATOM     61  C   UNL A   1      46.988  29.774  28.291  1.00  0.00     0.031 C 
ATOM     62  C   UNL A   1      44.690  30.896  28.696  1.00  0.00     0.037 A 
BRANCH  49  63
ATOM     63  C   UNL A   1      38.708  31.323  30.683  1.00  0.00     0.064 A 
ATOM     64  C   UNL A   1      37.792  32.153  30.006  1.00  0.00     0.173 A 
ATOM     65  C   UNL A   1      38.399  31.157  32.059  1.00  0.00     0.173 A 
ATOM     66  F   UNL A   1      37.933  32.431  28.705  1.00  0.00    -0.203 F 
ATOM     67  C   UNL A   1      36.675  32.726  30.631  1.00  0.00     0.198 A 
ATOM     68  C   UNL A   1      37.274  31.709  32.677  1.00  0.00     0.198 A 
ATOM     69  F   UNL A   1      39.154  30.465  32.909  1.00  0.00    -0.203 F 
ATOM     70  F   UNL A   1      35.850  33.504  29.919  1.00  0.00    -0.200 F 
ATOM     71  C   UNL A   1      36.405  32.489  31.961  1.00  0.00     0.200 A 
ATOM     72  F   UNL A   1      37.048  31.462  33.977  1.00  0.00    -0.200 F 
ATOM     73  F   UNL A   1      35.318  33.004  32.548  1.00  0.00    -0.200 F 
ENDBRANCH  49  63
BRANCH  50  74
ATOM     74  C   UNL A   1      46.234  24.789  28.579  1.00  0.00     0.064 A 
ATOM     75  C   UNL A   1      45.101  23.309  28.403  1.00  0.00     0.173 A 
ATOM     76  C   UNL A   1      46.877  25.455  27.111  1.00  0.00     0.173 A 
ATOM     77  F   UNL A   1      44.666  22.819  29.585  1.00  0.00    -0.203 F 
ATOM     78  C   UNL A   1      44.488  22.834  26.485  1.00  0.00     0.198 A 
ATOM     79  C   UNL A   1      46.342  25.043  25.501  1.00  0.00     0.198 A 
ATOM     80  F   UNL A   1      48.085  26.051  27.226  1.00  0.00    -0.203 F 
ATOM     81  F   UNL A   1      43.561  21.986  25.968  1.00  0.00    -0.200 F 
ATOM     82  C   UNL A   1      45.143  23.845  25.152  1.00  0.00     0.200 A 
ATOM     83  F   UNL A   1      47.385  24.998  24.649  1.00  0.00    -0.200 F 
ATOM     84  F   UNL A   1      44.860  23.565  23.875  1.00  0.00    -0.200 F 
ENDBRANCH  50  74
BRANCH  62  85
ATOM     85  C   UNL A   1      44.846  32.233  28.013  1.00  0.00     0.064 A 
ATOM     86  C   UNL A   1      44.279  32.507  26.762  1.00  0.00     0.173 A 
ATOM     87  C   UNL A   1      45.363  33.354  28.714  1.00  0.00     0.173 A 
ATOM     88  F   UNL A   1      43.627  31.565  26.066  1.00  0.00    -0.203 F 
ATOM     89  C   UNL A   1      44.311  33.786  26.211  1.00  0.00     0.198 A 
ATOM     90  C   UNL A   1      45.307  34.642  28.200  1.00  0.00     0.198 A 
ATOM     91  F   UNL A   1      45.901  33.252  29.937  1.00  0.00    -0.203 F 
ATOM     92  F   UNL A   1      43.820  33.984  24.981  1.00  0.00    -0.200 F 
ATOM     93  C   UNL A   1      44.812  34.853  26.933  1.00  0.00     0.200 A 
ATOM     94  F   UNL A   1      45.713  35.675  28.952  1.00  0.00    -0.200 F 
ATOM     95  F   UNL A   1      44.802  36.087  26.415  1.00  0.00    -0.200 F 
ENDBRANCH  62  85
ENDBRANCH  36  37
ENDBRANCH  29  31
ENDBRANCH  28  29
ENDBRANCH  27  28
ENDBRANCH  26  27
ENDBRANCH  25  26
ENDBRANCH   1  25
TORSDOF 19
ENDMDL
MODEL 3
REMARK VINA RESULT:     -11.2      2.359      4.606
REMARK SMILES Cc1cccc(NC(=O)C[C@H]([NH2+]C(C)C)C(=O)OCCOCCOC(=O)c2ccc(-c3c4nc(c(-c5c(F)c(F)c(F)c(F)c5F)c5ccc([nH]5)c(-c5c(F)c(F)c(F)c(F)c5F)c5nc(c(-c6c(F)c(F)c(F)c(F)c6F)c6ccc3[nH]6)C=C5)C=C4)cc2)c1
REMARK SMILES IDX 20 1 19 2 18 3 16 4 17 5 11 6 10 7 8 8 7 9 9 11 6 12 1 13
REMARK SMILES IDX 2 14 3 15 90 16 4 17 5 18 12 19 13 22 14 23 15 24 21 25
REMARK SMILES IDX 22 26 23 27 24 28 25 29 26 30 27 31 28 32 89 33 29 34 88 35
REMARK SMILES IDX 30 36 31 37 32 38 82 39 33 40 87 41 81 42 83 43 34 44 86 45
REMARK SMILES IDX 80 46 79 47 35 49 67 50 47 51 66 52 48 53 51 54 65 55 84 56
REMARK SMILES IDX 49 57 50 58 64 60 85 61 52 62 36 63 37 64 45 65 38 66 39 67
REMARK SMILES IDX 43 68 46 69 40 70 41 71 44 72 42 73 68 74 69 75 77 76 70 77
REMARK SMILES IDX 71 78 75 79 78 80 72 81 73 82 76 83 74 84 53 85 54 86 62 87
REMARK SMILES IDX 55 88 56 89 60 90 63 91 57 92 58 93 61 94 59 95
REMARK H PARENT 7 10 12 20 12 21 83 48 51 59
REMARK Flexibility Score: inf
ROOT
ATOM      1  C   UNL A   1      32.230  28.878  27.057  1.00  0.00     0.202 C 
ENDROOT
BRANCH   1   2
ATOM      2  C   UNL A   1      31.506  27.619  26.709  1.00  0.00     0.261 C 
BRANCH   2   3
ATOM      3  O   UNL A   1      31.032  27.882  25.415  1.00  0.00    -0.459 OA
BRANCH   3   4
ATOM      4  C   UNL A   1      30.502  26.918  24.640  1.00  0.00     0.365 C 
ATOM      5  O   UNL A   1      30.378  25.742  24.927  1.00  0.00    -0.245 OA
BRANCH   4   6
ATOM      6  C   UNL A   1      30.156  27.615  23.310  1.00  0.00     0.303 C 
BRANCH   6   7
ATOM      7  C   UNL A   1      31.044  27.083  22.134  1.00  0.00     0.177 C 
BRANCH   7   8
ATOM      8  C   UNL A   1      32.529  27.230  22.429  1.00  0.00     0.231 C 
ATOM      9  N   UNL A   1      33.629  26.360  22.543  1.00  0.00    -0.326 N 
ATOM     10  H   UNL A   1      34.456  26.726  22.153  1.00  0.00     0.169 HD
ATOM     11  O   UNL A   1      32.846  28.443  22.479  1.00  0.00    -0.274 OA
BRANCH   9  12
ATOM     12  C   UNL A   1      33.798  25.072  23.096  1.00  0.00     0.041 A 
ATOM     13  C   UNL A   1      32.384  20.838  23.607  1.00  0.00     0.044 C 
ATOM     14  C   UNL A   1      33.438  21.894  23.954  1.00  0.00    -0.049 A 
ATOM     15  C   UNL A   1      33.615  22.449  25.570  1.00  0.00     0.003 A 
ATOM     16  C   UNL A   1      33.565  23.081  22.649  1.00  0.00     0.029 A 
ATOM     17  C   UNL A   1      33.894  24.118  26.019  1.00  0.00     0.002 A 
ATOM     18  C   UNL A   1      33.978  25.417  24.866  1.00  0.00     0.026 A 
ENDBRANCH   9  12
ENDBRANCH   7   8
ENDBRANCH   6   7
BRANCH   6  19
ATOM     19  N   UNL A   1      30.143  29.111  23.404  1.00  0.00    -0.332 N 
ATOM     20  H   UNL A   1      30.963  29.458  22.907  1.00  0.00     0.347 HD
ATOM     21  H   UNL A   1      30.131  29.315  24.404  1.00  0.00     0.347 HD
BRANCH  19  22
ATOM     22  C   UNL A   1      28.962  29.805  22.857  1.00  0.00     0.176 C 
ATOM     23  C   UNL A   1      27.717  28.949  23.066  1.00  0.00     0.075 C 
ATOM     24  C   UNL A   1      28.733  31.166  23.538  1.00  0.00     0.075 C 
ENDBRANCH  19  22
ENDBRANCH   6  19
ENDBRANCH   4   6
ENDBRANCH   3   4
ENDBRANCH   2   3
ENDBRANCH   1   2
BRANCH   1  25
ATOM     25  O   UNL A   1      33.596  28.547  26.945  1.00  0.00    -0.374 OA
BRANCH  25  26
ATOM     26  C   UNL A   1      34.460  29.502  27.530  1.00  0.00     0.202 C 
BRANCH  26  27
ATOM     27  C   UNL A   1      33.825  30.899  27.624  1.00  0.00     0.261 C 
BRANCH  27  28
ATOM     28  O   UNL A   1      34.865  31.850  27.966  1.00  0.00    -0.460 OA
BRANCH  28  29
ATOM     29  C   UNL A   1      34.713  32.555  29.125  1.00  0.00     0.338 C 
ATOM     30  O   UNL A   1      33.751  33.252  29.400  1.00  0.00    -0.246 OA
BRANCH  29  31
ATOM     31  C   UNL A   1      36.023  32.598  29.874  1.00  0.00     0.060 A 
ATOM     32  C   UNL A   1      37.179  33.174  29.343  1.00  0.00     0.016 A 
ATOM     33  C   UNL A   1      36.192  31.732  30.939  1.00  0.00     0.016 A 
ATOM     34  C   UNL A   1      38.467  32.715  29.745  1.00  0.00     0.010 A 
ATOM     35  C   UNL A   1      37.428  31.112  31.115  1.00  0.00     0.010 A 
ATOM     36  C   UNL A   1      38.592  31.530  30.456  1.00  0.00    -0.014 A 
BRANCH  36  37
ATOM     37  C   UNL A   1      39.859  30.847  30.854  1.00  0.00     0.031 A 
ATOM     38  C   UNL A   1      40.013  29.555  30.182  1.00  0.00     0.074 A 
ATOM     39  C   UNL A   1      40.922  31.294  31.593  1.00  0.00     0.049 A 
ATOM     40  N   UNL A   1      40.733  28.597  30.639  1.00  0.00    -0.248 NA
ATOM     41  C   UNL A   1      39.269  29.177  28.975  1.00  0.00     0.031 C 
ATOM     42  C   UNL A   1      42.358  30.952  31.620  1.00  0.00     0.029 A 
ATOM     43  N   UNL A   1      41.023  32.426  32.363  1.00  0.00    -0.354 N 
ATOM     44  C   UNL A   1      40.957  27.798  29.550  1.00  0.00     0.074 A 
ATOM     45  C   UNL A   1      39.798  27.984  28.731  1.00  0.00     0.031 C 
ATOM     46  C   UNL A   1      43.029  31.612  32.615  1.00  0.00     0.029 A 
ATOM     47  C   UNL A   1      42.062  32.441  33.347  1.00  0.00     0.049 A 
ATOM     48  H   UNL A   1      40.412  33.188  32.242  1.00  0.00     0.167 HD
ATOM     49  C   UNL A   1      42.228  27.364  29.329  1.00  0.00     0.037 A 
ATOM     50  C   UNL A   1      41.949  32.797  34.688  1.00  0.00     0.037 A 
ATOM     51  C   UNL A   1      43.122  27.749  30.463  1.00  0.00     0.049 A 
ATOM     52  C   UNL A   1      42.205  31.316  35.246  1.00  0.00     0.074 A 
ATOM     53  C   UNL A   1      44.295  28.483  30.581  1.00  0.00     0.029 A 
ATOM     54  N   UNL A   1      42.655  27.611  31.784  1.00  0.00    -0.354 N 
ATOM     55  N   UNL A   1      42.043  30.252  34.473  1.00  0.00    -0.248 NA
ATOM     56  C   UNL A   1      42.863  30.920  36.500  1.00  0.00     0.031 C 
ATOM     57  C   UNL A   1      44.513  28.773  31.972  1.00  0.00     0.029 A 
ATOM     58  C   UNL A   1      43.442  28.278  32.711  1.00  0.00     0.049 A 
ATOM     59  H   UNL A   1      41.854  27.094  32.026  1.00  0.00     0.167 HD
ATOM     60  C   UNL A   1      42.799  29.208  34.918  1.00  0.00     0.074 A 
ATOM     61  C   UNL A   1      43.165  29.620  36.267  1.00  0.00     0.031 C 
ATOM     62  C   UNL A   1      43.175  28.129  34.150  1.00  0.00     0.037 A 
BRANCH  49  63
ATOM     63  C   UNL A   1      42.704  26.783  27.996  1.00  0.00     0.064 A 
ATOM     64  C   UNL A   1      43.180  25.458  27.941  1.00  0.00     0.173 A 
ATOM     65  C   UNL A   1      42.711  27.431  26.733  1.00  0.00     0.173 A 
ATOM     66  F   UNL A   1      43.255  24.698  29.039  1.00  0.00    -0.203 F 
ATOM     67  C   UNL A   1      43.588  24.842  26.749  1.00  0.00     0.198 A 
ATOM     68  C   UNL A   1      43.097  26.812  25.542  1.00  0.00     0.198 A 
ATOM     69  F   UNL A   1      42.360  28.703  26.551  1.00  0.00    -0.203 F 
ATOM     70  F   UNL A   1      44.030  23.578  26.779  1.00  0.00    -0.200 F 
ATOM     71  C   UNL A   1      43.530  25.512  25.546  1.00  0.00     0.200 A 
ATOM     72  F   UNL A   1      43.032  27.499  24.390  1.00  0.00    -0.200 F 
ATOM     73  F   UNL A   1      43.882  24.912  24.404  1.00  0.00    -0.200 F 
ENDBRANCH  49  63
BRANCH  50  74
ATOM     74  C   UNL A   1      40.647  33.829  35.060  1.00  0.00     0.064 A 
ATOM     75  C   UNL A   1      38.787  33.632  35.008  1.00  0.00     0.173 A 
ATOM     76  C   UNL A   1      41.330  34.380  36.557  1.00  0.00     0.173 A 
ATOM     77  F   UNL A   1      38.320  33.235  33.803  1.00  0.00    -0.203 F 
ATOM     78  C   UNL A   1      37.788  33.781  36.814  1.00  0.00     0.198 A 
ATOM     79  C   UNL A   1      40.469  34.495  38.072  1.00  0.00     0.198 A 
ATOM     80  F   UNL A   1      42.478  35.084  36.446  1.00  0.00    -0.203 F 
ATOM     81  F   UNL A   1      36.515  33.529  37.217  1.00  0.00    -0.200 F 
ATOM     82  C   UNL A   1      38.786  34.144  38.262  1.00  0.00     0.200 A 
ATOM     83  F   UNL A   1      40.853  35.590  38.757  1.00  0.00    -0.200 F 
ATOM     84  F   UNL A   1      38.216  34.332  39.458  1.00  0.00    -0.200 F 
ENDBRANCH  50  74
BRANCH  62  85
ATOM     85  C   UNL A   1      43.358  26.743  34.719  1.00  0.00     0.064 A 
ATOM     86  C   UNL A   1      42.274  25.930  35.077  1.00  0.00     0.173 A 
ATOM     87  C   UNL A   1      44.624  26.103  34.687  1.00  0.00     0.173 A 
ATOM     88  F   UNL A   1      41.012  26.373  35.003  1.00  0.00    -0.203 F 
ATOM     89  C   UNL A   1      42.454  24.605  35.465  1.00  0.00     0.198 A 
ATOM     90  C   UNL A   1      44.784  24.756  34.984  1.00  0.00     0.198 A 
ATOM     91  F   UNL A   1      45.746  26.743  34.327  1.00  0.00    -0.203 F 
ATOM     92  F   UNL A   1      41.396  23.889  35.867  1.00  0.00    -0.200 F 
ATOM     93  C   UNL A   1      43.703  24.016  35.407  1.00  0.00     0.200 A 
ATOM     94  F   UNL A   1      45.986  24.182  34.833  1.00  0.00    -0.200 F 
ATOM     95  F   UNL A   1      43.863  22.730  35.742  1.00  0.00    -0.200 F 
ENDBRANCH  62  85
ENDBRANCH  36  37
ENDBRANCH  29  31
ENDBRANCH  28  29
ENDBRANCH  27  28
ENDBRANCH  26  27
ENDBRANCH  25  26
ENDBRANCH   1  25
TORSDOF 19
ENDMDL
