MODEL 1
REMARK VINA RESULT:     -10.3      0.000      0.000
REMARK SMILES O=C(CCCc1nc2cc(Br)ccc2o1)OCCOCCOC(=O)c1ccc(-c2c3nc(c(-c4c(F)c(F)c(F)c(F)c4F)c4ccc([nH]4)c(-c4c(F)c(F)c(F)c(F)c4F)c4nc(c(-c5c(F)c(F)c(F)c(F)c5F)c5ccc2[nH]5)C=C4)C=C3)cc1
REMARK SMILES IDX 18 1 17 2 16 3 2 4 1 5 3 6 4 7 5 8 6 9 7 10 15 11 8 12 14 13
REMARK SMILES IDX 9 14 13 15 10 16 12 17 11 18 19 19 20 20 21 21 22 22 23 23
REMARK SMILES IDX 24 24 25 25 26 26 87 27 27 28 86 29 28 30 29 31 30 32 80 33
REMARK SMILES IDX 31 34 85 35 79 36 81 37 32 38 84 39 78 40 77 41 33 43 65 44
REMARK SMILES IDX 45 45 64 46 46 47 49 48 63 49 82 50 47 51 48 52 62 54 83 55
REMARK SMILES IDX 50 56 34 57 35 58 43 59 36 60 37 61 41 62 44 63 38 64 39 65
REMARK SMILES IDX 42 66 40 67 66 68 67 69 75 70 68 71 69 72 73 73 76 74 70 75
REMARK SMILES IDX 71 76 74 77 72 78 51 79 52 80 60 81 53 82 54 83 58 84 61 85
REMARK SMILES IDX 55 86 56 87 59 88 57 89
REMARK H PARENT 81 42 49 53
REMARK Flexibility Score: inf
ROOT
ATOM      1  C   UNL A   1      44.188  19.207  24.785  1.00  0.00     0.202 C 
ENDROOT
BRANCH   1   2
ATOM      2  C   UNL A   1      45.223  20.326  24.923  1.00  0.00     0.261 C 
BRANCH   2   3
ATOM      3  O   UNL A   1      44.856  21.652  25.287  1.00  0.00    -0.463 OA
BRANCH   3   4
ATOM      4  C   UNL A   1      44.262  22.410  24.349  1.00  0.00     0.305 C 
ATOM      5  O   UNL A   1      44.535  22.314  23.159  1.00  0.00    -0.252 OA
BRANCH   4   6
ATOM      6  C   UNL A   1      43.213  23.348  24.905  1.00  0.00     0.123 C 
BRANCH   6   7
ATOM      7  C   UNL A   1      43.632  24.777  25.259  1.00  0.00     0.021 C 
BRANCH   7   8
ATOM      8  C   UNL A   1      44.729  25.034  26.290  1.00  0.00     0.098 C 
BRANCH   8   9
ATOM      9  C   UNL A   1      46.109  25.383  25.837  1.00  0.00     0.195 A 
ATOM     10  N   UNL A   1      46.432  25.810  24.630  1.00  0.00    -0.214 NA
ATOM     11  O   UNL A   1      47.177  25.259  26.686  1.00  0.00    -0.441 OA
ATOM     12  C   UNL A   1      47.774  26.031  24.683  1.00  0.00     0.110 A 
ATOM     13  C   UNL A   1      48.240  25.709  25.944  1.00  0.00     0.154 A 
ATOM     14  C   UNL A   1      48.657  26.521  23.713  1.00  0.00     0.048 A 
ATOM     15  C   UNL A   1      49.565  25.850  26.334  1.00  0.00     0.050 A 
ATOM     16  C   UNL A   1      49.979  26.750  24.099  1.00  0.00     0.020 A 
ATOM     17  C   UNL A   1      50.430  26.413  25.379  1.00  0.00     0.019 A 
ATOM     18  Br  UNL A   1      51.157  27.593  22.877  1.00  0.00    -0.051 Br
ENDBRANCH   8   9
ENDBRANCH   7   8
ENDBRANCH   6   7
ENDBRANCH   4   6
ENDBRANCH   3   4
ENDBRANCH   2   3
ENDBRANCH   1   2
BRANCH   1  19
ATOM     19  O   UNL A   1      43.713  18.468  25.895  1.00  0.00    -0.374 OA
BRANCH  19  20
ATOM     20  C   UNL A   1      42.301  18.641  26.112  1.00  0.00     0.202 C 
BRANCH  20  21
ATOM     21  C   UNL A   1      41.888  19.612  27.249  1.00  0.00     0.261 C 
BRANCH  21  22
ATOM     22  O   UNL A   1      41.854  20.984  26.795  1.00  0.00    -0.460 OA
BRANCH  22  23
ATOM     23  C   UNL A   1      40.623  21.508  26.573  1.00  0.00     0.338 C 
ATOM     24  O   UNL A   1      39.653  20.897  26.136  1.00  0.00    -0.246 OA
BRANCH  23  25
ATOM     25  C   UNL A   1      40.518  22.828  27.264  1.00  0.00     0.060 A 
ATOM     26  C   UNL A   1      39.618  23.835  26.887  1.00  0.00     0.016 A 
ATOM     27  C   UNL A   1      41.550  23.141  28.155  1.00  0.00     0.016 A 
ATOM     28  C   UNL A   1      39.843  25.162  27.301  1.00  0.00     0.010 A 
ATOM     29  C   UNL A   1      41.766  24.461  28.561  1.00  0.00     0.010 A 
ATOM     30  C   UNL A   1      40.954  25.495  28.099  1.00  0.00    -0.014 A 
BRANCH  30  31
ATOM     31  C   UNL A   1      41.034  26.825  28.740  1.00  0.00     0.031 A 
ATOM     32  C   UNL A   1      42.172  27.608  28.196  1.00  0.00     0.074 A 
ATOM     33  C   UNL A   1      40.158  27.488  29.536  1.00  0.00     0.049 A 
ATOM     34  N   UNL A   1      43.215  28.022  28.834  1.00  0.00    -0.248 NA
ATOM     35  C   UNL A   1      42.211  27.842  26.745  1.00  0.00     0.031 C 
ATOM     36  C   UNL A   1      38.833  27.079  29.970  1.00  0.00     0.029 A 
ATOM     37  N   UNL A   1      40.252  28.750  30.076  1.00  0.00    -0.354 N 
ATOM     38  C   UNL A   1      43.981  28.701  27.895  1.00  0.00     0.074 A 
ATOM     39  C   UNL A   1      43.398  28.429  26.607  1.00  0.00     0.031 C 
ATOM     40  C   UNL A   1      38.157  28.126  30.498  1.00  0.00     0.029 A 
ATOM     41  C   UNL A   1      39.059  29.258  30.596  1.00  0.00     0.049 A 
ATOM     42  H   UNL A   1      41.096  29.257  30.094  1.00  0.00     0.167 HD
ATOM     43  C   UNL A   1      44.923  29.606  28.267  1.00  0.00     0.037 A 
ATOM     44  C   UNL A   1      38.823  30.511  31.072  1.00  0.00     0.037 A 
ATOM     45  C   UNL A   1      45.282  29.463  29.652  1.00  0.00     0.049 A 
ATOM     46  C   UNL A   1      40.134  31.103  31.416  1.00  0.00     0.074 A 
ATOM     47  C   UNL A   1      45.825  28.450  30.419  1.00  0.00     0.029 A 
ATOM     48  N   UNL A   1      44.771  30.367  30.548  1.00  0.00    -0.354 N 
ATOM     49  N   UNL A   1      40.877  30.721  32.413  1.00  0.00    -0.248 NA
ATOM     50  C   UNL A   1      40.799  31.900  30.399  1.00  0.00     0.031 C 
ATOM     51  C   UNL A   1      45.190  28.562  31.690  1.00  0.00     0.029 A 
ATOM     52  C   UNL A   1      44.330  29.659  31.636  1.00  0.00     0.049 A 
ATOM     53  H   UNL A   1      44.729  31.343  30.433  1.00  0.00     0.167 HD
ATOM     54  C   UNL A   1      42.169  30.831  31.934  1.00  0.00     0.074 A 
ATOM     55  C   UNL A   1      42.066  31.662  30.739  1.00  0.00     0.031 C 
ATOM     56  C   UNL A   1      43.153  30.007  32.393  1.00  0.00     0.037 A 
BRANCH  43  57
ATOM     57  C   UNL A   1      45.267  30.827  27.460  1.00  0.00     0.064 A 
ATOM     58  C   UNL A   1      46.612  31.083  27.139  1.00  0.00     0.173 A 
ATOM     59  C   UNL A   1      44.368  31.892  27.232  1.00  0.00     0.173 A 
ATOM     60  F   UNL A   1      47.554  30.152  27.354  1.00  0.00    -0.203 F 
ATOM     61  C   UNL A   1      47.033  32.332  26.677  1.00  0.00     0.198 A 
ATOM     62  C   UNL A   1      44.782  33.117  26.712  1.00  0.00     0.198 A 
ATOM     63  F   UNL A   1      43.084  31.833  27.606  1.00  0.00    -0.203 F 
ATOM     64  F   UNL A   1      48.340  32.569  26.501  1.00  0.00    -0.200 F 
ATOM     65  C   UNL A   1      46.118  33.346  26.464  1.00  0.00     0.200 A 
ATOM     66  F   UNL A   1      43.882  34.095  26.536  1.00  0.00    -0.200 F 
ATOM     67  F   UNL A   1      46.526  34.560  26.071  1.00  0.00    -0.200 F 
ENDBRANCH  43  57
BRANCH  44  68
ATOM     68  C   UNL A   1      37.602  31.361  31.037  1.00  0.00     0.064 A 
ATOM     69  C   UNL A   1      36.907  31.686  32.222  1.00  0.00     0.173 A 
ATOM     70  C   UNL A   1      37.295  32.142  29.909  1.00  0.00     0.173 A 
ATOM     71  F   UNL A   1      37.157  31.018  33.358  1.00  0.00    -0.203 F 
ATOM     72  C   UNL A   1      36.011  32.760  32.285  1.00  0.00     0.198 A 
ATOM     73  C   UNL A   1      36.395  33.211  29.972  1.00  0.00     0.198 A 
ATOM     74  F   UNL A   1      37.944  31.953  28.751  1.00  0.00    -0.203 F 
ATOM     75  F   UNL A   1      35.437  33.088  33.453  1.00  0.00    -0.200 F 
ATOM     76  C   UNL A   1      35.770  33.533  31.164  1.00  0.00     0.200 A 
ATOM     77  F   UNL A   1      36.195  33.975  28.889  1.00  0.00    -0.200 F 
ATOM     78  F   UNL A   1      34.975  34.610  31.240  1.00  0.00    -0.200 F 
ENDBRANCH  44  68
BRANCH  56  79
ATOM     79  C   UNL A   1      42.886  29.215  33.643  1.00  0.00     0.064 A 
ATOM     80  C   UNL A   1      42.195  27.991  33.677  1.00  0.00     0.173 A 
ATOM     81  C   UNL A   1      43.484  29.653  34.834  1.00  0.00     0.173 A 
ATOM     82  F   UNL A   1      41.671  27.460  32.565  1.00  0.00    -0.203 F 
ATOM     83  C   UNL A   1      42.085  27.259  34.859  1.00  0.00     0.198 A 
ATOM     84  C   UNL A   1      43.405  28.899  36.001  1.00  0.00     0.198 A 
ATOM     85  F   UNL A   1      44.192  30.792  34.851  1.00  0.00    -0.203 F 
ATOM     86  F   UNL A   1      41.414  26.096  34.869  1.00  0.00    -0.200 F 
ATOM     87  C   UNL A   1      42.699  27.708  36.017  1.00  0.00     0.200 A 
ATOM     88  F   UNL A   1      44.040  29.316  37.105  1.00  0.00    -0.200 F 
ATOM     89  F   UNL A   1      42.636  26.978  37.139  1.00  0.00    -0.200 F 
ENDBRANCH  56  79
ENDBRANCH  30  31
ENDBRANCH  23  25
ENDBRANCH  22  23
ENDBRANCH  21  22
ENDBRANCH  20  21
ENDBRANCH  19  20
ENDBRANCH   1  19
TORSDOF 17
ENDMDL
MODEL 2
REMARK VINA RESULT:     -10.1      2.355      3.090
REMARK SMILES O=C(CCCc1nc2cc(Br)ccc2o1)OCCOCCOC(=O)c1ccc(-c2c3nc(c(-c4c(F)c(F)c(F)c(F)c4F)c4ccc([nH]4)c(-c4c(F)c(F)c(F)c(F)c4F)c4nc(c(-c5c(F)c(F)c(F)c(F)c5F)c5ccc2[nH]5)C=C4)C=C3)cc1
REMARK SMILES IDX 18 1 17 2 16 3 2 4 1 5 3 6 4 7 5 8 6 9 7 10 15 11 8 12 14 13
REMARK SMILES IDX 9 14 13 15 10 16 12 17 11 18 19 19 20 20 21 21 22 22 23 23
REMARK SMILES IDX 24 24 25 25 26 26 87 27 27 28 86 29 28 30 29 31 30 32 80 33
REMARK SMILES IDX 31 34 85 35 79 36 81 37 32 38 84 39 78 40 77 41 33 43 65 44
REMARK SMILES IDX 45 45 64 46 46 47 49 48 63 49 82 50 47 51 48 52 62 54 83 55
REMARK SMILES IDX 50 56 34 57 35 58 43 59 36 60 37 61 41 62 44 63 38 64 39 65
REMARK SMILES IDX 42 66 40 67 66 68 67 69 75 70 68 71 69 72 73 73 76 74 70 75
REMARK SMILES IDX 71 76 74 77 72 78 51 79 52 80 60 81 53 82 54 83 58 84 61 85
REMARK SMILES IDX 55 86 56 87 59 88 57 89
REMARK H PARENT 81 42 49 53
REMARK Flexibility Score: inf
ROOT
ATOM      1  C   UNL A   1      43.943  18.997  25.009  1.00  0.00     0.202 C 
ENDROOT
BRANCH   1   2
ATOM      2  C   UNL A   1      44.996  20.091  24.820  1.00  0.00     0.261 C 
BRANCH   2   3
ATOM      3  O   UNL A   1      44.839  21.132  23.864  1.00  0.00    -0.463 OA
BRANCH   3   4
ATOM      4  C   UNL A   1      44.624  22.374  24.331  1.00  0.00     0.305 C 
ATOM      5  O   UNL A   1      43.531  22.922  24.259  1.00  0.00    -0.252 OA
BRANCH   4   6
ATOM      6  C   UNL A   1      45.843  22.997  24.978  1.00  0.00     0.123 C 
BRANCH   6   7
ATOM      7  C   UNL A   1      45.769  23.362  26.462  1.00  0.00     0.021 C 
BRANCH   7   8
ATOM      8  C   UNL A   1      44.607  22.879  27.327  1.00  0.00     0.098 C 
BRANCH   8   9
ATOM      9  C   UNL A   1      44.482  23.353  28.738  1.00  0.00     0.195 A 
ATOM     10  N   UNL A   1      44.081  22.618  29.759  1.00  0.00    -0.214 NA
ATOM     11  O   UNL A   1      44.777  24.649  29.069  1.00  0.00    -0.441 OA
ATOM     12  C   UNL A   1      44.156  23.444  30.838  1.00  0.00     0.110 A 
ATOM     13  C   UNL A   1      44.596  24.690  30.429  1.00  0.00     0.154 A 
ATOM     14  C   UNL A   1      43.890  23.204  32.192  1.00  0.00     0.048 A 
ATOM     15  C   UNL A   1      44.807  25.754  31.295  1.00  0.00     0.050 A 
ATOM     16  C   UNL A   1      44.171  24.229  33.097  1.00  0.00     0.020 A 
ATOM     17  C   UNL A   1      44.609  25.483  32.660  1.00  0.00     0.019 A 
ATOM     18  Br  UNL A   1      44.009  23.881  34.952  1.00  0.00    -0.051 Br
ENDBRANCH   8   9
ENDBRANCH   7   8
ENDBRANCH   6   7
ENDBRANCH   4   6
ENDBRANCH   3   4
ENDBRANCH   2   3
ENDBRANCH   1   2
BRANCH   1  19
ATOM     19  O   UNL A   1      43.153  18.895  26.179  1.00  0.00    -0.374 OA
BRANCH  19  20
ATOM     20  C   UNL A   1      41.851  19.486  26.021  1.00  0.00     0.202 C 
BRANCH  20  21
ATOM     21  C   UNL A   1      41.414  20.501  27.110  1.00  0.00     0.261 C 
BRANCH  21  22
ATOM     22  O   UNL A   1      41.389  21.855  26.601  1.00  0.00    -0.460 OA
BRANCH  22  23
ATOM     23  C   UNL A   1      40.162  22.407  26.439  1.00  0.00     0.338 C 
ATOM     24  O   UNL A   1      39.184  21.849  25.952  1.00  0.00    -0.246 OA
BRANCH  23  25
ATOM     25  C   UNL A   1      40.071  23.655  27.254  1.00  0.00     0.060 A 
ATOM     26  C   UNL A   1      39.077  24.629  27.082  1.00  0.00     0.016 A 
ATOM     27  C   UNL A   1      41.189  23.961  28.037  1.00  0.00     0.016 A 
ATOM     28  C   UNL A   1      39.278  25.929  27.583  1.00  0.00     0.010 A 
ATOM     29  C   UNL A   1      41.382  25.255  28.531  1.00  0.00     0.010 A 
ATOM     30  C   UNL A   1      40.461  26.267  28.267  1.00  0.00    -0.014 A 
BRANCH  30  31
ATOM     31  C   UNL A   1      40.548  27.542  29.011  1.00  0.00     0.031 A 
ATOM     32  C   UNL A   1      41.617  28.410  28.453  1.00  0.00     0.074 A 
ATOM     33  C   UNL A   1      39.715  28.104  29.922  1.00  0.00     0.049 A 
ATOM     34  N   UNL A   1      42.692  28.808  29.046  1.00  0.00    -0.248 NA
ATOM     35  C   UNL A   1      41.538  28.763  27.029  1.00  0.00     0.031 C 
ATOM     36  C   UNL A   1      38.440  27.611  30.416  1.00  0.00     0.029 A 
ATOM     37  N   UNL A   1      39.811  29.320  30.559  1.00  0.00    -0.354 N 
ATOM     38  C   UNL A   1      43.362  29.590  28.115  1.00  0.00     0.074 A 
ATOM     39  C   UNL A   1      42.692  29.404  26.855  1.00  0.00     0.031 C 
ATOM     40  C   UNL A   1      37.774  28.585  31.079  1.00  0.00     0.029 A 
ATOM     41  C   UNL A   1      38.645  29.738  31.206  1.00  0.00     0.049 A 
ATOM     42  H   UNL A   1      40.638  29.855  30.558  1.00  0.00     0.167 HD
ATOM     43  C   UNL A   1      44.301  30.497  28.492  1.00  0.00     0.037 A 
ATOM     44  C   UNL A   1      38.407  30.938  31.803  1.00  0.00     0.037 A 
ATOM     45  C   UNL A   1      44.769  30.254  29.830  1.00  0.00     0.049 A 
ATOM     46  C   UNL A   1      39.721  31.549  32.099  1.00  0.00     0.074 A 
ATOM     47  C   UNL A   1      45.400  29.202  30.466  1.00  0.00     0.029 A 
ATOM     48  N   UNL A   1      44.300  31.061  30.835  1.00  0.00    -0.354 N 
ATOM     49  N   UNL A   1      40.549  31.114  33.002  1.00  0.00    -0.248 NA
ATOM     50  C   UNL A   1      40.281  32.451  31.107  1.00  0.00     0.031 C 
ATOM     51  C   UNL A   1      44.861  29.185  31.786  1.00  0.00     0.029 A 
ATOM     52  C   UNL A   1      43.965  30.250  31.887  1.00  0.00     0.049 A 
ATOM     53  H   UNL A   1      44.218  32.041  30.806  1.00  0.00     0.167 HD
ATOM     54  C   UNL A   1      41.798  31.312  32.442  1.00  0.00     0.074 A 
ATOM     55  C   UNL A   1      41.578  32.234  31.332  1.00  0.00     0.031 C 
ATOM     56  C   UNL A   1      42.839  30.490  32.756  1.00  0.00     0.037 A 
BRANCH  43  57
ATOM     57  C   UNL A   1      44.544  31.792  27.768  1.00  0.00     0.064 A 
ATOM     58  C   UNL A   1      45.745  31.968  27.058  1.00  0.00     0.173 A 
ATOM     59  C   UNL A   1      43.777  32.960  27.976  1.00  0.00     0.173 A 
ATOM     60  F   UNL A   1      46.567  30.931  26.840  1.00  0.00    -0.203 F 
ATOM     61  C   UNL A   1      46.171  33.229  26.635  1.00  0.00     0.198 A 
ATOM     62  C   UNL A   1      44.176  34.206  27.499  1.00  0.00     0.198 A 
ATOM     63  F   UNL A   1      42.678  32.963  28.740  1.00  0.00    -0.203 F 
ATOM     64  F   UNL A   1      47.378  33.367  26.071  1.00  0.00    -0.200 F 
ATOM     65  C   UNL A   1      45.386  34.346  26.856  1.00  0.00     0.200 A 
ATOM     66  F   UNL A   1      43.412  35.280  27.746  1.00  0.00    -0.200 F 
ATOM     67  F   UNL A   1      45.818  35.563  26.499  1.00  0.00    -0.200 F 
ENDBRANCH  43  57
BRANCH  44  68
ATOM     68  C   UNL A   1      37.161  31.742  31.930  1.00  0.00     0.064 A 
ATOM     69  C   UNL A   1      36.677  32.140  33.194  1.00  0.00     0.173 A 
ATOM     70  C   UNL A   1      36.619  32.417  30.822  1.00  0.00     0.173 A 
ATOM     71  F   UNL A   1      37.159  31.576  34.312  1.00  0.00    -0.203 F 
ATOM     72  C   UNL A   1      35.757  33.185  33.341  1.00  0.00     0.198 A 
ATOM     73  C   UNL A   1      35.695  33.458  30.969  1.00  0.00     0.198 A 
ATOM     74  F   UNL A   1      37.056  32.155  29.582  1.00  0.00    -0.203 F 
ATOM     75  F   UNL A   1      35.389  33.588  34.566  1.00  0.00    -0.200 F 
ATOM     76  C   UNL A   1      35.281  33.855  32.228  1.00  0.00     0.200 A 
ATOM     77  F   UNL A   1      35.267  34.123  29.887  1.00  0.00    -0.200 F 
ATOM     78  F   UNL A   1      34.463  34.908  32.369  1.00  0.00    -0.200 F 
ENDBRANCH  44  68
BRANCH  56  79
ATOM     79  C   UNL A   1      42.693  29.589  33.950  1.00  0.00     0.064 A 
ATOM     80  C   UNL A   1      42.105  28.312  33.916  1.00  0.00     0.173 A 
ATOM     81  C   UNL A   1      43.306  29.986  35.147  1.00  0.00     0.173 A 
ATOM     82  F   UNL A   1      41.576  27.822  32.788  1.00  0.00    -0.203 F 
ATOM     83  C   UNL A   1      42.107  27.488  35.041  1.00  0.00     0.198 A 
ATOM     84  C   UNL A   1      43.341  29.144  36.255  1.00  0.00     0.198 A 
ATOM     85  F   UNL A   1      43.920  31.176  35.225  1.00  0.00    -0.203 F 
ATOM     86  F   UNL A   1      41.533  26.276  34.988  1.00  0.00    -0.200 F 
ATOM     87  C   UNL A   1      42.734  27.900  36.206  1.00  0.00     0.200 A 
ATOM     88  F   UNL A   1      43.988  29.530  37.363  1.00  0.00    -0.200 F 
ATOM     89  F   UNL A   1      42.781  27.087  37.270  1.00  0.00    -0.200 F 
ENDBRANCH  56  79
ENDBRANCH  30  31
ENDBRANCH  23  25
ENDBRANCH  22  23
ENDBRANCH  21  22
ENDBRANCH  20  21
ENDBRANCH  19  20
ENDBRANCH   1  19
TORSDOF 17
ENDMDL
MODEL 3
REMARK VINA RESULT:     -10.1      3.104      5.427
REMARK SMILES O=C(CCCc1nc2cc(Br)ccc2o1)OCCOCCOC(=O)c1ccc(-c2c3nc(c(-c4c(F)c(F)c(F)c(F)c4F)c4ccc([nH]4)c(-c4c(F)c(F)c(F)c(F)c4F)c4nc(c(-c5c(F)c(F)c(F)c(F)c5F)c5ccc2[nH]5)C=C4)C=C3)cc1
REMARK SMILES IDX 18 1 17 2 16 3 2 4 1 5 3 6 4 7 5 8 6 9 7 10 15 11 8 12 14 13
REMARK SMILES IDX 9 14 13 15 10 16 12 17 11 18 19 19 20 20 21 21 22 22 23 23
REMARK SMILES IDX 24 24 25 25 26 26 87 27 27 28 86 29 28 30 29 31 30 32 80 33
REMARK SMILES IDX 31 34 85 35 79 36 81 37 32 38 84 39 78 40 77 41 33 43 65 44
REMARK SMILES IDX 45 45 64 46 46 47 49 48 63 49 82 50 47 51 48 52 62 54 83 55
REMARK SMILES IDX 50 56 34 57 35 58 43 59 36 60 37 61 41 62 44 63 38 64 39 65
REMARK SMILES IDX 42 66 40 67 66 68 67 69 75 70 68 71 69 72 73 73 76 74 70 75
REMARK SMILES IDX 71 76 74 77 72 78 51 79 52 80 60 81 53 82 54 83 58 84 61 85
REMARK SMILES IDX 55 86 56 87 59 88 57 89
REMARK H PARENT 81 42 49 53
REMARK Flexibility Score: inf
ROOT
ATOM      1  C   UNL A   1      45.695  19.817  24.489  1.00  0.00     0.202 C 
ENDROOT
BRANCH   1   2
ATOM      2  C   UNL A   1      44.512  19.035  25.065  1.00  0.00     0.261 C 
BRANCH   2   3
ATOM      3  O   UNL A   1      43.560  19.638  25.933  1.00  0.00    -0.463 OA
BRANCH   3   4
ATOM      4  C   UNL A   1      42.393  18.997  26.113  1.00  0.00     0.305 C 
ATOM      5  O   UNL A   1      42.226  17.831  25.775  1.00  0.00    -0.252 OA
BRANCH   4   6
ATOM      6  C   UNL A   1      41.339  19.839  26.799  1.00  0.00     0.123 C 
BRANCH   6   7
ATOM      7  C   UNL A   1      39.993  20.030  26.097  1.00  0.00     0.021 C 
BRANCH   7   8
ATOM      8  C   UNL A   1      39.422  21.428  25.872  1.00  0.00     0.098 C 
BRANCH   8   9
ATOM      9  C   UNL A   1      37.997  21.592  25.454  1.00  0.00     0.195 A 
ATOM     10  N   UNL A   1      37.460  22.705  24.989  1.00  0.00    -0.214 NA
ATOM     11  O   UNL A   1      37.116  20.548  25.548  1.00  0.00    -0.441 OA
ATOM     12  C   UNL A   1      36.168  22.382  24.710  1.00  0.00     0.110 A 
ATOM     13  C   UNL A   1      35.949  21.056  25.036  1.00  0.00     0.154 A 
ATOM     14  C   UNL A   1      35.132  23.149  24.162  1.00  0.00     0.048 A 
ATOM     15  C   UNL A   1      34.736  20.406  24.844  1.00  0.00     0.050 A 
ATOM     16  C   UNL A   1      33.927  22.503  23.882  1.00  0.00     0.020 A 
ATOM     17  C   UNL A   1      33.726  21.163  24.225  1.00  0.00     0.019 A 
ATOM     18  Br  UNL A   1      32.570  23.455  22.964  1.00  0.00    -0.051 Br
ENDBRANCH   8   9
ENDBRANCH   7   8
ENDBRANCH   6   7
ENDBRANCH   4   6
ENDBRANCH   3   4
ENDBRANCH   2   3
ENDBRANCH   1   2
BRANCH   1  19
ATOM     19  O   UNL A   1      46.331  20.865  25.195  1.00  0.00    -0.374 OA
BRANCH  19  20
ATOM     20  C   UNL A   1      46.271  22.121  24.495  1.00  0.00     0.202 C 
BRANCH  20  21
ATOM     21  C   UNL A   1      44.895  22.517  23.899  1.00  0.00     0.261 C 
BRANCH  21  22
ATOM     22  O   UNL A   1      44.428  23.782  24.422  1.00  0.00    -0.460 OA
BRANCH  22  23
ATOM     23  C   UNL A   1      43.217  23.763  25.030  1.00  0.00     0.338 C 
ATOM     24  O   UNL A   1      42.512  22.772  25.192  1.00  0.00    -0.246 OA
BRANCH  23  25
ATOM     25  C   UNL A   1      43.025  25.038  25.784  1.00  0.00     0.060 A 
ATOM     26  C   UNL A   1      43.781  25.402  26.907  1.00  0.00     0.016 A 
ATOM     27  C   UNL A   1      41.862  25.757  25.489  1.00  0.00     0.016 A 
ATOM     28  C   UNL A   1      43.295  26.388  27.787  1.00  0.00     0.010 A 
ATOM     29  C   UNL A   1      41.386  26.735  26.368  1.00  0.00     0.010 A 
ATOM     30  C   UNL A   1      42.062  27.025  27.551  1.00  0.00    -0.014 A 
BRANCH  30  31
ATOM     31  C   UNL A   1      41.691  28.230  28.325  1.00  0.00     0.031 A 
ATOM     32  C   UNL A   1      42.660  29.331  28.088  1.00  0.00     0.074 A 
ATOM     33  C   UNL A   1      40.559  28.545  29.001  1.00  0.00     0.049 A 
ATOM     34  N   UNL A   1      43.445  29.884  28.952  1.00  0.00    -0.248 NA
ATOM     35  C   UNL A   1      42.868  29.774  26.702  1.00  0.00     0.031 C 
ATOM     36  C   UNL A   1      39.333  27.774  29.132  1.00  0.00     0.029 A 
ATOM     37  N   UNL A   1      40.235  29.702  29.672  1.00  0.00    -0.354 N 
ATOM     38  C   UNL A   1      44.148  30.853  28.248  1.00  0.00     0.074 A 
ATOM     39  C   UNL A   1      43.868  30.639  26.852  1.00  0.00     0.031 C 
ATOM     40  C   UNL A   1      38.334  28.545  29.623  1.00  0.00     0.029 A 
ATOM     41  C   UNL A   1      38.884  29.832  30.003  1.00  0.00     0.049 A 
ATOM     42  H   UNL A   1      40.905  30.386  29.900  1.00  0.00     0.167 HD
ATOM     43  C   UNL A   1      44.751  31.892  28.880  1.00  0.00     0.037 A 
ATOM     44  C   UNL A   1      38.259  30.911  30.548  1.00  0.00     0.037 A 
ATOM     45  C   UNL A   1      44.909  31.641  30.288  1.00  0.00     0.049 A 
ATOM     46  C   UNL A   1      39.299  31.741  31.192  1.00  0.00     0.074 A 
ATOM     47  C   UNL A   1      45.567  30.686  31.039  1.00  0.00     0.029 A 
ATOM     48  N   UNL A   1      44.046  32.259  31.155  1.00  0.00    -0.354 N 
ATOM     49  N   UNL A   1      39.947  31.407  32.269  1.00  0.00    -0.248 NA
ATOM     50  C   UNL A   1      39.888  32.811  30.405  1.00  0.00     0.031 C 
ATOM     51  C   UNL A   1      44.730  30.459  32.171  1.00  0.00     0.029 A 
ATOM     52  C   UNL A   1      43.635  31.317  32.063  1.00  0.00     0.049 A 
ATOM     53  H   UNL A   1      43.771  33.203  31.131  1.00  0.00     0.167 HD
ATOM     54  C   UNL A   1      41.226  31.888  32.059  1.00  0.00     0.074 A 
ATOM     55  C   UNL A   1      41.103  32.834  30.955  1.00  0.00     0.031 C 
ATOM     56  C   UNL A   1      42.303  31.264  32.612  1.00  0.00     0.037 A 
BRANCH  43  57
ATOM     57  C   UNL A   1      44.891  33.263  28.279  1.00  0.00     0.064 A 
ATOM     58  C   UNL A   1      46.177  33.775  28.025  1.00  0.00     0.173 A 
ATOM     59  C   UNL A   1      43.834  34.196  28.204  1.00  0.00     0.173 A 
ATOM     60  F   UNL A   1      47.256  32.982  28.109  1.00  0.00    -0.203 F 
ATOM     61  C   UNL A   1      46.390  35.131  27.770  1.00  0.00     0.198 A 
ATOM     62  C   UNL A   1      44.044  35.536  27.889  1.00  0.00     0.198 A 
ATOM     63  F   UNL A   1      42.578  33.877  28.543  1.00  0.00    -0.203 F 
ATOM     64  F   UNL A   1      47.642  35.595  27.656  1.00  0.00    -0.200 F 
ATOM     65  C   UNL A   1      45.325  36.009  27.702  1.00  0.00     0.200 A 
ATOM     66  F   UNL A   1      43.000  36.376  27.851  1.00  0.00    -0.200 F 
ATOM     67  F   UNL A   1      45.533  37.319  27.510  1.00  0.00    -0.200 F 
ENDBRANCH  43  57
BRANCH  44  68
ATOM     68  C   UNL A   1      36.881  31.443  30.365  1.00  0.00     0.064 A 
ATOM     69  C   UNL A   1      36.035  31.668  31.472  1.00  0.00     0.173 A 
ATOM     70  C   UNL A   1      36.495  32.057  29.160  1.00  0.00     0.173 A 
ATOM     71  F   UNL A   1      36.339  31.151  32.673  1.00  0.00    -0.203 F 
ATOM     72  C   UNL A   1      34.912  32.500  31.390  1.00  0.00     0.198 A 
ATOM     73  C   UNL A   1      35.370  32.883  29.078  1.00  0.00     0.198 A 
ATOM     74  F   UNL A   1      37.262  31.954  28.066  1.00  0.00    -0.203 F 
ATOM     75  F   UNL A   1      34.184  32.755  32.488  1.00  0.00    -0.200 F 
ATOM     76  C   UNL A   1      34.591  33.122  30.197  1.00  0.00     0.200 A 
ATOM     77  F   UNL A   1      35.087  33.508  27.926  1.00  0.00    -0.200 F 
ATOM     78  F   UNL A   1      33.564  33.982  30.135  1.00  0.00    -0.200 F 
ENDBRANCH  44  68
BRANCH  56  79
ATOM     79  C   UNL A   1      42.055  30.260  33.704  1.00  0.00     0.064 A 
ATOM     80  C   UNL A   1      41.713  28.914  33.484  1.00  0.00     0.173 A 
ATOM     81  C   UNL A   1      42.316  30.651  35.025  1.00  0.00     0.173 A 
ATOM     82  F   UNL A   1      41.534  28.438  32.245  1.00  0.00    -0.203 F 
ATOM     83  C   UNL A   1      41.609  28.014  34.544  1.00  0.00     0.198 A 
ATOM     84  C   UNL A   1      42.250  29.741  36.075  1.00  0.00     0.198 A 
ATOM     85  F   UNL A   1      42.689  31.913  35.290  1.00  0.00    -0.203 F 
ATOM     86  F   UNL A   1      41.274  26.735  34.311  1.00  0.00    -0.200 F 
ATOM     87  C   UNL A   1      41.888  28.426  35.837  1.00  0.00     0.200 A 
ATOM     88  F   UNL A   1      42.566  30.135  37.317  1.00  0.00    -0.200 F 
ATOM     89  F   UNL A   1      41.838  27.549  36.849  1.00  0.00    -0.200 F 
ENDBRANCH  56  79
ENDBRANCH  30  31
ENDBRANCH  23  25
ENDBRANCH  22  23
ENDBRANCH  21  22
ENDBRANCH  20  21
ENDBRANCH  19  20
ENDBRANCH   1  19
TORSDOF 17
ENDMDL
