MODEL 1
REMARK VINA RESULT:     -12.6      0.000      0.000
REMARK SMILES C[C@@H](C(=O)OCCOCCOC(=O)c1ccc(-c2c3nc(c(-c4c(F)c(F)c(F)c(F)c4F)c4ccc([nH]4)c(-c4c(F)c(F)c(F)c(F)c4F)c4nc(c(-c5c(F)c(F)c(F)c(F)c5F)c5ccc2[nH]5)C=C4)C=C3)cc1)c1ccc2c3cc(Cl)ccc3n(C(=O)c3ccc(Cl)cc3)c2c1
REMARK SMILES IDX 7 1 6 2 5 3 3 4 4 5 2 6 1 7 77 8 78 9 99 10 79 11 98 12
REMARK SMILES IDX 80 13 88 14 81 15 87 16 82 17 86 18 83 19 85 20 84 21 89 22
REMARK SMILES IDX 90 23 91 24 92 25 97 26 93 27 96 28 94 29 95 30 8 31 9 32
REMARK SMILES IDX 10 33 11 34 12 35 13 36 14 37 15 38 76 39 16 40 75 41 17 42
REMARK SMILES IDX 18 43 19 44 69 45 20 46 74 47 68 48 70 49 21 50 73 51 67 52
REMARK SMILES IDX 66 53 22 55 54 56 34 57 53 58 35 59 38 60 52 61 71 62 36 63
REMARK SMILES IDX 37 64 51 66 72 67 39 68 23 69 24 70 32 71 25 72 26 73 30 74
REMARK SMILES IDX 33 75 27 76 28 77 31 78 29 79 55 80 56 81 64 82 57 83 58 84
REMARK SMILES IDX 62 85 65 86 59 87 60 88 63 89 61 90 40 91 41 92 49 93 42 94
REMARK SMILES IDX 43 95 47 96 50 97 44 98 45 99 48 100 46 101
REMARK H PARENT 70 54 38 65
REMARK Flexibility Score: inf
ROOT
ATOM      1  C   UNL A   1      29.736  29.502  23.497  1.00  0.00     0.202 C 
ENDROOT
BRANCH   1   2
ATOM      2  C   UNL A   1      30.701  28.815  22.526  1.00  0.00     0.261 C 
BRANCH   2   3
ATOM      3  O   UNL A   1      30.933  27.449  22.922  1.00  0.00    -0.463 OA
BRANCH   3   4
ATOM      4  C   UNL A   1      32.233  27.122  23.158  1.00  0.00     0.313 C 
ATOM      5  O   UNL A   1      33.101  27.101  22.291  1.00  0.00    -0.252 OA
BRANCH   4   6
ATOM      6  C   UNL A   1      32.513  26.797  24.634  1.00  0.00     0.126 C 
ATOM      7  C   UNL A   1      33.659  27.589  25.271  1.00  0.00     0.025 C 
BRANCH   6   8
ATOM      8  C   UNL A   1      32.653  25.284  24.800  1.00  0.00    -0.032 A 
ATOM      9  C   UNL A   1      31.500  24.506  24.911  1.00  0.00     0.005 A 
ATOM     10  C   UNL A   1      33.900  24.640  24.703  1.00  0.00     0.032 A 
ATOM     11  C   UNL A   1      31.567  23.111  24.869  1.00  0.00     0.011 A 
ATOM     12  C   UNL A   1      33.974  23.227  24.652  1.00  0.00     0.057 A 
ATOM     13  C   UNL A   1      32.811  22.465  24.709  1.00  0.00     0.008 A 
ATOM     14  N   UNL A   1      35.069  22.355  24.470  1.00  0.00    -0.276 N 
ATOM     15  C   UNL A   1      33.188  21.101  24.601  1.00  0.00     0.009 A 
ATOM     16  C   UNL A   1      34.588  21.039  24.563  1.00  0.00     0.057 A 
ATOM     17  C   UNL A   1      32.425  19.913  24.587  1.00  0.00     0.031 A 
ATOM     18  C   UNL A   1      35.236  19.790  24.662  1.00  0.00     0.029 A 
ATOM     19  C   UNL A   1      33.074  18.684  24.610  1.00  0.00     0.041 A 
ATOM     20  C   UNL A   1      34.460  18.621  24.672  1.00  0.00     0.023 A 
ATOM     21  Cl  UNL A   1      32.144  17.236  24.603  1.00  0.00    -0.084 Cl
BRANCH  14  22
ATOM     22  C   UNL A   1      36.404  22.810  24.251  1.00  0.00     0.262 C 
ATOM     23  O   UNL A   1      36.625  23.336  23.156  1.00  0.00    -0.268 OA
BRANCH  22  24
ATOM     24  C   UNL A   1      37.607  22.699  25.134  1.00  0.00     0.040 A 
ATOM     25  C   UNL A   1      38.242  21.439  25.191  1.00  0.00     0.015 A 
ATOM     26  C   UNL A   1      38.045  23.699  26.008  1.00  0.00     0.015 A 
ATOM     27  C   UNL A   1      39.294  21.190  26.076  1.00  0.00     0.021 A 
ATOM     28  C   UNL A   1      39.127  23.460  26.872  1.00  0.00     0.021 A 
ATOM     29  C   UNL A   1      39.740  22.207  26.909  1.00  0.00     0.041 A 
ATOM     30  Cl  UNL A   1      41.029  21.908  28.006  1.00  0.00    -0.084 Cl
ENDBRANCH  22  24
ENDBRANCH  14  22
ENDBRANCH   6   8
ENDBRANCH   4   6
ENDBRANCH   3   4
ENDBRANCH   2   3
ENDBRANCH   1   2
BRANCH   1  31
ATOM     31  O   UNL A   1      30.259  30.593  24.259  1.00  0.00    -0.374 OA
BRANCH  31  32
ATOM     32  C   UNL A   1      31.320  30.309  25.169  1.00  0.00     0.202 C 
BRANCH  32  33
ATOM     33  C   UNL A   1      31.421  31.198  26.415  1.00  0.00     0.261 C 
BRANCH  33  34
ATOM     34  O   UNL A   1      32.588  30.915  27.208  1.00  0.00    -0.460 OA
BRANCH  34  35
ATOM     35  C   UNL A   1      33.336  31.999  27.513  1.00  0.00     0.338 C 
ATOM     36  O   UNL A   1      32.958  33.163  27.615  1.00  0.00    -0.246 OA
BRANCH  35  37
ATOM     37  C   UNL A   1      34.697  31.591  27.895  1.00  0.00     0.060 A 
ATOM     38  C   UNL A   1      34.919  30.227  28.128  1.00  0.00     0.016 A 
ATOM     39  C   UNL A   1      35.720  32.521  28.099  1.00  0.00     0.016 A 
ATOM     40  C   UNL A   1      36.147  29.792  28.615  1.00  0.00     0.010 A 
ATOM     41  C   UNL A   1      36.952  32.082  28.599  1.00  0.00     0.010 A 
ATOM     42  C   UNL A   1      37.158  30.721  28.893  1.00  0.00    -0.014 A 
BRANCH  42  43
ATOM     43  C   UNL A   1      38.363  30.279  29.635  1.00  0.00     0.031 A 
ATOM     44  C   UNL A   1      38.540  30.716  31.063  1.00  0.00     0.074 A 
ATOM     45  C   UNL A   1      39.262  29.458  29.064  1.00  0.00     0.049 A 
ATOM     46  N   UNL A   1      39.514  30.459  31.898  1.00  0.00    -0.248 NA
ATOM     47  C   UNL A   1      37.473  31.560  31.625  1.00  0.00     0.031 C 
ATOM     48  C   UNL A   1      39.175  28.929  27.704  1.00  0.00     0.029 A 
ATOM     49  N   UNL A   1      40.425  28.927  29.559  1.00  0.00    -0.354 N 
ATOM     50  C   UNL A   1      39.181  31.112  33.079  1.00  0.00     0.074 A 
ATOM     51  C   UNL A   1      37.932  31.801  32.844  1.00  0.00     0.031 C 
ATOM     52  C   UNL A   1      40.244  28.150  27.472  1.00  0.00     0.029 A 
ATOM     53  C   UNL A   1      41.106  28.152  28.653  1.00  0.00     0.049 A 
ATOM     54  H   UNL A   1      40.744  29.087  30.478  1.00  0.00     0.167 HD
ATOM     55  C   UNL A   1      39.855  31.126  34.254  1.00  0.00     0.037 A 
ATOM     56  C   UNL A   1      42.298  27.534  28.761  1.00  0.00     0.037 A 
ATOM     57  C   UNL A   1      41.096  30.433  34.485  1.00  0.00     0.049 A 
ATOM     58  C   UNL A   1      43.063  27.628  30.057  1.00  0.00     0.074 A 
ATOM     59  C   UNL A   1      41.842  30.365  35.648  1.00  0.00     0.029 A 
ATOM     60  N   UNL A   1      41.776  29.694  33.529  1.00  0.00    -0.354 N 
ATOM     61  N   UNL A   1      42.729  28.223  31.177  1.00  0.00    -0.248 NA
ATOM     62  C   UNL A   1      44.372  26.960  30.102  1.00  0.00     0.031 C 
ATOM     63  C   UNL A   1      43.003  29.632  35.381  1.00  0.00     0.029 A 
ATOM     64  C   UNL A   1      42.950  29.193  34.067  1.00  0.00     0.049 A 
ATOM     65  H   UNL A   1      41.470  29.547  32.605  1.00  0.00     0.167 HD
ATOM     66  C   UNL A   1      43.767  27.975  32.067  1.00  0.00     0.074 A 
ATOM     67  C   UNL A   1      44.738  27.166  31.361  1.00  0.00     0.031 C 
ATOM     68  C   UNL A   1      43.903  28.380  33.353  1.00  0.00     0.037 A 
BRANCH  55  69
ATOM     69  C   UNL A   1      39.280  31.944  35.374  1.00  0.00     0.064 A 
ATOM     70  C   UNL A   1      38.458  31.376  36.359  1.00  0.00     0.173 A 
ATOM     71  C   UNL A   1      39.584  33.310  35.480  1.00  0.00     0.173 A 
ATOM     72  F   UNL A   1      38.127  30.078  36.297  1.00  0.00    -0.203 F 
ATOM     73  C   UNL A   1      37.944  32.151  37.396  1.00  0.00     0.198 A 
ATOM     74  C   UNL A   1      39.092  34.074  36.534  1.00  0.00     0.198 A 
ATOM     75  F   UNL A   1      40.368  33.901  34.567  1.00  0.00    -0.203 F 
ATOM     76  F   UNL A   1      37.124  31.598  38.301  1.00  0.00    -0.200 F 
ATOM     77  C   UNL A   1      38.267  33.497  37.486  1.00  0.00     0.200 A 
ATOM     78  F   UNL A   1      39.416  35.371  36.627  1.00  0.00    -0.200 F 
ATOM     79  F   UNL A   1      37.777  34.239  38.489  1.00  0.00    -0.200 F 
ENDBRANCH  55  69
BRANCH  56  80
ATOM     80  C   UNL A   1      42.851  26.777  27.608  1.00  0.00     0.064 A 
ATOM     81  C   UNL A   1      42.597  25.407  27.453  1.00  0.00     0.173 A 
ATOM     82  C   UNL A   1      43.662  27.402  26.650  1.00  0.00     0.173 A 
ATOM     83  F   UNL A   1      41.850  24.758  28.357  1.00  0.00    -0.203 F 
ATOM     84  C   UNL A   1      43.149  24.688  26.393  1.00  0.00     0.198 A 
ATOM     85  C   UNL A   1      44.188  26.690  25.574  1.00  0.00     0.198 A 
ATOM     86  F   UNL A   1      43.939  28.710  26.754  1.00  0.00    -0.203 F 
ATOM     87  F   UNL A   1      42.929  23.371  26.294  1.00  0.00    -0.200 F 
ATOM     88  C   UNL A   1      43.938  25.331  25.451  1.00  0.00     0.200 A 
ATOM     89  F   UNL A   1      44.941  27.318  24.661  1.00  0.00    -0.200 F 
ATOM     90  F   UNL A   1      44.465  24.641  24.432  1.00  0.00    -0.200 F 
ENDBRANCH  56  80
BRANCH  68  91
ATOM     91  C   UNL A   1      45.126  27.923  34.097  1.00  0.00     0.064 A 
ATOM     92  C   UNL A   1      46.297  28.692  34.137  1.00  0.00     0.173 A 
ATOM     93  C   UNL A   1      45.108  26.716  34.815  1.00  0.00     0.173 A 
ATOM     94  F   UNL A   1      46.371  29.846  33.456  1.00  0.00    -0.203 F 
ATOM     95  C   UNL A   1      47.415  28.259  34.845  1.00  0.00     0.198 A 
ATOM     96  C   UNL A   1      46.216  26.302  35.549  1.00  0.00     0.198 A 
ATOM     97  F   UNL A   1      44.009  25.946  34.817  1.00  0.00    -0.203 F 
ATOM     98  F   UNL A   1      48.541  28.987  34.829  1.00  0.00    -0.200 F 
ATOM     99  C   UNL A   1      47.371  27.069  35.557  1.00  0.00     0.200 A 
ATOM    100  F   UNL A   1      46.167  25.159  36.247  1.00  0.00    -0.200 F 
ATOM    101  F   UNL A   1      48.445  26.658  36.245  1.00  0.00    -0.200 F 
ENDBRANCH  68  91
ENDBRANCH  42  43
ENDBRANCH  35  37
ENDBRANCH  34  35
ENDBRANCH  33  34
ENDBRANCH  32  33
ENDBRANCH  31  32
ENDBRANCH   1  31
TORSDOF 17
ENDMDL
MODEL 2
REMARK VINA RESULT:     -12.3      0.655      7.044
REMARK SMILES C[C@@H](C(=O)OCCOCCOC(=O)c1ccc(-c2c3nc(c(-c4c(F)c(F)c(F)c(F)c4F)c4ccc([nH]4)c(-c4c(F)c(F)c(F)c(F)c4F)c4nc(c(-c5c(F)c(F)c(F)c(F)c5F)c5ccc2[nH]5)C=C4)C=C3)cc1)c1ccc2c3cc(Cl)ccc3n(C(=O)c3ccc(Cl)cc3)c2c1
REMARK SMILES IDX 7 1 6 2 5 3 3 4 4 5 2 6 1 7 77 8 78 9 99 10 79 11 98 12
REMARK SMILES IDX 80 13 88 14 81 15 87 16 82 17 86 18 83 19 85 20 84 21 89 22
REMARK SMILES IDX 90 23 91 24 92 25 97 26 93 27 96 28 94 29 95 30 8 31 9 32
REMARK SMILES IDX 10 33 11 34 12 35 13 36 14 37 15 38 76 39 16 40 75 41 17 42
REMARK SMILES IDX 18 43 19 44 69 45 20 46 74 47 68 48 70 49 21 50 73 51 67 52
REMARK SMILES IDX 66 53 22 55 54 56 34 57 53 58 35 59 38 60 52 61 71 62 36 63
REMARK SMILES IDX 37 64 51 66 72 67 39 68 23 69 24 70 32 71 25 72 26 73 30 74
REMARK SMILES IDX 33 75 27 76 28 77 31 78 29 79 55 80 56 81 64 82 57 83 58 84
REMARK SMILES IDX 62 85 65 86 59 87 60 88 63 89 61 90 40 91 41 92 49 93 42 94
REMARK SMILES IDX 43 95 47 96 50 97 44 98 45 99 48 100 46 101
REMARK H PARENT 70 54 38 65
REMARK Flexibility Score: inf
ROOT
ATOM      1  C   UNL A   1      30.102  28.644  23.499  1.00  0.00     0.202 C 
ENDROOT
BRANCH   1   2
ATOM      2  C   UNL A   1      30.739  27.614  22.562  1.00  0.00     0.261 C 
BRANCH   2   3
ATOM      3  O   UNL A   1      31.111  26.427  23.289  1.00  0.00    -0.463 OA
BRANCH   3   4
ATOM      4  C   UNL A   1      32.401  26.388  23.723  1.00  0.00     0.313 C 
ATOM      5  O   UNL A   1      33.367  26.672  23.021  1.00  0.00    -0.252 OA
BRANCH   4   6
ATOM      6  C   UNL A   1      32.528  25.966  25.196  1.00  0.00     0.126 C 
ATOM      7  C   UNL A   1      33.499  26.804  26.033  1.00  0.00     0.025 C 
BRANCH   6   8
ATOM      8  C   UNL A   1      32.800  24.464  25.269  1.00  0.00    -0.032 A 
ATOM      9  C   UNL A   1      31.722  23.585  25.384  1.00  0.00     0.005 A 
ATOM     10  C   UNL A   1      34.090  23.935  25.085  1.00  0.00     0.032 A 
ATOM     11  C   UNL A   1      31.902  22.205  25.259  1.00  0.00     0.011 A 
ATOM     12  C   UNL A   1      34.278  22.539  24.950  1.00  0.00     0.057 A 
ATOM     13  C   UNL A   1      33.187  21.677  25.011  1.00  0.00     0.008 A 
ATOM     14  N   UNL A   1      35.433  21.774  24.673  1.00  0.00    -0.276 N 
ATOM     15  C   UNL A   1      33.670  20.359  24.810  1.00  0.00     0.009 A 
ATOM     16  C   UNL A   1      35.067  20.418  24.711  1.00  0.00     0.057 A 
ATOM     17  C   UNL A   1      33.009  19.112  24.760  1.00  0.00     0.031 A 
ATOM     18  C   UNL A   1      35.821  19.226  24.712  1.00  0.00     0.029 A 
ATOM     19  C   UNL A   1      33.758  17.943  24.686  1.00  0.00     0.041 A 
ATOM     20  C   UNL A   1      35.145  17.996  24.688  1.00  0.00     0.023 A 
ATOM     21  Cl  UNL A   1      32.952  16.424  24.635  1.00  0.00    -0.084 Cl
BRANCH  14  22
ATOM     22  C   UNL A   1      36.714  22.352  24.426  1.00  0.00     0.262 C 
ATOM     23  O   UNL A   1      36.885  22.829  23.300  1.00  0.00    -0.268 OA
BRANCH  22  24
ATOM     24  C   UNL A   1      37.917  22.423  25.313  1.00  0.00     0.040 A 
ATOM     25  C   UNL A   1      38.683  21.244  25.444  1.00  0.00     0.015 A 
ATOM     26  C   UNL A   1      38.240  23.514  26.126  1.00  0.00     0.015 A 
ATOM     27  C   UNL A   1      39.750  21.162  26.342  1.00  0.00     0.021 A 
ATOM     28  C   UNL A   1      39.336  23.445  27.002  1.00  0.00     0.021 A 
ATOM     29  C   UNL A   1      40.079  22.269  27.113  1.00  0.00     0.041 A 
ATOM     30  Cl  UNL A   1      41.387  22.175  28.225  1.00  0.00    -0.084 Cl
ENDBRANCH  22  24
ENDBRANCH  14  22
ENDBRANCH   6   8
ENDBRANCH   4   6
ENDBRANCH   3   4
ENDBRANCH   2   3
ENDBRANCH   1   2
BRANCH   1  31
ATOM     31  O   UNL A   1      30.973  29.631  24.058  1.00  0.00    -0.374 OA
BRANCH  31  32
ATOM     32  C   UNL A   1      31.289  29.516  25.444  1.00  0.00     0.202 C 
BRANCH  32  33
ATOM     33  C   UNL A   1      31.808  30.779  26.143  1.00  0.00     0.261 C 
BRANCH  33  34
ATOM     34  O   UNL A   1      32.994  30.538  26.921  1.00  0.00    -0.460 OA
BRANCH  34  35
ATOM     35  C   UNL A   1      33.574  31.653  27.421  1.00  0.00     0.338 C 
ATOM     36  O   UNL A   1      33.054  32.750  27.597  1.00  0.00    -0.246 OA
BRANCH  35  37
ATOM     37  C   UNL A   1      34.926  31.348  27.916  1.00  0.00     0.060 A 
ATOM     38  C   UNL A   1      35.191  30.024  28.290  1.00  0.00     0.016 A 
ATOM     39  C   UNL A   1      35.893  32.341  28.087  1.00  0.00     0.016 A 
ATOM     40  C   UNL A   1      36.406  29.696  28.885  1.00  0.00     0.010 A 
ATOM     41  C   UNL A   1      37.111  32.011  28.695  1.00  0.00     0.010 A 
ATOM     42  C   UNL A   1      37.357  30.695  29.129  1.00  0.00    -0.014 A 
BRANCH  42  43
ATOM     43  C   UNL A   1      38.533  30.382  29.975  1.00  0.00     0.031 A 
ATOM     44  C   UNL A   1      39.656  29.569  29.391  1.00  0.00     0.074 A 
ATOM     45  C   UNL A   1      38.625  30.856  31.230  1.00  0.00     0.049 A 
ATOM     46  N   UNL A   1      40.772  29.171  29.945  1.00  0.00    -0.248 NA
ATOM     47  C   UNL A   1      39.498  29.148  27.990  1.00  0.00     0.031 C 
ATOM     48  C   UNL A   1      37.625  31.693  31.890  1.00  0.00     0.029 A 
ATOM     49  N   UNL A   1      39.610  30.700  32.172  1.00  0.00    -0.354 N 
ATOM     50  C   UNL A   1      41.444  28.450  28.966  1.00  0.00     0.074 A 
ATOM     51  C   UNL A   1      40.599  28.440  27.792  1.00  0.00     0.031 C 
ATOM     52  C   UNL A   1      38.046  31.974  33.134  1.00  0.00     0.029 A 
ATOM     53  C   UNL A   1      39.328  31.311  33.369  1.00  0.00     0.049 A 
ATOM     54  H   UNL A   1      40.440  30.196  32.007  1.00  0.00     0.167 HD
ATOM     55  C   UNL A   1      42.660  27.857  29.039  1.00  0.00     0.037 A 
ATOM     56  C   UNL A   1      40.018  31.315  34.526  1.00  0.00     0.037 A 
ATOM     57  C   UNL A   1      43.501  27.875  30.207  1.00  0.00     0.049 A 
ATOM     58  C   UNL A   1      41.335  30.585  34.602  1.00  0.00     0.074 A 
ATOM     59  C   UNL A   1      44.761  27.327  30.371  1.00  0.00     0.029 A 
ATOM     60  N   UNL A   1      43.162  28.468  31.414  1.00  0.00    -0.354 N 
ATOM     61  N   UNL A   1      41.976  29.930  33.665  1.00  0.00    -0.248 NA
ATOM     62  C   UNL A   1      42.025  30.598  35.900  1.00  0.00     0.031 C 
ATOM     63  C   UNL A   1      45.160  27.538  31.695  1.00  0.00     0.029 A 
ATOM     64  C   UNL A   1      44.175  28.270  32.338  1.00  0.00     0.049 A 
ATOM     65  H   UNL A   1      42.326  28.956  31.589  1.00  0.00     0.167 HD
ATOM     66  C   UNL A   1      43.155  29.482  34.247  1.00  0.00     0.074 A 
ATOM     67  C   UNL A   1      43.147  29.950  35.617  1.00  0.00     0.031 C 
ATOM     68  C   UNL A   1      44.155  28.750  33.698  1.00  0.00     0.037 A 
BRANCH  55  69
ATOM     69  C   UNL A   1      43.142  27.111  27.829  1.00  0.00     0.064 A 
ATOM     70  C   UNL A   1      43.972  27.712  26.870  1.00  0.00     0.173 A 
ATOM     71  C   UNL A   1      42.796  25.763  27.645  1.00  0.00     0.173 A 
ATOM     72  F   UNL A   1      44.322  29.001  26.992  1.00  0.00    -0.203 F 
ATOM     73  C   UNL A   1      44.416  26.998  25.760  1.00  0.00     0.198 A 
ATOM     74  C   UNL A   1      43.266  25.045  26.550  1.00  0.00     0.198 A 
ATOM     75  F   UNL A   1      42.009  25.140  28.535  1.00  0.00    -0.203 F 
ATOM     76  F   UNL A   1      45.171  27.604  24.833  1.00  0.00    -0.200 F 
ATOM     77  C   UNL A   1      44.070  25.664  25.605  1.00  0.00     0.200 A 
ATOM     78  F   UNL A   1      42.941  23.753  26.409  1.00  0.00    -0.200 F 
ATOM     79  F   UNL A   1      44.505  24.976  24.540  1.00  0.00    -0.200 F 
ENDBRANCH  55  69
BRANCH  56  80
ATOM     80  C   UNL A   1      39.476  32.027  35.713  1.00  0.00     0.064 A 
ATOM     81  C   UNL A   1      38.573  31.401  36.582  1.00  0.00     0.173 A 
ATOM     82  C   UNL A   1      39.832  33.355  35.988  1.00  0.00     0.173 A 
ATOM     83  F   UNL A   1      38.180  30.141  36.346  1.00  0.00    -0.203 F 
ATOM     84  C   UNL A   1      38.033  32.082  37.673  1.00  0.00     0.198 A 
ATOM     85  C   UNL A   1      39.316  34.026  37.095  1.00  0.00     0.198 A 
ATOM     86  F   UNL A   1      40.690  34.002  35.185  1.00  0.00    -0.203 F 
ATOM     87  F   UNL A   1      37.136  31.475  38.461  1.00  0.00    -0.200 F 
ATOM     88  C   UNL A   1      38.410  33.391  37.932  1.00  0.00     0.200 A 
ATOM     89  F   UNL A   1      39.691  35.287  37.347  1.00  0.00    -0.200 F 
ATOM     90  F   UNL A   1      37.893  34.044  38.980  1.00  0.00    -0.200 F 
ENDBRANCH  56  80
BRANCH  68  91
ATOM     91  C   UNL A   1      45.345  28.443  34.563  1.00  0.00     0.064 A 
ATOM     92  C   UNL A   1      45.394  27.298  35.370  1.00  0.00     0.173 A 
ATOM     93  C   UNL A   1      46.467  29.287  34.551  1.00  0.00     0.173 A 
ATOM     94  F   UNL A   1      44.343  26.467  35.429  1.00  0.00    -0.203 F 
ATOM     95  C   UNL A   1      46.512  27.022  36.153  1.00  0.00     0.198 A 
ATOM     96  C   UNL A   1      47.596  28.991  35.309  1.00  0.00     0.198 A 
ATOM     97  F   UNL A   1      46.474  30.392  33.789  1.00  0.00    -0.203 F 
ATOM     98  F   UNL A   1      46.518  25.947  36.955  1.00  0.00    -0.200 F 
ATOM     99  C   UNL A   1      47.615  27.863  36.117  1.00  0.00     0.200 A 
ATOM    100  F   UNL A   1      48.665  29.797  35.261  1.00  0.00    -0.200 F 
ATOM    101  F   UNL A   1      48.693  27.591  36.864  1.00  0.00    -0.200 F 
ENDBRANCH  68  91
ENDBRANCH  42  43
ENDBRANCH  35  37
ENDBRANCH  34  35
ENDBRANCH  33  34
ENDBRANCH  32  33
ENDBRANCH  31  32
ENDBRANCH   1  31
TORSDOF 17
ENDMDL
MODEL 3
REMARK VINA RESULT:     -12.2      3.216      8.576
REMARK SMILES C[C@@H](C(=O)OCCOCCOC(=O)c1ccc(-c2c3nc(c(-c4c(F)c(F)c(F)c(F)c4F)c4ccc([nH]4)c(-c4c(F)c(F)c(F)c(F)c4F)c4nc(c(-c5c(F)c(F)c(F)c(F)c5F)c5ccc2[nH]5)C=C4)C=C3)cc1)c1ccc2c3cc(Cl)ccc3n(C(=O)c3ccc(Cl)cc3)c2c1
REMARK SMILES IDX 7 1 6 2 5 3 3 4 4 5 2 6 1 7 77 8 78 9 99 10 79 11 98 12
REMARK SMILES IDX 80 13 88 14 81 15 87 16 82 17 86 18 83 19 85 20 84 21 89 22
REMARK SMILES IDX 90 23 91 24 92 25 97 26 93 27 96 28 94 29 95 30 8 31 9 32
REMARK SMILES IDX 10 33 11 34 12 35 13 36 14 37 15 38 76 39 16 40 75 41 17 42
REMARK SMILES IDX 18 43 19 44 69 45 20 46 74 47 68 48 70 49 21 50 73 51 67 52
REMARK SMILES IDX 66 53 22 55 54 56 34 57 53 58 35 59 38 60 52 61 71 62 36 63
REMARK SMILES IDX 37 64 51 66 72 67 39 68 23 69 24 70 32 71 25 72 26 73 30 74
REMARK SMILES IDX 33 75 27 76 28 77 31 78 29 79 55 80 56 81 64 82 57 83 58 84
REMARK SMILES IDX 62 85 65 86 59 87 60 88 63 89 61 90 40 91 41 92 49 93 42 94
REMARK SMILES IDX 43 95 47 96 50 97 44 98 45 99 48 100 46 101
REMARK H PARENT 70 54 38 65
REMARK Flexibility Score: inf
ROOT
ATOM      1  C   UNL A   1      43.439  21.556  25.767  1.00  0.00     0.202 C 
ENDROOT
BRANCH   1   2
ATOM      2  C   UNL A   1      42.294  22.569  25.681  1.00  0.00     0.261 C 
BRANCH   2   3
ATOM      3  O   UNL A   1      41.038  21.945  26.010  1.00  0.00    -0.463 OA
BRANCH   3   4
ATOM      4  C   UNL A   1      40.297  22.585  26.956  1.00  0.00     0.313 C 
ATOM      5  O   UNL A   1      40.519  22.514  28.161  1.00  0.00    -0.252 OA
BRANCH   4   6
ATOM      6  C   UNL A   1      39.156  23.425  26.360  1.00  0.00     0.126 C 
ATOM      7  C   UNL A   1      38.589  24.506  27.286  1.00  0.00     0.025 C 
BRANCH   6   8
ATOM      8  C   UNL A   1      38.088  22.494  25.787  1.00  0.00    -0.032 A 
ATOM      9  C   UNL A   1      38.449  21.197  25.420  1.00  0.00     0.005 A 
ATOM     10  C   UNL A   1      36.730  22.857  25.750  1.00  0.00     0.032 A 
ATOM     11  C   UNL A   1      37.479  20.251  25.076  1.00  0.00     0.011 A 
ATOM     12  C   UNL A   1      35.743  21.902  25.411  1.00  0.00     0.057 A 
ATOM     13  C   UNL A   1      36.112  20.596  25.099  1.00  0.00     0.008 A 
ATOM     14  N   UNL A   1      34.334  21.983  25.386  1.00  0.00    -0.276 N 
ATOM     15  C   UNL A   1      34.923  19.866  24.840  1.00  0.00     0.009 A 
ATOM     16  C   UNL A   1      33.842  20.755  24.913  1.00  0.00     0.057 A 
ATOM     17  C   UNL A   1      34.707  18.514  24.494  1.00  0.00     0.031 A 
ATOM     18  C   UNL A   1      32.561  20.335  24.497  1.00  0.00     0.029 A 
ATOM     19  C   UNL A   1      33.426  18.092  24.156  1.00  0.00     0.041 A 
ATOM     20  C   UNL A   1      32.371  18.994  24.133  1.00  0.00     0.023 A 
ATOM     21  Cl  UNL A   1      33.165  16.446  23.725  1.00  0.00    -0.084 Cl
BRANCH  14  22
ATOM     22  C   UNL A   1      33.610  23.150  25.774  1.00  0.00     0.262 C 
ATOM     23  O   UNL A   1      32.864  23.026  26.751  1.00  0.00    -0.268 OA
BRANCH  22  24
ATOM     24  C   UNL A   1      33.572  24.505  25.141  1.00  0.00     0.040 A 
ATOM     25  C   UNL A   1      33.276  24.556  23.762  1.00  0.00     0.015 A 
ATOM     26  C   UNL A   1      33.955  25.690  25.779  1.00  0.00     0.015 A 
ATOM     27  C   UNL A   1      33.339  25.754  23.045  1.00  0.00     0.021 A 
ATOM     28  C   UNL A   1      33.982  26.900  25.067  1.00  0.00     0.021 A 
ATOM     29  C   UNL A   1      33.684  26.926  23.704  1.00  0.00     0.041 A 
ATOM     30  Cl  UNL A   1      33.770  28.403  22.828  1.00  0.00    -0.084 Cl
ENDBRANCH  22  24
ENDBRANCH  14  22
ENDBRANCH   6   8
ENDBRANCH   4   6
ENDBRANCH   3   4
ENDBRANCH   2   3
ENDBRANCH   1   2
BRANCH   1  31
ATOM     31  O   UNL A   1      44.187  21.326  24.571  1.00  0.00    -0.374 OA
BRANCH  31  32
ATOM     32  C   UNL A   1      44.627  22.471  23.843  1.00  0.00     0.202 C 
BRANCH  32  33
ATOM     33  C   UNL A   1      45.323  23.577  24.646  1.00  0.00     0.261 C 
BRANCH  33  34
ATOM     34  O   UNL A   1      44.642  24.842  24.557  1.00  0.00    -0.460 OA
BRANCH  34  35
ATOM     35  C   UNL A   1      45.276  25.865  25.174  1.00  0.00     0.338 C 
ATOM     36  O   UNL A   1      46.369  26.345  24.891  1.00  0.00    -0.246 OA
BRANCH  35  37
ATOM     37  C   UNL A   1      44.391  26.488  26.172  1.00  0.00     0.060 A 
ATOM     38  C   UNL A   1      44.466  27.879  26.319  1.00  0.00     0.016 A 
ATOM     39  C   UNL A   1      43.562  25.730  27.002  1.00  0.00     0.016 A 
ATOM     40  C   UNL A   1      43.752  28.514  27.331  1.00  0.00     0.010 A 
ATOM     41  C   UNL A   1      42.853  26.369  28.026  1.00  0.00     0.010 A 
ATOM     42  C   UNL A   1      42.974  27.759  28.217  1.00  0.00    -0.014 A 
BRANCH  42  43
ATOM     43  C   UNL A   1      42.419  28.409  29.428  1.00  0.00     0.031 A 
ATOM     44  C   UNL A   1      41.062  29.055  29.351  1.00  0.00     0.074 A 
ATOM     45  C   UNL A   1      43.088  28.383  30.593  1.00  0.00     0.049 A 
ATOM     46  N   UNL A   1      40.386  29.686  30.277  1.00  0.00    -0.248 NA
ATOM     47  C   UNL A   1      40.374  28.979  28.052  1.00  0.00     0.031 C 
ATOM     48  C   UNL A   1      44.387  27.748  30.804  1.00  0.00     0.029 A 
ATOM     49  N   UNL A   1      42.765  28.906  31.819  1.00  0.00    -0.354 N 
ATOM     50  C   UNL A   1      39.201  30.086  29.672  1.00  0.00     0.074 A 
ATOM     51  C   UNL A   1      39.261  29.653  28.294  1.00  0.00     0.031 C 
ATOM     52  C   UNL A   1      44.754  27.921  32.085  1.00  0.00     0.029 A 
ATOM     53  C   UNL A   1      43.731  28.707  32.774  1.00  0.00     0.049 A 
ATOM     54  H   UNL A   1      41.920  29.380  31.999  1.00  0.00     0.167 HD
ATOM     55  C   UNL A   1      38.154  30.747  30.222  1.00  0.00     0.037 A 
ATOM     56  C   UNL A   1      43.790  29.130  34.052  1.00  0.00     0.037 A 
ATOM     57  C   UNL A   1      38.096  31.171  31.597  1.00  0.00     0.049 A 
ATOM     58  C   UNL A   1      42.644  29.929  34.618  1.00  0.00     0.074 A 
ATOM     59  C   UNL A   1      37.069  31.824  32.256  1.00  0.00     0.029 A 
ATOM     60  N   UNL A   1      39.113  30.989  32.522  1.00  0.00    -0.354 N 
ATOM     61  N   UNL A   1      41.515  30.278  34.050  1.00  0.00    -0.248 NA
ATOM     62  C   UNL A   1      42.781  30.390  36.007  1.00  0.00     0.031 C 
ATOM     63  C   UNL A   1      37.487  32.088  33.564  1.00  0.00     0.029 A 
ATOM     64  C   UNL A   1      38.751  31.547  33.738  1.00  0.00     0.049 A 
ATOM     65  H   UNL A   1      39.966  30.533  32.342  1.00  0.00     0.167 HD
ATOM     66  C   UNL A   1      40.796  30.969  35.017  1.00  0.00     0.074 A 
ATOM     67  C   UNL A   1      41.611  30.981  36.213  1.00  0.00     0.031 C 
ATOM     68  C   UNL A   1      39.571  31.542  34.924  1.00  0.00     0.037 A 
BRANCH  55  69
ATOM     69  C   UNL A   1      36.997  31.083  29.327  1.00  0.00     0.064 A 
ATOM     70  C   UNL A   1      36.030  30.127  28.979  1.00  0.00     0.173 A 
ATOM     71  C   UNL A   1      36.836  32.388  28.839  1.00  0.00     0.173 A 
ATOM     72  F   UNL A   1      36.144  28.862  29.408  1.00  0.00    -0.203 F 
ATOM     73  C   UNL A   1      34.958  30.462  28.155  1.00  0.00     0.198 A 
ATOM     74  C   UNL A   1      35.747  32.726  28.040  1.00  0.00     0.198 A 
ATOM     75  F   UNL A   1      37.729  33.340  29.146  1.00  0.00    -0.203 F 
ATOM     76  F   UNL A   1      34.070  29.523  27.798  1.00  0.00    -0.200 F 
ATOM     77  C   UNL A   1      34.814  31.762  27.693  1.00  0.00     0.200 A 
ATOM     78  F   UNL A   1      35.603  33.985  27.605  1.00  0.00    -0.200 F 
ATOM     79  F   UNL A   1      33.777  32.084  26.906  1.00  0.00    -0.200 F 
ENDBRANCH  55  69
BRANCH  56  80
ATOM     80  C   UNL A   1      44.980  28.816  34.886  1.00  0.00     0.064 A 
ATOM     81  C   UNL A   1      45.021  27.665  35.684  1.00  0.00     0.173 A 
ATOM     82  C   UNL A   1      46.090  29.672  34.918  1.00  0.00     0.173 A 
ATOM     83  F   UNL A   1      43.973  26.830  35.709  1.00  0.00    -0.203 F 
ATOM     84  C   UNL A   1      46.120  27.392  36.497  1.00  0.00     0.198 A 
ATOM     85  C   UNL A   1      47.201  29.383  35.707  1.00  0.00     0.198 A 
ATOM     86  F   UNL A   1      46.100  30.789  34.176  1.00  0.00    -0.203 F 
ATOM     87  F   UNL A   1      46.114  26.310  37.287  1.00  0.00    -0.200 F 
ATOM     88  C   UNL A   1      47.212  28.247  36.503  1.00  0.00     0.200 A 
ATOM     89  F   UNL A   1      48.258  30.206  35.701  1.00  0.00    -0.200 F 
ATOM     90  F   UNL A   1      48.269  27.983  37.282  1.00  0.00    -0.200 F 
ENDBRANCH  56  80
BRANCH  68  91
ATOM     91  C   UNL A   1      39.016  32.195  36.158  1.00  0.00     0.064 A 
ATOM     92  C   UNL A   1      39.261  33.543  36.453  1.00  0.00     0.173 A 
ATOM     93  C   UNL A   1      38.193  31.470  37.034  1.00  0.00     0.173 A 
ATOM     94  F   UNL A   1      40.052  34.277  35.656  1.00  0.00    -0.203 F 
ATOM     95  C   UNL A   1      38.724  34.135  37.594  1.00  0.00     0.198 A 
ATOM     96  C   UNL A   1      37.632  32.073  38.156  1.00  0.00     0.198 A 
ATOM     97  F   UNL A   1      37.921  30.178  36.793  1.00  0.00    -0.203 F 
ATOM     98  F   UNL A   1      39.011  35.412  37.883  1.00  0.00    -0.200 F 
ATOM     99  C   UNL A   1      37.904  33.402  38.440  1.00  0.00     0.200 A 
ATOM    100  F   UNL A   1      36.829  31.367  38.964  1.00  0.00    -0.200 F 
ATOM    101  F   UNL A   1      37.382  33.976  39.533  1.00  0.00    -0.200 F 
ENDBRANCH  68  91
ENDBRANCH  42  43
ENDBRANCH  35  37
ENDBRANCH  34  35
ENDBRANCH  33  34
ENDBRANCH  32  33
ENDBRANCH  31  32
ENDBRANCH   1  31
TORSDOF 17
ENDMDL
