MODEL 1
REMARK VINA RESULT:     -11.5      0.000      0.000
REMARK SMILES CC(C)(C)OC(=O)N1CC[N@H+](Cc2ccc(Cl)nc2)[C@H](C(=O)OCCOCCOC(=O)c2ccc(-c3c4nc(c(-c5c(F)c(F)c(F)c(F)c5F)c5ccc([nH]5)c(-c5c(F)c(F)c(F)c(F)c5F)c5nc(c(-c6c(F)c(F)c(F)c(F)c6F)c6ccc3[nH]6)C=C5)C=C4)cc2)C1
REMARK SMILES IDX 25 1 24 2 23 3 21 4 22 5 20 6 8 7 9 8 95 9 10 10 11 11 6 13
REMARK SMILES IDX 7 14 5 15 2 16 1 17 3 18 4 19 12 20 13 21 14 22 19 23 15 24
REMARK SMILES IDX 18 25 16 26 17 27 26 28 27 29 28 30 29 31 30 32 31 33 32 34
REMARK SMILES IDX 33 35 94 36 34 37 93 38 35 39 36 40 37 41 87 42 38 43 92 44
REMARK SMILES IDX 86 45 88 46 39 47 91 48 85 49 84 50 40 52 72 53 52 54 71 55
REMARK SMILES IDX 53 56 56 57 70 58 89 59 54 60 55 61 69 63 90 64 57 65 41 66
REMARK SMILES IDX 42 67 50 68 43 69 44 70 48 71 51 72 45 73 46 74 49 75 47 76
REMARK SMILES IDX 73 77 74 78 82 79 75 80 76 81 80 82 83 83 77 84 78 85 81 86
REMARK SMILES IDX 79 87 58 88 59 89 67 90 60 91 61 92 65 93 68 94 62 95 63 96
REMARK SMILES IDX 66 97 64 98
REMARK H PARENT 11 12 88 51 56 62
REMARK Flexibility Score: inf
ROOT
ATOM      1  C   UNL A   1      31.969  29.333  27.106  1.00  0.00     0.202 C 
ENDROOT
BRANCH   1   2
ATOM      2  C   UNL A   1      32.385  28.039  26.408  1.00  0.00     0.261 C 
BRANCH   2   3
ATOM      3  O   UNL A   1      33.536  28.269  25.579  1.00  0.00    -0.459 OA
BRANCH   3   4
ATOM      4  C   UNL A   1      33.416  27.862  24.290  1.00  0.00     0.366 C 
ATOM      5  O   UNL A   1      33.810  28.522  23.334  1.00  0.00    -0.245 OA
BRANCH   4   6
ATOM      6  C   UNL A   1      32.841  26.452  24.129  1.00  0.00     0.315 C 
ATOM      7  N   UNL A   1      33.555  24.172  23.381  1.00  0.00    -0.296 N 
ATOM      8  C   UNL A   1      32.222  23.900  22.872  1.00  0.00     0.184 C 
ATOM      9  C   UNL A   1      33.943  25.570  23.523  1.00  0.00     0.200 C 
ATOM     10  C   UNL A   1      31.147  24.850  23.445  1.00  0.00     0.285 C 
ATOM     11  N   UNL A   1      31.488  26.288  23.516  1.00  0.00    -0.316 N 
ATOM     12  H   UNL A   1      30.878  26.778  24.172  1.00  0.00     0.349 HD
BRANCH   7  13
ATOM     13  C   UNL A   1      34.508  23.171  23.355  1.00  0.00     0.410 C 
ATOM     14  O   UNL A   1      35.602  23.297  22.812  1.00  0.00    -0.224 OA
BRANCH  13  15
ATOM     15  O   UNL A   1      34.061  22.054  23.968  1.00  0.00    -0.444 OA
BRANCH  15  16
ATOM     16  C   UNL A   1      34.593  21.525  25.209  1.00  0.00     0.106 C 
ATOM     17  C   UNL A   1      33.451  20.674  25.785  1.00  0.00     0.056 C 
ATOM     18  C   UNL A   1      34.870  22.708  26.138  1.00  0.00     0.056 C 
ATOM     19  C   UNL A   1      35.830  20.636  25.051  1.00  0.00     0.056 C 
ENDBRANCH  15  16
ENDBRANCH  13  15
ENDBRANCH   7  13
BRANCH  11  20
ATOM     20  C   UNL A   1      31.111  27.059  22.326  1.00  0.00     0.301 C 
BRANCH  20  21
ATOM     21  C   UNL A   1      30.151  28.199  22.509  1.00  0.00     0.025 A 
ATOM     22  C   UNL A   1      30.444  29.492  22.067  1.00  0.00     0.014 A 
ATOM     23  C   UNL A   1      28.927  28.009  23.145  1.00  0.00     0.122 A 
ATOM     24  C   UNL A   1      29.583  30.540  22.375  1.00  0.00     0.041 A 
ATOM     25  N   UNL A   1      28.062  29.000  23.443  1.00  0.00    -0.244 NA
ATOM     26  C   UNL A   1      28.427  30.243  23.073  1.00  0.00     0.129 A 
ATOM     27  Cl  UNL A   1      27.341  31.480  23.551  1.00  0.00    -0.062 Cl
ENDBRANCH  20  21
ENDBRANCH  11  20
ENDBRANCH   4   6
ENDBRANCH   3   4
ENDBRANCH   2   3
ENDBRANCH   1   2
BRANCH   1  28
ATOM     28  O   UNL A   1      32.347  30.537  26.444  1.00  0.00    -0.374 OA
BRANCH  28  29
ATOM     29  C   UNL A   1      31.398  31.607  26.421  1.00  0.00     0.202 C 
BRANCH  29  30
ATOM     30  C   UNL A   1      31.923  32.989  26.824  1.00  0.00     0.261 C 
BRANCH  30  31
ATOM     31  O   UNL A   1      32.808  32.914  27.959  1.00  0.00    -0.460 OA
BRANCH  31  32
ATOM     32  C   UNL A   1      33.900  33.710  27.887  1.00  0.00     0.338 C 
ATOM     33  O   UNL A   1      33.930  34.917  27.712  1.00  0.00    -0.246 OA
BRANCH  32  34
ATOM     34  C   UNL A   1      35.107  32.940  28.239  1.00  0.00     0.060 A 
ATOM     35  C   UNL A   1      34.935  31.601  28.612  1.00  0.00     0.016 A 
ATOM     36  C   UNL A   1      36.368  33.536  28.294  1.00  0.00     0.016 A 
ATOM     37  C   UNL A   1      36.016  30.865  29.093  1.00  0.00     0.010 A 
ATOM     38  C   UNL A   1      37.450  32.800  28.789  1.00  0.00     0.010 A 
ATOM     39  C   UNL A   1      37.270  31.475  29.226  1.00  0.00    -0.014 A 
BRANCH  39  40
ATOM     40  C   UNL A   1      38.344  30.774  29.969  1.00  0.00     0.031 A 
ATOM     41  C   UNL A   1      38.547  31.093  31.425  1.00  0.00     0.074 A 
ATOM     42  C   UNL A   1      39.112  29.852  29.363  1.00  0.00     0.049 A 
ATOM     43  N   UNL A   1      39.438  30.625  32.262  1.00  0.00    -0.248 NA
ATOM     44  C   UNL A   1      37.622  32.073  32.018  1.00  0.00     0.031 C 
ATOM     45  C   UNL A   1      38.990  29.437  27.968  1.00  0.00     0.029 A 
ATOM     46  N   UNL A   1      40.156  29.106  29.849  1.00  0.00    -0.354 N 
ATOM     47  C   UNL A   1      39.189  31.260  33.471  1.00  0.00     0.074 A 
ATOM     48  C   UNL A   1      38.077  32.161  33.259  1.00  0.00     0.031 C 
ATOM     49  C   UNL A   1      39.937  28.520  27.704  1.00  0.00     0.029 A 
ATOM     50  C   UNL A   1      40.744  28.304  28.903  1.00  0.00     0.049 A 
ATOM     51  H   UNL A   1      40.455  29.142  30.786  1.00  0.00     0.167 HD
ATOM     52  C   UNL A   1      39.829  31.102  34.654  1.00  0.00     0.037 A 
ATOM     53  C   UNL A   1      41.825  27.504  28.994  1.00  0.00     0.037 A 
ATOM     54  C   UNL A   1      40.922  30.192  34.870  1.00  0.00     0.049 A 
ATOM     55  C   UNL A   1      42.546  27.381  30.313  1.00  0.00     0.074 A 
ATOM     56  C   UNL A   1      41.601  29.923  36.045  1.00  0.00     0.029 A 
ATOM     57  N   UNL A   1      41.501  29.409  33.884  1.00  0.00    -0.354 N 
ATOM     58  N   UNL A   1      42.273  27.949  31.462  1.00  0.00    -0.248 NA
ATOM     59  C   UNL A   1      43.724  26.503  30.345  1.00  0.00     0.031 C 
ATOM     60  C   UNL A   1      42.622  29.010  35.760  1.00  0.00     0.029 A 
ATOM     61  C   UNL A   1      42.550  28.678  34.418  1.00  0.00     0.049 A 
ATOM     62  H   UNL A   1      41.210  29.376  32.944  1.00  0.00     0.167 HD
ATOM     63  C   UNL A   1      43.224  27.476  32.357  1.00  0.00     0.074 A 
ATOM     64  C   UNL A   1      44.076  26.565  31.621  1.00  0.00     0.031 C 
ATOM     65  C   UNL A   1      43.379  27.768  33.672  1.00  0.00     0.037 A 
BRANCH  52  66
ATOM     66  C   UNL A   1      39.380  31.947  35.808  1.00  0.00     0.064 A 
ATOM     67  C   UNL A   1      38.391  31.510  36.701  1.00  0.00     0.173 A 
ATOM     68  C   UNL A   1      39.989  33.186  36.054  1.00  0.00     0.173 A 
ATOM     69  F   UNL A   1      37.771  30.337  36.500  1.00  0.00    -0.203 F 
ATOM     70  C   UNL A   1      38.018  32.291  37.792  1.00  0.00     0.198 A 
ATOM     71  C   UNL A   1      39.629  33.954  37.157  1.00  0.00     0.198 A 
ATOM     72  F   UNL A   1      40.942  33.646  35.229  1.00  0.00    -0.203 F 
ATOM     73  F   UNL A   1      37.049  31.870  38.615  1.00  0.00    -0.200 F 
ATOM     74  C   UNL A   1      38.643  33.508  38.023  1.00  0.00     0.200 A 
ATOM     75  F   UNL A   1      40.240  35.125  37.384  1.00  0.00    -0.200 F 
ATOM     76  F   UNL A   1      38.290  34.253  39.079  1.00  0.00    -0.200 F 
ENDBRANCH  52  66
BRANCH  53  77
ATOM     77  C   UNL A   1      42.310  26.769  27.798  1.00  0.00     0.064 A 
ATOM     78  C   UNL A   1      41.899  25.454  27.539  1.00  0.00     0.173 A 
ATOM     79  C   UNL A   1      43.222  27.355  26.909  1.00  0.00     0.173 A 
ATOM     80  F   UNL A   1      41.050  24.841  28.378  1.00  0.00    -0.203 F 
ATOM     81  C   UNL A   1      42.402  24.744  26.451  1.00  0.00     0.198 A 
ATOM     82  C   UNL A   1      43.703  26.654  25.805  1.00  0.00     0.198 A 
ATOM     83  F   UNL A   1      43.649  28.610  27.115  1.00  0.00    -0.203 F 
ATOM     84  F   UNL A   1      42.035  23.470  26.257  1.00  0.00    -0.200 F 
ATOM     85  C   UNL A   1      43.300  25.347  25.582  1.00  0.00     0.200 A 
ATOM     86  F   UNL A   1      44.566  27.242  24.966  1.00  0.00    -0.200 F 
ATOM     87  F   UNL A   1      43.787  24.662  24.538  1.00  0.00    -0.200 F 
ENDBRANCH  53  77
BRANCH  65  88
ATOM     88  C   UNL A   1      44.486  27.073  34.408  1.00  0.00     0.064 A 
ATOM     89  C   UNL A   1      45.762  27.644  34.524  1.00  0.00     0.173 A 
ATOM     90  C   UNL A   1      44.254  25.843  35.043  1.00  0.00     0.173 A 
ATOM     91  F   UNL A   1      46.037  28.811  33.922  1.00  0.00    -0.203 F 
ATOM     92  C   UNL A   1      46.772  26.997  35.232  1.00  0.00     0.198 A 
ATOM     93  C   UNL A   1      45.259  25.214  35.772  1.00  0.00     0.198 A 
ATOM     94  F   UNL A   1      43.048  25.260  34.968  1.00  0.00    -0.203 F 
ATOM     95  F   UNL A   1      47.995  27.541  35.296  1.00  0.00    -0.200 F 
ATOM     96  C   UNL A   1      46.517  25.788  35.861  1.00  0.00     0.200 A 
ATOM     97  F   UNL A   1      45.007  24.051  36.391  1.00  0.00    -0.200 F 
ATOM     98  F   UNL A   1      47.489  25.171  36.549  1.00  0.00    -0.200 F 
ENDBRANCH  65  88
ENDBRANCH  39  40
ENDBRANCH  32  34
ENDBRANCH  31  32
ENDBRANCH  30  31
ENDBRANCH  29  30
ENDBRANCH  28  29
ENDBRANCH   1  28
TORSDOF 19
ENDMDL
MODEL 2
REMARK VINA RESULT:     -11.5      5.027      9.219
REMARK SMILES CC(C)(C)OC(=O)N1CC[N@H+](Cc2ccc(Cl)nc2)[C@H](C(=O)OCCOCCOC(=O)c2ccc(-c3c4nc(c(-c5c(F)c(F)c(F)c(F)c5F)c5ccc([nH]5)c(-c5c(F)c(F)c(F)c(F)c5F)c5nc(c(-c6c(F)c(F)c(F)c(F)c6F)c6ccc3[nH]6)C=C5)C=C4)cc2)C1
REMARK SMILES IDX 25 1 24 2 23 3 21 4 22 5 20 6 8 7 9 8 95 9 10 10 11 11 6 13
REMARK SMILES IDX 7 14 5 15 2 16 1 17 3 18 4 19 12 20 13 21 14 22 19 23 15 24
REMARK SMILES IDX 18 25 16 26 17 27 26 28 27 29 28 30 29 31 30 32 31 33 32 34
REMARK SMILES IDX 33 35 94 36 34 37 93 38 35 39 36 40 37 41 87 42 38 43 92 44
REMARK SMILES IDX 86 45 88 46 39 47 91 48 85 49 84 50 40 52 72 53 52 54 71 55
REMARK SMILES IDX 53 56 56 57 70 58 89 59 54 60 55 61 69 63 90 64 57 65 41 66
REMARK SMILES IDX 42 67 50 68 43 69 44 70 48 71 51 72 45 73 46 74 49 75 47 76
REMARK SMILES IDX 73 77 74 78 82 79 75 80 76 81 80 82 83 83 77 84 78 85 81 86
REMARK SMILES IDX 79 87 58 88 59 89 67 90 60 91 61 92 65 93 68 94 62 95 63 96
REMARK SMILES IDX 66 97 64 98
REMARK H PARENT 11 12 88 51 56 62
REMARK Flexibility Score: inf
ROOT
ATOM      1  C   UNL A   1      37.724  22.950  25.829  1.00  0.00     0.202 C 
ENDROOT
BRANCH   1   2
ATOM      2  C   UNL A   1      36.199  22.890  25.848  1.00  0.00     0.261 C 
BRANCH   2   3
ATOM      3  O   UNL A   1      35.647  24.020  25.153  1.00  0.00    -0.459 OA
BRANCH   3   4
ATOM      4  C   UNL A   1      34.851  23.721  24.094  1.00  0.00     0.366 C 
ATOM      5  O   UNL A   1      35.263  23.183  23.071  1.00  0.00    -0.245 OA
BRANCH   4   6
ATOM      6  C   UNL A   1      33.367  24.013  24.325  1.00  0.00     0.315 C 
ATOM      7  N   UNL A   1      31.908  25.570  25.638  1.00  0.00    -0.296 N 
ATOM      8  C   UNL A   1      30.896  24.536  25.776  1.00  0.00     0.184 C 
ATOM      9  C   UNL A   1      33.274  25.135  25.372  1.00  0.00     0.200 C 
ATOM     10  C   UNL A   1      31.059  23.386  24.757  1.00  0.00     0.285 C 
ATOM     11  N   UNL A   1      32.428  22.870  24.537  1.00  0.00    -0.316 N 
ATOM     12  H   UNL A   1      32.490  22.356  23.657  1.00  0.00     0.349 HD
BRANCH   7  13
ATOM     13  C   UNL A   1      31.649  26.840  26.115  1.00  0.00     0.410 C 
ATOM     14  O   UNL A   1      31.229  27.062  27.247  1.00  0.00    -0.224 OA
BRANCH  13  15
ATOM     15  O   UNL A   1      31.888  27.776  25.170  1.00  0.00    -0.444 OA
BRANCH  15  16
ATOM     16  C   UNL A   1      32.881  28.826  25.282  1.00  0.00     0.106 C 
ATOM     17  C   UNL A   1      32.080  30.068  25.702  1.00  0.00     0.056 C 
ATOM     18  C   UNL A   1      33.482  29.049  23.894  1.00  0.00     0.056 C 
ATOM     19  C   UNL A   1      33.970  28.573  26.329  1.00  0.00     0.056 C 
ENDBRANCH  15  16
ENDBRANCH  13  15
ENDBRANCH   7  13
BRANCH  11  20
ATOM     20  C   UNL A   1      32.801  21.752  25.411  1.00  0.00     0.301 C 
BRANCH  20  21
ATOM     21  C   UNL A   1      33.112  20.433  24.763  1.00  0.00     0.025 A 
ATOM     22  C   UNL A   1      32.244  19.837  23.844  1.00  0.00     0.014 A 
ATOM     23  C   UNL A   1      34.283  19.744  25.068  1.00  0.00     0.122 A 
ATOM     24  C   UNL A   1      32.511  18.557  23.370  1.00  0.00     0.041 A 
ATOM     25  N   UNL A   1      34.580  18.510  24.612  1.00  0.00    -0.244 NA
ATOM     26  C   UNL A   1      33.672  17.939  23.797  1.00  0.00     0.129 A 
ATOM     27  Cl  UNL A   1      34.049  16.338  23.316  1.00  0.00    -0.062 Cl
ENDBRANCH  20  21
ENDBRANCH  11  20
ENDBRANCH   4   6
ENDBRANCH   3   4
ENDBRANCH   2   3
ENDBRANCH   1   2
BRANCH   1  28
ATOM     28  O   UNL A   1      38.367  21.985  24.999  1.00  0.00    -0.374 OA
BRANCH  28  29
ATOM     29  C   UNL A   1      37.853  20.650  25.013  1.00  0.00     0.202 C 
BRANCH  29  30
ATOM     30  C   UNL A   1      38.851  19.543  25.366  1.00  0.00     0.261 C 
BRANCH  30  31
ATOM     31  O   UNL A   1      39.760  19.954  26.405  1.00  0.00    -0.460 OA
BRANCH  31  32
ATOM     32  C   UNL A   1      41.059  19.637  26.187  1.00  0.00     0.338 C 
ATOM     33  O   UNL A   1      41.505  18.585  25.762  1.00  0.00    -0.246 OA
BRANCH  32  34
ATOM     34  C   UNL A   1      41.903  20.833  26.362  1.00  0.00     0.060 A 
ATOM     35  C   UNL A   1      42.212  21.222  27.671  1.00  0.00     0.016 A 
ATOM     36  C   UNL A   1      42.309  21.610  25.275  1.00  0.00     0.016 A 
ATOM     37  C   UNL A   1      42.883  22.421  27.904  1.00  0.00     0.010 A 
ATOM     38  C   UNL A   1      42.971  22.820  25.511  1.00  0.00     0.010 A 
ATOM     39  C   UNL A   1      43.226  23.248  26.827  1.00  0.00    -0.014 A 
BRANCH  39  40
ATOM     40  C   UNL A   1      43.706  24.625  27.091  1.00  0.00     0.031 A 
ATOM     41  C   UNL A   1      42.730  25.647  27.607  1.00  0.00     0.074 A 
ATOM     42  C   UNL A   1      44.994  24.956  26.896  1.00  0.00     0.049 A 
ATOM     43  N   UNL A   1      42.919  26.913  27.881  1.00  0.00    -0.248 NA
ATOM     44  C   UNL A   1      41.354  25.180  27.844  1.00  0.00     0.031 C 
ATOM     45  C   UNL A   1      46.038  24.046  26.430  1.00  0.00     0.029 A 
ATOM     46  N   UNL A   1      45.639  26.155  27.060  1.00  0.00    -0.354 N 
ATOM     47  C   UNL A   1      41.689  27.394  28.309  1.00  0.00     0.074 A 
ATOM     48  C   UNL A   1      40.754  26.292  28.243  1.00  0.00     0.031 C 
ATOM     49  C   UNL A   1      47.193  24.726  26.328  1.00  0.00     0.029 A 
ATOM     50  C   UNL A   1      46.963  26.121  26.698  1.00  0.00     0.049 A 
ATOM     51  H   UNL A   1      45.195  26.964  27.404  1.00  0.00     0.167 HD
ATOM     52  C   UNL A   1      41.371  28.642  28.726  1.00  0.00     0.037 A 
ATOM     53  C   UNL A   1      47.876  27.111  26.651  1.00  0.00     0.037 A 
ATOM     54  C   UNL A   1      42.305  29.732  28.811  1.00  0.00     0.049 A 
ATOM     55  C   UNL A   1      47.481  28.502  27.079  1.00  0.00     0.074 A 
ATOM     56  C   UNL A   1      42.089  31.020  29.270  1.00  0.00     0.029 A 
ATOM     57  N   UNL A   1      43.633  29.663  28.419  1.00  0.00    -0.354 N 
ATOM     58  N   UNL A   1      46.329  28.936  27.528  1.00  0.00    -0.248 NA
ATOM     59  C   UNL A   1      48.518  29.541  26.994  1.00  0.00     0.031 C 
ATOM     60  C   UNL A   1      43.275  31.744  29.113  1.00  0.00     0.029 A 
ATOM     61  C   UNL A   1      44.241  30.895  28.599  1.00  0.00     0.049 A 
ATOM     62  H   UNL A   1      44.078  28.859  28.067  1.00  0.00     0.167 HD
ATOM     63  C   UNL A   1      46.509  30.285  27.805  1.00  0.00     0.074 A 
ATOM     64  C   UNL A   1      47.886  30.597  27.484  1.00  0.00     0.031 C 
ATOM     65  C   UNL A   1      45.616  31.185  28.284  1.00  0.00     0.037 A 
BRANCH  52  66
ATOM     66  C   UNL A   1      39.945  28.908  29.103  1.00  0.00     0.064 A 
ATOM     67  C   UNL A   1      38.999  29.332  28.159  1.00  0.00     0.173 A 
ATOM     68  C   UNL A   1      39.508  28.680  30.417  1.00  0.00     0.173 A 
ATOM     69  F   UNL A   1      39.372  29.576  26.894  1.00  0.00    -0.203 F 
ATOM     70  C   UNL A   1      37.669  29.533  28.520  1.00  0.00     0.198 A 
ATOM     71  C   UNL A   1      38.174  28.860  30.769  1.00  0.00     0.198 A 
ATOM     72  F   UNL A   1      40.375  28.270  31.356  1.00  0.00    -0.203 F 
ATOM     73  F   UNL A   1      36.788  29.970  27.611  1.00  0.00    -0.200 F 
ATOM     74  C   UNL A   1      37.257  29.289  29.822  1.00  0.00     0.200 A 
ATOM     75  F   UNL A   1      37.775  28.615  32.025  1.00  0.00    -0.200 F 
ATOM     76  F   UNL A   1      35.974  29.473  30.166  1.00  0.00    -0.200 F 
ENDBRANCH  52  66
BRANCH  53  77
ATOM     77  C   UNL A   1      49.251  26.834  26.163  1.00  0.00     0.064 A 
ATOM     78  C   UNL A   1      49.595  27.020  24.817  1.00  0.00     0.173 A 
ATOM     79  C   UNL A   1      50.240  26.343  27.028  1.00  0.00     0.173 A 
ATOM     80  F   UNL A   1      48.674  27.461  23.947  1.00  0.00    -0.203 F 
ATOM     81  C   UNL A   1      50.867  26.702  24.350  1.00  0.00     0.198 A 
ATOM     82  C   UNL A   1      51.521  26.051  26.565  1.00  0.00     0.198 A 
ATOM     83  F   UNL A   1      49.960  26.143  28.325  1.00  0.00    -0.203 F 
ATOM     84  F   UNL A   1      51.154  26.838  23.048  1.00  0.00    -0.200 F 
ATOM     85  C   UNL A   1      51.831  26.222  25.224  1.00  0.00     0.200 A 
ATOM     86  F   UNL A   1      52.449  25.593  27.414  1.00  0.00    -0.200 F 
ATOM     87  F   UNL A   1      53.054  25.911  24.772  1.00  0.00    -0.200 F 
ENDBRANCH  53  77
BRANCH  65  88
ATOM     88  C   UNL A   1      46.105  32.583  28.523  1.00  0.00     0.064 A 
ATOM     89  C   UNL A   1      46.692  32.957  29.740  1.00  0.00     0.173 A 
ATOM     90  C   UNL A   1      46.026  33.546  27.505  1.00  0.00     0.173 A 
ATOM     91  F   UNL A   1      46.776  32.076  30.748  1.00  0.00    -0.203 F 
ATOM     92  C   UNL A   1      47.163  34.253  29.937  1.00  0.00     0.198 A 
ATOM     93  C   UNL A   1      46.523  34.832  27.697  1.00  0.00     0.198 A 
ATOM     94  F   UNL A   1      45.480  33.234  26.320  1.00  0.00    -0.203 F 
ATOM     95  F   UNL A   1      47.683  34.601  31.122  1.00  0.00    -0.200 F 
ATOM     96  C   UNL A   1      47.085  35.185  28.913  1.00  0.00     0.200 A 
ATOM     97  F   UNL A   1      46.459  35.728  26.702  1.00  0.00    -0.200 F 
ATOM     98  F   UNL A   1      47.547  36.430  29.103  1.00  0.00    -0.200 F 
ENDBRANCH  65  88
ENDBRANCH  39  40
ENDBRANCH  32  34
ENDBRANCH  31  32
ENDBRANCH  30  31
ENDBRANCH  29  30
ENDBRANCH  28  29
ENDBRANCH   1  28
TORSDOF 19
ENDMDL
MODEL 3
REMARK VINA RESULT:     -11.2      1.532      2.640
REMARK SMILES CC(C)(C)OC(=O)N1CC[N@H+](Cc2ccc(Cl)nc2)[C@H](C(=O)OCCOCCOC(=O)c2ccc(-c3c4nc(c(-c5c(F)c(F)c(F)c(F)c5F)c5ccc([nH]5)c(-c5c(F)c(F)c(F)c(F)c5F)c5nc(c(-c6c(F)c(F)c(F)c(F)c6F)c6ccc3[nH]6)C=C5)C=C4)cc2)C1
REMARK SMILES IDX 25 1 24 2 23 3 21 4 22 5 20 6 8 7 9 8 95 9 10 10 11 11 6 13
REMARK SMILES IDX 7 14 5 15 2 16 1 17 3 18 4 19 12 20 13 21 14 22 19 23 15 24
REMARK SMILES IDX 18 25 16 26 17 27 26 28 27 29 28 30 29 31 30 32 31 33 32 34
REMARK SMILES IDX 33 35 94 36 34 37 93 38 35 39 36 40 37 41 87 42 38 43 92 44
REMARK SMILES IDX 86 45 88 46 39 47 91 48 85 49 84 50 40 52 72 53 52 54 71 55
REMARK SMILES IDX 53 56 56 57 70 58 89 59 54 60 55 61 69 63 90 64 57 65 41 66
REMARK SMILES IDX 42 67 50 68 43 69 44 70 48 71 51 72 45 73 46 74 49 75 47 76
REMARK SMILES IDX 73 77 74 78 82 79 75 80 76 81 80 82 83 83 77 84 78 85 81 86
REMARK SMILES IDX 79 87 58 88 59 89 67 90 60 91 61 92 65 93 68 94 62 95 63 96
REMARK SMILES IDX 66 97 64 98
REMARK H PARENT 11 12 88 51 56 62
REMARK Flexibility Score: inf
ROOT
ATOM      1  C   UNL A   1      31.847  30.444  25.811  1.00  0.00     0.202 C 
ENDROOT
BRANCH   1   2
ATOM      2  C   UNL A   1      33.072  29.535  25.868  1.00  0.00     0.261 C 
BRANCH   2   3
ATOM      3  O   UNL A   1      32.693  28.172  25.618  1.00  0.00    -0.459 OA
BRANCH   3   4
ATOM      4  C   UNL A   1      33.239  27.610  24.510  1.00  0.00     0.366 C 
ATOM      5  O   UNL A   1      34.080  28.169  23.813  1.00  0.00    -0.245 OA
BRANCH   4   6
ATOM      6  C   UNL A   1      32.797  26.166  24.259  1.00  0.00     0.315 C 
ATOM      7  N   UNL A   1      33.738  23.995  23.439  1.00  0.00    -0.296 N 
ATOM      8  C   UNL A   1      32.455  23.636  22.859  1.00  0.00     0.184 C 
ATOM      9  C   UNL A   1      33.996  25.412  23.662  1.00  0.00     0.200 C 
ATOM     10  C   UNL A   1      31.279  24.461  23.426  1.00  0.00     0.285 C 
ATOM     11  N   UNL A   1      31.489  25.917  23.579  1.00  0.00    -0.316 N 
ATOM     12  H   UNL A   1      30.813  26.320  24.228  1.00  0.00     0.349 HD
BRANCH   7  13
ATOM     13  C   UNL A   1      34.775  23.082  23.409  1.00  0.00     0.410 C 
ATOM     14  O   UNL A   1      35.669  23.105  22.568  1.00  0.00    -0.224 OA
BRANCH  13  15
ATOM     15  O   UNL A   1      34.648  22.166  24.393  1.00  0.00    -0.444 OA
BRANCH  15  16
ATOM     16  C   UNL A   1      35.496  22.094  25.567  1.00  0.00     0.106 C 
ATOM     17  C   UNL A   1      36.566  21.054  25.203  1.00  0.00     0.056 C 
ATOM     18  C   UNL A   1      34.645  21.569  26.725  1.00  0.00     0.056 C 
ATOM     19  C   UNL A   1      36.197  23.404  25.936  1.00  0.00     0.056 C 
ENDBRANCH  15  16
ENDBRANCH  13  15
ENDBRANCH   7  13
BRANCH  11  20
ATOM     20  C   UNL A   1      31.095  26.712  22.410  1.00  0.00     0.301 C 
BRANCH  20  21
ATOM     21  C   UNL A   1      30.185  27.885  22.639  1.00  0.00     0.025 A 
ATOM     22  C   UNL A   1      28.891  27.730  23.145  1.00  0.00     0.014 A 
ATOM     23  C   UNL A   1      30.598  29.180  22.338  1.00  0.00     0.122 A 
ATOM     24  C   UNL A   1      28.041  28.829  23.217  1.00  0.00     0.041 A 
ATOM     25  N   UNL A   1      29.805  30.268  22.413  1.00  0.00    -0.244 NA
ATOM     26  C   UNL A   1      28.539  30.058  22.825  1.00  0.00     0.129 A 
ATOM     27  Cl  UNL A   1      27.544  31.453  22.818  1.00  0.00    -0.062 Cl
ENDBRANCH  20  21
ENDBRANCH  11  20
ENDBRANCH   4   6
ENDBRANCH   3   4
ENDBRANCH   2   3
ENDBRANCH   1   2
BRANCH   1  28
ATOM     28  O   UNL A   1      31.747  31.409  26.855  1.00  0.00    -0.374 OA
BRANCH  28  29
ATOM     29  C   UNL A   1      32.927  31.688  27.615  1.00  0.00     0.202 C 
BRANCH  29  30
ATOM     30  C   UNL A   1      33.438  33.132  27.569  1.00  0.00     0.261 C 
BRANCH  30  31
ATOM     31  O   UNL A   1      32.475  34.056  28.112  1.00  0.00    -0.460 OA
BRANCH  31  32
ATOM     32  C   UNL A   1      33.005  35.094  28.802  1.00  0.00     0.338 C 
ATOM     33  O   UNL A   1      32.562  36.226  28.898  1.00  0.00    -0.246 OA
BRANCH  32  34
ATOM     34  C   UNL A   1      34.146  34.628  29.612  1.00  0.00     0.060 A 
ATOM     35  C   UNL A   1      35.420  34.693  29.035  1.00  0.00     0.016 A 
ATOM     36  C   UNL A   1      33.965  34.056  30.873  1.00  0.00     0.016 A 
ATOM     37  C   UNL A   1      36.515  34.136  29.693  1.00  0.00     0.010 A 
ATOM     38  C   UNL A   1      35.062  33.486  31.527  1.00  0.00     0.010 A 
ATOM     39  C   UNL A   1      36.333  33.490  30.922  1.00  0.00    -0.014 A 
BRANCH  39  40
ATOM     40  C   UNL A   1      37.440  32.685  31.491  1.00  0.00     0.031 A 
ATOM     41  C   UNL A   1      37.958  33.030  32.861  1.00  0.00     0.074 A 
ATOM     42  C   UNL A   1      37.961  31.650  30.810  1.00  0.00     0.049 A 
ATOM     43  N   UNL A   1      38.933  32.483  33.543  1.00  0.00    -0.248 NA
ATOM     44  C   UNL A   1      37.289  34.142  33.556  1.00  0.00     0.031 C 
ATOM     45  C   UNL A   1      37.522  31.202  29.491  1.00  0.00     0.029 A 
ATOM     46  N   UNL A   1      38.982  30.794  31.136  1.00  0.00    -0.354 N 
ATOM     47  C   UNL A   1      39.001  33.190  34.736  1.00  0.00     0.074 A 
ATOM     48  C   UNL A   1      37.983  34.217  34.682  1.00  0.00     0.031 C 
ATOM     49  C   UNL A   1      38.284  30.161  29.110  1.00  0.00     0.029 A 
ATOM     50  C   UNL A   1      39.276  29.888  30.148  1.00  0.00     0.049 A 
ATOM     51  H   UNL A   1      39.460  30.827  31.997  1.00  0.00     0.167 HD
ATOM     52  C   UNL A   1      39.834  32.995  35.785  1.00  0.00     0.037 A 
ATOM     53  C   UNL A   1      40.251  28.960  30.084  1.00  0.00     0.037 A 
ATOM     54  C   UNL A   1      40.832  31.961  35.848  1.00  0.00     0.049 A 
ATOM     55  C   UNL A   1      41.194  28.795  31.249  1.00  0.00     0.074 A 
ATOM     56  C   UNL A   1      41.689  31.651  36.889  1.00  0.00     0.029 A 
ATOM     57  N   UNL A   1      41.111  31.073  34.820  1.00  0.00    -0.354 N 
ATOM     58  N   UNL A   1      41.219  29.436  32.392  1.00  0.00    -0.248 NA
ATOM     59  C   UNL A   1      42.243  27.774  31.113  1.00  0.00     0.031 C 
ATOM     60  C   UNL A   1      42.519  30.604  36.474  1.00  0.00     0.029 A 
ATOM     61  C   UNL A   1      42.149  30.234  35.192  1.00  0.00     0.049 A 
ATOM     62  H   UNL A   1      40.642  31.043  33.956  1.00  0.00     0.167 HD
ATOM     63  C   UNL A   1      42.262  28.878  33.119  1.00  0.00     0.074 A 
ATOM     64  C   UNL A   1      42.840  27.839  32.294  1.00  0.00     0.031 C 
ATOM     65  C   UNL A   1      42.703  29.197  34.361  1.00  0.00     0.037 A 
BRANCH  52  66
ATOM     66  C   UNL A   1      39.721  33.933  36.949  1.00  0.00     0.064 A 
ATOM     67  C   UNL A   1      40.350  35.187  36.949  1.00  0.00     0.173 A 
ATOM     68  C   UNL A   1      38.926  33.594  38.054  1.00  0.00     0.173 A 
ATOM     69  F   UNL A   1      41.130  35.550  35.920  1.00  0.00    -0.203 F 
ATOM     70  C   UNL A   1      40.198  36.062  38.021  1.00  0.00     0.198 A 
ATOM     71  C   UNL A   1      38.759  34.481  39.113  1.00  0.00     0.198 A 
ATOM     72  F   UNL A   1      38.302  32.407  38.099  1.00  0.00    -0.203 F 
ATOM     73  F   UNL A   1      40.832  37.241  38.016  1.00  0.00    -0.200 F 
ATOM     74  C   UNL A   1      39.397  35.711  39.098  1.00  0.00     0.200 A 
ATOM     75  F   UNL A   1      37.977  34.144  40.149  1.00  0.00    -0.200 F 
ATOM     76  F   UNL A   1      39.243  36.560  40.125  1.00  0.00    -0.200 F 
ENDBRANCH  52  66
BRANCH  53  77
ATOM     77  C   UNL A   1      40.403  28.124  28.866  1.00  0.00     0.064 A 
ATOM     78  C   UNL A   1      41.186  28.552  27.785  1.00  0.00     0.173 A 
ATOM     79  C   UNL A   1      39.740  26.894  28.744  1.00  0.00     0.173 A 
ATOM     80  F   UNL A   1      41.817  29.734  27.843  1.00  0.00    -0.203 F 
ATOM     81  C   UNL A   1      41.279  27.794  26.619  1.00  0.00     0.198 A 
ATOM     82  C   UNL A   1      39.856  26.124  27.589  1.00  0.00     0.198 A 
ATOM     83  F   UNL A   1      38.975  26.442  29.750  1.00  0.00    -0.203 F 
ATOM     84  F   UNL A   1      41.990  28.252  25.580  1.00  0.00    -0.200 F 
ATOM     85  C   UNL A   1      40.618  26.578  26.524  1.00  0.00     0.200 A 
ATOM     86  F   UNL A   1      39.219  24.949  27.505  1.00  0.00    -0.200 F 
ATOM     87  F   UNL A   1      40.703  25.853  25.401  1.00  0.00    -0.200 F 
ENDBRANCH  53  77
BRANCH  65  88
ATOM     88  C   UNL A   1      43.841  28.394  34.917  1.00  0.00     0.064 A 
ATOM     89  C   UNL A   1      45.176  28.761  34.696  1.00  0.00     0.173 A 
ATOM     90  C   UNL A   1      43.591  27.270  35.720  1.00  0.00     0.173 A 
ATOM     91  F   UNL A   1      45.466  29.819  33.924  1.00  0.00    -0.203 F 
ATOM     92  C   UNL A   1      46.221  28.018  35.241  1.00  0.00     0.198 A 
ATOM     93  C   UNL A   1      44.638  26.546  36.284  1.00  0.00     0.198 A 
ATOM     94  F   UNL A   1      42.331  26.882  35.967  1.00  0.00    -0.203 F 
ATOM     95  F   UNL A   1      47.490  28.363  34.983  1.00  0.00    -0.200 F 
ATOM     96  C   UNL A   1      45.951  26.918  36.040  1.00  0.00     0.200 A 
ATOM     97  F   UNL A   1      44.375  25.490  37.067  1.00  0.00    -0.200 F 
ATOM     98  F   UNL A   1      46.958  26.209  36.569  1.00  0.00    -0.200 F 
ENDBRANCH  65  88
ENDBRANCH  39  40
ENDBRANCH  32  34
ENDBRANCH  31  32
ENDBRANCH  30  31
ENDBRANCH  29  30
ENDBRANCH  28  29
ENDBRANCH   1  28
TORSDOF 19
ENDMDL
