MODEL 1
REMARK VINA RESULT:     -11.6      0.000      0.000
REMARK SMILES O=C(OCCOCCOC(=O)[C@@H]1CC=CC[C@@H]1C(=O)Nc1ccc(O)cc1)c1ccc(-c2c3nc(c(-c4c(F)c(F)c(F)c(F)c4F)c4ccc([nH]4)c(-c4c(F)c(F)c(F)c(F)c4F)c4nc(c(-c5c(F)c(F)c(F)c(F)c5F)c5ccc2[nH]5)C=C4)C=C3)cc1
REMARK SMILES IDX 7 1 6 2 5 3 4 4 3 5 2 6 1 7 28 8 29 9 90 10 30 11 89 12
REMARK SMILES IDX 31 13 32 14 33 15 83 16 34 17 88 18 82 19 84 20 35 21 87 22
REMARK SMILES IDX 81 23 80 24 36 26 68 27 48 28 67 29 49 30 52 31 66 32 85 33
REMARK SMILES IDX 50 34 51 35 65 37 86 38 53 39 37 40 38 41 46 42 39 43 40 44
REMARK SMILES IDX 44 45 47 46 41 47 42 48 45 49 43 50 69 51 70 52 78 53 71 54
REMARK SMILES IDX 72 55 76 56 79 57 73 58 74 59 77 60 75 61 54 62 55 63 63 64
REMARK SMILES IDX 56 65 57 66 61 67 64 68 58 69 59 70 62 71 60 72 8 73 9 74
REMARK SMILES IDX 10 75 11 76 12 77 13 78 17 79 14 80 16 81 15 82 18 83 19 84
REMARK SMILES IDX 20 85 21 87 22 88 27 89 23 90 26 91 24 92 25 93
REMARK H PARENT 84 25 52 36 20 86 25 94
REMARK Flexibility Score: inf
ROOT
ATOM      1  C   UNL A   1      31.103  27.332  25.085  1.00  0.00     0.202 C 
ENDROOT
BRANCH   1   2
ATOM      2  O   UNL A   1      32.488  27.548  25.285  1.00  0.00    -0.374 OA
BRANCH   2   3
ATOM      3  C   UNL A   1      33.044  28.743  24.751  1.00  0.00     0.202 C 
BRANCH   3   4
ATOM      4  C   UNL A   1      32.123  29.914  25.107  1.00  0.00     0.261 C 
BRANCH   4   5
ATOM      5  O   UNL A   1      32.219  30.238  26.507  1.00  0.00    -0.460 OA
BRANCH   5   6
ATOM      6  C   UNL A   1      33.038  31.202  27.009  1.00  0.00     0.338 C 
ATOM      7  O   UNL A   1      32.657  32.369  27.064  1.00  0.00    -0.246 OA
BRANCH   6   8
ATOM      8  C   UNL A   1      34.300  30.833  27.720  1.00  0.00     0.060 A 
ATOM      9  C   UNL A   1      34.725  29.526  27.966  1.00  0.00     0.016 A 
ATOM     10  C   UNL A   1      35.155  31.889  28.079  1.00  0.00     0.016 A 
ATOM     11  C   UNL A   1      35.929  29.273  28.608  1.00  0.00     0.010 A 
ATOM     12  C   UNL A   1      36.383  31.637  28.706  1.00  0.00     0.010 A 
ATOM     13  C   UNL A   1      36.764  30.320  28.995  1.00  0.00    -0.014 A 
BRANCH  13  14
ATOM     14  C   UNL A   1      37.906  29.989  29.878  1.00  0.00     0.031 A 
ATOM     15  C   UNL A   1      39.035  29.196  29.289  1.00  0.00     0.074 A 
ATOM     16  C   UNL A   1      38.040  30.557  31.090  1.00  0.00     0.049 A 
ATOM     17  N   UNL A   1      40.118  28.737  29.857  1.00  0.00    -0.248 NA
ATOM     18  C   UNL A   1      38.939  28.906  27.848  1.00  0.00     0.031 C 
ATOM     19  C   UNL A   1      37.098  31.505  31.684  1.00  0.00     0.029 A 
ATOM     20  N   UNL A   1      39.051  30.469  32.014  1.00  0.00    -0.354 N 
ATOM     21  C   UNL A   1      40.809  28.072  28.853  1.00  0.00     0.074 A 
ATOM     22  C   UNL A   1      40.032  28.191  27.641  1.00  0.00     0.031 C 
ATOM     23  C   UNL A   1      37.600  31.951  32.848  1.00  0.00     0.029 A 
ATOM     24  C   UNL A   1      38.844  31.244  33.132  1.00  0.00     0.049 A 
ATOM     25  H   UNL A   1      39.848  29.906  31.890  1.00  0.00     0.167 HD
ATOM     26  C   UNL A   1      41.987  27.412  28.946  1.00  0.00     0.037 A 
ATOM     27  C   UNL A   1      39.561  31.331  34.270  1.00  0.00     0.037 A 
ATOM     28  C   UNL A   1      42.754  27.326  30.159  1.00  0.00     0.049 A 
ATOM     29  C   UNL A   1      40.799  30.477  34.396  1.00  0.00     0.074 A 
ATOM     30  C   UNL A   1      43.903  26.599  30.408  1.00  0.00     0.029 A 
ATOM     31  N   UNL A   1      42.448  28.011  31.327  1.00  0.00    -0.354 N 
ATOM     32  N   UNL A   1      41.381  29.720  33.496  1.00  0.00    -0.248 NA
ATOM     33  C   UNL A   1      41.464  30.462  35.707  1.00  0.00     0.031 C 
ATOM     34  C   UNL A   1      44.266  26.807  31.742  1.00  0.00     0.029 A 
ATOM     35  C   UNL A   1      43.381  27.715  32.305  1.00  0.00     0.049 A 
ATOM     36  H   UNL A   1      41.681  28.617  31.442  1.00  0.00     0.167 HD
ATOM     37  C   UNL A   1      42.484  29.155  34.123  1.00  0.00     0.074 A 
ATOM     38  C   UNL A   1      42.507  29.681  35.473  1.00  0.00     0.031 C 
ATOM     39  C   UNL A   1      43.388  28.270  33.635  1.00  0.00     0.037 A 
BRANCH  26  40
ATOM     40  C   UNL A   1      42.448  26.667  27.731  1.00  0.00     0.064 A 
ATOM     41  C   UNL A   1      42.042  25.352  27.456  1.00  0.00     0.173 A 
ATOM     42  C   UNL A   1      43.345  27.275  26.839  1.00  0.00     0.173 A 
ATOM     43  F   UNL A   1      41.213  24.713  28.296  1.00  0.00    -0.203 F 
ATOM     44  C   UNL A   1      42.541  24.665  26.353  1.00  0.00     0.198 A 
ATOM     45  C   UNL A   1      43.816  26.597  25.719  1.00  0.00     0.198 A 
ATOM     46  F   UNL A   1      43.774  28.526  27.061  1.00  0.00    -0.203 F 
ATOM     47  F   UNL A   1      42.192  23.388  26.147  1.00  0.00    -0.200 F 
ATOM     48  C   UNL A   1      43.422  25.289  25.482  1.00  0.00     0.200 A 
ATOM     49  F   UNL A   1      44.663  27.205  24.878  1.00  0.00    -0.200 F 
ATOM     50  F   UNL A   1      43.904  24.626  24.423  1.00  0.00    -0.200 F 
ENDBRANCH  26  40
BRANCH  27  51
ATOM     51  C   UNL A   1      39.087  32.164  35.414  1.00  0.00     0.064 A 
ATOM     52  C   UNL A   1      39.423  33.521  35.530  1.00  0.00     0.173 A 
ATOM     53  C   UNL A   1      38.347  31.594  36.463  1.00  0.00     0.173 A 
ATOM     54  F   UNL A   1      40.159  34.114  34.578  1.00  0.00    -0.203 F 
ATOM     55  C   UNL A   1      39.066  34.261  36.659  1.00  0.00     0.198 A 
ATOM     56  C   UNL A   1      37.953  32.346  37.569  1.00  0.00     0.198 A 
ATOM     57  F   UNL A   1      38.011  30.296  36.425  1.00  0.00    -0.203 F 
ATOM     58  F   UNL A   1      39.471  35.534  36.779  1.00  0.00    -0.200 F 
ATOM     59  C   UNL A   1      38.327  33.674  37.673  1.00  0.00     0.200 A 
ATOM     60  F   UNL A   1      37.231  31.773  38.541  1.00  0.00    -0.200 F 
ATOM     61  F   UNL A   1      37.993  34.383  38.762  1.00  0.00    -0.200 F 
ENDBRANCH  27  51
BRANCH  39  62
ATOM     62  C   UNL A   1      44.503  27.854  34.551  1.00  0.00     0.064 A 
ATOM     63  C   UNL A   1      44.402  26.722  35.373  1.00  0.00     0.173 A 
ATOM     64  C   UNL A   1      45.706  28.577  34.571  1.00  0.00     0.173 A 
ATOM     65  F   UNL A   1      43.268  26.005  35.399  1.00  0.00    -0.203 F 
ATOM     66  C   UNL A   1      45.454  26.348  36.205  1.00  0.00     0.198 A 
ATOM     67  C   UNL A   1      46.767  28.179  35.376  1.00  0.00     0.198 A 
ATOM     68  F   UNL A   1      45.856  29.661  33.795  1.00  0.00    -0.203 F 
ATOM     69  F   UNL A   1      45.315  25.295  37.022  1.00  0.00    -0.200 F 
ATOM     70  C   UNL A   1      46.637  27.071  36.199  1.00  0.00     0.200 A 
ATOM     71  F   UNL A   1      47.917  28.867  35.355  1.00  0.00    -0.200 F 
ATOM     72  F   UNL A   1      47.651  26.702  36.993  1.00  0.00    -0.200 F 
ENDBRANCH  39  62
ENDBRANCH  13  14
ENDBRANCH   6   8
ENDBRANCH   5   6
ENDBRANCH   4   5
ENDBRANCH   3   4
ENDBRANCH   2   3
ENDBRANCH   1   2
BRANCH   1  73
ATOM     73  C   UNL A   1      30.517  26.358  26.104  1.00  0.00     0.261 C 
BRANCH  73  74
ATOM     74  O   UNL A   1      30.298  25.037  25.583  1.00  0.00    -0.463 OA
BRANCH  74  75
ATOM     75  C   UNL A   1      31.095  24.065  26.119  1.00  0.00     0.310 C 
ATOM     76  O   UNL A   1      31.568  24.076  27.240  1.00  0.00    -0.252 OA
BRANCH  75  77
ATOM     77  C   UNL A   1      31.231  22.906  25.163  1.00  0.00     0.116 C 
ATOM     78  C   UNL A   1      32.141  21.805  25.747  1.00  0.00     0.043 C 
ATOM     79  C   UNL A   1      31.522  23.324  23.712  1.00  0.00     0.097 C 
ATOM     80  C   UNL A   1      32.842  20.953  24.734  1.00  0.00    -0.030 C 
ATOM     81  C   UNL A   1      31.726  22.086  22.820  1.00  0.00     0.041 C 
ATOM     82  C   UNL A   1      32.655  21.076  23.415  1.00  0.00    -0.030 C 
BRANCH  79  83
ATOM     83  C   UNL A   1      32.416  24.503  23.245  1.00  0.00     0.228 C 
ATOM     84  O   UNL A   1      31.948  25.301  22.421  1.00  0.00    -0.274 OA
ATOM     85  N   UNL A   1      33.581  24.876  23.839  1.00  0.00    -0.326 N 
ATOM     86  H   UNL A   1      33.671  25.845  23.993  1.00  0.00     0.169 HD
BRANCH  85  87
ATOM     87  C   UNL A   1      34.670  24.116  24.267  1.00  0.00     0.041 A 
ATOM     88  C   UNL A   1      35.068  24.086  25.600  1.00  0.00     0.030 A 
ATOM     89  C   UNL A   1      35.382  23.386  23.307  1.00  0.00     0.030 A 
ATOM     90  C   UNL A   1      36.282  23.492  25.946  1.00  0.00     0.048 A 
ATOM     91  C   UNL A   1      36.618  22.830  23.644  1.00  0.00     0.048 A 
ATOM     92  C   UNL A   1      37.078  22.940  24.949  1.00  0.00     0.115 A 
BRANCH  92  93
ATOM     93  O   UNL A   1      38.353  22.555  25.223  1.00  0.00    -0.508 OA
ATOM     94  H   UNL A   1      38.601  21.656  25.131  1.00  0.00     0.293 HD
ENDBRANCH  92  93
ENDBRANCH  85  87
ENDBRANCH  79  83
ENDBRANCH  75  77
ENDBRANCH  74  75
ENDBRANCH  73  74
ENDBRANCH   1  73
TORSDOF 17
ENDMDL
MODEL 2
REMARK VINA RESULT:     -11.4      1.211      2.251
REMARK SMILES O=C(OCCOCCOC(=O)[C@@H]1CC=CC[C@@H]1C(=O)Nc1ccc(O)cc1)c1ccc(-c2c3nc(c(-c4c(F)c(F)c(F)c(F)c4F)c4ccc([nH]4)c(-c4c(F)c(F)c(F)c(F)c4F)c4nc(c(-c5c(F)c(F)c(F)c(F)c5F)c5ccc2[nH]5)C=C4)C=C3)cc1
REMARK SMILES IDX 7 1 6 2 5 3 4 4 3 5 2 6 1 7 28 8 29 9 90 10 30 11 89 12
REMARK SMILES IDX 31 13 32 14 33 15 83 16 34 17 88 18 82 19 84 20 35 21 87 22
REMARK SMILES IDX 81 23 80 24 36 26 68 27 48 28 67 29 49 30 52 31 66 32 85 33
REMARK SMILES IDX 50 34 51 35 65 37 86 38 53 39 37 40 38 41 46 42 39 43 40 44
REMARK SMILES IDX 44 45 47 46 41 47 42 48 45 49 43 50 69 51 70 52 78 53 71 54
REMARK SMILES IDX 72 55 76 56 79 57 73 58 74 59 77 60 75 61 54 62 55 63 63 64
REMARK SMILES IDX 56 65 57 66 61 67 64 68 58 69 59 70 62 71 60 72 8 73 9 74
REMARK SMILES IDX 10 75 11 76 12 77 13 78 17 79 14 80 16 81 15 82 18 83 19 84
REMARK SMILES IDX 20 85 21 87 22 88 27 89 23 90 26 91 24 92 25 93
REMARK H PARENT 84 25 52 36 20 86 25 94
REMARK Flexibility Score: inf
ROOT
ATOM      1  C   UNL A   1      31.407  27.563  26.293  1.00  0.00     0.202 C 
ENDROOT
BRANCH   1   2
ATOM      2  O   UNL A   1      31.641  28.113  25.010  1.00  0.00    -0.374 OA
BRANCH   2   3
ATOM      3  C   UNL A   1      32.460  29.275  24.940  1.00  0.00     0.202 C 
BRANCH   3   4
ATOM      4  C   UNL A   1      31.700  30.449  25.562  1.00  0.00     0.261 C 
BRANCH   4   5
ATOM      5  O   UNL A   1      32.161  30.711  26.901  1.00  0.00    -0.460 OA
BRANCH   5   6
ATOM      6  C   UNL A   1      33.156  31.590  27.203  1.00  0.00     0.338 C 
ATOM      7  O   UNL A   1      32.970  32.798  27.083  1.00  0.00    -0.246 OA
BRANCH   6   8
ATOM      8  C   UNL A   1      34.389  31.128  27.909  1.00  0.00     0.060 A 
ATOM      9  C   UNL A   1      34.666  29.803  28.251  1.00  0.00     0.016 A 
ATOM     10  C   UNL A   1      35.375  32.098  28.160  1.00  0.00     0.016 A 
ATOM     11  C   UNL A   1      35.853  29.458  28.881  1.00  0.00     0.010 A 
ATOM     12  C   UNL A   1      36.586  31.750  28.774  1.00  0.00     0.010 A 
ATOM     13  C   UNL A   1      36.818  30.423  29.160  1.00  0.00    -0.014 A 
BRANCH  13  14
ATOM     14  C   UNL A   1      37.943  30.027  30.038  1.00  0.00     0.031 A 
ATOM     15  C   UNL A   1      39.037  29.196  29.437  1.00  0.00     0.074 A 
ATOM     16  C   UNL A   1      38.100  30.568  31.260  1.00  0.00     0.049 A 
ATOM     17  N   UNL A   1      40.098  28.680  29.997  1.00  0.00    -0.248 NA
ATOM     18  C   UNL A   1      38.931  28.936  27.991  1.00  0.00     0.031 C 
ATOM     19  C   UNL A   1      37.200  31.546  31.870  1.00  0.00     0.029 A 
ATOM     20  N   UNL A   1      39.105  30.420  32.184  1.00  0.00    -0.354 N 
ATOM     21  C   UNL A   1      40.761  28.002  28.983  1.00  0.00     0.074 A 
ATOM     22  C   UNL A   1      39.992  28.177  27.773  1.00  0.00     0.031 C 
ATOM     23  C   UNL A   1      37.718  31.949  33.041  1.00  0.00     0.029 A 
ATOM     24  C   UNL A   1      38.930  31.184  33.314  1.00  0.00     0.049 A 
ATOM     25  H   UNL A   1      39.876  29.824  32.050  1.00  0.00     0.167 HD
ATOM     26  C   UNL A   1      41.909  27.290  29.066  1.00  0.00     0.037 A 
ATOM     27  C   UNL A   1      39.648  31.220  34.455  1.00  0.00     0.037 A 
ATOM     28  C   UNL A   1      42.669  27.149  30.278  1.00  0.00     0.049 A 
ATOM     29  C   UNL A   1      40.847  30.310  34.567  1.00  0.00     0.074 A 
ATOM     30  C   UNL A   1      43.784  26.368  30.515  1.00  0.00     0.029 A 
ATOM     31  N   UNL A   1      42.392  27.827  31.458  1.00  0.00    -0.354 N 
ATOM     32  N   UNL A   1      41.397  29.544  33.654  1.00  0.00    -0.248 NA
ATOM     33  C   UNL A   1      41.508  30.243  35.878  1.00  0.00     0.031 C 
ATOM     34  C   UNL A   1      44.154  26.538  31.854  1.00  0.00     0.029 A 
ATOM     35  C   UNL A   1      43.309  27.474  32.432  1.00  0.00     0.049 A 
ATOM     36  H   UNL A   1      41.651  28.464  31.582  1.00  0.00     0.167 HD
ATOM     37  C   UNL A   1      42.473  28.920  34.273  1.00  0.00     0.074 A 
ATOM     38  C   UNL A   1      42.517  29.421  35.631  1.00  0.00     0.031 C 
ATOM     39  C   UNL A   1      43.338  28.004  33.771  1.00  0.00     0.037 A 
BRANCH  26  40
ATOM     40  C   UNL A   1      42.339  26.546  27.838  1.00  0.00     0.064 A 
ATOM     41  C   UNL A   1      41.862  25.263  27.532  1.00  0.00     0.173 A 
ATOM     42  C   UNL A   1      43.277  27.122  26.968  1.00  0.00     0.173 A 
ATOM     43  F   UNL A   1      40.991  24.653  28.351  1.00  0.00    -0.203 F 
ATOM     44  C   UNL A   1      42.332  24.572  26.418  1.00  0.00     0.198 A 
ATOM     45  C   UNL A   1      43.719  26.443  25.837  1.00  0.00     0.198 A 
ATOM     46  F   UNL A   1      43.773  28.342  27.220  1.00  0.00    -0.203 F 
ATOM     47  F   UNL A   1      41.914  23.321  26.181  1.00  0.00    -0.200 F 
ATOM     48  C   UNL A   1      43.255  25.165  25.568  1.00  0.00     0.200 A 
ATOM     49  F   UNL A   1      44.607  27.020  25.016  1.00  0.00    -0.200 F 
ATOM     50  F   UNL A   1      43.709  24.498  24.498  1.00  0.00    -0.200 F 
ENDBRANCH  26  40
BRANCH  27  51
ATOM     51  C   UNL A   1      39.209  32.053  35.612  1.00  0.00     0.064 A 
ATOM     52  C   UNL A   1      39.721  33.340  35.833  1.00  0.00     0.173 A 
ATOM     53  C   UNL A   1      38.319  31.542  36.572  1.00  0.00     0.173 A 
ATOM     54  F   UNL A   1      40.603  33.869  34.972  1.00  0.00    -0.203 F 
ATOM     55  C   UNL A   1      39.385  34.065  36.978  1.00  0.00     0.198 A 
ATOM     56  C   UNL A   1      37.951  32.285  37.692  1.00  0.00     0.198 A 
ATOM     57  F   UNL A   1      37.810  30.309  36.432  1.00  0.00    -0.203 F 
ATOM     58  F   UNL A   1      39.953  35.259  37.203  1.00  0.00    -0.200 F 
ATOM     59  C   UNL A   1      38.497  33.540  37.903  1.00  0.00     0.200 A 
ATOM     60  F   UNL A   1      37.085  31.773  38.577  1.00  0.00    -0.200 F 
ATOM     61  F   UNL A   1      38.184  34.232  39.007  1.00  0.00    -0.200 F 
ENDBRANCH  27  51
BRANCH  39  62
ATOM     62  C   UNL A   1      44.432  27.524  34.680  1.00  0.00     0.064 A 
ATOM     63  C   UNL A   1      44.280  26.384  35.483  1.00  0.00     0.173 A 
ATOM     64  C   UNL A   1      45.666  28.193  34.713  1.00  0.00     0.173 A 
ATOM     65  F   UNL A   1      43.116  25.717  35.495  1.00  0.00    -0.203 F 
ATOM     66  C   UNL A   1      45.313  25.950  36.309  1.00  0.00     0.198 A 
ATOM     67  C   UNL A   1      46.707  27.735  35.513  1.00  0.00     0.198 A 
ATOM     68  F   UNL A   1      45.864  29.283  33.957  1.00  0.00    -0.203 F 
ATOM     69  F   UNL A   1      45.126  24.890  37.108  1.00  0.00    -0.200 F 
ATOM     70  C   UNL A   1      46.527  26.620  36.317  1.00  0.00     0.200 A 
ATOM     71  F   UNL A   1      47.886  28.372  35.505  1.00  0.00    -0.200 F 
ATOM     72  F   UNL A   1      47.522  26.194  37.105  1.00  0.00    -0.200 F 
ENDBRANCH  39  62
ENDBRANCH  13  14
ENDBRANCH   6   8
ENDBRANCH   5   6
ENDBRANCH   4   5
ENDBRANCH   3   4
ENDBRANCH   2   3
ENDBRANCH   1   2
BRANCH   1  73
ATOM     73  C   UNL A   1      31.788  26.087  26.367  1.00  0.00     0.261 C 
BRANCH  73  74
ATOM     74  O   UNL A   1      33.135  25.814  25.948  1.00  0.00    -0.463 OA
BRANCH  74  75
ATOM     75  C   UNL A   1      33.255  24.892  24.948  1.00  0.00     0.310 C 
ATOM     76  O   UNL A   1      32.568  24.845  23.944  1.00  0.00    -0.252 OA
BRANCH  75  77
ATOM     77  C   UNL A   1      34.434  23.986  25.200  1.00  0.00     0.116 C 
ATOM     78  C   UNL A   1      34.917  23.322  23.893  1.00  0.00     0.043 C 
ATOM     79  C   UNL A   1      34.256  23.051  26.407  1.00  0.00     0.097 C 
ATOM     80  C   UNL A   1      35.607  22.004  24.065  1.00  0.00    -0.030 C 
ATOM     81  C   UNL A   1      35.465  22.108  26.547  1.00  0.00     0.041 C 
ATOM     82  C   UNL A   1      35.857  21.456  25.259  1.00  0.00    -0.030 C 
BRANCH  79  83
ATOM     83  C   UNL A   1      32.946  22.352  26.857  1.00  0.00     0.228 C 
ATOM     84  O   UNL A   1      32.528  22.575  28.003  1.00  0.00    -0.274 OA
ATOM     85  N   UNL A   1      32.087  21.704  26.027  1.00  0.00    -0.326 N 
ATOM     86  H   UNL A   1      31.138  21.926  26.164  1.00  0.00     0.169 HD
BRANCH  85  87
ATOM     87  C   UNL A   1      32.326  20.777  25.011  1.00  0.00     0.041 A 
ATOM     88  C   UNL A   1      32.126  21.087  23.669  1.00  0.00     0.030 A 
ATOM     89  C   UNL A   1      32.760  19.496  25.377  1.00  0.00     0.030 A 
ATOM     90  C   UNL A   1      32.167  20.073  22.712  1.00  0.00     0.048 A 
ATOM     91  C   UNL A   1      32.759  18.473  24.427  1.00  0.00     0.048 A 
ATOM     92  C   UNL A   1      32.406  18.765  23.116  1.00  0.00     0.115 A 
BRANCH  92  93
ATOM     93  O   UNL A   1      32.236  17.734  22.245  1.00  0.00    -0.508 OA
ATOM     94  H   UNL A   1      31.682  17.840  21.496  1.00  0.00     0.293 HD
ENDBRANCH  92  93
ENDBRANCH  85  87
ENDBRANCH  79  83
ENDBRANCH  75  77
ENDBRANCH  74  75
ENDBRANCH  73  74
ENDBRANCH   1  73
TORSDOF 17
ENDMDL
MODEL 3
REMARK VINA RESULT:     -11.2      1.410      7.572
REMARK SMILES O=C(OCCOCCOC(=O)[C@@H]1CC=CC[C@@H]1C(=O)Nc1ccc(O)cc1)c1ccc(-c2c3nc(c(-c4c(F)c(F)c(F)c(F)c4F)c4ccc([nH]4)c(-c4c(F)c(F)c(F)c(F)c4F)c4nc(c(-c5c(F)c(F)c(F)c(F)c5F)c5ccc2[nH]5)C=C4)C=C3)cc1
REMARK SMILES IDX 7 1 6 2 5 3 4 4 3 5 2 6 1 7 28 8 29 9 90 10 30 11 89 12
REMARK SMILES IDX 31 13 32 14 33 15 83 16 34 17 88 18 82 19 84 20 35 21 87 22
REMARK SMILES IDX 81 23 80 24 36 26 68 27 48 28 67 29 49 30 52 31 66 32 85 33
REMARK SMILES IDX 50 34 51 35 65 37 86 38 53 39 37 40 38 41 46 42 39 43 40 44
REMARK SMILES IDX 44 45 47 46 41 47 42 48 45 49 43 50 69 51 70 52 78 53 71 54
REMARK SMILES IDX 72 55 76 56 79 57 73 58 74 59 77 60 75 61 54 62 55 63 63 64
REMARK SMILES IDX 56 65 57 66 61 67 64 68 58 69 59 70 62 71 60 72 8 73 9 74
REMARK SMILES IDX 10 75 11 76 12 77 13 78 17 79 14 80 16 81 15 82 18 83 19 84
REMARK SMILES IDX 20 85 21 87 22 88 27 89 23 90 26 91 24 92 25 93
REMARK H PARENT 84 25 52 36 20 86 25 94
REMARK Flexibility Score: inf
ROOT
ATOM      1  C   UNL A   1      31.418  27.712  26.319  1.00  0.00     0.202 C 
ENDROOT
BRANCH   1   2
ATOM      2  O   UNL A   1      31.705  28.323  25.074  1.00  0.00    -0.374 OA
BRANCH   2   3
ATOM      3  C   UNL A   1      32.560  29.459  25.089  1.00  0.00     0.202 C 
BRANCH   3   4
ATOM      4  C   UNL A   1      31.898  30.561  25.922  1.00  0.00     0.261 C 
BRANCH   4   5
ATOM      5  O   UNL A   1      32.517  30.669  27.218  1.00  0.00    -0.460 OA
BRANCH   5   6
ATOM      6  C   UNL A   1      33.504  31.557  27.518  1.00  0.00     0.338 C 
ATOM      7  O   UNL A   1      33.259  32.760  27.562  1.00  0.00    -0.246 OA
BRANCH   6   8
ATOM      8  C   UNL A   1      34.824  31.082  28.031  1.00  0.00     0.060 A 
ATOM      9  C   UNL A   1      35.132  29.754  28.335  1.00  0.00     0.016 A 
ATOM     10  C   UNL A   1      35.848  32.040  28.124  1.00  0.00     0.016 A 
ATOM     11  C   UNL A   1      36.397  29.396  28.779  1.00  0.00     0.010 A 
ATOM     12  C   UNL A   1      37.134  31.678  28.550  1.00  0.00     0.010 A 
ATOM     13  C   UNL A   1      37.405  30.350  28.903  1.00  0.00    -0.014 A 
BRANCH  13  14
ATOM     14  C   UNL A   1      38.645  29.942  29.603  1.00  0.00     0.031 A 
ATOM     15  C   UNL A   1      38.838  30.416  31.013  1.00  0.00     0.074 A 
ATOM     16  C   UNL A   1      39.464  29.007  29.088  1.00  0.00     0.049 A 
ATOM     17  N   UNL A   1      39.849  30.243  31.822  1.00  0.00    -0.248 NA
ATOM     18  C   UNL A   1      37.715  31.167  31.602  1.00  0.00     0.031 C 
ATOM     19  C   UNL A   1      39.265  28.328  27.808  1.00  0.00     0.029 A 
ATOM     20  N   UNL A   1      40.593  28.420  29.604  1.00  0.00    -0.354 N 
ATOM     21  C   UNL A   1      39.500  30.896  32.996  1.00  0.00     0.074 A 
ATOM     22  C   UNL A   1      38.186  31.463  32.802  1.00  0.00     0.031 C 
ATOM     23  C   UNL A   1      40.209  27.383  27.662  1.00  0.00     0.029 A 
ATOM     24  C   UNL A   1      41.137  27.458  28.785  1.00  0.00     0.049 A 
ATOM     25  H   UNL A   1      40.976  28.665  30.476  1.00  0.00     0.167 HD
ATOM     26  C   UNL A   1      40.227  31.016  34.132  1.00  0.00     0.037 A 
ATOM     27  C   UNL A   1      42.281  26.757  28.914  1.00  0.00     0.037 A 
ATOM     28  C   UNL A   1      41.524  30.425  34.310  1.00  0.00     0.049 A 
ATOM     29  C   UNL A   1      43.138  27.015  30.130  1.00  0.00     0.074 A 
ATOM     30  C   UNL A   1      42.402  30.565  35.368  1.00  0.00     0.029 A 
ATOM     31  N   UNL A   1      42.121  29.561  33.402  1.00  0.00    -0.354 N 
ATOM     32  N   UNL A   1      42.884  27.755  31.183  1.00  0.00    -0.248 NA
ATOM     33  C   UNL A   1      44.456  26.366  30.161  1.00  0.00     0.031 C 
ATOM     34  C   UNL A   1      43.551  29.822  35.078  1.00  0.00     0.029 A 
ATOM     35  C   UNL A   1      43.361  29.167  33.869  1.00  0.00     0.049 A 
ATOM     36  H   UNL A   1      41.719  29.272  32.550  1.00  0.00     0.167 HD
ATOM     37  C   UNL A   1      43.997  27.649  32.006  1.00  0.00     0.074 A 
ATOM     38  C   UNL A   1      44.917  26.747  31.343  1.00  0.00     0.031 C 
ATOM     39  C   UNL A   1      44.247  28.252  33.195  1.00  0.00     0.037 A 
BRANCH  26  40
ATOM     40  C   UNL A   1      39.664  31.892  35.210  1.00  0.00     0.064 A 
ATOM     41  C   UNL A   1      38.795  31.404  36.198  1.00  0.00     0.173 A 
ATOM     42  C   UNL A   1      39.977  33.260  35.231  1.00  0.00     0.173 A 
ATOM     43  F   UNL A   1      38.435  30.111  36.201  1.00  0.00    -0.203 F 
ATOM     44  C   UNL A   1      38.237  32.259  37.145  1.00  0.00     0.198 A 
ATOM     45  C   UNL A   1      39.445  34.104  36.200  1.00  0.00     0.198 A 
ATOM     46  F   UNL A   1      40.794  33.780  34.303  1.00  0.00    -0.203 F 
ATOM     47  F   UNL A   1      37.357  31.784  38.038  1.00  0.00    -0.200 F 
ATOM     48  C   UNL A   1      38.567  33.606  37.150  1.00  0.00     0.200 A 
ATOM     49  F   UNL A   1      39.769  35.405  36.204  1.00  0.00    -0.200 F 
ATOM     50  F   UNL A   1      38.027  34.428  38.060  1.00  0.00    -0.200 F 
ENDBRANCH  26  40
BRANCH  27  51
ATOM     51  C   UNL A   1      42.740  25.833  27.837  1.00  0.00     0.064 A 
ATOM     52  C   UNL A   1      43.581  26.265  26.801  1.00  0.00     0.173 A 
ATOM     53  C   UNL A   1      42.279  24.507  27.779  1.00  0.00     0.173 A 
ATOM     54  F   UNL A   1      44.026  27.530  26.781  1.00  0.00    -0.203 F 
ATOM     55  C   UNL A   1      43.915  25.421  25.740  1.00  0.00     0.198 A 
ATOM     56  C   UNL A   1      42.649  23.652  26.742  1.00  0.00     0.198 A 
ATOM     57  F   UNL A   1      41.455  24.037  28.726  1.00  0.00    -0.203 F 
ATOM     58  F   UNL A   1      44.654  25.886  24.723  1.00  0.00    -0.200 F 
ATOM     59  C   UNL A   1      43.453  24.114  25.715  1.00  0.00     0.200 A 
ATOM     60  F   UNL A   1      42.205  22.388  26.730  1.00  0.00    -0.200 F 
ATOM     61  F   UNL A   1      43.765  23.308  24.691  1.00  0.00    -0.200 F 
ENDBRANCH  27  51
BRANCH  39  62
ATOM     62  C   UNL A   1      45.543  27.918  33.874  1.00  0.00     0.064 A 
ATOM     63  C   UNL A   1      45.660  26.829  34.750  1.00  0.00     0.173 A 
ATOM     64  C   UNL A   1      46.695  28.676  33.607  1.00  0.00     0.173 A 
ATOM     65  F   UNL A   1      44.586  26.082  35.046  1.00  0.00    -0.203 F 
ATOM     66  C   UNL A   1      46.876  26.530  35.358  1.00  0.00     0.198 A 
ATOM     67  C   UNL A   1      47.916  28.352  34.189  1.00  0.00     0.198 A 
ATOM     68  F   UNL A   1      46.637  29.722  32.769  1.00  0.00    -0.203 F 
ATOM     69  F   UNL A   1      46.952  25.519  36.235  1.00  0.00    -0.200 F 
ATOM     70  C   UNL A   1      48.004  27.286  35.072  1.00  0.00     0.200 A 
ATOM     71  F   UNL A   1      49.007  29.071  33.896  1.00  0.00    -0.200 F 
ATOM     72  F   UNL A   1      49.174  26.990  35.651  1.00  0.00    -0.200 F 
ENDBRANCH  39  62
ENDBRANCH  13  14
ENDBRANCH   6   8
ENDBRANCH   5   6
ENDBRANCH   4   5
ENDBRANCH   3   4
ENDBRANCH   2   3
ENDBRANCH   1   2
BRANCH   1  73
ATOM     73  C   UNL A   1      31.744  26.221  26.319  1.00  0.00     0.261 C 
BRANCH  73  74
ATOM     74  O   UNL A   1      33.123  25.929  26.044  1.00  0.00    -0.463 OA
BRANCH  74  75
ATOM     75  C   UNL A   1      33.339  25.111  24.970  1.00  0.00     0.310 C 
ATOM     76  O   UNL A   1      32.802  25.215  23.884  1.00  0.00    -0.252 OA
BRANCH  75  77
ATOM     77  C   UNL A   1      34.423  24.108  25.277  1.00  0.00     0.116 C 
ATOM     78  C   UNL A   1      34.955  23.451  23.987  1.00  0.00     0.043 C 
ATOM     79  C   UNL A   1      34.081  23.153  26.432  1.00  0.00     0.097 C 
ATOM     80  C   UNL A   1      35.528  22.078  24.161  1.00  0.00    -0.030 C 
ATOM     81  C   UNL A   1      35.200  22.114  26.627  1.00  0.00     0.041 C 
ATOM     82  C   UNL A   1      35.642  21.475  25.349  1.00  0.00    -0.030 C 
BRANCH  79  83
ATOM     83  C   UNL A   1      32.691  22.544  26.755  1.00  0.00     0.228 C 
ATOM     84  O   UNL A   1      32.177  22.808  27.852  1.00  0.00    -0.274 OA
ATOM     85  N   UNL A   1      31.877  21.941  25.847  1.00  0.00    -0.326 N 
ATOM     86  H   UNL A   1      30.935  22.225  25.889  1.00  0.00     0.169 HD
BRANCH  85  87
ATOM     87  C   UNL A   1      32.154  20.988  24.867  1.00  0.00     0.041 A 
ATOM     88  C   UNL A   1      32.079  21.285  23.509  1.00  0.00     0.030 A 
ATOM     89  C   UNL A   1      32.496  19.695  25.283  1.00  0.00     0.030 A 
ATOM     90  C   UNL A   1      32.150  20.256  22.571  1.00  0.00     0.048 A 
ATOM     91  C   UNL A   1      32.524  18.658  24.348  1.00  0.00     0.048 A 
ATOM     92  C   UNL A   1      32.294  18.945  23.009  1.00  0.00     0.115 A 
BRANCH  92  93
ATOM     93  O   UNL A   1      32.147  17.909  22.140  1.00  0.00    -0.508 OA
ATOM     94  H   UNL A   1      31.752  18.054  21.302  1.00  0.00     0.293 HD
ENDBRANCH  92  93
ENDBRANCH  85  87
ENDBRANCH  79  83
ENDBRANCH  75  77
ENDBRANCH  74  75
ENDBRANCH  73  74
ENDBRANCH   1  73
TORSDOF 17
ENDMDL
