MODEL 1
REMARK VINA RESULT:     -12.4      0.000      0.000
REMARK SMILES Cn1c(=O)[nH]c(=O)c2c1nc(NC1CCCC1)n2CC(=O)OCCOCCOC(=O)c1ccc(-c2c3nc(c(-c4c(F)c(F)c(F)c(F)c4F)c4ccc([nH]4)c(-c4c(F)c(F)c(F)c(F)c4F)c4nc(c(-c5c(F)c(F)c(F)c(F)c5F)c5ccc2[nH]5)C=C4)C=C3)cc1
REMARK SMILES IDX 24 1 23 2 22 3 20 4 21 5 19 6 18 7 1 8 2 9 3 10 9 11 4 12
REMARK SMILES IDX 5 13 8 14 10 15 6 16 11 18 7 19 12 20 13 22 14 23 17 24
REMARK SMILES IDX 15 25 16 26 25 27 26 28 27 29 28 30 29 31 30 32 31 33 32 34
REMARK SMILES IDX 93 35 33 36 92 37 34 38 35 39 36 40 86 41 37 42 91 43 85 44
REMARK SMILES IDX 87 45 38 46 90 47 84 48 83 49 39 51 71 52 51 53 70 54 52 55
REMARK SMILES IDX 55 56 69 57 88 58 53 59 54 60 68 62 89 63 56 64 40 65 41 66
REMARK SMILES IDX 49 67 42 68 43 69 47 70 50 71 44 72 45 73 48 74 46 75 72 76
REMARK SMILES IDX 73 77 81 78 74 79 75 80 79 81 82 82 76 83 77 84 80 85 78 86
REMARK SMILES IDX 57 87 58 88 66 89 59 90 60 91 64 92 67 93 61 94 62 95 65 96
REMARK SMILES IDX 63 97
REMARK H PARENT 5 17 12 21 87 50 55 61
REMARK Flexibility Score: inf
ROOT
ATOM      1  C   UNL A   1      39.984  21.507  26.508  1.00  0.00     0.202 C 
ENDROOT
BRANCH   1   2
ATOM      2  C   UNL A   1      38.813  21.443  25.512  1.00  0.00     0.261 C 
BRANCH   2   3
ATOM      3  O   UNL A   1      37.511  21.778  26.058  1.00  0.00    -0.462 OA
BRANCH   3   4
ATOM      4  C   UNL A   1      36.938  22.900  25.541  1.00  0.00     0.326 C 
ATOM      5  O   UNL A   1      37.452  24.015  25.605  1.00  0.00    -0.250 OA
BRANCH   4   6
ATOM      6  C   UNL A   1      35.681  22.699  24.732  1.00  0.00     0.248 C 
BRANCH   6   7
ATOM      7  N   UNL A   1      34.411  22.513  25.417  1.00  0.00    -0.293 N 
ATOM      8  C   UNL A   1      30.048  22.827  26.910  1.00  0.00     0.157 C 
ATOM      9  N   UNL A   1      31.217  23.541  26.430  1.00  0.00    -0.279 N 
ATOM     10  C   UNL A   1      31.189  24.922  26.295  1.00  0.00     0.329 A 
ATOM     11  C   UNL A   1      32.377  22.875  26.110  1.00  0.00     0.170 A 
ATOM     12  O   UNL A   1      30.208  25.616  26.566  1.00  0.00    -0.248 OA
ATOM     13  N   UNL A   1      32.346  25.532  25.839  1.00  0.00    -0.272 N 
ATOM     14  C   UNL A   1      33.500  23.513  25.679  1.00  0.00     0.154 A 
ATOM     15  N   UNL A   1      32.541  21.539  26.135  1.00  0.00    -0.194 NA
ATOM     16  C   UNL A   1      33.547  24.927  25.527  1.00  0.00     0.279 A 
ATOM     17  H   UNL A   1      32.307  26.509  25.723  1.00  0.00     0.175 HD
ATOM     18  C   UNL A   1      33.748  21.313  25.663  1.00  0.00     0.206 A 
ATOM     19  O   UNL A   1      34.529  25.556  25.164  1.00  0.00    -0.267 OA
BRANCH  18  20
ATOM     20  N   UNL A   1      34.277  20.096  25.428  1.00  0.00    -0.353 N 
ATOM     21  H   UNL A   1      35.198  19.913  25.726  1.00  0.00     0.163 HD
BRANCH  20  22
ATOM     22  C   UNL A   1      33.533  19.032  24.747  1.00  0.00     0.082 C 
ATOM     23  C   UNL A   1      32.728  19.457  23.520  1.00  0.00     0.025 C 
ATOM     24  C   UNL A   1      34.388  17.878  24.241  1.00  0.00     0.025 C 
ATOM     25  C   UNL A   1      32.387  18.143  22.837  1.00  0.00     0.002 C 
ATOM     26  C   UNL A   1      33.517  17.180  23.192  1.00  0.00     0.002 C 
ENDBRANCH  20  22
ENDBRANCH  18  20
ENDBRANCH   6   7
ENDBRANCH   4   6
ENDBRANCH   3   4
ENDBRANCH   2   3
ENDBRANCH   1   2
BRANCH   1  27
ATOM     27  O   UNL A   1      40.720  20.316  26.764  1.00  0.00    -0.374 OA
BRANCH  27  28
ATOM     28  C   UNL A   1      42.136  20.386  26.805  1.00  0.00     0.202 C 
BRANCH  28  29
ATOM     29  C   UNL A   1      42.922  19.446  25.906  1.00  0.00     0.261 C 
BRANCH  29  30
ATOM     30  O   UNL A   1      43.420  20.065  24.725  1.00  0.00    -0.460 OA
BRANCH  30  31
ATOM     31  C   UNL A   1      44.737  20.369  24.776  1.00  0.00     0.338 C 
ATOM     32  O   UNL A   1      45.666  19.582  24.834  1.00  0.00    -0.246 OA
BRANCH  31  33
ATOM     33  C   UNL A   1      44.899  21.818  24.939  1.00  0.00     0.060 A 
ATOM     34  C   UNL A   1      45.633  22.214  26.057  1.00  0.00     0.016 A 
ATOM     35  C   UNL A   1      44.104  22.724  24.219  1.00  0.00     0.016 A 
ATOM     36  C   UNL A   1      45.370  23.448  26.600  1.00  0.00     0.010 A 
ATOM     37  C   UNL A   1      43.848  23.967  24.760  1.00  0.00     0.010 A 
ATOM     38  C   UNL A   1      44.409  24.269  25.994  1.00  0.00    -0.014 A 
BRANCH  38  39
ATOM     39  C   UNL A   1      44.054  25.475  26.709  1.00  0.00     0.031 A 
ATOM     40  C   UNL A   1      45.042  26.559  26.543  1.00  0.00     0.074 A 
ATOM     41  C   UNL A   1      42.962  25.588  27.483  1.00  0.00     0.049 A 
ATOM     42  N   UNL A   1      45.876  26.993  27.428  1.00  0.00    -0.248 NA
ATOM     43  C   UNL A   1      45.250  27.087  25.191  1.00  0.00     0.031 C 
ATOM     44  C   UNL A   1      41.808  24.704  27.599  1.00  0.00     0.029 A 
ATOM     45  N   UNL A   1      42.658  26.601  28.334  1.00  0.00    -0.354 N 
ATOM     46  C   UNL A   1      46.632  27.963  26.785  1.00  0.00     0.074 A 
ATOM     47  C   UNL A   1      46.305  27.878  25.384  1.00  0.00     0.031 C 
ATOM     48  C   UNL A   1      40.833  25.326  28.307  1.00  0.00     0.029 A 
ATOM     49  C   UNL A   1      41.356  26.585  28.809  1.00  0.00     0.049 A 
ATOM     50  H   UNL A   1      43.309  27.292  28.593  1.00  0.00     0.167 HD
ATOM     51  C   UNL A   1      47.325  28.895  27.491  1.00  0.00     0.037 A 
ATOM     52  C   UNL A   1      40.768  27.587  29.508  1.00  0.00     0.037 A 
ATOM     53  C   UNL A   1      47.541  28.476  28.852  1.00  0.00     0.049 A 
ATOM     54  C   UNL A   1      41.859  28.390  30.125  1.00  0.00     0.074 A 
ATOM     55  C   UNL A   1      48.234  27.431  29.435  1.00  0.00     0.029 A 
ATOM     56  N   UNL A   1      46.690  28.942  29.825  1.00  0.00    -0.354 N 
ATOM     57  N   UNL A   1      42.621  27.936  31.084  1.00  0.00    -0.248 NA
ATOM     58  C   UNL A   1      42.422  29.487  29.347  1.00  0.00     0.031 C 
ATOM     59  C   UNL A   1      47.424  27.014  30.531  1.00  0.00     0.029 A 
ATOM     60  C   UNL A   1      46.316  27.861  30.584  1.00  0.00     0.049 A 
ATOM     61  H   UNL A   1      46.404  29.875  29.953  1.00  0.00     0.167 HD
ATOM     62  C   UNL A   1      43.895  28.393  30.775  1.00  0.00     0.074 A 
ATOM     63  C   UNL A   1      43.700  29.397  29.731  1.00  0.00     0.031 C 
ATOM     64  C   UNL A   1      45.009  27.715  31.178  1.00  0.00     0.037 A 
BRANCH  51  65
ATOM     65  C   UNL A   1      47.500  30.316  27.034  1.00  0.00     0.064 A 
ATOM     66  C   UNL A   1      48.784  30.890  27.042  1.00  0.00     0.173 A 
ATOM     67  C   UNL A   1      46.425  31.218  26.874  1.00  0.00     0.173 A 
ATOM     68  F   UNL A   1      49.874  30.126  27.207  1.00  0.00    -0.203 F 
ATOM     69  C   UNL A   1      48.969  32.273  26.970  1.00  0.00     0.198 A 
ATOM     70  C   UNL A   1      46.618  32.590  26.748  1.00  0.00     0.198 A 
ATOM     71  F   UNL A   1      45.147  30.828  26.948  1.00  0.00    -0.203 F 
ATOM     72  F   UNL A   1      50.200  32.785  27.106  1.00  0.00    -0.200 F 
ATOM     73  C   UNL A   1      47.886  33.121  26.830  1.00  0.00     0.200 A 
ATOM     74  F   UNL A   1      45.552  33.395  26.631  1.00  0.00    -0.200 F 
ATOM     75  F   UNL A   1      48.056  34.450  26.826  1.00  0.00    -0.200 F 
ENDBRANCH  51  65
BRANCH  52  76
ATOM     76  C   UNL A   1      39.380  28.086  29.368  1.00  0.00     0.064 A 
ATOM     77  C   UNL A   1      38.540  28.231  30.483  1.00  0.00     0.173 A 
ATOM     78  C   UNL A   1      38.941  28.689  28.172  1.00  0.00     0.173 A 
ATOM     79  F   UNL A   1      38.905  27.728  31.672  1.00  0.00    -0.203 F 
ATOM     80  C   UNL A   1      37.342  28.954  30.411  1.00  0.00     0.198 A 
ATOM     81  C   UNL A   1      37.746  29.407  28.100  1.00  0.00     0.198 A 
ATOM     82  F   UNL A   1      39.707  28.676  27.072  1.00  0.00    -0.203 F 
ATOM     83  F   UNL A   1      36.592  29.119  31.509  1.00  0.00    -0.200 F 
ATOM     84  C   UNL A   1      36.952  29.550  29.222  1.00  0.00     0.200 A 
ATOM     85  F   UNL A   1      37.401  30.010  26.953  1.00  0.00    -0.200 F 
ATOM     86  F   UNL A   1      35.837  30.292  29.167  1.00  0.00    -0.200 F 
ENDBRANCH  52  76
BRANCH  64  87
ATOM     87  C   UNL A   1      44.821  26.559  32.121  1.00  0.00     0.064 A 
ATOM     88  C   UNL A   1      44.707  26.710  33.514  1.00  0.00     0.173 A 
ATOM     89  C   UNL A   1      44.578  25.287  31.591  1.00  0.00     0.173 A 
ATOM     90  F   UNL A   1      44.820  27.915  34.087  1.00  0.00    -0.203 F 
ATOM     91  C   UNL A   1      44.403  25.628  34.340  1.00  0.00     0.198 A 
ATOM     92  C   UNL A   1      44.241  24.214  32.413  1.00  0.00     0.198 A 
ATOM     93  F   UNL A   1      44.611  25.096  30.262  1.00  0.00    -0.203 F 
ATOM     94  F   UNL A   1      44.304  25.800  35.667  1.00  0.00    -0.200 F 
ATOM     95  C   UNL A   1      44.162  24.382  33.786  1.00  0.00     0.200 A 
ATOM     96  F   UNL A   1      43.957  23.022  31.869  1.00  0.00    -0.200 F 
ATOM     97  F   UNL A   1      43.824  23.351  34.573  1.00  0.00    -0.200 F 
ENDBRANCH  64  87
ENDBRANCH  38  39
ENDBRANCH  31  33
ENDBRANCH  30  31
ENDBRANCH  29  30
ENDBRANCH  28  29
ENDBRANCH  27  28
ENDBRANCH   1  27
TORSDOF 17
ENDMDL
MODEL 2
REMARK VINA RESULT:     -11.9      3.571      5.948
REMARK SMILES Cn1c(=O)[nH]c(=O)c2c1nc(NC1CCCC1)n2CC(=O)OCCOCCOC(=O)c1ccc(-c2c3nc(c(-c4c(F)c(F)c(F)c(F)c4F)c4ccc([nH]4)c(-c4c(F)c(F)c(F)c(F)c4F)c4nc(c(-c5c(F)c(F)c(F)c(F)c5F)c5ccc2[nH]5)C=C4)C=C3)cc1
REMARK SMILES IDX 24 1 23 2 22 3 20 4 21 5 19 6 18 7 1 8 2 9 3 10 9 11 4 12
REMARK SMILES IDX 5 13 8 14 10 15 6 16 11 18 7 19 12 20 13 22 14 23 17 24
REMARK SMILES IDX 15 25 16 26 25 27 26 28 27 29 28 30 29 31 30 32 31 33 32 34
REMARK SMILES IDX 93 35 33 36 92 37 34 38 35 39 36 40 86 41 37 42 91 43 85 44
REMARK SMILES IDX 87 45 38 46 90 47 84 48 83 49 39 51 71 52 51 53 70 54 52 55
REMARK SMILES IDX 55 56 69 57 88 58 53 59 54 60 68 62 89 63 56 64 40 65 41 66
REMARK SMILES IDX 49 67 42 68 43 69 47 70 50 71 44 72 45 73 48 74 46 75 72 76
REMARK SMILES IDX 73 77 81 78 74 79 75 80 79 81 82 82 76 83 77 84 80 85 78 86
REMARK SMILES IDX 57 87 58 88 66 89 59 90 60 91 64 92 67 93 61 94 62 95 65 96
REMARK SMILES IDX 63 97
REMARK H PARENT 5 17 12 21 87 50 55 61
REMARK Flexibility Score: inf
ROOT
ATOM      1  C   UNL A   1      34.134  22.723  27.268  1.00  0.00     0.202 C 
ENDROOT
BRANCH   1   2
ATOM      2  C   UNL A   1      32.737  22.968  26.673  1.00  0.00     0.261 C 
BRANCH   2   3
ATOM      3  O   UNL A   1      31.997  24.073  27.253  1.00  0.00    -0.462 OA
BRANCH   3   4
ATOM      4  C   UNL A   1      30.690  24.155  26.878  1.00  0.00     0.326 C 
ATOM      5  O   UNL A   1      29.829  23.357  27.242  1.00  0.00    -0.250 OA
BRANCH   4   6
ATOM      6  C   UNL A   1      30.292  25.382  26.096  1.00  0.00     0.248 C 
BRANCH   6   7
ATOM      7  N   UNL A   1      31.302  26.103  25.335  1.00  0.00    -0.293 N 
ATOM      8  C   UNL A   1      33.867  28.018  22.001  1.00  0.00     0.157 C 
ATOM      9  N   UNL A   1      33.040  26.891  22.396  1.00  0.00    -0.279 N 
ATOM     10  C   UNL A   1      32.812  25.845  21.513  1.00  0.00     0.329 A 
ATOM     11  C   UNL A   1      32.478  26.826  23.650  1.00  0.00     0.170 A 
ATOM     12  O   UNL A   1      33.278  25.797  20.374  1.00  0.00    -0.248 OA
ATOM     13  N   UNL A   1      32.020  24.803  21.966  1.00  0.00    -0.272 N 
ATOM     14  C   UNL A   1      31.717  25.775  24.063  1.00  0.00     0.154 A 
ATOM     15  N   UNL A   1      32.562  27.783  24.592  1.00  0.00    -0.194 NA
ATOM     16  C   UNL A   1      31.450  24.663  23.216  1.00  0.00     0.279 A 
ATOM     17  H   UNL A   1      31.844  24.078  21.324  1.00  0.00     0.175 HD
ATOM     18  C   UNL A   1      31.806  27.376  25.590  1.00  0.00     0.206 A 
ATOM     19  O   UNL A   1      30.793  23.685  23.537  1.00  0.00    -0.267 OA
BRANCH  18  20
ATOM     20  N   UNL A   1      31.534  28.089  26.701  1.00  0.00    -0.353 N 
ATOM     21  H   UNL A   1      30.622  28.058  27.072  1.00  0.00     0.163 HD
BRANCH  20  22
ATOM     22  C   UNL A   1      32.544  28.905  27.381  1.00  0.00     0.082 C 
ATOM     23  C   UNL A   1      34.001  28.547  27.092  1.00  0.00     0.025 C 
ATOM     24  C   UNL A   1      32.468  30.396  27.080  1.00  0.00     0.025 C 
ATOM     25  C   UNL A   1      34.779  29.744  27.611  1.00  0.00     0.002 C 
ATOM     26  C   UNL A   1      33.843  30.942  27.477  1.00  0.00     0.002 C 
ENDBRANCH  20  22
ENDBRANCH  18  20
ENDBRANCH   6   7
ENDBRANCH   4   6
ENDBRANCH   3   4
ENDBRANCH   2   3
ENDBRANCH   1   2
BRANCH   1  27
ATOM     27  O   UNL A   1      35.179  22.311  26.393  1.00  0.00    -0.374 OA
BRANCH  27  28
ATOM     28  C   UNL A   1      35.457  23.098  25.246  1.00  0.00     0.202 C 
BRANCH  28  29
ATOM     29  C   UNL A   1      36.875  23.613  25.063  1.00  0.00     0.261 C 
BRANCH  29  30
ATOM     30  O   UNL A   1      37.501  24.012  26.276  1.00  0.00    -0.460 OA
BRANCH  30  31
ATOM     31  C   UNL A   1      38.764  23.551  26.423  1.00  0.00     0.338 C 
ATOM     32  O   UNL A   1      39.142  22.401  26.279  1.00  0.00    -0.246 OA
BRANCH  31  33
ATOM     33  C   UNL A   1      39.613  24.615  26.971  1.00  0.00     0.060 A 
ATOM     34  C   UNL A   1      39.378  24.936  28.307  1.00  0.00     0.016 A 
ATOM     35  C   UNL A   1      40.360  25.455  26.130  1.00  0.00     0.016 A 
ATOM     36  C   UNL A   1      39.671  26.211  28.728  1.00  0.00     0.010 A 
ATOM     37  C   UNL A   1      40.662  26.731  26.555  1.00  0.00     0.010 A 
ATOM     38  C   UNL A   1      40.223  27.120  27.814  1.00  0.00    -0.014 A 
BRANCH  38  39
ATOM     39  C   UNL A   1      40.345  28.488  28.267  1.00  0.00     0.031 A 
ATOM     40  C   UNL A   1      41.579  29.146  27.796  1.00  0.00     0.074 A 
ATOM     41  C   UNL A   1      39.452  29.089  29.071  1.00  0.00     0.049 A 
ATOM     42  N   UNL A   1      42.617  29.449  28.503  1.00  0.00    -0.248 NA
ATOM     43  C   UNL A   1      41.750  29.315  26.350  1.00  0.00     0.031 C 
ATOM     44  C   UNL A   1      38.113  28.660  29.460  1.00  0.00     0.029 A 
ATOM     45  N   UNL A   1      39.583  30.288  29.695  1.00  0.00    -0.354 N 
ATOM     46  C   UNL A   1      43.534  29.985  27.610  1.00  0.00     0.074 A 
ATOM     47  C   UNL A   1      43.010  29.747  26.289  1.00  0.00     0.031 C 
ATOM     48  C   UNL A   1      37.475  29.684  30.078  1.00  0.00     0.029 A 
ATOM     49  C   UNL A   1      38.413  30.780  30.251  1.00  0.00     0.049 A 
ATOM     50  H   UNL A   1      40.440  30.769  29.748  1.00  0.00     0.167 HD
ATOM     51  C   UNL A   1      44.562  30.762  28.042  1.00  0.00     0.037 A 
ATOM     52  C   UNL A   1      38.251  32.030  30.750  1.00  0.00     0.037 A 
ATOM     53  C   UNL A   1      44.826  30.559  29.443  1.00  0.00     0.049 A 
ATOM     54  C   UNL A   1      39.606  32.542  31.096  1.00  0.00     0.074 A 
ATOM     55  C   UNL A   1      45.248  29.478  30.193  1.00  0.00     0.029 A 
ATOM     56  N   UNL A   1      44.294  31.448  30.346  1.00  0.00    -0.354 N 
ATOM     57  N   UNL A   1      40.320  32.057  32.076  1.00  0.00    -0.248 NA
ATOM     58  C   UNL A   1      40.360  33.233  30.057  1.00  0.00     0.031 C 
ATOM     59  C   UNL A   1      44.506  29.557  31.408  1.00  0.00     0.029 A 
ATOM     60  C   UNL A   1      43.721  30.708  31.350  1.00  0.00     0.049 A 
ATOM     61  H   UNL A   1      44.320  32.431  30.283  1.00  0.00     0.167 HD
ATOM     62  C   UNL A   1      41.618  32.015  31.586  1.00  0.00     0.074 A 
ATOM     63  C   UNL A   1      41.592  32.812  30.361  1.00  0.00     0.031 C 
ATOM     64  C   UNL A   1      42.522  31.104  32.050  1.00  0.00     0.037 A 
BRANCH  51  65
ATOM     65  C   UNL A   1      45.090  31.938  27.270  1.00  0.00     0.064 A 
ATOM     66  C   UNL A   1      46.444  31.962  26.889  1.00  0.00     0.173 A 
ATOM     67  C   UNL A   1      44.398  33.163  27.152  1.00  0.00     0.173 A 
ATOM     68  F   UNL A   1      47.200  30.857  26.979  1.00  0.00    -0.203 F 
ATOM     69  C   UNL A   1      47.073  33.144  26.491  1.00  0.00     0.198 A 
ATOM     70  C   UNL A   1      45.014  34.327  26.703  1.00  0.00     0.198 A 
ATOM     71  F   UNL A   1      43.136  33.315  27.572  1.00  0.00    -0.203 F 
ATOM     72  F   UNL A   1      48.392  33.148  26.256  1.00  0.00    -0.200 F 
ATOM     73  C   UNL A   1      46.359  34.326  26.405  1.00  0.00     0.200 A 
ATOM     74  F   UNL A   1      44.308  35.464  26.645  1.00  0.00    -0.200 F 
ATOM     75  F   UNL A   1      46.974  35.472  26.086  1.00  0.00    -0.200 F 
ENDBRANCH  51  65
BRANCH  52  76
ATOM     76  C   UNL A   1      37.070  32.912  30.599  1.00  0.00     0.064 A 
ATOM     77  C   UNL A   1      36.660  33.376  29.340  1.00  0.00     0.173 A 
ATOM     78  C   UNL A   1      36.159  33.094  31.660  1.00  0.00     0.173 A 
ATOM     79  F   UNL A   1      37.447  33.199  28.268  1.00  0.00    -0.203 F 
ATOM     80  C   UNL A   1      35.405  33.967  29.148  1.00  0.00     0.198 A 
ATOM     81  C   UNL A   1      34.910  33.687  31.468  1.00  0.00     0.198 A 
ATOM     82  F   UNL A   1      36.422  32.615  32.883  1.00  0.00    -0.203 F 
ATOM     83  F   UNL A   1      35.025  34.348  27.920  1.00  0.00    -0.200 F 
ATOM     84  C   UNL A   1      34.528  34.113  30.211  1.00  0.00     0.200 A 
ATOM     85  F   UNL A   1      34.057  33.786  32.498  1.00  0.00    -0.200 F 
ATOM     86  F   UNL A   1      33.304  34.624  30.017  1.00  0.00    -0.200 F 
ENDBRANCH  52  76
BRANCH  64  87
ATOM     87  C   UNL A   1      42.127  30.269  33.237  1.00  0.00     0.064 A 
ATOM     88  C   UNL A   1      41.513  29.009  33.125  1.00  0.00     0.173 A 
ATOM     89  C   UNL A   1      42.534  30.674  34.513  1.00  0.00     0.173 A 
ATOM     90  F   UNL A   1      41.192  28.505  31.927  1.00  0.00    -0.203 F 
ATOM     91  C   UNL A   1      41.281  28.212  34.244  1.00  0.00     0.198 A 
ATOM     92  C   UNL A   1      42.333  29.862  35.627  1.00  0.00     0.198 A 
ATOM     93  F   UNL A   1      43.181  31.839  34.673  1.00  0.00    -0.203 F 
ATOM     94  F   UNL A   1      40.690  27.015  34.109  1.00  0.00    -0.200 F 
ATOM     95  C   UNL A   1      41.699  28.636  35.494  1.00  0.00     0.200 A 
ATOM     96  F   UNL A   1      42.785  30.253  36.826  1.00  0.00    -0.200 F 
ATOM     97  F   UNL A   1      41.520  27.851  36.566  1.00  0.00    -0.200 F 
ENDBRANCH  64  87
ENDBRANCH  38  39
ENDBRANCH  31  33
ENDBRANCH  30  31
ENDBRANCH  29  30
ENDBRANCH  28  29
ENDBRANCH  27  28
ENDBRANCH   1  27
TORSDOF 17
ENDMDL
MODEL 3
REMARK VINA RESULT:     -11.8      4.739     10.328
REMARK SMILES Cn1c(=O)[nH]c(=O)c2c1nc(NC1CCCC1)n2CC(=O)OCCOCCOC(=O)c1ccc(-c2c3nc(c(-c4c(F)c(F)c(F)c(F)c4F)c4ccc([nH]4)c(-c4c(F)c(F)c(F)c(F)c4F)c4nc(c(-c5c(F)c(F)c(F)c(F)c5F)c5ccc2[nH]5)C=C4)C=C3)cc1
REMARK SMILES IDX 24 1 23 2 22 3 20 4 21 5 19 6 18 7 1 8 2 9 3 10 9 11 4 12
REMARK SMILES IDX 5 13 8 14 10 15 6 16 11 18 7 19 12 20 13 22 14 23 17 24
REMARK SMILES IDX 15 25 16 26 25 27 26 28 27 29 28 30 29 31 30 32 31 33 32 34
REMARK SMILES IDX 93 35 33 36 92 37 34 38 35 39 36 40 86 41 37 42 91 43 85 44
REMARK SMILES IDX 87 45 38 46 90 47 84 48 83 49 39 51 71 52 51 53 70 54 52 55
REMARK SMILES IDX 55 56 69 57 88 58 53 59 54 60 68 62 89 63 56 64 40 65 41 66
REMARK SMILES IDX 49 67 42 68 43 69 47 70 50 71 44 72 45 73 48 74 46 75 72 76
REMARK SMILES IDX 73 77 81 78 74 79 75 80 79 81 82 82 76 83 77 84 80 85 78 86
REMARK SMILES IDX 57 87 58 88 66 89 59 90 60 91 64 92 67 93 61 94 62 95 65 96
REMARK SMILES IDX 63 97
REMARK H PARENT 5 17 12 21 87 50 55 61
REMARK Flexibility Score: inf
ROOT
ATOM      1  C   UNL A   1      34.164  32.378  28.849  1.00  0.00     0.202 C 
ENDROOT
BRANCH   1   2
ATOM      2  C   UNL A   1      34.413  31.526  27.593  1.00  0.00     0.261 C 
BRANCH   2   3
ATOM      3  O   UNL A   1      33.313  30.670  27.191  1.00  0.00    -0.462 OA
BRANCH   3   4
ATOM      4  C   UNL A   1      33.661  29.393  26.867  1.00  0.00     0.326 C 
ATOM      5  O   UNL A   1      34.773  28.917  27.087  1.00  0.00    -0.250 OA
BRANCH   4   6
ATOM      6  C   UNL A   1      32.555  28.508  26.348  1.00  0.00     0.248 C 
BRANCH   6   7
ATOM      7  N   UNL A   1      32.530  28.148  24.938  1.00  0.00    -0.293 N 
ATOM      8  C   UNL A   1      32.370  25.908  20.899  1.00  0.00     0.157 C 
ATOM      9  N   UNL A   1      32.823  25.885  22.277  1.00  0.00    -0.279 N 
ATOM     10  C   UNL A   1      33.527  24.794  22.767  1.00  0.00     0.329 A 
ATOM     11  C   UNL A   1      32.580  26.942  23.124  1.00  0.00     0.170 A 
ATOM     12  O   UNL A   1      33.810  23.804  22.091  1.00  0.00    -0.248 OA
ATOM     13  N   UNL A   1      33.933  24.851  24.090  1.00  0.00    -0.272 N 
ATOM     14  C   UNL A   1      33.010  26.966  24.416  1.00  0.00     0.154 A 
ATOM     15  N   UNL A   1      31.867  28.041  22.815  1.00  0.00    -0.194 NA
ATOM     16  C   UNL A   1      33.746  25.888  24.982  1.00  0.00     0.279 A 
ATOM     17  H   UNL A   1      34.410  24.061  24.433  1.00  0.00     0.175 HD
ATOM     18  C   UNL A   1      31.786  28.744  23.924  1.00  0.00     0.206 A 
ATOM     19  O   UNL A   1      34.175  25.861  26.126  1.00  0.00    -0.267 OA
BRANCH  18  20
ATOM     20  N   UNL A   1      31.071  29.877  24.077  1.00  0.00    -0.353 N 
ATOM     21  H   UNL A   1      31.395  30.559  24.709  1.00  0.00     0.163 HD
BRANCH  20  22
ATOM     22  C   UNL A   1      29.832  30.132  23.338  1.00  0.00     0.082 C 
ATOM     23  C   UNL A   1      28.839  28.972  23.272  1.00  0.00     0.025 C 
ATOM     24  C   UNL A   1      29.002  31.295  23.864  1.00  0.00     0.025 C 
ATOM     25  C   UNL A   1      27.553  29.623  22.790  1.00  0.00     0.002 C 
ATOM     26  C   UNL A   1      27.602  31.066  23.285  1.00  0.00     0.002 C 
ENDBRANCH  20  22
ENDBRANCH  18  20
ENDBRANCH   6   7
ENDBRANCH   4   6
ENDBRANCH   3   4
ENDBRANCH   2   3
ENDBRANCH   1   2
BRANCH   1  27
ATOM     27  O   UNL A   1      34.886  33.596  28.994  1.00  0.00    -0.374 OA
BRANCH  27  28
ATOM     28  C   UNL A   1      34.242  34.813  28.654  1.00  0.00     0.202 C 
BRANCH  28  29
ATOM     29  C   UNL A   1      33.321  35.445  29.686  1.00  0.00     0.261 C 
BRANCH  29  30
ATOM     30  O   UNL A   1      33.975  35.790  30.902  1.00  0.00    -0.460 OA
BRANCH  30  31
ATOM     31  C   UNL A   1      33.569  35.067  31.970  1.00  0.00     0.338 C 
ATOM     32  O   UNL A   1      32.495  35.147  32.540  1.00  0.00    -0.246 OA
BRANCH  31  33
ATOM     33  C   UNL A   1      34.695  34.277  32.482  1.00  0.00     0.060 A 
ATOM     34  C   UNL A   1      35.947  34.881  32.372  1.00  0.00     0.016 A 
ATOM     35  C   UNL A   1      34.558  32.905  32.749  1.00  0.00     0.016 A 
ATOM     36  C   UNL A   1      37.051  34.070  32.275  1.00  0.00     0.010 A 
ATOM     37  C   UNL A   1      35.669  32.092  32.662  1.00  0.00     0.010 A 
ATOM     38  C   UNL A   1      36.882  32.679  32.327  1.00  0.00    -0.014 A 
BRANCH  38  39
ATOM     39  C   UNL A   1      38.055  31.881  32.046  1.00  0.00     0.031 A 
ATOM     40  C   UNL A   1      38.918  31.683  33.227  1.00  0.00     0.074 A 
ATOM     41  C   UNL A   1      38.356  31.403  30.827  1.00  0.00     0.049 A 
ATOM     42  N   UNL A   1      40.071  32.222  33.446  1.00  0.00    -0.248 NA
ATOM     43  C   UNL A   1      38.352  30.957  34.368  1.00  0.00     0.031 C 
ATOM     44  C   UNL A   1      37.535  31.340  29.623  1.00  0.00     0.029 A 
ATOM     45  N   UNL A   1      39.518  30.819  30.436  1.00  0.00    -0.354 N 
ATOM     46  C   UNL A   1      40.453  31.787  34.707  1.00  0.00     0.074 A 
ATOM     47  C   UNL A   1      39.305  31.135  35.283  1.00  0.00     0.031 C 
ATOM     48  C   UNL A   1      38.148  30.559  28.701  1.00  0.00     0.029 A 
ATOM     49  C   UNL A   1      39.462  30.193  29.202  1.00  0.00     0.049 A 
ATOM     50  H   UNL A   1      40.334  30.839  30.986  1.00  0.00     0.167 HD
ATOM     51  C   UNL A   1      41.754  31.827  35.099  1.00  0.00     0.037 A 
ATOM     52  C   UNL A   1      40.424  29.384  28.693  1.00  0.00     0.037 A 
ATOM     53  C   UNL A   1      42.520  32.746  34.297  1.00  0.00     0.049 A 
ATOM     54  C   UNL A   1      41.697  29.730  29.383  1.00  0.00     0.074 A 
ATOM     55  C   UNL A   1      42.476  34.113  34.097  1.00  0.00     0.029 A 
ATOM     56  N   UNL A   1      43.260  32.245  33.252  1.00  0.00    -0.354 N 
ATOM     57  N   UNL A   1      42.316  30.866  29.207  1.00  0.00    -0.248 NA
ATOM     58  C   UNL A   1      42.008  29.037  30.628  1.00  0.00     0.031 C 
ATOM     59  C   UNL A   1      42.752  34.295  32.711  1.00  0.00     0.029 A 
ATOM     60  C   UNL A   1      43.002  33.037  32.161  1.00  0.00     0.049 A 
ATOM     61  H   UNL A   1      43.860  31.466  33.282  1.00  0.00     0.167 HD
ATOM     62  C   UNL A   1      42.763  31.230  30.470  1.00  0.00     0.074 A 
ATOM     63  C   UNL A   1      42.600  30.034  31.294  1.00  0.00     0.031 C 
ATOM     64  C   UNL A   1      42.946  32.540  30.807  1.00  0.00     0.037 A 
BRANCH  51  65
ATOM     65  C   UNL A   1      42.385  30.785  35.979  1.00  0.00     0.064 A 
ATOM     66  C   UNL A   1      43.160  31.189  37.080  1.00  0.00     0.173 A 
ATOM     67  C   UNL A   1      42.501  29.426  35.611  1.00  0.00     0.173 A 
ATOM     68  F   UNL A   1      43.139  32.462  37.501  1.00  0.00    -0.203 F 
ATOM     69  C   UNL A   1      44.042  30.313  37.717  1.00  0.00     0.198 A 
ATOM     70  C   UNL A   1      43.340  28.543  36.284  1.00  0.00     0.198 A 
ATOM     71  F   UNL A   1      41.902  28.925  34.525  1.00  0.00    -0.203 F 
ATOM     72  F   UNL A   1      44.852  30.771  38.681  1.00  0.00    -0.200 F 
ATOM     73  C   UNL A   1      44.136  28.993  37.314  1.00  0.00     0.200 A 
ATOM     74  F   UNL A   1      43.429  27.273  35.864  1.00  0.00    -0.200 F 
ATOM     75  F   UNL A   1      45.027  28.168  37.880  1.00  0.00    -0.200 F 
ENDBRANCH  51  65
BRANCH  52  76
ATOM     76  C   UNL A   1      40.232  28.123  27.939  1.00  0.00     0.064 A 
ATOM     77  C   UNL A   1      40.911  27.883  26.733  1.00  0.00     0.173 A 
ATOM     78  C   UNL A   1      39.590  27.014  28.526  1.00  0.00     0.173 A 
ATOM     79  F   UNL A   1      41.589  28.872  26.133  1.00  0.00    -0.203 F 
ATOM     80  C   UNL A   1      40.960  26.606  26.161  1.00  0.00     0.198 A 
ATOM     81  C   UNL A   1      39.636  25.743  27.953  1.00  0.00     0.198 A 
ATOM     82  F   UNL A   1      38.983  27.121  29.716  1.00  0.00    -0.203 F 
ATOM     83  F   UNL A   1      41.663  26.401  25.038  1.00  0.00    -0.200 F 
ATOM     84  C   UNL A   1      40.331  25.535  26.777  1.00  0.00     0.200 A 
ATOM     85  F   UNL A   1      39.056  24.710  28.580  1.00  0.00    -0.200 F 
ATOM     86  F   UNL A   1      40.428  24.302  26.262  1.00  0.00    -0.200 F 
ENDBRANCH  52  76
BRANCH  64  87
ATOM     87  C   UNL A   1      42.827  33.566  29.715  1.00  0.00     0.064 A 
ATOM     88  C   UNL A   1      41.647  34.287  29.458  1.00  0.00     0.173 A 
ATOM     89  C   UNL A   1      43.980  33.954  29.023  1.00  0.00     0.173 A 
ATOM     90  F   UNL A   1      40.529  34.047  30.154  1.00  0.00    -0.203 F 
ATOM     91  C   UNL A   1      41.616  35.321  28.523  1.00  0.00     0.198 A 
ATOM     92  C   UNL A   1      43.956  35.009  28.114  1.00  0.00     0.198 A 
ATOM     93  F   UNL A   1      45.149  33.344  29.272  1.00  0.00    -0.203 F 
ATOM     94  F   UNL A   1      40.476  35.990  28.295  1.00  0.00    -0.200 F 
ATOM     95  C   UNL A   1      42.774  35.686  27.858  1.00  0.00     0.200 A 
ATOM     96  F   UNL A   1      45.090  35.394  27.511  1.00  0.00    -0.200 F 
ATOM     97  F   UNL A   1      42.758  36.710  26.993  1.00  0.00    -0.200 F 
ENDBRANCH  64  87
ENDBRANCH  38  39
ENDBRANCH  31  33
ENDBRANCH  30  31
ENDBRANCH  29  30
ENDBRANCH  28  29
ENDBRANCH  27  28
ENDBRANCH   1  27
TORSDOF 17
ENDMDL
