MODEL 1
REMARK VINA RESULT:     -11.9      0.000      0.000
REMARK SMILES C[C@H](C(=O)OCCOCCOC(=O)c1ccc(-c2c3nc(c(-c4c(F)c(F)c(F)c(F)c4F)c4ccc([nH]4)c(-c4c(F)c(F)c(F)c(F)c4F)c4nc(c(-c5c(F)c(F)c(F)c(F)c5F)c5ccc2[nH]5)C=C4)C=C3)cc1)[C@@H](C)Nc1ccccc1Oc1ccccc1
REMARK SMILES IDX 6 1 5 2 3 3 4 4 2 5 1 6 77 7 78 8 79 9 80 11 81 12 85 13
REMARK SMILES IDX 82 14 84 15 83 16 86 17 87 18 88 19 92 20 89 21 91 22 90 23
REMARK SMILES IDX 7 24 8 25 9 26 10 27 11 28 12 29 13 30 14 31 15 32 76 33
REMARK SMILES IDX 16 34 75 35 17 36 18 37 19 38 69 39 20 40 74 41 68 42 70 43
REMARK SMILES IDX 21 44 73 45 67 46 66 47 22 49 54 50 34 51 53 52 35 53 38 54
REMARK SMILES IDX 52 55 71 56 36 57 37 58 51 60 72 61 39 62 23 63 24 64 32 65
REMARK SMILES IDX 25 66 26 67 30 68 33 69 27 70 28 71 31 72 29 73 55 74 56 75
REMARK SMILES IDX 64 76 57 77 58 78 62 79 65 80 59 81 60 82 63 83 61 84 40 85
REMARK SMILES IDX 41 86 49 87 42 88 43 89 47 90 50 91 44 92 45 93 48 94 46 95
REMARK H PARENT 79 10 70 48 38 59
REMARK Flexibility Score: inf
ROOT
ATOM      1  C   UNL A   1      31.064  27.588  24.154  1.00  0.00     0.261 C 
ENDROOT
BRANCH   1   2
ATOM      2  O   UNL A   1      30.137  26.572  24.585  1.00  0.00    -0.463 OA
BRANCH   2   3
ATOM      3  C   UNL A   1      30.516  25.789  25.629  1.00  0.00     0.310 C 
ATOM      4  O   UNL A   1      30.910  26.233  26.700  1.00  0.00    -0.252 OA
BRANCH   3   5
ATOM      5  C   UNL A   1      30.491  24.294  25.282  1.00  0.00     0.118 C 
ATOM      6  C   UNL A   1      31.279  24.097  23.981  1.00  0.00     0.022 C 
BRANCH   5   7
ATOM      7  C   UNL A   1      30.974  23.356  26.434  1.00  0.00     0.090 C 
ATOM      8  C   UNL A   1      29.742  22.906  27.235  1.00  0.00     0.031 C 
BRANCH   7   9
ATOM      9  N   UNL A   1      31.595  22.139  25.900  1.00  0.00    -0.379 N 
ATOM     10  H   UNL A   1      30.964  21.427  25.644  1.00  0.00     0.160 HD
BRANCH   9  11
ATOM     11  C   UNL A   1      32.933  21.834  25.702  1.00  0.00     0.078 A 
ATOM     12  C   UNL A   1      33.831  22.598  26.486  1.00  0.00     0.029 A 
ATOM     13  C   UNL A   1      33.521  20.837  24.897  1.00  0.00     0.150 A 
ATOM     14  C   UNL A   1      35.214  22.385  26.498  1.00  0.00     0.002 A 
ATOM     15  C   UNL A   1      34.919  20.628  24.908  1.00  0.00     0.049 A 
ATOM     16  C   UNL A   1      35.764  21.394  25.703  1.00  0.00     0.004 A 
BRANCH  13  17
ATOM     17  O   UNL A   1      32.887  19.904  24.115  1.00  0.00    -0.455 OA
BRANCH  17  18
ATOM     18  C   UNL A   1      32.958  18.568  24.396  1.00  0.00     0.127 A 
ATOM     19  C   UNL A   1      33.518  17.824  23.361  1.00  0.00     0.047 A 
ATOM     20  C   UNL A   1      32.544  17.928  25.561  1.00  0.00     0.047 A 
ATOM     21  C   UNL A   1      33.828  16.485  23.550  1.00  0.00     0.004 A 
ATOM     22  C   UNL A   1      32.800  16.557  25.721  1.00  0.00     0.004 A 
ATOM     23  C   UNL A   1      33.473  15.844  24.728  1.00  0.00     0.000 A 
ENDBRANCH  17  18
ENDBRANCH  13  17
ENDBRANCH   9  11
ENDBRANCH   7   9
ENDBRANCH   5   7
ENDBRANCH   3   5
ENDBRANCH   2   3
ENDBRANCH   1   2
BRANCH   1  24
ATOM     24  C   UNL A   1      30.323  28.780  23.543  1.00  0.00     0.202 C 
BRANCH  24  25
ATOM     25  O   UNL A   1      30.466  29.982  24.300  1.00  0.00    -0.374 OA
BRANCH  25  26
ATOM     26  C   UNL A   1      31.439  29.920  25.344  1.00  0.00     0.202 C 
BRANCH  26  27
ATOM     27  C   UNL A   1      31.532  31.213  26.160  1.00  0.00     0.261 C 
BRANCH  27  28
ATOM     28  O   UNL A   1      32.494  31.069  27.227  1.00  0.00    -0.460 OA
BRANCH  28  29
ATOM     29  C   UNL A   1      33.254  32.162  27.486  1.00  0.00     0.338 C 
ATOM     30  O   UNL A   1      32.893  33.320  27.520  1.00  0.00    -0.246 OA
BRANCH  29  31
ATOM     31  C   UNL A   1      34.605  31.730  27.918  1.00  0.00     0.060 A 
ATOM     32  C   UNL A   1      34.821  30.362  28.094  1.00  0.00     0.016 A 
ATOM     33  C   UNL A   1      35.642  32.632  28.162  1.00  0.00     0.016 A 
ATOM     34  C   UNL A   1      36.057  29.897  28.552  1.00  0.00     0.010 A 
ATOM     35  C   UNL A   1      36.904  32.159  28.555  1.00  0.00     0.010 A 
ATOM     36  C   UNL A   1      37.107  30.791  28.813  1.00  0.00    -0.014 A 
BRANCH  36  37
ATOM     37  C   UNL A   1      38.330  30.309  29.521  1.00  0.00     0.031 A 
ATOM     38  C   UNL A   1      38.558  30.721  30.956  1.00  0.00     0.074 A 
ATOM     39  C   UNL A   1      39.199  29.458  28.939  1.00  0.00     0.049 A 
ATOM     40  N   UNL A   1      39.517  30.375  31.782  1.00  0.00    -0.248 NA
ATOM     41  C   UNL A   1      37.581  31.654  31.539  1.00  0.00     0.031 C 
ATOM     42  C   UNL A   1      39.111  28.960  27.568  1.00  0.00     0.029 A 
ATOM     43  N   UNL A   1      40.327  28.848  29.441  1.00  0.00    -0.354 N 
ATOM     44  C   UNL A   1      39.258  31.053  32.968  1.00  0.00     0.074 A 
ATOM     45  C   UNL A   1      38.093  31.876  32.739  1.00  0.00     0.031 C 
ATOM     46  C   UNL A   1      40.122  28.103  27.345  1.00  0.00     0.029 A 
ATOM     47  C   UNL A   1      40.952  28.013  28.546  1.00  0.00     0.049 A 
ATOM     48  H   UNL A   1      40.656  28.998  30.357  1.00  0.00     0.167 HD
ATOM     49  C   UNL A   1      39.909  30.981  34.153  1.00  0.00     0.037 A 
ATOM     50  C   UNL A   1      42.066  27.263  28.677  1.00  0.00     0.037 A 
ATOM     51  C   UNL A   1      41.053  30.148  34.406  1.00  0.00     0.049 A 
ATOM     52  C   UNL A   1      42.810  27.244  29.991  1.00  0.00     0.074 A 
ATOM     53  C   UNL A   1      41.747  29.977  35.592  1.00  0.00     0.029 A 
ATOM     54  N   UNL A   1      41.678  29.352  33.459  1.00  0.00    -0.354 N 
ATOM     55  N   UNL A   1      42.518  27.845  31.119  1.00  0.00    -0.248 NA
ATOM     56  C   UNL A   1      44.037  26.434  30.049  1.00  0.00     0.031 C 
ATOM     57  C   UNL A   1      42.832  29.131  35.346  1.00  0.00     0.029 A 
ATOM     58  C   UNL A   1      42.773  28.717  34.025  1.00  0.00     0.049 A 
ATOM     59  H   UNL A   1      41.387  29.252  32.524  1.00  0.00     0.167 HD
ATOM     60  C   UNL A   1      43.501  27.457  32.025  1.00  0.00     0.074 A 
ATOM     61  C   UNL A   1      44.389  26.560  31.321  1.00  0.00     0.031 C 
ATOM     62  C   UNL A   1      43.649  27.814  33.325  1.00  0.00     0.037 A 
BRANCH  49  63
ATOM     63  C   UNL A   1      39.404  31.844  35.275  1.00  0.00     0.064 A 
ATOM     64  C   UNL A   1      38.516  31.354  36.245  1.00  0.00     0.173 A 
ATOM     65  C   UNL A   1      39.842  33.171  35.397  1.00  0.00     0.173 A 
ATOM     66  F   UNL A   1      38.055  30.097  36.166  1.00  0.00    -0.203 F 
ATOM     67  C   UNL A   1      38.062  32.170  37.278  1.00  0.00     0.198 A 
ATOM     68  C   UNL A   1      39.414  33.973  36.451  1.00  0.00     0.198 A 
ATOM     69  F   UNL A   1      40.696  33.688  34.501  1.00  0.00    -0.203 F 
ATOM     70  F   UNL A   1      37.172  31.698  38.160  1.00  0.00    -0.200 F 
ATOM     71  C   UNL A   1      38.518  33.476  37.385  1.00  0.00     0.200 A 
ATOM     72  F   UNL A   1      39.869  35.228  36.563  1.00  0.00    -0.200 F 
ATOM     73  F   UNL A   1      38.087  34.257  38.384  1.00  0.00    -0.200 F 
ENDBRANCH  49  63
BRANCH  50  74
ATOM     74  C   UNL A   1      42.561  26.449  27.531  1.00  0.00     0.064 A 
ATOM     75  C   UNL A   1      42.100  25.141  27.315  1.00  0.00     0.173 A 
ATOM     76  C   UNL A   1      43.540  26.945  26.658  1.00  0.00     0.173 A 
ATOM     77  F   UNL A   1      41.187  24.609  28.141  1.00  0.00    -0.203 F 
ATOM     78  C   UNL A   1      42.616  24.355  26.286  1.00  0.00     0.198 A 
ATOM     79  C   UNL A   1      44.031  26.169  25.609  1.00  0.00     0.198 A 
ATOM     80  F   UNL A   1      44.021  28.185  26.822  1.00  0.00    -0.203 F 
ATOM     81  F   UNL A   1      42.200  23.090  26.140  1.00  0.00    -0.200 F 
ATOM     82  C   UNL A   1      43.576  24.871  25.430  1.00  0.00     0.200 A 
ATOM     83  F   UNL A   1      44.952  26.677  24.778  1.00  0.00    -0.200 F 
ATOM     84  F   UNL A   1      44.073  24.116  24.441  1.00  0.00    -0.200 F 
ENDBRANCH  50  74
BRANCH  62  85
ATOM     85  C   UNL A   1      44.787  27.203  34.096  1.00  0.00     0.064 A 
ATOM     86  C   UNL A   1      46.033  27.838  34.208  1.00  0.00     0.173 A 
ATOM     87  C   UNL A   1      44.612  25.986  34.774  1.00  0.00     0.173 A 
ATOM     88  F   UNL A   1      46.260  28.998  33.571  1.00  0.00    -0.203 F 
ATOM     89  C   UNL A   1      47.067  27.265  34.946  1.00  0.00     0.198 A 
ATOM     90  C   UNL A   1      45.635  25.434  35.539  1.00  0.00     0.198 A 
ATOM     91  F   UNL A   1      43.438  25.341  34.711  1.00  0.00    -0.203 F 
ATOM     92  F   UNL A   1      48.264  27.866  34.996  1.00  0.00    -0.200 F 
ATOM     93  C   UNL A   1      46.865  26.069  35.618  1.00  0.00     0.200 A 
ATOM     94  F   UNL A   1      45.431  24.288  36.203  1.00  0.00    -0.200 F 
ATOM     95  F   UNL A   1      47.857  25.525  36.334  1.00  0.00    -0.200 F 
ENDBRANCH  62  85
ENDBRANCH  36  37
ENDBRANCH  29  31
ENDBRANCH  28  29
ENDBRANCH  27  28
ENDBRANCH  26  27
ENDBRANCH  25  26
ENDBRANCH  24  25
ENDBRANCH   1  24
TORSDOF 19
ENDMDL
MODEL 2
REMARK VINA RESULT:     -11.7      4.073     10.224
REMARK SMILES C[C@H](C(=O)OCCOCCOC(=O)c1ccc(-c2c3nc(c(-c4c(F)c(F)c(F)c(F)c4F)c4ccc([nH]4)c(-c4c(F)c(F)c(F)c(F)c4F)c4nc(c(-c5c(F)c(F)c(F)c(F)c5F)c5ccc2[nH]5)C=C4)C=C3)cc1)[C@@H](C)Nc1ccccc1Oc1ccccc1
REMARK SMILES IDX 6 1 5 2 3 3 4 4 2 5 1 6 77 7 78 8 79 9 80 11 81 12 85 13
REMARK SMILES IDX 82 14 84 15 83 16 86 17 87 18 88 19 92 20 89 21 91 22 90 23
REMARK SMILES IDX 7 24 8 25 9 26 10 27 11 28 12 29 13 30 14 31 15 32 76 33
REMARK SMILES IDX 16 34 75 35 17 36 18 37 19 38 69 39 20 40 74 41 68 42 70 43
REMARK SMILES IDX 21 44 73 45 67 46 66 47 22 49 54 50 34 51 53 52 35 53 38 54
REMARK SMILES IDX 52 55 71 56 36 57 37 58 51 60 72 61 39 62 23 63 24 64 32 65
REMARK SMILES IDX 25 66 26 67 30 68 33 69 27 70 28 71 31 72 29 73 55 74 56 75
REMARK SMILES IDX 64 76 57 77 58 78 62 79 65 80 59 81 60 82 63 83 61 84 40 85
REMARK SMILES IDX 41 86 49 87 42 88 43 89 47 90 50 91 44 92 45 93 48 94 46 95
REMARK H PARENT 79 10 70 48 38 59
REMARK Flexibility Score: inf
ROOT
ATOM      1  C   UNL A   1      33.432  21.160  23.958  1.00  0.00     0.261 C 
ENDROOT
BRANCH   1   2
ATOM      2  O   UNL A   1      32.535  22.276  23.795  1.00  0.00    -0.463 OA
BRANCH   2   3
ATOM      3  C   UNL A   1      32.850  23.193  22.842  1.00  0.00     0.310 C 
ATOM      4  O   UNL A   1      33.742  23.034  22.019  1.00  0.00    -0.252 OA
BRANCH   3   5
ATOM      5  C   UNL A   1      32.034  24.486  22.978  1.00  0.00     0.118 C 
ATOM      6  C   UNL A   1      30.610  24.104  23.400  1.00  0.00     0.022 C 
BRANCH   5   7
ATOM      7  C   UNL A   1      32.678  25.560  23.910  1.00  0.00     0.090 C 
ATOM      8  C   UNL A   1      33.492  26.528  23.037  1.00  0.00     0.031 C 
BRANCH   7   9
ATOM      9  N   UNL A   1      31.650  26.364  24.581  1.00  0.00    -0.379 N 
ATOM     10  H   UNL A   1      30.730  26.026  24.487  1.00  0.00     0.160 HD
BRANCH   9  11
ATOM     11  C   UNL A   1      31.774  27.526  25.326  1.00  0.00     0.078 A 
ATOM     12  C   UNL A   1      32.283  27.335  26.633  1.00  0.00     0.029 A 
ATOM     13  C   UNL A   1      31.539  28.866  24.954  1.00  0.00     0.150 A 
ATOM     14  C   UNL A   1      32.565  28.387  27.512  1.00  0.00     0.002 A 
ATOM     15  C   UNL A   1      31.820  29.926  25.846  1.00  0.00     0.049 A 
ATOM     16  C   UNL A   1      32.331  29.692  27.117  1.00  0.00     0.004 A 
BRANCH  13  17
ATOM     17  O   UNL A   1      31.137  29.341  23.730  1.00  0.00    -0.455 OA
BRANCH  17  18
ATOM     18  C   UNL A   1      29.846  29.728  23.502  1.00  0.00     0.127 A 
ATOM     19  C   UNL A   1      29.053  28.701  22.996  1.00  0.00     0.047 A 
ATOM     20  C   UNL A   1      29.290  30.985  23.721  1.00  0.00     0.047 A 
ATOM     21  C   UNL A   1      27.681  28.871  22.877  1.00  0.00     0.004 A 
ATOM     22  C   UNL A   1      27.911  31.170  23.535  1.00  0.00     0.004 A 
ATOM     23  C   UNL A   1      27.102  30.102  23.146  1.00  0.00     0.000 A 
ENDBRANCH  17  18
ENDBRANCH  13  17
ENDBRANCH   9  11
ENDBRANCH   7   9
ENDBRANCH   5   7
ENDBRANCH   3   5
ENDBRANCH   2   3
ENDBRANCH   1   2
BRANCH   1  24
ATOM     24  C   UNL A   1      33.774  20.944  25.433  1.00  0.00     0.202 C 
BRANCH  24  25
ATOM     25  O   UNL A   1      35.155  21.146  25.729  1.00  0.00    -0.374 OA
BRANCH  25  26
ATOM     26  C   UNL A   1      35.947  21.583  24.623  1.00  0.00     0.202 C 
BRANCH  26  27
ATOM     27  C   UNL A   1      37.412  21.150  24.721  1.00  0.00     0.261 C 
BRANCH  27  28
ATOM     28  O   UNL A   1      37.906  21.335  26.065  1.00  0.00    -0.460 OA
BRANCH  28  29
ATOM     29  C   UNL A   1      39.251  21.260  26.214  1.00  0.00     0.338 C 
ATOM     30  O   UNL A   1      39.993  20.396  25.794  1.00  0.00    -0.246 OA
BRANCH  29  31
ATOM     31  C   UNL A   1      39.749  22.514  26.830  1.00  0.00     0.060 A 
ATOM     32  C   UNL A   1      39.084  23.699  26.509  1.00  0.00     0.016 A 
ATOM     33  C   UNL A   1      40.847  22.547  27.691  1.00  0.00     0.016 A 
ATOM     34  C   UNL A   1      39.539  24.921  27.013  1.00  0.00     0.010 A 
ATOM     35  C   UNL A   1      41.260  23.765  28.252  1.00  0.00     0.010 A 
ATOM     36  C   UNL A   1      40.648  24.973  27.871  1.00  0.00    -0.014 A 
BRANCH  36  37
ATOM     37  C   UNL A   1      41.261  26.293  28.208  1.00  0.00     0.031 A 
ATOM     38  C   UNL A   1      42.656  26.602  27.716  1.00  0.00     0.074 A 
ATOM     39  C   UNL A   1      40.578  27.243  28.877  1.00  0.00     0.049 A 
ATOM     40  N   UNL A   1      43.360  27.700  27.839  1.00  0.00    -0.248 NA
ATOM     41  C   UNL A   1      43.356  25.526  26.996  1.00  0.00     0.031 C 
ATOM     42  C   UNL A   1      39.223  27.102  29.406  1.00  0.00     0.029 A 
ATOM     43  N   UNL A   1      40.933  28.531  29.213  1.00  0.00    -0.354 N 
ATOM     44  C   UNL A   1      44.578  27.441  27.221  1.00  0.00     0.074 A 
ATOM     45  C   UNL A   1      44.544  26.065  26.780  1.00  0.00     0.031 C 
ATOM     46  C   UNL A   1      38.851  28.262  29.975  1.00  0.00     0.029 A 
ATOM     47  C   UNL A   1      39.951  29.222  29.882  1.00  0.00     0.049 A 
ATOM     48  H   UNL A   1      41.811  28.921  28.994  1.00  0.00     0.167 HD
ATOM     49  C   UNL A   1      45.624  28.275  27.010  1.00  0.00     0.037 A 
ATOM     50  C   UNL A   1      39.938  30.481  30.367  1.00  0.00     0.037 A 
ATOM     51  C   UNL A   1      45.665  29.652  27.419  1.00  0.00     0.049 A 
ATOM     52  C   UNL A   1      41.141  31.373  30.172  1.00  0.00     0.074 A 
ATOM     53  C   UNL A   1      46.667  30.584  27.205  1.00  0.00     0.029 A 
ATOM     54  N   UNL A   1      44.666  30.297  28.132  1.00  0.00    -0.354 N 
ATOM     55  N   UNL A   1      42.261  31.131  29.534  1.00  0.00    -0.248 NA
ATOM     56  C   UNL A   1      41.072  32.720  30.761  1.00  0.00     0.031 C 
ATOM     57  C   UNL A   1      46.304  31.771  27.846  1.00  0.00     0.029 A 
ATOM     58  C   UNL A   1      45.046  31.604  28.398  1.00  0.00     0.049 A 
ATOM     59  H   UNL A   1      43.815  29.887  28.407  1.00  0.00     0.167 HD
ATOM     60  C   UNL A   1      43.008  32.302  29.615  1.00  0.00     0.074 A 
ATOM     61  C   UNL A   1      42.211  33.258  30.350  1.00  0.00     0.031 C 
ATOM     62  C   UNL A   1      44.244  32.558  29.120  1.00  0.00     0.037 A 
BRANCH  49  63
ATOM     63  C   UNL A   1      46.830  27.711  26.312  1.00  0.00     0.064 A 
ATOM     64  C   UNL A   1      46.967  27.757  24.916  1.00  0.00     0.173 A 
ATOM     65  C   UNL A   1      47.877  27.146  27.056  1.00  0.00     0.173 A 
ATOM     66  F   UNL A   1      45.989  28.273  24.157  1.00  0.00    -0.203 F 
ATOM     67  C   UNL A   1      48.094  27.230  24.289  1.00  0.00     0.198 A 
ATOM     68  C   UNL A   1      49.018  26.654  26.428  1.00  0.00     0.198 A 
ATOM     69  F   UNL A   1      47.800  27.083  28.393  1.00  0.00    -0.203 F 
ATOM     70  F   UNL A   1      48.177  27.235  22.952  1.00  0.00    -0.200 F 
ATOM     71  C   UNL A   1      49.122  26.688  25.046  1.00  0.00     0.200 A 
ATOM     72  F   UNL A   1      50.017  26.145  27.162  1.00  0.00    -0.200 F 
ATOM     73  F   UNL A   1      50.209  26.190  24.442  1.00  0.00    -0.200 F 
ENDBRANCH  49  63
BRANCH  50  74
ATOM     74  C   UNL A   1      38.741  30.994  31.089  1.00  0.00     0.064 A 
ATOM     75  C   UNL A   1      37.703  31.646  30.405  1.00  0.00     0.173 A 
ATOM     76  C   UNL A   1      38.631  30.886  32.483  1.00  0.00     0.173 A 
ATOM     77  F   UNL A   1      37.774  31.803  29.075  1.00  0.00    -0.203 F 
ATOM     78  C   UNL A   1      36.617  32.190  31.089  1.00  0.00     0.198 A 
ATOM     79  C   UNL A   1      37.528  31.401  33.163  1.00  0.00     0.198 A 
ATOM     80  F   UNL A   1      39.596  30.279  33.187  1.00  0.00    -0.203 F 
ATOM     81  F   UNL A   1      35.671  32.859  30.416  1.00  0.00    -0.200 F 
ATOM     82  C   UNL A   1      36.527  32.062  32.467  1.00  0.00     0.200 A 
ATOM     83  F   UNL A   1      37.442  31.266  34.493  1.00  0.00    -0.200 F 
ATOM     84  F   UNL A   1      35.485  32.585  33.125  1.00  0.00    -0.200 F 
ENDBRANCH  50  74
BRANCH  62  85
ATOM     85  C   UNL A   1      44.805  33.941  29.311  1.00  0.00     0.064 A 
ATOM     86  C   UNL A   1      45.545  34.290  30.451  1.00  0.00     0.173 A 
ATOM     87  C   UNL A   1      44.640  34.917  28.315  1.00  0.00     0.173 A 
ATOM     88  F   UNL A   1      45.725  33.400  31.439  1.00  0.00    -0.203 F 
ATOM     89  C   UNL A   1      46.075  35.570  30.598  1.00  0.00     0.198 A 
ATOM     90  C   UNL A   1      45.201  36.185  28.449  1.00  0.00     0.198 A 
ATOM     91  F   UNL A   1      43.951  34.635  27.200  1.00  0.00    -0.203 F 
ATOM     92  F   UNL A   1      46.735  35.896  31.718  1.00  0.00    -0.200 F 
ATOM     93  C   UNL A   1      45.910  36.513  29.594  1.00  0.00     0.200 A 
ATOM     94  F   UNL A   1      45.056  37.087  27.470  1.00  0.00    -0.200 F 
ATOM     95  F   UNL A   1      46.429  37.740  29.734  1.00  0.00    -0.200 F 
ENDBRANCH  62  85
ENDBRANCH  36  37
ENDBRANCH  29  31
ENDBRANCH  28  29
ENDBRANCH  27  28
ENDBRANCH  26  27
ENDBRANCH  25  26
ENDBRANCH  24  25
ENDBRANCH   1  24
TORSDOF 19
ENDMDL
MODEL 3
REMARK VINA RESULT:     -11.7      3.530      8.765
REMARK SMILES C[C@H](C(=O)OCCOCCOC(=O)c1ccc(-c2c3nc(c(-c4c(F)c(F)c(F)c(F)c4F)c4ccc([nH]4)c(-c4c(F)c(F)c(F)c(F)c4F)c4nc(c(-c5c(F)c(F)c(F)c(F)c5F)c5ccc2[nH]5)C=C4)C=C3)cc1)[C@@H](C)Nc1ccccc1Oc1ccccc1
REMARK SMILES IDX 6 1 5 2 3 3 4 4 2 5 1 6 77 7 78 8 79 9 80 11 81 12 85 13
REMARK SMILES IDX 82 14 84 15 83 16 86 17 87 18 88 19 92 20 89 21 91 22 90 23
REMARK SMILES IDX 7 24 8 25 9 26 10 27 11 28 12 29 13 30 14 31 15 32 76 33
REMARK SMILES IDX 16 34 75 35 17 36 18 37 19 38 69 39 20 40 74 41 68 42 70 43
REMARK SMILES IDX 21 44 73 45 67 46 66 47 22 49 54 50 34 51 53 52 35 53 38 54
REMARK SMILES IDX 52 55 71 56 36 57 37 58 51 60 72 61 39 62 23 63 24 64 32 65
REMARK SMILES IDX 25 66 26 67 30 68 33 69 27 70 28 71 31 72 29 73 55 74 56 75
REMARK SMILES IDX 64 76 57 77 58 78 62 79 65 80 59 81 60 82 63 83 61 84 40 85
REMARK SMILES IDX 41 86 49 87 42 88 43 89 47 90 50 91 44 92 45 93 48 94 46 95
REMARK H PARENT 79 10 70 48 38 59
REMARK Flexibility Score: inf
ROOT
ATOM      1  C   UNL A   1      41.382  20.397  26.712  1.00  0.00     0.261 C 
ENDROOT
BRANCH   1   2
ATOM      2  O   UNL A   1      40.037  20.315  26.202  1.00  0.00    -0.463 OA
BRANCH   2   3
ATOM      3  C   UNL A   1      39.343  21.478  26.090  1.00  0.00     0.310 C 
ATOM      4  O   UNL A   1      39.605  22.487  26.733  1.00  0.00    -0.252 OA
BRANCH   3   5
ATOM      5  C   UNL A   1      38.136  21.355  25.149  1.00  0.00     0.118 C 
ATOM      6  C   UNL A   1      37.798  19.866  25.007  1.00  0.00     0.022 C 
BRANCH   5   7
ATOM      7  C   UNL A   1      36.904  22.222  25.562  1.00  0.00     0.090 C 
ATOM      8  C   UNL A   1      36.317  22.857  24.292  1.00  0.00     0.031 C 
BRANCH   7   9
ATOM      9  N   UNL A   1      35.844  21.392  26.145  1.00  0.00    -0.379 N 
ATOM     10  H   UNL A   1      36.158  20.591  26.624  1.00  0.00     0.160 HD
BRANCH   9  11
ATOM     11  C   UNL A   1      34.468  21.561  26.125  1.00  0.00     0.078 A 
ATOM     12  C   UNL A   1      33.992  22.599  26.962  1.00  0.00     0.029 A 
ATOM     13  C   UNL A   1      33.491  20.908  25.347  1.00  0.00     0.150 A 
ATOM     14  C   UNL A   1      32.648  22.987  27.018  1.00  0.00     0.002 A 
ATOM     15  C   UNL A   1      32.133  21.299  25.410  1.00  0.00     0.049 A 
ATOM     16  C   UNL A   1      31.711  22.332  26.238  1.00  0.00     0.004 A 
BRANCH  13  17
ATOM     17  O   UNL A   1      33.683  19.937  24.394  1.00  0.00    -0.455 OA
BRANCH  17  18
ATOM     18  C   UNL A   1      33.609  18.608  24.703  1.00  0.00     0.127 A 
ATOM     19  C   UNL A   1      34.718  17.887  24.270  1.00  0.00     0.047 A 
ATOM     20  C   UNL A   1      32.580  17.954  25.375  1.00  0.00     0.047 A 
ATOM     21  C   UNL A   1      34.888  16.565  24.655  1.00  0.00     0.004 A 
ATOM     22  C   UNL A   1      32.727  16.597  25.705  1.00  0.00     0.004 A 
ATOM     23  C   UNL A   1      33.897  15.913  25.374  1.00  0.00     0.000 A 
ENDBRANCH  17  18
ENDBRANCH  13  17
ENDBRANCH   9  11
ENDBRANCH   7   9
ENDBRANCH   5   7
ENDBRANCH   3   5
ENDBRANCH   2   3
ENDBRANCH   1   2
BRANCH   1  24
ATOM     24  C   UNL A   1      42.251  19.271  26.149  1.00  0.00     0.202 C 
BRANCH  24  25
ATOM     25  O   UNL A   1      43.464  19.735  25.557  1.00  0.00    -0.374 OA
BRANCH  25  26
ATOM     26  C   UNL A   1      43.575  21.156  25.454  1.00  0.00     0.202 C 
BRANCH  26  27
ATOM     27  C   UNL A   1      45.025  21.646  25.399  1.00  0.00     0.261 C 
BRANCH  27  28
ATOM     28  O   UNL A   1      45.191  22.828  26.212  1.00  0.00    -0.460 OA
BRANCH  28  29
ATOM     29  C   UNL A   1      44.863  24.001  25.617  1.00  0.00     0.338 C 
ATOM     30  O   UNL A   1      45.047  24.319  24.461  1.00  0.00    -0.246 OA
BRANCH  29  31
ATOM     31  C   UNL A   1      44.057  24.820  26.555  1.00  0.00     0.060 A 
ATOM     32  C   UNL A   1      44.420  26.158  26.722  1.00  0.00     0.016 A 
ATOM     33  C   UNL A   1      42.977  24.300  27.272  1.00  0.00     0.016 A 
ATOM     34  C   UNL A   1      43.734  26.965  27.633  1.00  0.00     0.010 A 
ATOM     35  C   UNL A   1      42.245  25.131  28.134  1.00  0.00     0.010 A 
ATOM     36  C   UNL A   1      42.653  26.457  28.369  1.00  0.00    -0.014 A 
BRANCH  36  37
ATOM     37  C   UNL A   1      42.088  27.253  29.500  1.00  0.00     0.031 A 
ATOM     38  C   UNL A   1      42.781  27.218  30.842  1.00  0.00     0.074 A 
ATOM     39  C   UNL A   1      41.019  28.058  29.336  1.00  0.00     0.049 A 
ATOM     40  N   UNL A   1      42.502  27.873  31.942  1.00  0.00    -0.248 NA
ATOM     41  C   UNL A   1      43.939  26.319  30.964  1.00  0.00     0.031 C 
ATOM     42  C   UNL A   1      40.250  28.209  28.103  1.00  0.00     0.029 A 
ATOM     43  N   UNL A   1      40.402  28.916  30.219  1.00  0.00    -0.354 N 
ATOM     44  C   UNL A   1      43.441  27.458  32.879  1.00  0.00     0.074 A 
ATOM     45  C   UNL A   1      44.259  26.452  32.241  1.00  0.00     0.031 C 
ATOM     46  C   UNL A   1      39.283  29.123  28.297  1.00  0.00     0.029 A 
ATOM     47  C   UNL A   1      39.340  29.601  29.678  1.00  0.00     0.049 A 
ATOM     48  H   UNL A   1      40.694  29.029  31.152  1.00  0.00     0.167 HD
ATOM     49  C   UNL A   1      43.631  27.891  34.148  1.00  0.00     0.037 A 
ATOM     50  C   UNL A   1      38.506  30.507  30.230  1.00  0.00     0.037 A 
ATOM     51  C   UNL A   1      42.845  28.909  34.790  1.00  0.00     0.049 A 
ATOM     52  C   UNL A   1      38.702  30.930  31.666  1.00  0.00     0.074 A 
ATOM     53  C   UNL A   1      42.999  29.442  36.058  1.00  0.00     0.029 A 
ATOM     54  N   UNL A   1      41.753  29.543  34.219  1.00  0.00    -0.354 N 
ATOM     55  N   UNL A   1      39.631  30.571  32.519  1.00  0.00    -0.248 NA
ATOM     56  C   UNL A   1      37.733  31.892  32.214  1.00  0.00     0.031 C 
ATOM     57  C   UNL A   1      41.959  30.350  36.280  1.00  0.00     0.029 A 
ATOM     58  C   UNL A   1      41.201  30.436  35.125  1.00  0.00     0.049 A 
ATOM     59  H   UNL A   1      41.420  29.384  33.307  1.00  0.00     0.167 HD
ATOM     60  C   UNL A   1      39.379  31.289  33.684  1.00  0.00     0.074 A 
ATOM     61  C   UNL A   1      38.220  32.113  33.427  1.00  0.00     0.031 C 
ATOM     62  C   UNL A   1      40.053  31.266  34.861  1.00  0.00     0.037 A 
BRANCH  49  63
ATOM     63  C   UNL A   1      44.736  27.248  34.941  1.00  0.00     0.064 A 
ATOM     64  C   UNL A   1      46.016  27.815  35.022  1.00  0.00     0.173 A 
ATOM     65  C   UNL A   1      44.495  26.065  35.656  1.00  0.00     0.173 A 
ATOM     66  F   UNL A   1      46.303  28.938  34.346  1.00  0.00    -0.203 F 
ATOM     67  C   UNL A   1      47.024  27.204  35.764  1.00  0.00     0.198 A 
ATOM     68  C   UNL A   1      45.494  25.477  36.426  1.00  0.00     0.198 A 
ATOM     69  F   UNL A   1      43.286  25.485  35.618  1.00  0.00    -0.203 F 
ATOM     70  F   UNL A   1      48.255  27.734  35.782  1.00  0.00    -0.200 F 
ATOM     71  C   UNL A   1      46.760  26.042  36.472  1.00  0.00     0.200 A 
ATOM     72  F   UNL A   1      45.232  24.363  37.122  1.00  0.00    -0.200 F 
ATOM     73  F   UNL A   1      47.728  25.460  37.193  1.00  0.00    -0.200 F 
ENDBRANCH  49  63
BRANCH  50  74
ATOM     74  C   UNL A   1      37.398  31.095  29.426  1.00  0.00     0.064 A 
ATOM     75  C   UNL A   1      37.432  32.435  29.011  1.00  0.00     0.173 A 
ATOM     76  C   UNL A   1      36.261  30.342  29.098  1.00  0.00     0.173 A 
ATOM     77  F   UNL A   1      38.483  33.206  29.326  1.00  0.00    -0.203 F 
ATOM     78  C   UNL A   1      36.363  33.004  28.321  1.00  0.00     0.198 A 
ATOM     79  C   UNL A   1      35.207  30.903  28.379  1.00  0.00     0.198 A 
ATOM     80  F   UNL A   1      36.173  29.059  29.475  1.00  0.00    -0.203 F 
ATOM     81  F   UNL A   1      36.397  34.301  27.989  1.00  0.00    -0.200 F 
ATOM     82  C   UNL A   1      35.254  32.236  28.000  1.00  0.00     0.200 A 
ATOM     83  F   UNL A   1      34.142  30.154  28.062  1.00  0.00    -0.200 F 
ATOM     84  F   UNL A   1      34.226  32.783  27.338  1.00  0.00    -0.200 F 
ENDBRANCH  50  74
BRANCH  62  85
ATOM     85  C   UNL A   1      39.590  32.188  35.955  1.00  0.00     0.064 A 
ATOM     86  C   UNL A   1      40.148  33.462  36.138  1.00  0.00     0.173 A 
ATOM     87  C   UNL A   1      38.536  31.810  36.802  1.00  0.00     0.173 A 
ATOM     88  F   UNL A   1      41.165  33.871  35.364  1.00  0.00    -0.203 F 
ATOM     89  C   UNL A   1      39.688  34.309  37.144  1.00  0.00     0.198 A 
ATOM     90  C   UNL A   1      38.055  32.673  37.784  1.00  0.00     0.198 A 
ATOM     91  F   UNL A   1      37.957  30.608  36.666  1.00  0.00    -0.203 F 
ATOM     92  F   UNL A   1      40.272  35.501  37.332  1.00  0.00    -0.200 F 
ATOM     93  C   UNL A   1      38.637  33.918  37.959  1.00  0.00     0.200 A 
ATOM     94  F   UNL A   1      37.027  32.300  38.557  1.00  0.00    -0.200 F 
ATOM     95  F   UNL A   1      38.191  34.739  38.919  1.00  0.00    -0.200 F 
ENDBRANCH  62  85
ENDBRANCH  36  37
ENDBRANCH  29  31
ENDBRANCH  28  29
ENDBRANCH  27  28
ENDBRANCH  26  27
ENDBRANCH  25  26
ENDBRANCH  24  25
ENDBRANCH   1  24
TORSDOF 19
ENDMDL
