MODEL 1
REMARK VINA RESULT:     -12.8      0.000      0.000
REMARK SMILES O=C(Cc1ccccc1)Nc1cccc(C(=O)Nc2ccccc2C(=O)OCCOCCOC(=O)c2ccc(-c3c4nc(c(-c5c(F)c(F)c(F)c(F)c5F)c5ccc([nH]5)c(-c5c(F)c(F)c(F)c(F)c5F)c5nc(c(-c6c(F)c(F)c(F)c(F)c6F)c6ccc3[nH]6)C=C5)C=C4)cc2)c1
REMARK SMILES IDX 28 1 27 2 25 3 26 4 24 5 19 6 20 7 21 8 23 9 22 10 18 11
REMARK SMILES IDX 16 12 17 13 15 15 11 16 12 17 99 18 13 19 14 20 10 21 1 22
REMARK SMILES IDX 2 23 3 25 4 26 5 27 9 28 6 29 8 30 7 31 29 32 30 33 31 34
REMARK SMILES IDX 32 35 33 36 34 37 35 38 36 39 37 40 98 41 38 42 97 43 39 44
REMARK SMILES IDX 40 45 41 46 91 47 42 48 96 49 90 50 92 51 43 52 95 53 89 54
REMARK SMILES IDX 88 55 44 57 76 58 56 59 75 60 57 61 60 62 74 63 93 64 58 65
REMARK SMILES IDX 59 66 73 68 94 69 61 70 45 71 46 72 54 73 47 74 48 75 52 76
REMARK SMILES IDX 55 77 49 78 50 79 53 80 51 81 77 82 78 83 86 84 79 85 80 86
REMARK SMILES IDX 84 87 87 88 81 89 82 90 85 91 83 92 62 93 63 94 71 95 64 96
REMARK SMILES IDX 65 97 69 98 72 99 66 100 67 101 70 102 68 103
REMARK H PARENT 18 14 10 24 92 56 60 67
REMARK Flexibility Score: inf
ROOT
ATOM      1  C   UNL A   1      29.230  28.271  23.142  1.00  0.00     0.261 C 
ENDROOT
BRANCH   1   2
ATOM      2  O   UNL A   1      30.301  27.479  22.600  1.00  0.00    -0.460 OA
BRANCH   2   3
ATOM      3  C   UNL A   1      30.619  26.392  23.348  1.00  0.00     0.340 C 
ATOM      4  O   UNL A   1      30.160  25.266  23.201  1.00  0.00    -0.246 OA
BRANCH   3   5
ATOM      5  C   UNL A   1      31.734  26.652  24.292  1.00  0.00     0.083 A 
ATOM      6  C   UNL A   1      31.846  26.238  25.634  1.00  0.00     0.056 A 
ATOM      7  C   UNL A   1      32.971  26.682  26.363  1.00  0.00     0.027 A 
ATOM      8  C   UNL A   1      33.992  27.431  25.771  1.00  0.00     0.002 A 
ATOM      9  C   UNL A   1      32.769  27.424  23.713  1.00  0.00     0.018 A 
ATOM     10  C   UNL A   1      33.896  27.798  24.439  1.00  0.00     0.001 A 
BRANCH   6  11
ATOM     11  N   UNL A   1      30.997  25.388  26.382  1.00  0.00    -0.321 N 
ATOM     12  C   UNL A   1      31.019  24.054  26.726  1.00  0.00     0.255 C 
ATOM     13  O   UNL A   1      30.013  23.554  27.234  1.00  0.00    -0.269 OA
ATOM     14  H   UNL A   1      30.210  25.858  26.740  1.00  0.00     0.170 HD
BRANCH  12  15
ATOM     15  C   UNL A   1      32.224  23.209  26.575  1.00  0.00     0.042 A 
ATOM     16  C   UNL A   1      33.370  21.425  25.431  1.00  0.00     0.041 A 
ATOM     17  C   UNL A   1      34.219  21.280  26.536  1.00  0.00     0.026 A 
ATOM     18  C   UNL A   1      32.453  22.473  25.412  1.00  0.00     0.040 A 
ATOM     19  C   UNL A   1      34.115  22.144  27.629  1.00  0.00     0.003 A 
ATOM     20  C   UNL A   1      33.099  23.096  27.660  1.00  0.00     0.014 A 
BRANCH  16  21
ATOM     21  N   UNL A   1      33.333  20.378  24.488  1.00  0.00    -0.326 N 
ATOM     22  O   UNL A   1      32.014  21.266  22.785  1.00  0.00    -0.274 OA
ATOM     23  C   UNL A   1      32.526  20.309  23.361  1.00  0.00     0.228 C 
ATOM     24  H   UNL A   1      33.940  19.619  24.645  1.00  0.00     0.169 HD
BRANCH  23  25
ATOM     25  C   UNL A   1      32.195  18.889  22.928  1.00  0.00     0.135 C 
BRANCH  25  26
ATOM     26  C   UNL A   1      32.805  17.815  23.790  1.00  0.00    -0.039 A 
ATOM     27  C   UNL A   1      32.163  17.406  24.967  1.00  0.00     0.004 A 
ATOM     28  C   UNL A   1      34.018  17.215  23.425  1.00  0.00     0.004 A 
ATOM     29  C   UNL A   1      32.714  16.395  25.752  1.00  0.00     0.000 A 
ATOM     30  C   UNL A   1      34.568  16.207  24.217  1.00  0.00     0.000 A 
ATOM     31  C   UNL A   1      33.913  15.795  25.376  1.00  0.00     0.000 A 
ENDBRANCH  25  26
ENDBRANCH  23  25
ENDBRANCH  16  21
ENDBRANCH  12  15
ENDBRANCH   6  11
ENDBRANCH   3   5
ENDBRANCH   2   3
ENDBRANCH   1   2
BRANCH   1  32
ATOM     32  C   UNL A   1      29.588  29.737  23.404  1.00  0.00     0.202 C 
BRANCH  32  33
ATOM     33  O   UNL A   1      30.862  30.031  23.959  1.00  0.00    -0.374 OA
BRANCH  33  34
ATOM     34  C   UNL A   1      31.016  29.971  25.373  1.00  0.00     0.202 C 
BRANCH  34  35
ATOM     35  C   UNL A   1      31.539  31.216  26.102  1.00  0.00     0.261 C 
BRANCH  35  36
ATOM     36  O   UNL A   1      32.491  30.926  27.144  1.00  0.00    -0.460 OA
BRANCH  36  37
ATOM     37  C   UNL A   1      33.300  31.958  27.471  1.00  0.00     0.338 C 
ATOM     38  O   UNL A   1      32.994  33.143  27.571  1.00  0.00    -0.246 OA
BRANCH  37  39
ATOM     39  C   UNL A   1      34.644  31.488  27.835  1.00  0.00     0.060 A 
ATOM     40  C   UNL A   1      34.804  30.139  28.180  1.00  0.00     0.016 A 
ATOM     41  C   UNL A   1      35.686  32.398  28.023  1.00  0.00     0.016 A 
ATOM     42  C   UNL A   1      35.991  29.705  28.767  1.00  0.00     0.010 A 
ATOM     43  C   UNL A   1      36.872  31.963  28.622  1.00  0.00     0.010 A 
ATOM     44  C   UNL A   1      37.012  30.626  29.035  1.00  0.00    -0.014 A 
BRANCH  44  45
ATOM     45  C   UNL A   1      38.156  30.226  29.891  1.00  0.00     0.031 A 
ATOM     46  C   UNL A   1      39.184  29.274  29.343  1.00  0.00     0.074 A 
ATOM     47  C   UNL A   1      38.291  30.722  31.132  1.00  0.00     0.049 A 
ATOM     48  N   UNL A   1      40.231  28.751  29.929  1.00  0.00    -0.248 NA
ATOM     49  C   UNL A   1      39.007  28.855  27.943  1.00  0.00     0.031 C 
ATOM     50  C   UNL A   1      37.384  31.680  31.760  1.00  0.00     0.029 A 
ATOM     51  N   UNL A   1      39.243  30.475  32.090  1.00  0.00    -0.354 N 
ATOM     52  C   UNL A   1      40.832  27.940  28.975  1.00  0.00     0.074 A 
ATOM     53  C   UNL A   1      40.022  28.020  27.778  1.00  0.00     0.031 C 
ATOM     54  C   UNL A   1      37.821  31.937  33.005  1.00  0.00     0.029 A 
ATOM     55  C   UNL A   1      39.014  31.136  33.271  1.00  0.00     0.049 A 
ATOM     56  H   UNL A   1      40.015  29.883  31.943  1.00  0.00     0.167 HD
ATOM     57  C   UNL A   1      41.961  27.199  29.086  1.00  0.00     0.037 A 
ATOM     58  C   UNL A   1      39.681  31.077  34.440  1.00  0.00     0.037 A 
ATOM     59  C   UNL A   1      42.766  27.118  30.276  1.00  0.00     0.049 A 
ATOM     60  C   UNL A   1      40.892  30.189  34.560  1.00  0.00     0.074 A 
ATOM     61  C   UNL A   1      43.932  26.401  30.484  1.00  0.00     0.029 A 
ATOM     62  N   UNL A   1      42.484  27.775  31.464  1.00  0.00    -0.354 N 
ATOM     63  N   UNL A   1      41.459  29.432  33.653  1.00  0.00    -0.248 NA
ATOM     64  C   UNL A   1      41.552  30.145  35.873  1.00  0.00     0.031 C 
ATOM     65  C   UNL A   1      44.333  26.593  31.811  1.00  0.00     0.029 A 
ATOM     66  C   UNL A   1      43.441  27.463  32.416  1.00  0.00     0.049 A 
ATOM     67  H   UNL A   1      41.716  28.373  31.610  1.00  0.00     0.167 HD
ATOM     68  C   UNL A   1      42.552  28.842  34.275  1.00  0.00     0.074 A 
ATOM     69  C   UNL A   1      42.576  29.337  35.635  1.00  0.00     0.031 C 
ATOM     70  C   UNL A   1      43.454  27.969  33.764  1.00  0.00     0.037 A 
BRANCH  57  71
ATOM     71  C   UNL A   1      42.382  26.398  27.890  1.00  0.00     0.064 A 
ATOM     72  C   UNL A   1      43.319  26.888  26.970  1.00  0.00     0.173 A 
ATOM     73  C   UNL A   1      41.868  25.108  27.684  1.00  0.00     0.173 A 
ATOM     74  F   UNL A   1      43.829  28.120  27.117  1.00  0.00    -0.203 F 
ATOM     75  C   UNL A   1      43.711  26.124  25.873  1.00  0.00     0.198 A 
ATOM     76  C   UNL A   1      42.281  24.339  26.599  1.00  0.00     0.198 A 
ATOM     77  F   UNL A   1      40.972  24.591  28.538  1.00  0.00    -0.203 F 
ATOM     78  F   UNL A   1      44.580  26.627  24.985  1.00  0.00    -0.200 F 
ATOM     79  C   UNL A   1      43.197  24.849  25.693  1.00  0.00     0.200 A 
ATOM     80  F   UNL A   1      41.791  23.103  26.432  1.00  0.00    -0.200 F 
ATOM     81  F   UNL A   1      43.581  24.113  24.640  1.00  0.00    -0.200 F 
ENDBRANCH  57  71
BRANCH  58  82
ATOM     82  C   UNL A   1      39.211  31.878  35.598  1.00  0.00     0.064 A 
ATOM     83  C   UNL A   1      39.649  33.194  35.788  1.00  0.00     0.173 A 
ATOM     84  C   UNL A   1      38.325  31.338  36.542  1.00  0.00     0.173 A 
ATOM     85  F   UNL A   1      40.520  33.742  34.928  1.00  0.00    -0.203 F 
ATOM     86  C   UNL A   1      39.226  33.939  36.888  1.00  0.00     0.198 A 
ATOM     87  C   UNL A   1      37.884  32.092  37.627  1.00  0.00     0.198 A 
ATOM     88  F   UNL A   1      37.886  30.078  36.408  1.00  0.00    -0.203 F 
ATOM     89  F   UNL A   1      39.693  35.182  37.071  1.00  0.00    -0.200 F 
ATOM     90  C   UNL A   1      38.340  33.390  37.802  1.00  0.00     0.200 A 
ATOM     91  F   UNL A   1      37.025  31.559  38.506  1.00  0.00    -0.200 F 
ATOM     92  F   UNL A   1      37.935  34.107  38.859  1.00  0.00    -0.200 F 
ENDBRANCH  58  82
BRANCH  70  93
ATOM     93  C   UNL A   1      44.564  27.517  34.667  1.00  0.00     0.064 A 
ATOM     94  C   UNL A   1      45.765  28.233  34.770  1.00  0.00     0.173 A 
ATOM     95  C   UNL A   1      44.403  26.380  35.475  1.00  0.00     0.173 A 
ATOM     96  F   UNL A   1      45.971  29.317  34.008  1.00  0.00    -0.203 F 
ATOM     97  C   UNL A   1      46.775  27.815  35.632  1.00  0.00     0.198 A 
ATOM     98  C   UNL A   1      45.404  25.980  36.355  1.00  0.00     0.198 A 
ATOM     99  F   UNL A   1      43.269  25.666  35.419  1.00  0.00    -0.203 F 
ATOM    100  F   UNL A   1      47.931  28.491  35.685  1.00  0.00    -0.200 F 
ATOM    101  C   UNL A   1      46.591  26.694  36.430  1.00  0.00     0.200 A 
ATOM    102  F   UNL A   1      45.221  24.904  37.132  1.00  0.00    -0.200 F 
ATOM    103  F   UNL A   1      47.562  26.298  37.264  1.00  0.00    -0.200 F 
ENDBRANCH  70  93
ENDBRANCH  44  45
ENDBRANCH  37  39
ENDBRANCH  36  37
ENDBRANCH  35  36
ENDBRANCH  34  35
ENDBRANCH  33  34
ENDBRANCH  32  33
ENDBRANCH   1  32
TORSDOF 19
ENDMDL
MODEL 2
REMARK VINA RESULT:     -12.6      0.465      7.096
REMARK SMILES O=C(Cc1ccccc1)Nc1cccc(C(=O)Nc2ccccc2C(=O)OCCOCCOC(=O)c2ccc(-c3c4nc(c(-c5c(F)c(F)c(F)c(F)c5F)c5ccc([nH]5)c(-c5c(F)c(F)c(F)c(F)c5F)c5nc(c(-c6c(F)c(F)c(F)c(F)c6F)c6ccc3[nH]6)C=C5)C=C4)cc2)c1
REMARK SMILES IDX 28 1 27 2 25 3 26 4 24 5 19 6 20 7 21 8 23 9 22 10 18 11
REMARK SMILES IDX 16 12 17 13 15 15 11 16 12 17 99 18 13 19 14 20 10 21 1 22
REMARK SMILES IDX 2 23 3 25 4 26 5 27 9 28 6 29 8 30 7 31 29 32 30 33 31 34
REMARK SMILES IDX 32 35 33 36 34 37 35 38 36 39 37 40 98 41 38 42 97 43 39 44
REMARK SMILES IDX 40 45 41 46 91 47 42 48 96 49 90 50 92 51 43 52 95 53 89 54
REMARK SMILES IDX 88 55 44 57 76 58 56 59 75 60 57 61 60 62 74 63 93 64 58 65
REMARK SMILES IDX 59 66 73 68 94 69 61 70 45 71 46 72 54 73 47 74 48 75 52 76
REMARK SMILES IDX 55 77 49 78 50 79 53 80 51 81 77 82 78 83 86 84 79 85 80 86
REMARK SMILES IDX 84 87 87 88 81 89 82 90 85 91 83 92 62 93 63 94 71 95 64 96
REMARK SMILES IDX 65 97 69 98 72 99 66 100 67 101 70 102 68 103
REMARK H PARENT 18 14 10 24 92 56 60 67
REMARK Flexibility Score: inf
ROOT
ATOM      1  C   UNL A   1      29.264  28.210  23.152  1.00  0.00     0.261 C 
ENDROOT
BRANCH   1   2
ATOM      2  O   UNL A   1      30.332  27.431  22.588  1.00  0.00    -0.460 OA
BRANCH   2   3
ATOM      3  C   UNL A   1      30.673  26.344  23.327  1.00  0.00     0.340 C 
ATOM      4  O   UNL A   1      30.240  25.209  23.167  1.00  0.00    -0.246 OA
BRANCH   3   5
ATOM      5  C   UNL A   1      31.780  26.620  24.276  1.00  0.00     0.083 A 
ATOM      6  C   UNL A   1      31.882  26.227  25.624  1.00  0.00     0.056 A 
ATOM      7  C   UNL A   1      33.000  26.684  26.356  1.00  0.00     0.027 A 
ATOM      8  C   UNL A   1      34.026  27.426  25.760  1.00  0.00     0.002 A 
ATOM      9  C   UNL A   1      32.820  27.385  23.693  1.00  0.00     0.018 A 
ATOM     10  C   UNL A   1      33.940  27.771  24.422  1.00  0.00     0.001 A 
BRANCH   6  11
ATOM     11  N   UNL A   1      31.028  25.388  26.379  1.00  0.00    -0.321 N 
ATOM     12  C   UNL A   1      31.040  24.056  26.731  1.00  0.00     0.255 C 
ATOM     13  O   UNL A   1      30.032  23.567  27.243  1.00  0.00    -0.269 OA
ATOM     14  H   UNL A   1      30.245  25.866  26.735  1.00  0.00     0.170 HD
BRANCH  12  15
ATOM     15  C   UNL A   1      32.240  23.202  26.583  1.00  0.00     0.042 A 
ATOM     16  C   UNL A   1      33.371  21.403  25.449  1.00  0.00     0.041 A 
ATOM     17  C   UNL A   1      34.221  21.259  26.554  1.00  0.00     0.026 A 
ATOM     18  C   UNL A   1      32.462  22.457  25.425  1.00  0.00     0.040 A 
ATOM     19  C   UNL A   1      34.124  22.130  27.642  1.00  0.00     0.003 A 
ATOM     20  C   UNL A   1      33.115  23.090  27.668  1.00  0.00     0.014 A 
BRANCH  16  21
ATOM     21  N   UNL A   1      33.325  20.350  24.513  1.00  0.00    -0.326 N 
ATOM     22  O   UNL A   1      32.036  21.247  22.793  1.00  0.00    -0.274 OA
ATOM     23  C   UNL A   1      32.528  20.286  23.380  1.00  0.00     0.228 C 
ATOM     24  H   UNL A   1      33.919  19.582  24.681  1.00  0.00     0.169 HD
BRANCH  23  25
ATOM     25  C   UNL A   1      32.177  18.868  22.954  1.00  0.00     0.135 C 
BRANCH  25  26
ATOM     26  C   UNL A   1      32.797  17.790  23.803  1.00  0.00    -0.039 A 
ATOM     27  C   UNL A   1      32.159  17.362  24.976  1.00  0.00     0.004 A 
ATOM     28  C   UNL A   1      34.014  17.204  23.430  1.00  0.00     0.004 A 
ATOM     29  C   UNL A   1      32.719  16.347  25.748  1.00  0.00     0.000 A 
ATOM     30  C   UNL A   1      34.573  16.191  24.210  1.00  0.00     0.000 A 
ATOM     31  C   UNL A   1      33.923  15.761  25.365  1.00  0.00     0.000 A 
ENDBRANCH  25  26
ENDBRANCH  23  25
ENDBRANCH  16  21
ENDBRANCH  12  15
ENDBRANCH   6  11
ENDBRANCH   3   5
ENDBRANCH   2   3
ENDBRANCH   1   2
BRANCH   1  32
ATOM     32  C   UNL A   1      29.617  29.675  23.428  1.00  0.00     0.202 C 
BRANCH  32  33
ATOM     33  O   UNL A   1      30.889  29.966  23.990  1.00  0.00    -0.374 OA
BRANCH  33  34
ATOM     34  C   UNL A   1      31.030  29.927  25.406  1.00  0.00     0.202 C 
BRANCH  34  35
ATOM     35  C   UNL A   1      31.629  31.151  26.112  1.00  0.00     0.261 C 
BRANCH  35  36
ATOM     36  O   UNL A   1      32.583  30.823  27.141  1.00  0.00    -0.460 OA
BRANCH  36  37
ATOM     37  C   UNL A   1      33.423  31.829  27.472  1.00  0.00     0.338 C 
ATOM     38  O   UNL A   1      33.141  33.014  27.626  1.00  0.00    -0.246 OA
BRANCH  37  39
ATOM     39  C   UNL A   1      34.771  31.325  27.767  1.00  0.00     0.060 A 
ATOM     40  C   UNL A   1      34.929  29.952  28.000  1.00  0.00     0.016 A 
ATOM     41  C   UNL A   1      35.823  32.212  28.002  1.00  0.00     0.016 A 
ATOM     42  C   UNL A   1      36.126  29.467  28.523  1.00  0.00     0.010 A 
ATOM     43  C   UNL A   1      37.019  31.724  28.537  1.00  0.00     0.010 A 
ATOM     44  C   UNL A   1      37.160  30.358  28.840  1.00  0.00    -0.014 A 
BRANCH  44  45
ATOM     45  C   UNL A   1      38.320  29.885  29.635  1.00  0.00     0.031 A 
ATOM     46  C   UNL A   1      38.513  30.408  31.032  1.00  0.00     0.074 A 
ATOM     47  C   UNL A   1      39.176  28.983  29.128  1.00  0.00     0.049 A 
ATOM     48  N   UNL A   1      39.480  30.172  31.883  1.00  0.00    -0.248 NA
ATOM     49  C   UNL A   1      37.475  31.320  31.539  1.00  0.00     0.031 C 
ATOM     50  C   UNL A   1      39.073  28.373  27.804  1.00  0.00     0.029 A 
ATOM     51  N   UNL A   1      40.311  28.432  29.669  1.00  0.00    -0.354 N 
ATOM     52  C   UNL A   1      39.171  30.910  33.019  1.00  0.00     0.074 A 
ATOM     53  C   UNL A   1      37.940  31.618  32.743  1.00  0.00     0.031 C 
ATOM     54  C   UNL A   1      40.109  27.533  27.632  1.00  0.00     0.029 A 
ATOM     55  C   UNL A   1      40.963  27.576  28.818  1.00  0.00     0.049 A 
ATOM     56  H   UNL A   1      40.625  28.630  30.581  1.00  0.00     0.167 HD
ATOM     57  C   UNL A   1      39.851  30.983  34.188  1.00  0.00     0.037 A 
ATOM     58  C   UNL A   1      42.130  26.921  28.973  1.00  0.00     0.037 A 
ATOM     59  C   UNL A   1      41.076  30.280  34.462  1.00  0.00     0.049 A 
ATOM     60  C   UNL A   1      42.905  27.078  30.255  1.00  0.00     0.074 A 
ATOM     61  C   UNL A   1      41.835  30.284  35.620  1.00  0.00     0.029 A 
ATOM     62  N   UNL A   1      41.725  29.448  33.562  1.00  0.00    -0.354 N 
ATOM     63  N   UNL A   1      42.604  27.769  31.327  1.00  0.00    -0.248 NA
ATOM     64  C   UNL A   1      44.188  26.365  30.345  1.00  0.00     0.031 C 
ATOM     65  C   UNL A   1      42.964  29.486  35.406  1.00  0.00     0.029 A 
ATOM     66  C   UNL A   1      42.886  28.950  34.130  1.00  0.00     0.049 A 
ATOM     67  H   UNL A   1      41.407  29.242  32.654  1.00  0.00     0.167 HD
ATOM     68  C   UNL A   1      43.642  27.556  32.224  1.00  0.00     0.074 A 
ATOM     69  C   UNL A   1      44.578  26.662  31.576  1.00  0.00     0.031 C 
ATOM     70  C   UNL A   1      43.804  28.056  33.474  1.00  0.00     0.037 A 
BRANCH  57  71
ATOM     71  C   UNL A   1      39.293  31.877  35.256  1.00  0.00     0.064 A 
ATOM     72  C   UNL A   1      38.485  31.375  36.285  1.00  0.00     0.173 A 
ATOM     73  C   UNL A   1      39.602  33.245  35.269  1.00  0.00     0.173 A 
ATOM     74  F   UNL A   1      38.151  30.075  36.309  1.00  0.00    -0.203 F 
ATOM     75  C   UNL A   1      37.987  32.214  37.279  1.00  0.00     0.198 A 
ATOM     76  C   UNL A   1      39.123  34.077  36.278  1.00  0.00     0.198 A 
ATOM     77  F   UNL A   1      40.376  33.774  34.310  1.00  0.00    -0.203 F 
ATOM     78  F   UNL A   1      37.186  31.721  38.233  1.00  0.00    -0.200 F 
ATOM     79  C   UNL A   1      38.312  33.563  37.278  1.00  0.00     0.200 A 
ATOM     80  F   UNL A   1      39.445  35.378  36.282  1.00  0.00    -0.200 F 
ATOM     81  F   UNL A   1      37.838  34.368  38.239  1.00  0.00    -0.200 F 
ENDBRANCH  57  71
BRANCH  58  82
ATOM     82  C   UNL A   1      42.646  26.065  27.876  1.00  0.00     0.064 A 
ATOM     83  C   UNL A   1      42.250  24.726  27.761  1.00  0.00     0.173 A 
ATOM     84  C   UNL A   1      43.553  26.563  26.930  1.00  0.00     0.173 A 
ATOM     85  F   UNL A   1      41.408  24.197  28.661  1.00  0.00    -0.203 F 
ATOM     86  C   UNL A   1      42.752  23.914  26.746  1.00  0.00     0.198 A 
ATOM     87  C   UNL A   1      44.035  25.757  25.901  1.00  0.00     0.198 A 
ATOM     88  F   UNL A   1      43.970  27.836  27.005  1.00  0.00    -0.203 F 
ATOM     89  F   UNL A   1      42.390  22.625  26.683  1.00  0.00    -0.200 F 
ATOM     90  C   UNL A   1      43.638  24.431  25.814  1.00  0.00     0.200 A 
ATOM     91  F   UNL A   1      44.888  26.262  25.000  1.00  0.00    -0.200 F 
ATOM     92  F   UNL A   1      44.119  23.649  24.838  1.00  0.00    -0.200 F 
ENDBRANCH  58  82
BRANCH  70  93
ATOM     93  C   UNL A   1      45.022  27.624  34.236  1.00  0.00     0.064 A 
ATOM     94  C   UNL A   1      45.017  26.475  35.039  1.00  0.00     0.173 A 
ATOM     95  C   UNL A   1      46.222  28.344  34.124  1.00  0.00     0.173 A 
ATOM     96  F   UNL A   1      43.890  25.763  35.189  1.00  0.00    -0.203 F 
ATOM     97  C   UNL A   1      46.162  26.072  35.719  1.00  0.00     0.198 A 
ATOM     98  C   UNL A   1      47.373  27.924  34.785  1.00  0.00     0.198 A 
ATOM     99  F   UNL A   1      46.281  29.446  33.362  1.00  0.00    -0.203 F 
ATOM    100  F   UNL A   1      46.124  24.993  36.513  1.00  0.00    -0.200 F 
ATOM    101  C   UNL A   1      47.341  26.792  35.586  1.00  0.00     0.200 A 
ATOM    102  F   UNL A   1      48.513  28.615  34.647  1.00  0.00    -0.200 F 
ATOM    103  F   UNL A   1      48.445  26.399  36.236  1.00  0.00    -0.200 F 
ENDBRANCH  70  93
ENDBRANCH  44  45
ENDBRANCH  37  39
ENDBRANCH  36  37
ENDBRANCH  35  36
ENDBRANCH  34  35
ENDBRANCH  33  34
ENDBRANCH  32  33
ENDBRANCH   1  32
TORSDOF 19
ENDMDL
MODEL 3
REMARK VINA RESULT:     -12.3      2.289      7.632
REMARK SMILES O=C(Cc1ccccc1)Nc1cccc(C(=O)Nc2ccccc2C(=O)OCCOCCOC(=O)c2ccc(-c3c4nc(c(-c5c(F)c(F)c(F)c(F)c5F)c5ccc([nH]5)c(-c5c(F)c(F)c(F)c(F)c5F)c5nc(c(-c6c(F)c(F)c(F)c(F)c6F)c6ccc3[nH]6)C=C5)C=C4)cc2)c1
REMARK SMILES IDX 28 1 27 2 25 3 26 4 24 5 19 6 20 7 21 8 23 9 22 10 18 11
REMARK SMILES IDX 16 12 17 13 15 15 11 16 12 17 99 18 13 19 14 20 10 21 1 22
REMARK SMILES IDX 2 23 3 25 4 26 5 27 9 28 6 29 8 30 7 31 29 32 30 33 31 34
REMARK SMILES IDX 32 35 33 36 34 37 35 38 36 39 37 40 98 41 38 42 97 43 39 44
REMARK SMILES IDX 40 45 41 46 91 47 42 48 96 49 90 50 92 51 43 52 95 53 89 54
REMARK SMILES IDX 88 55 44 57 76 58 56 59 75 60 57 61 60 62 74 63 93 64 58 65
REMARK SMILES IDX 59 66 73 68 94 69 61 70 45 71 46 72 54 73 47 74 48 75 52 76
REMARK SMILES IDX 55 77 49 78 50 79 53 80 51 81 77 82 78 83 86 84 79 85 80 86
REMARK SMILES IDX 84 87 87 88 81 89 82 90 85 91 83 92 62 93 63 94 71 95 64 96
REMARK SMILES IDX 65 97 69 98 72 99 66 100 67 101 70 102 68 103
REMARK H PARENT 18 14 10 24 92 56 60 67
REMARK Flexibility Score: inf
ROOT
ATOM      1  C   UNL A   1      33.649  30.494  27.855  1.00  0.00     0.261 C 
ENDROOT
BRANCH   1   2
ATOM      2  O   UNL A   1      33.247  30.152  26.518  1.00  0.00    -0.460 OA
BRANCH   2   3
ATOM      3  C   UNL A   1      33.233  28.818  26.269  1.00  0.00     0.340 C 
ATOM      4  O   UNL A   1      34.002  27.995  26.751  1.00  0.00    -0.246 OA
BRANCH   3   5
ATOM      5  C   UNL A   1      32.062  28.397  25.460  1.00  0.00     0.083 A 
ATOM      6  C   UNL A   1      31.321  27.204  25.567  1.00  0.00     0.056 A 
ATOM      7  C   UNL A   1      30.293  26.987  24.623  1.00  0.00     0.027 A 
ATOM      8  C   UNL A   1      29.947  27.946  23.666  1.00  0.00     0.002 A 
ATOM      9  C   UNL A   1      31.709  29.351  24.475  1.00  0.00     0.018 A 
ATOM     10  C   UNL A   1      30.651  29.136  23.597  1.00  0.00     0.001 A 
BRANCH   6  11
ATOM     11  N   UNL A   1      31.426  26.168  26.525  1.00  0.00    -0.321 N 
ATOM     12  C   UNL A   1      31.844  24.855  26.491  1.00  0.00     0.255 C 
ATOM     13  O   UNL A   1      31.629  24.137  27.470  1.00  0.00    -0.269 OA
ATOM     14  H   UNL A   1      31.135  26.449  27.422  1.00  0.00     0.170 HD
BRANCH  12  15
ATOM     15  C   UNL A   1      32.603  24.287  25.355  1.00  0.00     0.042 A 
ATOM     16  C   UNL A   1      32.892  22.530  23.733  1.00  0.00     0.041 A 
ATOM     17  C   UNL A   1      34.228  22.919  23.569  1.00  0.00     0.026 A 
ATOM     18  C   UNL A   1      32.055  23.297  24.539  1.00  0.00     0.040 A 
ATOM     19  C   UNL A   1      34.730  24.033  24.246  1.00  0.00     0.003 A 
ATOM     20  C   UNL A   1      33.923  24.704  25.161  1.00  0.00     0.014 A 
BRANCH  16  21
ATOM     21  N   UNL A   1      32.512  21.261  23.248  1.00  0.00    -0.326 N 
ATOM     22  O   UNL A   1      32.151  20.051  25.206  1.00  0.00    -0.274 OA
ATOM     23  C   UNL A   1      32.362  20.103  23.996  1.00  0.00     0.228 C 
ATOM     24  H   UNL A   1      32.336  21.191  22.282  1.00  0.00     0.169 HD
BRANCH  23  25
ATOM     25  C   UNL A   1      32.609  18.825  23.207  1.00  0.00     0.135 C 
BRANCH  25  26
ATOM     26  C   UNL A   1      33.380  17.770  23.955  1.00  0.00    -0.039 A 
ATOM     27  C   UNL A   1      34.727  17.977  24.280  1.00  0.00     0.004 A 
ATOM     28  C   UNL A   1      32.759  16.571  24.333  1.00  0.00     0.004 A 
ATOM     29  C   UNL A   1      35.434  17.012  24.994  1.00  0.00     0.000 A 
ATOM     30  C   UNL A   1      33.472  15.605  25.042  1.00  0.00     0.000 A 
ATOM     31  C   UNL A   1      34.807  15.828  25.376  1.00  0.00     0.000 A 
ENDBRANCH  25  26
ENDBRANCH  23  25
ENDBRANCH  16  21
ENDBRANCH  12  15
ENDBRANCH   6  11
ENDBRANCH   3   5
ENDBRANCH   2   3
ENDBRANCH   1   2
BRANCH   1  32
ATOM     32  C   UNL A   1      34.391  31.829  27.977  1.00  0.00     0.202 C 
BRANCH  32  33
ATOM     33  O   UNL A   1      33.664  33.028  27.750  1.00  0.00    -0.374 OA
BRANCH  33  34
ATOM     34  C   UNL A   1      34.236  34.259  28.178  1.00  0.00     0.202 C 
BRANCH  34  35
ATOM     35  C   UNL A   1      33.303  35.339  28.742  1.00  0.00     0.261 C 
BRANCH  35  36
ATOM     36  O   UNL A   1      32.556  34.918  29.901  1.00  0.00    -0.460 OA
BRANCH  36  37
ATOM     37  C   UNL A   1      32.818  35.621  31.025  1.00  0.00     0.338 C 
ATOM     38  O   UNL A   1      32.264  36.649  31.407  1.00  0.00    -0.246 OA
BRANCH  37  39
ATOM     39  C   UNL A   1      33.810  34.937  31.865  1.00  0.00     0.060 A 
ATOM     40  C   UNL A   1      34.960  35.643  32.242  1.00  0.00     0.016 A 
ATOM     41  C   UNL A   1      33.703  33.567  32.113  1.00  0.00     0.016 A 
ATOM     42  C   UNL A   1      36.034  34.970  32.819  1.00  0.00     0.010 A 
ATOM     43  C   UNL A   1      34.786  32.891  32.683  1.00  0.00     0.010 A 
ATOM     44  C   UNL A   1      35.971  33.581  32.998  1.00  0.00    -0.014 A 
BRANCH  44  45
ATOM     45  C   UNL A   1      37.198  32.830  33.362  1.00  0.00     0.031 A 
ATOM     46  C   UNL A   1      37.878  33.128  34.671  1.00  0.00     0.074 A 
ATOM     47  C   UNL A   1      37.686  31.880  32.549  1.00  0.00     0.049 A 
ATOM     48  N   UNL A   1      38.984  32.632  35.165  1.00  0.00    -0.248 NA
ATOM     49  C   UNL A   1      37.220  34.117  35.540  1.00  0.00     0.031 C 
ATOM     50  C   UNL A   1      37.096  31.474  31.276  1.00  0.00     0.029 A 
ATOM     51  N   UNL A   1      38.802  31.090  32.673  1.00  0.00    -0.354 N 
ATOM     52  C   UNL A   1      39.158  33.252  36.396  1.00  0.00     0.074 A 
ATOM     53  C   UNL A   1      38.057  34.176  36.565  1.00  0.00     0.031 C 
ATOM     54  C   UNL A   1      37.860  30.512  30.730  1.00  0.00     0.029 A 
ATOM     55  C   UNL A   1      39.009  30.262  31.599  1.00  0.00     0.049 A 
ATOM     56  H   UNL A   1      39.396  31.115  33.459  1.00  0.00     0.167 HD
ATOM     57  C   UNL A   1      40.145  33.063  37.305  1.00  0.00     0.037 A 
ATOM     58  C   UNL A   1      40.026  29.418  31.339  1.00  0.00     0.037 A 
ATOM     59  C   UNL A   1      41.240  32.146  37.136  1.00  0.00     0.049 A 
ATOM     60  C   UNL A   1      41.150  29.280  32.333  1.00  0.00     0.074 A 
ATOM     61  C   UNL A   1      42.285  31.877  38.005  1.00  0.00     0.029 A 
ATOM     62  N   UNL A   1      41.435  31.348  36.019  1.00  0.00    -0.354 N 
ATOM     63  N   UNL A   1      41.304  29.862  33.497  1.00  0.00    -0.248 NA
ATOM     64  C   UNL A   1      42.246  28.368  31.971  1.00  0.00     0.031 C 
ATOM     65  C   UNL A   1      43.133  30.947  37.394  1.00  0.00     0.029 A 
ATOM     66  C   UNL A   1      42.593  30.604  36.165  1.00  0.00     0.049 A 
ATOM     67  H   UNL A   1      40.838  31.317  35.237  1.00  0.00     0.167 HD
ATOM     68  C   UNL A   1      42.495  29.372  34.015  1.00  0.00     0.074 A 
ATOM     69  C   UNL A   1      43.020  28.435  33.044  1.00  0.00     0.031 C 
ATOM     70  C   UNL A   1      43.099  29.671  35.192  1.00  0.00     0.037 A 
BRANCH  57  71
ATOM     71  C   UNL A   1      40.095  33.884  38.559  1.00  0.00     0.064 A 
ATOM     72  C   UNL A   1      40.796  35.092  38.675  1.00  0.00     0.173 A 
ATOM     73  C   UNL A   1      39.304  33.475  39.644  1.00  0.00     0.173 A 
ATOM     74  F   UNL A   1      41.575  35.520  37.669  1.00  0.00    -0.203 F 
ATOM     75  C   UNL A   1      40.726  35.852  39.840  1.00  0.00     0.198 A 
ATOM     76  C   UNL A   1      39.218  34.249  40.798  1.00  0.00     0.198 A 
ATOM     77  F   UNL A   1      38.610  32.329  39.582  1.00  0.00    -0.203 F 
ATOM     78  F   UNL A   1      41.435  36.985  39.944  1.00  0.00    -0.200 F 
ATOM     79  C   UNL A   1      39.932  35.433  40.898  1.00  0.00     0.200 A 
ATOM     80  F   UNL A   1      38.443  33.849  41.815  1.00  0.00    -0.200 F 
ATOM     81  F   UNL A   1      39.862  36.169  42.016  1.00  0.00    -0.200 F 
ENDBRANCH  57  71
BRANCH  58  82
ATOM     82  C   UNL A   1      40.035  28.643  30.073  1.00  0.00     0.064 A 
ATOM     83  C   UNL A   1      40.623  29.165  28.914  1.00  0.00     0.173 A 
ATOM     84  C   UNL A   1      39.446  27.373  29.995  1.00  0.00     0.173 A 
ATOM     85  F   UNL A   1      41.171  30.389  28.932  1.00  0.00    -0.203 F 
ATOM     86  C   UNL A   1      40.611  28.449  27.718  1.00  0.00     0.198 A 
ATOM     87  C   UNL A   1      39.457  26.647  28.806  1.00  0.00     0.198 A 
ATOM     88  F   UNL A   1      38.862  26.836  31.076  1.00  0.00    -0.203 F 
ATOM     89  F   UNL A   1      41.142  28.988  26.612  1.00  0.00    -0.200 F 
ATOM     90  C   UNL A   1      40.034  27.188  27.667  1.00  0.00     0.200 A 
ATOM     91  F   UNL A   1      38.902  25.429  28.761  1.00  0.00    -0.200 F 
ATOM     92  F   UNL A   1      40.024  26.501  26.517  1.00  0.00    -0.200 F 
ENDBRANCH  58  82
BRANCH  70  93
ATOM     93  C   UNL A   1      44.379  28.956  35.510  1.00  0.00     0.064 A 
ATOM     94  C   UNL A   1      45.623  29.462  35.107  1.00  0.00     0.173 A 
ATOM     95  C   UNL A   1      44.363  27.774  36.268  1.00  0.00     0.173 A 
ATOM     96  F   UNL A   1      45.689  30.580  34.369  1.00  0.00    -0.203 F 
ATOM     97  C   UNL A   1      46.804  28.801  35.433  1.00  0.00     0.198 A 
ATOM     98  C   UNL A   1      45.547  27.129  36.614  1.00  0.00     0.198 A 
ATOM     99  F   UNL A   1      43.199  27.254  36.683  1.00  0.00    -0.203 F 
ATOM    100  F   UNL A   1      47.979  29.281  35.004  1.00  0.00    -0.200 F 
ATOM    101  C   UNL A   1      46.766  27.639  36.192  1.00  0.00     0.200 A 
ATOM    102  F   UNL A   1      45.509  26.014  37.355  1.00  0.00    -0.200 F 
ATOM    103  F   UNL A   1      47.904  27.008  36.510  1.00  0.00    -0.200 F 
ENDBRANCH  70  93
ENDBRANCH  44  45
ENDBRANCH  37  39
ENDBRANCH  36  37
ENDBRANCH  35  36
ENDBRANCH  34  35
ENDBRANCH  33  34
ENDBRANCH  32  33
ENDBRANCH   1  32
TORSDOF 19
ENDMDL
