MODEL 1
REMARK VINA RESULT:     -12.1      0.000      0.000
REMARK SMILES CN(c1ccc(C(=O)OCCOCCOC(=O)c2ccc(-c3c4nc(c(-c5c(F)c(F)c(F)c(F)c5F)c5ccc([nH]5)c(-c5c(F)c(F)c(F)c(F)c5F)c5nc(c(-c6c(F)c(F)c(F)c(F)c6F)c6ccc3[nH]6)C=C5)C=C4)cc2)c(F)c1F)[C@H]1C[C@H]2CC[C@@H](C1)[NH2+]2
REMARK SMILES IDX 12 1 11 2 10 3 9 4 7 5 8 6 6 7 3 8 4 9 83 10 5 11 81 12
REMARK SMILES IDX 84 13 82 14 2 15 1 16 85 17 86 18 91 19 87 20 90 21 88 22
REMARK SMILES IDX 92 23 89 24 13 27 14 28 15 29 16 30 17 31 18 32 19 33 80 34
REMARK SMILES IDX 20 35 79 36 21 37 22 38 23 39 73 40 24 41 78 42 72 43 74 44
REMARK SMILES IDX 25 45 77 46 71 47 70 48 26 50 58 51 38 52 57 53 39 54 42 55
REMARK SMILES IDX 56 56 75 57 40 58 41 59 55 61 76 62 43 63 27 64 28 65 36 66
REMARK SMILES IDX 29 67 30 68 34 69 37 70 31 71 32 72 35 73 33 74 59 75 60 76
REMARK SMILES IDX 68 77 61 78 62 79 66 80 69 81 63 82 64 83 67 84 65 85 44 86
REMARK SMILES IDX 45 87 53 88 46 89 47 90 51 91 54 92 48 93 49 94 52 95 50 96
REMARK H PARENT 92 25 92 26 74 49 42 60
REMARK Flexibility Score: inf
ROOT
ATOM      1  O   UNL A   1      31.162  29.593  23.749  1.00  0.00    -0.374 OA
ENDROOT
BRANCH   1   2
ATOM      2  C   UNL A   1      29.820  29.846  23.328  1.00  0.00     0.202 C 
BRANCH   2   3
ATOM      3  C   UNL A   1      29.093  28.655  22.702  1.00  0.00     0.261 C 
BRANCH   3   4
ATOM      4  O   UNL A   1      29.826  27.440  22.932  1.00  0.00    -0.460 OA
BRANCH   4   5
ATOM      5  C   UNL A   1      29.209  26.536  23.726  1.00  0.00     0.341 C 
ATOM      6  O   UNL A   1      28.009  26.413  23.907  1.00  0.00    -0.246 OA
BRANCH   5   7
ATOM      7  C   UNL A   1      30.177  25.539  24.209  1.00  0.00     0.099 A 
ATOM      8  C   UNL A   1      32.021  23.542  24.981  1.00  0.00     0.076 A 
ATOM      9  C   UNL A   1      31.966  24.005  23.655  1.00  0.00     0.030 A 
ATOM     10  C   UNL A   1      31.151  24.145  25.912  1.00  0.00     0.182 A 
ATOM     11  C   UNL A   1      31.045  24.978  23.266  1.00  0.00     0.021 A 
ATOM     12  C   UNL A   1      30.246  25.138  25.535  1.00  0.00     0.175 A 
ATOM     13  F   UNL A   1      31.186  23.773  27.204  1.00  0.00    -0.201 F 
ATOM     14  F   UNL A   1      29.432  25.670  26.460  1.00  0.00    -0.203 F 
BRANCH   8  15
ATOM     15  N   UNL A   1      32.877  22.479  25.306  1.00  0.00    -0.369 N 
ATOM     16  C   UNL A   1      32.590  21.207  24.664  1.00  0.00     0.144 C 
BRANCH  15  17
ATOM     17  C   UNL A   1      33.933  22.708  26.331  1.00  0.00     0.093 C 
ATOM     18  C   UNL A   1      34.889  21.492  26.461  1.00  0.00     0.090 C 
ATOM     19  C   UNL A   1      34.733  24.026  26.217  1.00  0.00     0.090 C 
ATOM     20  C   UNL A   1      36.201  21.634  25.680  1.00  0.00     0.184 C 
ATOM     21  C   UNL A   1      36.092  23.915  25.505  1.00  0.00     0.184 C 
ATOM     22  C   UNL A   1      35.999  21.897  24.189  1.00  0.00     0.071 C 
ATOM     23  N   UNL A   1      36.888  22.852  26.127  1.00  0.00    -0.341 N 
ATOM     24  C   UNL A   1      36.032  23.420  24.066  1.00  0.00     0.071 C 
ATOM     25  H   UNL A   1      37.852  22.872  25.796  1.00  0.00     0.346 HD
ATOM     26  H   UNL A   1      36.950  22.933  27.141  1.00  0.00     0.346 HD
ENDBRANCH  15  17
ENDBRANCH   8  15
ENDBRANCH   5   7
ENDBRANCH   4   5
ENDBRANCH   3   4
ENDBRANCH   2   3
ENDBRANCH   1   2
BRANCH   1  27
ATOM     27  C   UNL A   1      31.377  29.396  25.148  1.00  0.00     0.202 C 
BRANCH  27  28
ATOM     28  C   UNL A   1      31.563  30.670  25.981  1.00  0.00     0.261 C 
BRANCH  28  29
ATOM     29  O   UNL A   1      32.599  30.509  26.966  1.00  0.00    -0.460 OA
BRANCH  29  30
ATOM     30  C   UNL A   1      33.247  31.649  27.307  1.00  0.00     0.338 C 
ATOM     31  O   UNL A   1      32.787  32.774  27.368  1.00  0.00    -0.246 OA
BRANCH  30  32
ATOM     32  C   UNL A   1      34.606  31.322  27.781  1.00  0.00     0.060 A 
ATOM     33  C   UNL A   1      34.893  29.977  28.053  1.00  0.00     0.016 A 
ATOM     34  C   UNL A   1      35.555  32.316  28.023  1.00  0.00     0.016 A 
ATOM     35  C   UNL A   1      36.116  29.626  28.621  1.00  0.00     0.010 A 
ATOM     36  C   UNL A   1      36.776  31.964  28.603  1.00  0.00     0.010 A 
ATOM     37  C   UNL A   1      37.045  30.624  28.938  1.00  0.00    -0.014 A 
BRANCH  37  38
ATOM     38  C   UNL A   1      38.229  30.300  29.767  1.00  0.00     0.031 A 
ATOM     39  C   UNL A   1      39.255  29.350  29.221  1.00  0.00     0.074 A 
ATOM     40  C   UNL A   1      38.383  30.835  30.989  1.00  0.00     0.049 A 
ATOM     41  N   UNL A   1      40.306  28.835  29.804  1.00  0.00    -0.248 NA
ATOM     42  C   UNL A   1      39.062  28.913  27.829  1.00  0.00     0.031 C 
ATOM     43  C   UNL A   1      37.478  31.800  31.605  1.00  0.00     0.029 A 
ATOM     44  N   UNL A   1      39.354  30.624  31.935  1.00  0.00    -0.354 N 
ATOM     45  C   UNL A   1      40.888  28.000  28.859  1.00  0.00     0.074 A 
ATOM     46  C   UNL A   1      40.062  28.060  27.672  1.00  0.00     0.031 C 
ATOM     47  C   UNL A   1      37.926  32.086  32.840  1.00  0.00     0.029 A 
ATOM     48  C   UNL A   1      39.126  31.295  33.109  1.00  0.00     0.049 A 
ATOM     49  H   UNL A   1      40.138  30.047  31.785  1.00  0.00     0.167 HD
ATOM     50  C   UNL A   1      42.012  27.255  28.974  1.00  0.00     0.037 A 
ATOM     51  C   UNL A   1      39.793  31.248  34.279  1.00  0.00     0.037 A 
ATOM     52  C   UNL A   1      42.834  27.209  30.154  1.00  0.00     0.049 A 
ATOM     53  C   UNL A   1      41.005  30.367  34.407  1.00  0.00     0.074 A 
ATOM     54  C   UNL A   1      44.017  26.519  30.355  1.00  0.00     0.029 A 
ATOM     55  N   UNL A   1      42.552  27.876  31.339  1.00  0.00    -0.354 N 
ATOM     56  N   UNL A   1      41.561  29.588  33.509  1.00  0.00    -0.248 NA
ATOM     57  C   UNL A   1      41.681  30.352  35.712  1.00  0.00     0.031 C 
ATOM     58  C   UNL A   1      44.420  26.723  31.679  1.00  0.00     0.029 A 
ATOM     59  C   UNL A   1      43.519  27.584  32.287  1.00  0.00     0.049 A 
ATOM     60  H   UNL A   1      41.779  28.467  31.483  1.00  0.00     0.167 HD
ATOM     61  C   UNL A   1      42.651  28.998  34.134  1.00  0.00     0.074 A 
ATOM     62  C   UNL A   1      42.692  29.523  35.483  1.00  0.00     0.031 C 
ATOM     63  C   UNL A   1      43.535  28.099  33.634  1.00  0.00     0.037 A 
BRANCH  50  64
ATOM     64  C   UNL A   1      42.401  26.402  27.802  1.00  0.00     0.064 A 
ATOM     65  C   UNL A   1      41.842  25.126  27.640  1.00  0.00     0.173 A 
ATOM     66  C   UNL A   1      43.340  26.833  26.852  1.00  0.00     0.173 A 
ATOM     67  F   UNL A   1      40.939  24.665  28.521  1.00  0.00    -0.203 F 
ATOM     68  C   UNL A   1      42.210  24.311  26.574  1.00  0.00     0.198 A 
ATOM     69  C   UNL A   1      43.685  26.026  25.770  1.00  0.00     0.198 A 
ATOM     70  F   UNL A   1      43.892  28.050  26.952  1.00  0.00    -0.203 F 
ATOM     71  F   UNL A   1      41.676  23.087  26.452  1.00  0.00    -0.200 F 
ATOM     72  C   UNL A   1      43.125  24.764  25.636  1.00  0.00     0.200 A 
ATOM     73  F   UNL A   1      44.547  26.476  24.848  1.00  0.00    -0.200 F 
ATOM     74  F   UNL A   1      43.462  23.987  24.597  1.00  0.00    -0.200 F 
ENDBRANCH  50  64
BRANCH  51  75
ATOM     75  C   UNL A   1      39.306  32.065  35.419  1.00  0.00     0.064 A 
ATOM     76  C   UNL A   1      39.694  33.405  35.570  1.00  0.00     0.173 A 
ATOM     77  C   UNL A   1      38.491  31.504  36.409  1.00  0.00     0.173 A 
ATOM     78  F   UNL A   1      40.473  33.986  34.646  1.00  0.00    -0.203 F 
ATOM     79  C   UNL A   1      39.311  34.143  36.687  1.00  0.00     0.198 A 
ATOM     80  C   UNL A   1      38.088  32.250  37.515  1.00  0.00     0.198 A 
ATOM     81  F   UNL A   1      38.074  30.235  36.293  1.00  0.00    -0.203 F 
ATOM     82  F   UNL A   1      39.727  35.408  36.828  1.00  0.00    -0.200 F 
ATOM     83  C   UNL A   1      38.508  33.565  37.659  1.00  0.00     0.200 A 
ATOM     84  F   UNL A   1      37.295  31.695  38.442  1.00  0.00    -0.200 F 
ATOM     85  F   UNL A   1      38.140  34.274  38.735  1.00  0.00    -0.200 F 
ENDBRANCH  51  75
BRANCH  63  86
ATOM     86  C   UNL A   1      44.624  27.614  34.548  1.00  0.00     0.064 A 
ATOM     87  C   UNL A   1      45.855  28.286  34.614  1.00  0.00     0.173 A 
ATOM     88  C   UNL A   1      44.474  26.443  35.305  1.00  0.00     0.173 A 
ATOM     89  F   UNL A   1      46.053  29.406  33.904  1.00  0.00    -0.203 F 
ATOM     90  C   UNL A   1      46.898  27.795  35.394  1.00  0.00     0.198 A 
ATOM     91  C   UNL A   1      45.511  25.971  36.106  1.00  0.00     0.198 A 
ATOM     92  F   UNL A   1      43.313  25.771  35.287  1.00  0.00    -0.203 F 
ATOM     93  F   UNL A   1      48.075  28.435  35.415  1.00  0.00    -0.200 F 
ATOM     94  C   UNL A   1      46.724  26.641  36.142  1.00  0.00     0.200 A 
ATOM     95  F   UNL A   1      45.332  24.869  36.848  1.00  0.00    -0.200 F 
ATOM     96  F   UNL A   1      47.726  26.176  36.901  1.00  0.00    -0.200 F 
ENDBRANCH  63  86
ENDBRANCH  37  38
ENDBRANCH  30  32
ENDBRANCH  29  30
ENDBRANCH  28  29
ENDBRANCH  27  28
ENDBRANCH   1  27
TORSDOF 16
ENDMDL
MODEL 2
REMARK VINA RESULT:     -12.1      4.663      9.743
REMARK SMILES CN(c1ccc(C(=O)OCCOCCOC(=O)c2ccc(-c3c4nc(c(-c5c(F)c(F)c(F)c(F)c5F)c5ccc([nH]5)c(-c5c(F)c(F)c(F)c(F)c5F)c5nc(c(-c6c(F)c(F)c(F)c(F)c6F)c6ccc3[nH]6)C=C5)C=C4)cc2)c(F)c1F)[C@H]1C[C@H]2CC[C@@H](C1)[NH2+]2
REMARK SMILES IDX 12 1 11 2 10 3 9 4 7 5 8 6 6 7 3 8 4 9 83 10 5 11 81 12
REMARK SMILES IDX 84 13 82 14 2 15 1 16 85 17 86 18 91 19 87 20 90 21 88 22
REMARK SMILES IDX 92 23 89 24 13 27 14 28 15 29 16 30 17 31 18 32 19 33 80 34
REMARK SMILES IDX 20 35 79 36 21 37 22 38 23 39 73 40 24 41 78 42 72 43 74 44
REMARK SMILES IDX 25 45 77 46 71 47 70 48 26 50 58 51 38 52 57 53 39 54 42 55
REMARK SMILES IDX 56 56 75 57 40 58 41 59 55 61 76 62 43 63 27 64 28 65 36 66
REMARK SMILES IDX 29 67 30 68 34 69 37 70 31 71 32 72 35 73 33 74 59 75 60 76
REMARK SMILES IDX 68 77 61 78 62 79 66 80 69 81 63 82 64 83 67 84 65 85 44 86
REMARK SMILES IDX 45 87 53 88 46 89 47 90 51 91 54 92 48 93 49 94 52 95 50 96
REMARK H PARENT 92 25 92 26 74 49 42 60
REMARK Flexibility Score: inf
ROOT
ATOM      1  O   UNL A   1      34.687  19.994  24.633  1.00  0.00    -0.374 OA
ENDROOT
BRANCH   1   2
ATOM      2  C   UNL A   1      33.469  19.968  25.378  1.00  0.00     0.202 C 
BRANCH   2   3
ATOM      3  C   UNL A   1      32.236  20.493  24.641  1.00  0.00     0.261 C 
BRANCH   3   4
ATOM      4  O   UNL A   1      32.270  21.929  24.564  1.00  0.00    -0.460 OA
BRANCH   4   5
ATOM      5  C   UNL A   1      32.440  22.436  23.323  1.00  0.00     0.341 C 
ATOM      6  O   UNL A   1      32.518  21.813  22.276  1.00  0.00    -0.246 OA
BRANCH   5   7
ATOM      7  C   UNL A   1      32.311  23.901  23.350  1.00  0.00     0.099 A 
ATOM      8  C   UNL A   1      32.193  26.719  23.521  1.00  0.00     0.076 A 
ATOM      9  C   UNL A   1      33.417  26.036  23.630  1.00  0.00     0.030 A 
ATOM     10  C   UNL A   1      31.040  25.944  23.281  1.00  0.00     0.182 A 
ATOM     11  C   UNL A   1      33.477  24.644  23.563  1.00  0.00     0.021 A 
ATOM     12  C   UNL A   1      31.097  24.552  23.186  1.00  0.00     0.175 A 
ATOM     13  F   UNL A   1      29.847  26.543  23.126  1.00  0.00    -0.201 F 
ATOM     14  F   UNL A   1      29.968  23.862  22.968  1.00  0.00    -0.203 F 
BRANCH   8  15
ATOM     15  N   UNL A   1      32.158  28.108  23.712  1.00  0.00    -0.369 N 
ATOM     16  C   UNL A   1      32.945  28.903  22.783  1.00  0.00     0.144 C 
BRANCH  15  17
ATOM     17  C   UNL A   1      31.406  28.643  24.881  1.00  0.00     0.093 C 
ATOM     18  C   UNL A   1      31.422  27.660  26.082  1.00  0.00     0.090 C 
ATOM     19  C   UNL A   1      31.767  30.076  25.338  1.00  0.00     0.090 C 
ATOM     20  C   UNL A   1      32.480  27.980  27.145  1.00  0.00     0.184 C 
ATOM     21  C   UNL A   1      32.753  30.165  26.516  1.00  0.00     0.184 C 
ATOM     22  C   UNL A   1      33.902  28.046  26.592  1.00  0.00     0.071 C 
ATOM     23  N   UNL A   1      32.264  29.348  27.631  1.00  0.00    -0.341 N 
ATOM     24  C   UNL A   1      34.114  29.525  26.271  1.00  0.00     0.071 C 
ATOM     25  H   UNL A   1      32.800  29.525  28.480  1.00  0.00     0.346 HD
ATOM     26  H   UNL A   1      31.294  29.542  27.879  1.00  0.00     0.346 HD
ENDBRANCH  15  17
ENDBRANCH   8  15
ENDBRANCH   5   7
ENDBRANCH   4   5
ENDBRANCH   3   4
ENDBRANCH   2   3
ENDBRANCH   1   2
BRANCH   1  27
ATOM     27  C   UNL A   1      35.666  20.959  25.022  1.00  0.00     0.202 C 
BRANCH  27  28
ATOM     28  C   UNL A   1      37.110  20.453  25.101  1.00  0.00     0.261 C 
BRANCH  28  29
ATOM     29  O   UNL A   1      38.041  21.535  25.277  1.00  0.00    -0.460 OA
BRANCH  29  30
ATOM     30  C   UNL A   1      39.122  21.243  26.039  1.00  0.00     0.338 C 
ATOM     31  O   UNL A   1      39.697  20.173  26.132  1.00  0.00    -0.246 OA
BRANCH  30  32
ATOM     32  C   UNL A   1      39.648  22.481  26.646  1.00  0.00     0.060 A 
ATOM     33  C   UNL A   1      39.116  23.699  26.203  1.00  0.00     0.016 A 
ATOM     34  C   UNL A   1      40.691  22.454  27.574  1.00  0.00     0.016 A 
ATOM     35  C   UNL A   1      39.661  24.901  26.647  1.00  0.00     0.010 A 
ATOM     36  C   UNL A   1      41.243  23.661  28.011  1.00  0.00     0.010 A 
ATOM     37  C   UNL A   1      40.756  24.886  27.520  1.00  0.00    -0.014 A 
BRANCH  37  38
ATOM     38  C   UNL A   1      41.502  26.135  27.798  1.00  0.00     0.031 A 
ATOM     39  C   UNL A   1      40.813  27.235  28.552  1.00  0.00     0.074 A 
ATOM     40  C   UNL A   1      42.768  26.291  27.377  1.00  0.00     0.049 A 
ATOM     41  N   UNL A   1      41.224  28.449  28.812  1.00  0.00    -0.248 NA
ATOM     42  C   UNL A   1      39.474  26.925  29.077  1.00  0.00     0.031 C 
ATOM     43  C   UNL A   1      43.551  25.279  26.675  1.00  0.00     0.029 A 
ATOM     44  N   UNL A   1      43.607  27.372  27.468  1.00  0.00    -0.354 N 
ATOM     45  C   UNL A   1      40.188  29.053  29.511  1.00  0.00     0.074 A 
ATOM     46  C   UNL A   1      39.122  28.081  29.618  1.00  0.00     0.031 C 
ATOM     47  C   UNL A   1      44.757  25.795  26.380  1.00  0.00     0.029 A 
ATOM     48  C   UNL A   1      44.811  27.182  26.839  1.00  0.00     0.049 A 
ATOM     49  H   UNL A   1      43.368  28.204  27.937  1.00  0.00     0.167 HD
ATOM     50  C   UNL A   1      40.135  30.307  30.021  1.00  0.00     0.037 A 
ATOM     51  C   UNL A   1      45.826  28.042  26.630  1.00  0.00     0.037 A 
ATOM     52  C   UNL A   1      41.204  31.265  29.920  1.00  0.00     0.049 A 
ATOM     53  C   UNL A   1      45.725  29.450  27.150  1.00  0.00     0.074 A 
ATOM     54  C   UNL A   1      41.266  32.546  30.440  1.00  0.00     0.029 A 
ATOM     55  N   UNL A   1      42.397  31.048  29.244  1.00  0.00    -0.354 N 
ATOM     56  N   UNL A   1      44.751  30.016  27.822  1.00  0.00    -0.248 NA
ATOM     57  C   UNL A   1      46.861  30.342  26.880  1.00  0.00     0.031 C 
ATOM     58  C   UNL A   1      42.472  33.124  30.032  1.00  0.00     0.029 A 
ATOM     59  C   UNL A   1      43.187  32.186  29.303  1.00  0.00     0.049 A 
ATOM     60  H   UNL A   1      42.645  30.212  28.790  1.00  0.00     0.167 HD
ATOM     61  C   UNL A   1      45.155  31.322  28.060  1.00  0.00     0.074 A 
ATOM     62  C   UNL A   1      46.474  31.461  27.478  1.00  0.00     0.031 C 
ATOM     63  C   UNL A   1      44.491  32.316  28.700  1.00  0.00     0.037 A 
BRANCH  50  64
ATOM     64  C   UNL A   1      38.867  30.724  30.705  1.00  0.00     0.064 A 
ATOM     65  C   UNL A   1      37.793  31.231  29.957  1.00  0.00     0.173 A 
ATOM     66  C   UNL A   1      38.717  30.646  32.098  1.00  0.00     0.173 A 
ATOM     67  F   UNL A   1      37.886  31.327  28.621  1.00  0.00    -0.203 F 
ATOM     68  C   UNL A   1      36.620  31.648  30.577  1.00  0.00     0.198 A 
ATOM     69  C   UNL A   1      37.529  31.037  32.713  1.00  0.00     0.198 A 
ATOM     70  F   UNL A   1      39.706  30.155  32.857  1.00  0.00    -0.203 F 
ATOM     71  F   UNL A   1      35.616  32.147  29.842  1.00  0.00    -0.200 F 
ATOM     72  C   UNL A   1      36.485  31.543  31.953  1.00  0.00     0.200 A 
ATOM     73  F   UNL A   1      37.390  30.909  34.040  1.00  0.00    -0.200 F 
ATOM     74  F   UNL A   1      35.345  31.923  32.547  1.00  0.00    -0.200 F 
ENDBRANCH  50  64
BRANCH  51  75
ATOM     75  C   UNL A   1      47.021  27.579  25.880  1.00  0.00     0.064 A 
ATOM     76  C   UNL A   1      48.142  27.063  26.547  1.00  0.00     0.173 A 
ATOM     77  C   UNL A   1      47.085  27.697  24.487  1.00  0.00     0.173 A 
ATOM     78  F   UNL A   1      48.126  26.929  27.882  1.00  0.00    -0.203 F 
ATOM     79  C   UNL A   1      49.296  26.713  25.850  1.00  0.00     0.198 A 
ATOM     80  C   UNL A   1      48.232  27.325  23.787  1.00  0.00     0.198 A 
ATOM     81  F   UNL A   1      46.029  28.161  23.804  1.00  0.00    -0.203 F 
ATOM     82  F   UNL A   1      50.367  26.261  26.514  1.00  0.00    -0.200 F 
ATOM     83  C   UNL A   1      49.340  26.845  24.470  1.00  0.00     0.200 A 
ATOM     84  F   UNL A   1      48.264  27.434  22.452  1.00  0.00    -0.200 F 
ATOM     85  F   UNL A   1      50.451  26.510  23.799  1.00  0.00    -0.200 F 
ENDBRANCH  51  75
BRANCH  63  86
ATOM     86  C   UNL A   1      45.171  33.652  28.804  1.00  0.00     0.064 A 
ATOM     87  C   UNL A   1      45.990  33.954  29.903  1.00  0.00     0.173 A 
ATOM     88  C   UNL A   1      44.955  34.656  27.850  1.00  0.00     0.173 A 
ATOM     89  F   UNL A   1      46.223  33.030  30.848  1.00  0.00    -0.203 F 
ATOM     90  C   UNL A   1      46.555  35.218  30.049  1.00  0.00     0.198 A 
ATOM     91  C   UNL A   1      45.545  35.910  27.986  1.00  0.00     0.198 A 
ATOM     92  F   UNL A   1      44.191  34.414  26.775  1.00  0.00    -0.203 F 
ATOM     93  F   UNL A   1      47.305  35.494  31.125  1.00  0.00    -0.200 F 
ATOM     94  C   UNL A   1      46.336  36.193  29.089  1.00  0.00     0.200 A 
ATOM     95  F   UNL A   1      45.352  36.844  27.044  1.00  0.00    -0.200 F 
ATOM     96  F   UNL A   1      46.891  37.406  29.226  1.00  0.00    -0.200 F 
ENDBRANCH  63  86
ENDBRANCH  37  38
ENDBRANCH  30  32
ENDBRANCH  29  30
ENDBRANCH  28  29
ENDBRANCH  27  28
ENDBRANCH   1  27
TORSDOF 16
ENDMDL
MODEL 3
REMARK VINA RESULT:     -12.0      4.761      7.567
REMARK SMILES CN(c1ccc(C(=O)OCCOCCOC(=O)c2ccc(-c3c4nc(c(-c5c(F)c(F)c(F)c(F)c5F)c5ccc([nH]5)c(-c5c(F)c(F)c(F)c(F)c5F)c5nc(c(-c6c(F)c(F)c(F)c(F)c6F)c6ccc3[nH]6)C=C5)C=C4)cc2)c(F)c1F)[C@H]1C[C@H]2CC[C@@H](C1)[NH2+]2
REMARK SMILES IDX 12 1 11 2 10 3 9 4 7 5 8 6 6 7 3 8 4 9 83 10 5 11 81 12
REMARK SMILES IDX 84 13 82 14 2 15 1 16 85 17 86 18 91 19 87 20 90 21 88 22
REMARK SMILES IDX 92 23 89 24 13 27 14 28 15 29 16 30 17 31 18 32 19 33 80 34
REMARK SMILES IDX 20 35 79 36 21 37 22 38 23 39 73 40 24 41 78 42 72 43 74 44
REMARK SMILES IDX 25 45 77 46 71 47 70 48 26 50 58 51 38 52 57 53 39 54 42 55
REMARK SMILES IDX 56 56 75 57 40 58 41 59 55 61 76 62 43 63 27 64 28 65 36 66
REMARK SMILES IDX 29 67 30 68 34 69 37 70 31 71 32 72 35 73 33 74 59 75 60 76
REMARK SMILES IDX 68 77 61 78 62 79 66 80 69 81 63 82 64 83 67 84 65 85 44 86
REMARK SMILES IDX 45 87 53 88 46 89 47 90 51 91 54 92 48 93 49 94 52 95 50 96
REMARK H PARENT 92 25 92 26 74 49 42 60
REMARK Flexibility Score: inf
ROOT
ATOM      1  O   UNL A   1      37.403  21.136  25.076  1.00  0.00    -0.374 OA
ENDROOT
BRANCH   1   2
ATOM      2  C   UNL A   1      36.048  21.468  25.382  1.00  0.00     0.202 C 
BRANCH   2   3
ATOM      3  C   UNL A   1      35.027  20.355  25.140  1.00  0.00     0.261 C 
BRANCH   3   4
ATOM      4  O   UNL A   1      34.075  20.755  24.141  1.00  0.00    -0.460 OA
BRANCH   4   5
ATOM      5  C   UNL A   1      32.784  20.756  24.542  1.00  0.00     0.341 C 
ATOM      6  O   UNL A   1      32.156  19.818  25.006  1.00  0.00    -0.246 OA
BRANCH   5   7
ATOM      7  C   UNL A   1      32.254  22.128  24.549  1.00  0.00     0.099 A 
ATOM      8  C   UNL A   1      31.309  24.787  24.401  1.00  0.00     0.076 A 
ATOM      9  C   UNL A   1      31.373  23.976  23.256  1.00  0.00     0.030 A 
ATOM     10  C   UNL A   1      31.694  24.206  25.627  1.00  0.00     0.182 A 
ATOM     11  C   UNL A   1      31.856  22.668  23.321  1.00  0.00     0.021 A 
ATOM     12  C   UNL A   1      32.152  22.890  25.704  1.00  0.00     0.175 A 
ATOM     13  F   UNL A   1      31.615  24.919  26.764  1.00  0.00    -0.201 F 
ATOM     14  F   UNL A   1      32.517  22.390  26.894  1.00  0.00    -0.203 F 
BRANCH   8  15
ATOM     15  N   UNL A   1      30.932  26.132  24.275  1.00  0.00    -0.369 N 
ATOM     16  C   UNL A   1      29.566  26.453  24.659  1.00  0.00     0.144 C 
BRANCH  15  17
ATOM     17  C   UNL A   1      31.909  27.090  23.687  1.00  0.00     0.093 C 
ATOM     18  C   UNL A   1      31.427  28.561  23.811  1.00  0.00     0.090 C 
ATOM     19  C   UNL A   1      33.377  26.952  24.150  1.00  0.00     0.090 C 
ATOM     20  C   UNL A   1      32.028  29.323  24.998  1.00  0.00     0.184 C 
ATOM     21  C   UNL A   1      33.810  27.911  25.271  1.00  0.00     0.184 C 
ATOM     22  C   UNL A   1      31.781  28.649  26.346  1.00  0.00     0.071 C 
ATOM     23  N   UNL A   1      33.491  29.291  24.889  1.00  0.00    -0.341 N 
ATOM     24  C   UNL A   1      33.024  27.787  26.570  1.00  0.00     0.071 C 
ATOM     25  H   UNL A   1      33.922  29.958  25.528  1.00  0.00     0.346 HD
ATOM     26  H   UNL A   1      33.835  29.544  23.963  1.00  0.00     0.346 HD
ENDBRANCH  15  17
ENDBRANCH   8  15
ENDBRANCH   5   7
ENDBRANCH   4   5
ENDBRANCH   3   4
ENDBRANCH   2   3
ENDBRANCH   1   2
BRANCH   1  27
ATOM     27  C   UNL A   1      37.730  19.747  25.001  1.00  0.00     0.202 C 
BRANCH  27  28
ATOM     28  C   UNL A   1      39.000  19.318  25.745  1.00  0.00     0.261 C 
BRANCH  28  29
ATOM     29  O   UNL A   1      39.950  20.394  25.830  1.00  0.00    -0.460 OA
BRANCH  29  30
ATOM     30  C   UNL A   1      40.650  20.451  26.989  1.00  0.00     0.338 C 
ATOM     31  O   UNL A   1      41.192  19.531  27.574  1.00  0.00    -0.246 OA
BRANCH  30  32
ATOM     32  C   UNL A   1      40.828  21.860  27.391  1.00  0.00     0.060 A 
ATOM     33  C   UNL A   1      40.103  22.832  26.688  1.00  0.00     0.016 A 
ATOM     34  C   UNL A   1      41.738  22.228  28.383  1.00  0.00     0.016 A 
ATOM     35  C   UNL A   1      40.326  24.184  26.939  1.00  0.00     0.010 A 
ATOM     36  C   UNL A   1      41.968  23.585  28.626  1.00  0.00     0.010 A 
ATOM     37  C   UNL A   1      41.291  24.566  27.879  1.00  0.00    -0.014 A 
BRANCH  37  38
ATOM     38  C   UNL A   1      41.717  25.981  27.972  1.00  0.00     0.031 A 
ATOM     39  C   UNL A   1      43.055  26.371  27.413  1.00  0.00     0.074 A 
ATOM     40  C   UNL A   1      40.931  26.902  28.554  1.00  0.00     0.049 A 
ATOM     41  N   UNL A   1      43.682  27.516  27.480  1.00  0.00    -0.248 NA
ATOM     42  C   UNL A   1      43.788  25.321  26.688  1.00  0.00     0.031 C 
ATOM     43  C   UNL A   1      39.598  26.651  29.093  1.00  0.00     0.029 A 
ATOM     44  N   UNL A   1      41.155  28.233  28.801  1.00  0.00    -0.354 N 
ATOM     45  C   UNL A   1      44.890  27.320  26.824  1.00  0.00     0.074 A 
ATOM     46  C   UNL A   1      44.917  25.941  26.385  1.00  0.00     0.031 C 
ATOM     47  C   UNL A   1      39.126  27.790  29.627  1.00  0.00     0.029 A 
ATOM     48  C   UNL A   1      40.140  28.835  29.499  1.00  0.00     0.049 A 
ATOM     49  H   UNL A   1      41.966  28.708  28.507  1.00  0.00     0.167 HD
ATOM     50  C   UNL A   1      45.884  28.213  26.606  1.00  0.00     0.037 A 
ATOM     51  C   UNL A   1      40.056  30.081  30.006  1.00  0.00     0.037 A 
ATOM     52  C   UNL A   1      45.845  29.586  27.036  1.00  0.00     0.049 A 
ATOM     53  C   UNL A   1      41.197  31.041  29.807  1.00  0.00     0.074 A 
ATOM     54  C   UNL A   1      46.782  30.582  26.827  1.00  0.00     0.029 A 
ATOM     55  N   UNL A   1      44.814  30.153  27.773  1.00  0.00    -0.354 N 
ATOM     56  N   UNL A   1      42.333  30.858  29.177  1.00  0.00    -0.248 NA
ATOM     57  C   UNL A   1      41.048  32.381  30.394  1.00  0.00     0.031 C 
ATOM     58  C   UNL A   1      46.345  31.736  27.484  1.00  0.00     0.029 A 
ATOM     59  C   UNL A   1      45.110  31.476  28.058  1.00  0.00     0.049 A 
ATOM     60  H   UNL A   1      43.996  29.684  28.052  1.00  0.00     0.167 HD
ATOM     61  C   UNL A   1      43.030  32.054  29.284  1.00  0.00     0.074 A 
ATOM     62  C   UNL A   1      42.180  32.965  30.023  1.00  0.00     0.031 C 
ATOM     63  C   UNL A   1      44.263  32.366  28.814  1.00  0.00     0.037 A 
BRANCH  50  64
ATOM     64  C   UNL A   1      47.113  27.723  25.898  1.00  0.00     0.064 A 
ATOM     65  C   UNL A   1      47.174  27.736  24.496  1.00  0.00     0.173 A 
ATOM     66  C   UNL A   1      48.219  27.219  26.599  1.00  0.00     0.173 A 
ATOM     67  F   UNL A   1      46.142  28.206  23.778  1.00  0.00    -0.203 F 
ATOM     68  C   UNL A   1      48.295  27.260  23.822  1.00  0.00     0.198 A 
ATOM     69  C   UNL A   1      49.351  26.771  25.922  1.00  0.00     0.198 A 
ATOM     70  F   UNL A   1      48.218  27.199  27.939  1.00  0.00    -0.203 F 
ATOM     71  F   UNL A   1      48.321  27.265  22.482  1.00  0.00    -0.200 F 
ATOM     72  C   UNL A   1      49.385  26.785  24.535  1.00  0.00     0.200 A 
ATOM     73  F   UNL A   1      50.416  26.339  26.612  1.00  0.00    -0.200 F 
ATOM     74  F   UNL A   1      50.473  26.349  23.886  1.00  0.00    -0.200 F 
ENDBRANCH  50  64
BRANCH  51  75
ATOM     75  C   UNL A   1      38.838  30.472  30.760  1.00  0.00     0.064 A 
ATOM     76  C   UNL A   1      37.716  30.998  30.103  1.00  0.00     0.173 A 
ATOM     77  C   UNL A   1      38.797  30.381  32.156  1.00  0.00     0.173 A 
ATOM     78  F   UNL A   1      37.709  31.103  28.765  1.00  0.00    -0.203 F 
ATOM     79  C   UNL A   1      36.610  31.448  30.819  1.00  0.00     0.198 A 
ATOM     80  C   UNL A   1      37.679  30.810  32.870  1.00  0.00     0.198 A 
ATOM     81  F   UNL A   1      39.836  29.861  32.824  1.00  0.00    -0.203 F 
ATOM     82  F   UNL A   1      35.566  31.984  30.170  1.00  0.00    -0.200 F 
ATOM     83  C   UNL A   1      36.592  31.354  32.202  1.00  0.00     0.200 A 
ATOM     84  F   UNL A   1      37.657  30.698  34.206  1.00  0.00    -0.200 F 
ATOM     85  F   UNL A   1      35.528  31.789  32.892  1.00  0.00    -0.200 F 
ENDBRANCH  51  75
BRANCH  63  86
ATOM     86  C   UNL A   1      44.781  33.749  29.088  1.00  0.00     0.064 A 
ATOM     87  C   UNL A   1      44.531  34.798  28.189  1.00  0.00     0.173 A 
ATOM     88  C   UNL A   1      45.585  34.019  30.205  1.00  0.00     0.173 A 
ATOM     89  F   UNL A   1      43.774  34.591  27.102  1.00  0.00    -0.203 F 
ATOM     90  C   UNL A   1      45.079  36.061  28.393  1.00  0.00     0.198 A 
ATOM     91  C   UNL A   1      46.108  35.292  30.419  1.00  0.00     0.198 A 
ATOM     92  F   UNL A   1      45.844  33.054  31.100  1.00  0.00    -0.203 F 
ATOM     93  F   UNL A   1      44.854  37.038  27.503  1.00  0.00    -0.200 F 
ATOM     94  C   UNL A   1      45.863  36.309  29.509  1.00  0.00     0.200 A 
ATOM     95  F   UNL A   1      46.845  35.535  31.512  1.00  0.00    -0.200 F 
ATOM     96  F   UNL A   1      46.379  37.529  29.709  1.00  0.00    -0.200 F 
ENDBRANCH  63  86
ENDBRANCH  37  38
ENDBRANCH  30  32
ENDBRANCH  29  30
ENDBRANCH  28  29
ENDBRANCH  27  28
ENDBRANCH   1  27
TORSDOF 16
ENDMDL
