MODEL 1
REMARK VINA RESULT:     -10.2      0.000      0.000
REMARK SMILES O=C(OCCOCCOC(=O)c1cc(-c2ccc(Cl)cc2)nc2c3c(C4CC4)cc(C(F)(F)F)nc3nn12)c1ccc(-c2c3nc(c(-c4c(F)c(F)c(F)c(F)c4F)c4ccc([nH]4)c(-c4c(F)c(F)c(F)c(F)c4F)c4nc(c(-c5c(F)c(F)c(F)c(F)c5F)c5ccc2[nH]5)C=C4)C=C3)cc1
REMARK SMILES IDX 5 1 4 2 3 3 2 4 1 5 39 6 40 7 101 8 41 9 100 10 42 11 43 12
REMARK SMILES IDX 44 13 94 14 45 15 99 16 93 17 95 18 46 19 98 20 92 21 91 22
REMARK SMILES IDX 47 24 79 25 59 26 78 27 60 28 63 29 77 30 96 31 61 32 62 33
REMARK SMILES IDX 76 35 97 36 64 37 48 38 49 39 57 40 50 41 51 42 55 43 58 44
REMARK SMILES IDX 52 45 53 46 56 47 54 48 80 49 81 50 89 51 82 52 83 53 87 54
REMARK SMILES IDX 90 55 84 56 85 57 88 58 86 59 65 60 66 61 74 62 67 63 68 64
REMARK SMILES IDX 72 65 75 66 69 67 70 68 73 69 71 70 6 71 7 72 8 73 9 74
REMARK SMILES IDX 10 75 11 76 12 77 13 78 38 79 14 80 23 81 37 82 22 83 24 84
REMARK SMILES IDX 36 85 25 86 35 87 29 88 30 89 15 90 16 91 21 92 17 93 20 94
REMARK SMILES IDX 18 95 19 96 26 97 27 98 28 99 31 100 32 101 33 102 34 103
REMARK H PARENT 95 23 63 34
REMARK Flexibility Score: inf
ROOT
ATOM      1  C   UNL A   1      44.879  22.470  24.187  1.00  0.00     0.202 C 
ENDROOT
BRANCH   1   2
ATOM      2  C   UNL A   1      44.094  23.696  24.634  1.00  0.00     0.261 C 
BRANCH   2   3
ATOM      3  O   UNL A   1      44.816  24.403  25.658  1.00  0.00    -0.460 OA
BRANCH   3   4
ATOM      4  C   UNL A   1      45.633  25.457  25.381  1.00  0.00     0.338 C 
ATOM      5  O   UNL A   1      46.586  25.367  24.621  1.00  0.00    -0.246 OA
BRANCH   4   6
ATOM      6  C   UNL A   1      45.222  26.763  25.918  1.00  0.00     0.060 A 
ATOM      7  C   UNL A   1      46.085  27.527  26.710  1.00  0.00     0.016 A 
ATOM      8  C   UNL A   1      43.918  27.186  25.679  1.00  0.00     0.016 A 
ATOM      9  C   UNL A   1      45.611  28.597  27.428  1.00  0.00     0.010 A 
ATOM     10  C   UNL A   1      43.462  28.329  26.318  1.00  0.00     0.010 A 
ATOM     11  C   UNL A   1      44.307  29.007  27.214  1.00  0.00    -0.014 A 
BRANCH  11  12
ATOM     12  C   UNL A   1      43.997  30.310  27.790  1.00  0.00     0.031 A 
ATOM     13  C   UNL A   1      43.515  30.182  29.185  1.00  0.00     0.074 A 
ATOM     14  C   UNL A   1      44.492  31.435  27.246  1.00  0.00     0.049 A 
ATOM     15  N   UNL A   1      44.396  30.021  30.124  1.00  0.00    -0.248 NA
ATOM     16  C   UNL A   1      42.169  29.753  29.568  1.00  0.00     0.031 C 
ATOM     17  C   UNL A   1      45.719  31.480  26.441  1.00  0.00     0.029 A 
ATOM     18  N   UNL A   1      44.158  32.751  27.445  1.00  0.00    -0.354 N 
ATOM     19  C   UNL A   1      43.787  29.334  31.147  1.00  0.00     0.074 A 
ATOM     20  C   UNL A   1      42.384  29.265  30.804  1.00  0.00     0.031 C 
ATOM     21  C   UNL A   1      46.147  32.755  26.383  1.00  0.00     0.029 A 
ATOM     22  C   UNL A   1      45.163  33.628  27.021  1.00  0.00     0.049 A 
ATOM     23  H   UNL A   1      43.306  33.044  27.840  1.00  0.00     0.167 HD
ATOM     24  C   UNL A   1      44.527  28.815  32.159  1.00  0.00     0.037 A 
ATOM     25  C   UNL A   1      45.504  34.713  27.771  1.00  0.00     0.037 A 
ATOM     26  C   UNL A   1      45.952  28.937  32.002  1.00  0.00     0.049 A 
ATOM     27  C   UNL A   1      46.028  34.051  29.037  1.00  0.00     0.074 A 
ATOM     28  C   UNL A   1      47.035  28.119  31.762  1.00  0.00     0.029 A 
ATOM     29  N   UNL A   1      46.471  30.208  32.031  1.00  0.00    -0.354 N 
ATOM     30  N   UNL A   1      47.188  33.458  29.179  1.00  0.00    -0.248 NA
ATOM     31  C   UNL A   1      45.074  33.754  30.105  1.00  0.00     0.031 C 
ATOM     32  C   UNL A   1      48.059  28.980  31.244  1.00  0.00     0.029 A 
ATOM     33  C   UNL A   1      47.538  30.273  31.174  1.00  0.00     0.049 A 
ATOM     34  H   UNL A   1      46.131  30.952  32.579  1.00  0.00     0.167 HD
ATOM     35  C   UNL A   1      47.014  32.522  30.209  1.00  0.00     0.074 A 
ATOM     36  C   UNL A   1      45.719  32.813  30.779  1.00  0.00     0.031 C 
ATOM     37  C   UNL A   1      47.860  31.467  30.415  1.00  0.00     0.037 A 
BRANCH  24  38
ATOM     38  C   UNL A   1      43.978  28.421  33.463  1.00  0.00     0.064 A 
ATOM     39  C   UNL A   1      43.571  27.080  33.561  1.00  0.00     0.173 A 
ATOM     40  C   UNL A   1      43.644  29.295  34.496  1.00  0.00     0.173 A 
ATOM     41  F   UNL A   1      43.882  26.215  32.581  1.00  0.00    -0.203 F 
ATOM     42  C   UNL A   1      42.800  26.637  34.622  1.00  0.00     0.198 A 
ATOM     43  C   UNL A   1      42.883  28.841  35.576  1.00  0.00     0.198 A 
ATOM     44  F   UNL A   1      44.009  30.585  34.445  1.00  0.00    -0.203 F 
ATOM     45  F   UNL A   1      42.373  25.367  34.646  1.00  0.00    -0.200 F 
ATOM     46  C   UNL A   1      42.446  27.520  35.626  1.00  0.00     0.200 A 
ATOM     47  F   UNL A   1      42.539  29.686  36.558  1.00  0.00    -0.200 F 
ATOM     48  F   UNL A   1      41.673  27.102  36.637  1.00  0.00    -0.200 F 
ENDBRANCH  24  38
BRANCH  25  49
ATOM     49  C   UNL A   1      44.447  35.785  27.744  1.00  0.00     0.064 A 
ATOM     50  C   UNL A   1      44.785  37.051  27.210  1.00  0.00     0.173 A 
ATOM     51  C   UNL A   1      43.116  35.633  28.154  1.00  0.00     0.173 A 
ATOM     52  F   UNL A   1      46.060  37.338  26.903  1.00  0.00    -0.203 F 
ATOM     53  C   UNL A   1      43.824  38.026  26.945  1.00  0.00     0.198 A 
ATOM     54  C   UNL A   1      42.146  36.598  27.861  1.00  0.00     0.198 A 
ATOM     55  F   UNL A   1      42.717  34.547  28.826  1.00  0.00    -0.203 F 
ATOM     56  F   UNL A   1      44.186  39.183  26.375  1.00  0.00    -0.200 F 
ATOM     57  C   UNL A   1      42.495  37.781  27.233  1.00  0.00     0.200 A 
ATOM     58  F   UNL A   1      40.862  36.357  28.158  1.00  0.00    -0.200 F 
ATOM     59  F   UNL A   1      41.556  38.680  26.911  1.00  0.00    -0.200 F 
ENDBRANCH  25  49
BRANCH  37  60
ATOM     60  C   UNL A   1      49.137  31.523  29.644  1.00  0.00     0.064 A 
ATOM     61  C   UNL A   1      50.238  32.202  30.185  1.00  0.00     0.173 A 
ATOM     62  C   UNL A   1      49.307  30.867  28.416  1.00  0.00     0.173 A 
ATOM     63  F   UNL A   1      50.132  32.829  31.368  1.00  0.00    -0.203 F 
ATOM     64  C   UNL A   1      51.464  32.215  29.531  1.00  0.00     0.198 A 
ATOM     65  C   UNL A   1      50.547  30.856  27.778  1.00  0.00     0.198 A 
ATOM     66  F   UNL A   1      48.288  30.210  27.837  1.00  0.00    -0.203 F 
ATOM     67  F   UNL A   1      52.502  32.870  30.071  1.00  0.00    -0.200 F 
ATOM     68  C   UNL A   1      51.623  31.530  28.337  1.00  0.00     0.200 A 
ATOM     69  F   UNL A   1      50.706  30.177  26.633  1.00  0.00    -0.200 F 
ATOM     70  F   UNL A   1      52.818  31.506  27.731  1.00  0.00    -0.200 F 
ENDBRANCH  37  60
ENDBRANCH  11  12
ENDBRANCH   4   6
ENDBRANCH   3   4
ENDBRANCH   2   3
ENDBRANCH   1   2
BRANCH   1  71
ATOM     71  O   UNL A   1      44.184  21.243  24.362  1.00  0.00    -0.374 OA
BRANCH  71  72
ATOM     72  C   UNL A   1      44.956  20.137  24.837  1.00  0.00     0.202 C 
BRANCH  72  73
ATOM     73  C   UNL A   1      44.058  18.913  24.968  1.00  0.00     0.261 C 
BRANCH  73  74
ATOM     74  O   UNL A   1      42.701  19.355  25.062  1.00  0.00    -0.459 OA
BRANCH  74  75
ATOM     75  C   UNL A   1      42.091  19.321  26.273  1.00  0.00     0.357 C 
ATOM     76  O   UNL A   1      42.281  18.527  27.188  1.00  0.00    -0.244 OA
BRANCH  75  77
ATOM     77  C   UNL A   1      41.290  20.554  26.391  1.00  0.00     0.154 A 
ATOM     78  C   UNL A   1      40.073  20.622  25.827  1.00  0.00     0.065 A 
ATOM     79  N   UNL A   1      41.774  21.609  27.147  1.00  0.00    -0.205 N 
ATOM     80  C   UNL A   1      39.271  21.828  26.201  1.00  0.00     0.075 A 
ATOM     81  C   UNL A   1      41.017  22.778  27.327  1.00  0.00     0.166 A 
ATOM     82  N   UNL A   1      42.985  21.669  27.735  1.00  0.00    -0.145 NA
ATOM     83  N   UNL A   1      39.714  22.848  26.882  1.00  0.00    -0.228 NA
ATOM     84  C   UNL A   1      41.890  23.654  27.952  1.00  0.00     0.069 A 
ATOM     85  C   UNL A   1      43.071  22.898  28.193  1.00  0.00     0.184 A 
ATOM     86  C   UNL A   1      41.709  25.006  28.270  1.00  0.00    -0.028 A 
ATOM     87  N   UNL A   1      44.174  23.395  28.781  1.00  0.00    -0.222 NA
ATOM     88  C   UNL A   1      42.899  25.507  28.855  1.00  0.00     0.038 A 
ATOM     89  C   UNL A   1      44.065  24.717  29.084  1.00  0.00     0.147 A 
BRANCH  80  90
ATOM     90  C   UNL A   1      37.862  21.775  25.743  1.00  0.00     0.000 A 
ATOM     91  C   UNL A   1      37.091  22.937  25.784  1.00  0.00     0.012 A 
ATOM     92  C   UNL A   1      37.329  20.586  25.221  1.00  0.00     0.012 A 
ATOM     93  C   UNL A   1      35.782  22.918  25.290  1.00  0.00     0.021 A 
ATOM     94  C   UNL A   1      36.018  20.572  24.730  1.00  0.00     0.021 A 
ATOM     95  C   UNL A   1      35.252  21.739  24.764  1.00  0.00     0.041 A 
ATOM     96  Cl  UNL A   1      33.645  21.727  24.146  1.00  0.00    -0.084 Cl
ENDBRANCH  80  90
BRANCH  86  97
ATOM     97  C   UNL A   1      40.460  25.755  27.945  1.00  0.00     0.020 C 
ATOM     98  C   UNL A   1      40.426  27.262  27.854  1.00  0.00     0.009 C 
ATOM     99  C   UNL A   1      40.359  26.441  26.602  1.00  0.00     0.009 C 
ENDBRANCH  86  97
BRANCH  89 100
ATOM    100  C   UNL A   1      45.315  25.355  29.675  1.00  0.00     0.433 C 
ATOM    101  F   UNL A   1      46.428  25.141  28.918  1.00  0.00    -0.165 F 
ATOM    102  F   UNL A   1      45.203  26.708  29.807  1.00  0.00    -0.165 F 
ATOM    103  F   UNL A   1      45.623  24.892  30.921  1.00  0.00    -0.165 F 
ENDBRANCH  89 100
ENDBRANCH  75  77
ENDBRANCH  74  75
ENDBRANCH  73  74
ENDBRANCH  72  73
ENDBRANCH  71  72
ENDBRANCH   1  71
TORSDOF 17
ENDMDL
MODEL 2
REMARK VINA RESULT:     -10.0      3.449      5.175
REMARK SMILES O=C(OCCOCCOC(=O)c1cc(-c2ccc(Cl)cc2)nc2c3c(C4CC4)cc(C(F)(F)F)nc3nn12)c1ccc(-c2c3nc(c(-c4c(F)c(F)c(F)c(F)c4F)c4ccc([nH]4)c(-c4c(F)c(F)c(F)c(F)c4F)c4nc(c(-c5c(F)c(F)c(F)c(F)c5F)c5ccc2[nH]5)C=C4)C=C3)cc1
REMARK SMILES IDX 5 1 4 2 3 3 2 4 1 5 39 6 40 7 101 8 41 9 100 10 42 11 43 12
REMARK SMILES IDX 44 13 94 14 45 15 99 16 93 17 95 18 46 19 98 20 92 21 91 22
REMARK SMILES IDX 47 24 79 25 59 26 78 27 60 28 63 29 77 30 96 31 61 32 62 33
REMARK SMILES IDX 76 35 97 36 64 37 48 38 49 39 57 40 50 41 51 42 55 43 58 44
REMARK SMILES IDX 52 45 53 46 56 47 54 48 80 49 81 50 89 51 82 52 83 53 87 54
REMARK SMILES IDX 90 55 84 56 85 57 88 58 86 59 65 60 66 61 74 62 67 63 68 64
REMARK SMILES IDX 72 65 75 66 69 67 70 68 73 69 71 70 6 71 7 72 8 73 9 74
REMARK SMILES IDX 10 75 11 76 12 77 13 78 38 79 14 80 23 81 37 82 22 83 24 84
REMARK SMILES IDX 36 85 25 86 35 87 29 88 30 89 15 90 16 91 21 92 17 93 20 94
REMARK SMILES IDX 18 95 19 96 26 97 27 98 28 99 31 100 32 101 33 102 34 103
REMARK H PARENT 95 23 63 34
REMARK Flexibility Score: inf
ROOT
ATOM      1  C   UNL A   1      45.999  19.686  25.387  1.00  0.00     0.202 C 
ENDROOT
BRANCH   1   2
ATOM      2  C   UNL A   1      46.632  20.811  24.580  1.00  0.00     0.261 C 
BRANCH   2   3
ATOM      3  O   UNL A   1      46.366  22.081  25.203  1.00  0.00    -0.460 OA
BRANCH   3   4
ATOM      4  C   UNL A   1      45.633  23.053  24.593  1.00  0.00     0.338 C 
ATOM      5  O   UNL A   1      45.104  22.892  23.503  1.00  0.00    -0.246 OA
BRANCH   4   6
ATOM      6  C   UNL A   1      45.372  24.267  25.382  1.00  0.00     0.060 A 
ATOM      7  C   UNL A   1      44.362  25.164  25.023  1.00  0.00     0.016 A 
ATOM      8  C   UNL A   1      46.211  24.538  26.458  1.00  0.00     0.016 A 
ATOM      9  C   UNL A   1      44.303  26.414  25.588  1.00  0.00     0.010 A 
ATOM     10  C   UNL A   1      46.088  25.759  27.107  1.00  0.00     0.010 A 
ATOM     11  C   UNL A   1      45.153  26.699  26.642  1.00  0.00    -0.014 A 
BRANCH  11  12
ATOM     12  C   UNL A   1      44.814  27.924  27.357  1.00  0.00     0.031 A 
ATOM     13  C   UNL A   1      44.404  27.640  28.752  1.00  0.00     0.074 A 
ATOM     14  C   UNL A   1      45.234  29.119  26.905  1.00  0.00     0.049 A 
ATOM     15  N   UNL A   1      45.335  27.431  29.632  1.00  0.00    -0.248 NA
ATOM     16  C   UNL A   1      43.098  27.112  29.148  1.00  0.00     0.031 C 
ATOM     17  C   UNL A   1      46.418  29.300  26.058  1.00  0.00     0.029 A 
ATOM     18  N   UNL A   1      44.852  30.392  27.247  1.00  0.00    -0.354 N 
ATOM     19  C   UNL A   1      44.805  26.620  30.607  1.00  0.00     0.074 A 
ATOM     20  C   UNL A   1      43.392  26.517  30.319  1.00  0.00     0.031 C 
ATOM     21  C   UNL A   1      46.787  30.593  26.107  1.00  0.00     0.029 A 
ATOM     22  C   UNL A   1      45.797  31.353  26.870  1.00  0.00     0.049 A 
ATOM     23  H   UNL A   1      44.008  30.605  27.705  1.00  0.00     0.167 HD
ATOM     24  C   UNL A   1      45.613  26.042  31.531  1.00  0.00     0.037 A 
ATOM     25  C   UNL A   1      46.126  32.376  27.708  1.00  0.00     0.037 A 
ATOM     26  C   UNL A   1      47.024  26.246  31.325  1.00  0.00     0.049 A 
ATOM     27  C   UNL A   1      46.737  31.621  28.879  1.00  0.00     0.074 A 
ATOM     28  C   UNL A   1      48.128  25.508  30.960  1.00  0.00     0.029 A 
ATOM     29  N   UNL A   1      47.487  27.533  31.458  1.00  0.00    -0.354 N 
ATOM     30  N   UNL A   1      47.927  31.072  28.911  1.00  0.00    -0.248 NA
ATOM     31  C   UNL A   1      45.848  31.177  29.951  1.00  0.00     0.031 C 
ATOM     32  C   UNL A   1      49.088  26.464  30.487  1.00  0.00     0.029 A 
ATOM     33  C   UNL A   1      48.509  27.731  30.567  1.00  0.00     0.049 A 
ATOM     34  H   UNL A   1      47.141  28.203  32.090  1.00  0.00     0.167 HD
ATOM     35  C   UNL A   1      47.843  30.035  29.851  1.00  0.00     0.074 A 
ATOM     36  C   UNL A   1      46.565  30.207  30.502  1.00  0.00     0.031 C 
ATOM     37  C   UNL A   1      48.743  29.006  29.916  1.00  0.00     0.037 A 
BRANCH  24  38
ATOM     38  C   UNL A   1      45.145  25.498  32.812  1.00  0.00     0.064 A 
ATOM     39  C   UNL A   1      44.510  24.247  32.735  1.00  0.00     0.173 A 
ATOM     40  C   UNL A   1      45.089  26.200  34.015  1.00  0.00     0.173 A 
ATOM     41  F   UNL A   1      44.550  23.548  31.588  1.00  0.00    -0.203 F 
ATOM     42  C   UNL A   1      43.789  23.738  33.802  1.00  0.00     0.198 A 
ATOM     43  C   UNL A   1      44.378  25.675  35.097  1.00  0.00     0.198 A 
ATOM     44  F   UNL A   1      45.678  27.399  34.135  1.00  0.00    -0.203 F 
ATOM     45  F   UNL A   1      43.141  22.573  33.668  1.00  0.00    -0.200 F 
ATOM     46  C   UNL A   1      43.714  24.457  34.981  1.00  0.00     0.200 A 
ATOM     47  F   UNL A   1      44.303  26.360  36.246  1.00  0.00    -0.200 F 
ATOM     48  F   UNL A   1      42.988  23.983  36.003  1.00  0.00    -0.200 F 
ENDBRANCH  24  38
BRANCH  25  49
ATOM     49  C   UNL A   1      45.024  33.394  27.831  1.00  0.00     0.064 A 
ATOM     50  C   UNL A   1      44.402  33.861  26.649  1.00  0.00     0.173 A 
ATOM     51  C   UNL A   1      44.504  33.895  29.032  1.00  0.00     0.173 A 
ATOM     52  F   UNL A   1      44.904  33.538  25.447  1.00  0.00    -0.203 F 
ATOM     53  C   UNL A   1      43.239  34.631  26.677  1.00  0.00     0.198 A 
ATOM     54  C   UNL A   1      43.320  34.641  29.061  1.00  0.00     0.198 A 
ATOM     55  F   UNL A   1      45.110  33.662  30.201  1.00  0.00    -0.203 F 
ATOM     56  F   UNL A   1      42.650  34.991  25.528  1.00  0.00    -0.200 F 
ATOM     57  C   UNL A   1      42.675  34.986  27.886  1.00  0.00     0.200 A 
ATOM     58  F   UNL A   1      42.788  34.994  30.240  1.00  0.00    -0.200 F 
ATOM     59  F   UNL A   1      41.516  35.658  27.921  1.00  0.00    -0.200 F 
ENDBRANCH  25  49
BRANCH  37  60
ATOM     60  C   UNL A   1      49.979  29.197  29.100  1.00  0.00     0.064 A 
ATOM     61  C   UNL A   1      50.040  28.655  27.809  1.00  0.00     0.173 A 
ATOM     62  C   UNL A   1      51.070  29.954  29.550  1.00  0.00     0.173 A 
ATOM     63  F   UNL A   1      49.012  27.940  27.325  1.00  0.00    -0.203 F 
ATOM     64  C   UNL A   1      51.144  28.873  26.992  1.00  0.00     0.198 A 
ATOM     65  C   UNL A   1      52.162  30.196  28.717  1.00  0.00     0.198 A 
ATOM     66  F   UNL A   1      51.080  30.488  30.782  1.00  0.00    -0.203 F 
ATOM     67  F   UNL A   1      51.177  28.346  25.760  1.00  0.00    -0.200 F 
ATOM     68  C   UNL A   1      52.197  29.655  27.441  1.00  0.00     0.200 A 
ATOM     69  F   UNL A   1      53.172  30.969  29.142  1.00  0.00    -0.200 F 
ATOM     70  F   UNL A   1      53.240  29.900  26.635  1.00  0.00    -0.200 F 
ENDBRANCH  37  60
ENDBRANCH  11  12
ENDBRANCH   4   6
ENDBRANCH   3   4
ENDBRANCH   2   3
ENDBRANCH   1   2
BRANCH   1  71
ATOM     71  O   UNL A   1      45.190  18.806  24.618  1.00  0.00    -0.374 OA
BRANCH  71  72
ATOM     72  C   UNL A   1      43.775  18.971  24.742  1.00  0.00     0.202 C 
BRANCH  72  73
ATOM     73  C   UNL A   1      43.483  20.127  25.691  1.00  0.00     0.261 C 
BRANCH  73  74
ATOM     74  O   UNL A   1      42.126  20.537  25.501  1.00  0.00    -0.459 OA
BRANCH  74  75
ATOM     75  C   UNL A   1      41.218  20.237  26.463  1.00  0.00     0.357 C 
ATOM     76  O   UNL A   1      41.305  19.382  27.338  1.00  0.00    -0.244 OA
BRANCH  75  77
ATOM     77  C   UNL A   1      40.171  21.275  26.412  1.00  0.00     0.154 A 
ATOM     78  C   UNL A   1      40.440  22.522  26.832  1.00  0.00     0.065 A 
ATOM     79  N   UNL A   1      38.937  20.971  25.861  1.00  0.00    -0.205 N 
ATOM     80  C   UNL A   1      39.382  23.533  26.526  1.00  0.00     0.075 A 
ATOM     81  C   UNL A   1      37.934  21.947  25.746  1.00  0.00     0.166 A 
ATOM     82  N   UNL A   1      38.543  19.756  25.433  1.00  0.00    -0.145 NA
ATOM     83  N   UNL A   1      38.201  23.267  26.040  1.00  0.00    -0.228 NA
ATOM     84  C   UNL A   1      36.814  21.236  25.347  1.00  0.00     0.069 A 
ATOM     85  C   UNL A   1      37.267  19.901  25.150  1.00  0.00     0.184 A 
ATOM     86  C   UNL A   1      35.496  21.681  25.187  1.00  0.00    -0.028 A 
ATOM     87  N   UNL A   1      36.471  18.888  24.766  1.00  0.00    -0.222 NA
ATOM     88  C   UNL A   1      34.678  20.584  24.816  1.00  0.00     0.038 A 
ATOM     89  C   UNL A   1      35.169  19.257  24.626  1.00  0.00     0.147 A 
BRANCH  80  90
ATOM     90  C   UNL A   1      39.790  24.931  26.804  1.00  0.00     0.000 A 
ATOM     91  C   UNL A   1      40.649  25.578  25.914  1.00  0.00     0.012 A 
ATOM     92  C   UNL A   1      39.276  25.612  27.918  1.00  0.00     0.012 A 
ATOM     93  C   UNL A   1      40.987  26.918  26.127  1.00  0.00     0.021 A 
ATOM     94  C   UNL A   1      39.620  26.954  28.128  1.00  0.00     0.021 A 
ATOM     95  C   UNL A   1      40.470  27.601  27.230  1.00  0.00     0.041 A 
ATOM     96  Cl  UNL A   1      40.881  29.254  27.479  1.00  0.00    -0.084 Cl
ENDBRANCH  80  90
BRANCH  86  97
ATOM     97  C   UNL A   1      35.076  23.088  25.457  1.00  0.00     0.020 C 
ATOM     98  C   UNL A   1      33.658  23.560  25.239  1.00  0.00     0.009 C 
ATOM     99  C   UNL A   1      34.165  23.356  26.634  1.00  0.00     0.009 C 
ENDBRANCH  86  97
BRANCH  89 100
ATOM    100  C   UNL A   1      34.207  18.131  24.274  1.00  0.00     0.433 C 
ATOM    101  F   UNL A   1      33.293  17.888  25.255  1.00  0.00    -0.165 F 
ATOM    102  F   UNL A   1      33.487  18.388  23.143  1.00  0.00    -0.165 F 
ATOM    103  F   UNL A   1      34.828  16.938  24.045  1.00  0.00    -0.165 F 
ENDBRANCH  89 100
ENDBRANCH  75  77
ENDBRANCH  74  75
ENDBRANCH  73  74
ENDBRANCH  72  73
ENDBRANCH  71  72
ENDBRANCH   1  71
TORSDOF 17
ENDMDL
MODEL 3
REMARK VINA RESULT:      -9.6      5.885     11.484
REMARK SMILES O=C(OCCOCCOC(=O)c1cc(-c2ccc(Cl)cc2)nc2c3c(C4CC4)cc(C(F)(F)F)nc3nn12)c1ccc(-c2c3nc(c(-c4c(F)c(F)c(F)c(F)c4F)c4ccc([nH]4)c(-c4c(F)c(F)c(F)c(F)c4F)c4nc(c(-c5c(F)c(F)c(F)c(F)c5F)c5ccc2[nH]5)C=C4)C=C3)cc1
REMARK SMILES IDX 5 1 4 2 3 3 2 4 1 5 39 6 40 7 101 8 41 9 100 10 42 11 43 12
REMARK SMILES IDX 44 13 94 14 45 15 99 16 93 17 95 18 46 19 98 20 92 21 91 22
REMARK SMILES IDX 47 24 79 25 59 26 78 27 60 28 63 29 77 30 96 31 61 32 62 33
REMARK SMILES IDX 76 35 97 36 64 37 48 38 49 39 57 40 50 41 51 42 55 43 58 44
REMARK SMILES IDX 52 45 53 46 56 47 54 48 80 49 81 50 89 51 82 52 83 53 87 54
REMARK SMILES IDX 90 55 84 56 85 57 88 58 86 59 65 60 66 61 74 62 67 63 68 64
REMARK SMILES IDX 72 65 75 66 69 67 70 68 73 69 71 70 6 71 7 72 8 73 9 74
REMARK SMILES IDX 10 75 11 76 12 77 13 78 38 79 14 80 23 81 37 82 22 83 24 84
REMARK SMILES IDX 36 85 25 86 35 87 29 88 30 89 15 90 16 91 21 92 17 93 20 94
REMARK SMILES IDX 18 95 19 96 26 97 27 98 28 99 31 100 32 101 33 102 34 103
REMARK H PARENT 95 23 63 34
REMARK Flexibility Score: inf
ROOT
ATOM      1  C   UNL A   1      35.983  34.952  32.996  1.00  0.00     0.202 C 
ENDROOT
BRANCH   1   2
ATOM      2  C   UNL A   1      35.958  33.766  33.951  1.00  0.00     0.261 C 
BRANCH   2   3
ATOM      3  O   UNL A   1      37.108  32.928  33.733  1.00  0.00    -0.460 OA
BRANCH   3   4
ATOM      4  C   UNL A   1      37.040  31.761  33.035  1.00  0.00     0.338 C 
ATOM      5  O   UNL A   1      36.079  31.468  32.337  1.00  0.00    -0.246 OA
BRANCH   4   6
ATOM      6  C   UNL A   1      38.252  30.928  33.031  1.00  0.00     0.060 A 
ATOM      7  C   UNL A   1      38.220  29.600  32.596  1.00  0.00     0.016 A 
ATOM      8  C   UNL A   1      39.422  31.478  33.546  1.00  0.00     0.016 A 
ATOM      9  C   UNL A   1      39.272  28.756  32.850  1.00  0.00     0.010 A 
ATOM     10  C   UNL A   1      40.528  30.656  33.707  1.00  0.00     0.010 A 
ATOM     11  C   UNL A   1      40.431  29.292  33.386  1.00  0.00    -0.014 A 
BRANCH  11  12
ATOM     12  C   UNL A   1      41.573  28.388  33.341  1.00  0.00     0.031 A 
ATOM     13  C   UNL A   1      42.505  28.749  32.246  1.00  0.00     0.074 A 
ATOM     14  C   UNL A   1      41.893  27.634  34.407  1.00  0.00     0.049 A 
ATOM     15  N   UNL A   1      43.335  29.725  32.447  1.00  0.00    -0.248 NA
ATOM     16  C   UNL A   1      42.283  28.453  30.830  1.00  0.00     0.031 C 
ATOM     17  C   UNL A   1      41.535  27.980  35.787  1.00  0.00     0.029 A 
ATOM     18  N   UNL A   1      42.740  26.561  34.526  1.00  0.00    -0.354 N 
ATOM     19  C   UNL A   1      43.623  30.279  31.223  1.00  0.00     0.074 A 
ATOM     20  C   UNL A   1      43.024  29.408  30.236  1.00  0.00     0.031 C 
ATOM     21  C   UNL A   1      42.312  27.267  36.624  1.00  0.00     0.029 A 
ATOM     22  C   UNL A   1      43.117  26.322  35.852  1.00  0.00     0.049 A 
ATOM     23  H   UNL A   1      43.047  26.020  33.764  1.00  0.00     0.167 HD
ATOM     24  C   UNL A   1      44.277  31.466  31.144  1.00  0.00     0.037 A 
ATOM     25  C   UNL A   1      44.406  26.010  36.166  1.00  0.00     0.037 A 
ATOM     26  C   UNL A   1      44.516  32.118  32.406  1.00  0.00     0.049 A 
ATOM     27  C   UNL A   1      45.134  27.278  35.743  1.00  0.00     0.074 A 
ATOM     28  C   UNL A   1      44.077  33.233  33.087  1.00  0.00     0.029 A 
ATOM     29  N   UNL A   1      45.378  31.492  33.272  1.00  0.00    -0.354 N 
ATOM     30  N   UNL A   1      45.142  28.419  36.388  1.00  0.00    -0.248 NA
ATOM     31  C   UNL A   1      45.611  27.370  34.364  1.00  0.00     0.031 C 
ATOM     32  C   UNL A   1      44.375  32.979  34.468  1.00  0.00     0.029 A 
ATOM     33  C   UNL A   1      44.958  31.714  34.556  1.00  0.00     0.049 A 
ATOM     34  H   UNL A   1      46.170  30.968  33.011  1.00  0.00     0.167 HD
ATOM     35  C   UNL A   1      45.382  29.403  35.417  1.00  0.00     0.074 A 
ATOM     36  C   UNL A   1      45.735  28.682  34.217  1.00  0.00     0.031 C 
ATOM     37  C   UNL A   1      45.111  30.730  35.612  1.00  0.00     0.037 A 
BRANCH  24  38
ATOM     38  C   UNL A   1      44.969  31.949  29.943  1.00  0.00     0.064 A 
ATOM     39  C   UNL A   1      44.132  32.444  28.929  1.00  0.00     0.173 A 
ATOM     40  C   UNL A   1      46.320  31.758  29.657  1.00  0.00     0.173 A 
ATOM     41  F   UNL A   1      42.825  32.640  29.177  1.00  0.00    -0.203 F 
ATOM     42  C   UNL A   1      44.610  32.682  27.652  1.00  0.00     0.198 A 
ATOM     43  C   UNL A   1      46.805  32.018  28.373  1.00  0.00     0.198 A 
ATOM     44  F   UNL A   1      47.156  31.284  30.592  1.00  0.00    -0.203 F 
ATOM     45  F   UNL A   1      43.768  33.090  26.693  1.00  0.00    -0.200 F 
ATOM     46  C   UNL A   1      45.946  32.459  27.370  1.00  0.00     0.200 A 
ATOM     47  F   UNL A   1      48.098  31.811  28.089  1.00  0.00    -0.200 F 
ATOM     48  F   UNL A   1      46.404  32.657  26.126  1.00  0.00    -0.200 F 
ENDBRANCH  24  38
BRANCH  25  49
ATOM     49  C   UNL A   1      44.785  24.622  35.726  1.00  0.00     0.064 A 
ATOM     50  C   UNL A   1      45.183  23.687  36.710  1.00  0.00     0.173 A 
ATOM     51  C   UNL A   1      44.729  24.136  34.413  1.00  0.00     0.173 A 
ATOM     52  F   UNL A   1      45.387  24.084  37.976  1.00  0.00    -0.203 F 
ATOM     53  C   UNL A   1      45.340  22.331  36.426  1.00  0.00     0.198 A 
ATOM     54  C   UNL A   1      44.855  22.771  34.132  1.00  0.00     0.198 A 
ATOM     55  F   UNL A   1      44.530  24.958  33.377  1.00  0.00    -0.203 F 
ATOM     56  F   UNL A   1      45.651  21.475  37.409  1.00  0.00    -0.200 F 
ATOM     57  C   UNL A   1      45.135  21.866  35.142  1.00  0.00     0.200 A 
ATOM     58  F   UNL A   1      44.669  22.332  32.879  1.00  0.00    -0.200 F 
ATOM     59  F   UNL A   1      45.207  20.555  34.877  1.00  0.00    -0.200 F 
ENDBRANCH  25  49
BRANCH  37  60
ATOM     60  C   UNL A   1      44.796  31.110  37.020  1.00  0.00     0.064 A 
ATOM     61  C   UNL A   1      45.845  31.367  37.914  1.00  0.00     0.173 A 
ATOM     62  C   UNL A   1      43.482  31.283  37.479  1.00  0.00     0.173 A 
ATOM     63  F   UNL A   1      47.121  31.236  37.516  1.00  0.00    -0.203 F 
ATOM     64  C   UNL A   1      45.592  31.794  39.212  1.00  0.00     0.198 A 
ATOM     65  C   UNL A   1      43.233  31.740  38.773  1.00  0.00     0.198 A 
ATOM     66  F   UNL A   1      42.432  31.039  36.678  1.00  0.00    -0.203 F 
ATOM     67  F   UNL A   1      46.613  32.035  40.046  1.00  0.00    -0.200 F 
ATOM     68  C   UNL A   1      44.288  31.994  39.636  1.00  0.00     0.200 A 
ATOM     69  F   UNL A   1      41.973  31.954  39.177  1.00  0.00    -0.200 F 
ATOM     70  F   UNL A   1      44.048  32.449  40.874  1.00  0.00    -0.200 F 
ENDBRANCH  37  60
ENDBRANCH  11  12
ENDBRANCH   4   6
ENDBRANCH   3   4
ENDBRANCH   2   3
ENDBRANCH   1   2
BRANCH   1  71
ATOM     71  O   UNL A   1      34.870  35.826  33.131  1.00  0.00    -0.374 OA
BRANCH  71  72
ATOM     72  C   UNL A   1      33.609  35.324  32.682  1.00  0.00     0.202 C 
BRANCH  72  73
ATOM     73  C   UNL A   1      33.344  35.818  31.266  1.00  0.00     0.261 C 
BRANCH  73  74
ATOM     74  O   UNL A   1      32.994  34.696  30.452  1.00  0.00    -0.459 OA
BRANCH  74  75
ATOM     75  C   UNL A   1      33.260  34.750  29.123  1.00  0.00     0.357 C 
ATOM     76  O   UNL A   1      33.147  35.714  28.374  1.00  0.00    -0.244 OA
BRANCH  75  77
ATOM     77  C   UNL A   1      33.925  33.484  28.761  1.00  0.00     0.154 A 
ATOM     78  C   UNL A   1      33.222  32.497  28.180  1.00  0.00     0.065 A 
ATOM     79  N   UNL A   1      35.290  33.352  28.958  1.00  0.00    -0.205 N 
ATOM     80  C   UNL A   1      34.042  31.361  27.659  1.00  0.00     0.075 A 
ATOM     81  C   UNL A   1      35.967  32.182  28.577  1.00  0.00     0.166 A 
ATOM     82  N   UNL A   1      36.092  34.256  29.553  1.00  0.00    -0.145 NA
ATOM     83  N   UNL A   1      35.320  31.197  27.861  1.00  0.00    -0.228 NA
ATOM     84  C   UNL A   1      37.239  32.340  29.102  1.00  0.00     0.069 A 
ATOM     85  C   UNL A   1      37.251  33.647  29.667  1.00  0.00     0.184 A 
ATOM     86  C   UNL A   1      38.305  31.432  29.126  1.00  0.00    -0.028 A 
ATOM     87  N   UNL A   1      38.314  34.184  30.293  1.00  0.00    -0.222 NA
ATOM     88  C   UNL A   1      39.394  32.015  29.821  1.00  0.00     0.038 A 
ATOM     89  C   UNL A   1      39.371  33.331  30.373  1.00  0.00     0.147 A 
BRANCH  80  90
ATOM     90  C   UNL A   1      33.273  30.395  26.838  1.00  0.00     0.000 A 
ATOM     91  C   UNL A   1      32.102  30.819  26.210  1.00  0.00     0.012 A 
ATOM     92  C   UNL A   1      33.748  29.088  26.650  1.00  0.00     0.012 A 
ATOM     93  C   UNL A   1      31.404  29.938  25.376  1.00  0.00     0.021 A 
ATOM     94  C   UNL A   1      33.044  28.209  25.817  1.00  0.00     0.021 A 
ATOM     95  C   UNL A   1      31.878  28.640  25.181  1.00  0.00     0.041 A 
ATOM     96  Cl  UNL A   1      31.021  27.566  24.144  1.00  0.00    -0.084 Cl
ENDBRANCH  80  90
BRANCH  86  97
ATOM     97  C   UNL A   1      38.211  30.056  28.557  1.00  0.00     0.020 C 
ATOM     98  C   UNL A   1      39.093  28.926  29.032  1.00  0.00     0.009 C 
ATOM     99  C   UNL A   1      37.647  28.953  29.425  1.00  0.00     0.009 C 
ENDBRANCH  86  97
BRANCH  89 100
ATOM    100  C   UNL A   1      40.574  33.855  31.145  1.00  0.00     0.433 C 
ATOM    101  F   UNL A   1      40.224  34.540  32.271  1.00  0.00    -0.165 F 
ATOM    102  F   UNL A   1      41.411  32.859  31.555  1.00  0.00    -0.165 F 
ATOM    103  F   UNL A   1      41.353  34.710  30.422  1.00  0.00    -0.165 F 
ENDBRANCH  89 100
ENDBRANCH  75  77
ENDBRANCH  74  75
ENDBRANCH  73  74
ENDBRANCH  72  73
ENDBRANCH  71  72
ENDBRANCH   1  71
TORSDOF 17
ENDMDL
