MODEL 1
REMARK VINA RESULT:     -11.6      0.000      0.000
REMARK SMILES C[C@@H](C(=O)OCCOCCOC(=O)c1ccc(-c2c3nc(c(-c4c(F)c(F)c(F)c(F)c4F)c4ccc([nH]4)c(-c4c(F)c(F)c(F)c(F)c4F)c4nc(c(-c5c(F)c(F)c(F)c(F)c5F)c5ccc2[nH]5)C=C4)C=C3)cc1)c1ccc(C[C@H]2CCC[C@@H]2O)cc1F
REMARK SMILES IDX 7 1 6 2 5 3 3 4 4 5 2 6 1 7 77 8 78 9 89 10 79 11 88 12
REMARK SMILES IDX 90 13 80 14 81 15 82 16 83 17 86 18 84 19 85 20 87 21 8 23
REMARK SMILES IDX 9 24 10 25 11 26 12 27 13 28 14 29 15 30 76 31 16 32 75 33
REMARK SMILES IDX 17 34 18 35 19 36 69 37 20 38 74 39 68 40 70 41 21 42 73 43
REMARK SMILES IDX 67 44 66 45 22 47 54 48 34 49 53 50 35 51 38 52 52 53 71 54
REMARK SMILES IDX 36 55 37 56 51 58 72 59 39 60 23 61 24 62 32 63 25 64 26 65
REMARK SMILES IDX 30 66 33 67 27 68 28 69 31 70 29 71 55 72 56 73 64 74 57 75
REMARK SMILES IDX 58 76 62 77 65 78 59 79 60 80 63 81 61 82 40 83 41 84 49 85
REMARK SMILES IDX 42 86 43 87 47 88 50 89 44 90 45 91 48 92 46 93
REMARK H PARENT 87 22 70 46 38 57
REMARK Flexibility Score: inf
ROOT
ATOM      1  C   UNL A   1      33.999  19.378  24.602  1.00  0.00     0.202 C 
ENDROOT
BRANCH   1   2
ATOM      2  C   UNL A   1      33.506  20.718  25.155  1.00  0.00     0.261 C 
BRANCH   2   3
ATOM      3  O   UNL A   1      33.429  21.695  24.097  1.00  0.00    -0.463 OA
BRANCH   3   4
ATOM      4  C   UNL A   1      33.211  22.980  24.494  1.00  0.00     0.313 C 
ATOM      5  O   UNL A   1      32.207  23.346  25.094  1.00  0.00    -0.252 OA
BRANCH   4   6
ATOM      6  C   UNL A   1      34.377  23.919  24.138  1.00  0.00     0.129 C 
ATOM      7  C   UNL A   1      35.588  23.834  25.073  1.00  0.00     0.025 C 
BRANCH   6   8
ATOM      8  C   UNL A   1      33.841  25.336  23.982  1.00  0.00     0.002 A 
ATOM      9  C   UNL A   1      33.782  26.250  25.045  1.00  0.00     0.008 A 
ATOM     10  C   UNL A   1      33.239  25.701  22.773  1.00  0.00     0.127 A 
ATOM     11  C   UNL A   1      33.069  27.447  24.919  1.00  0.00     0.004 A 
ATOM     12  C   UNL A   1      32.534  26.893  22.640  1.00  0.00     0.043 A 
ATOM     13  F   UNL A   1      33.295  24.868  21.723  1.00  0.00    -0.207 F 
ATOM     14  C   UNL A   1      32.396  27.756  23.732  1.00  0.00    -0.045 A 
BRANCH  14  15
ATOM     15  C   UNL A   1      31.497  28.966  23.642  1.00  0.00     0.041 C 
BRANCH  15  16
ATOM     16  C   UNL A   1      30.175  28.767  22.876  1.00  0.00     0.022 C 
ATOM     17  C   UNL A   1      29.158  27.797  23.501  1.00  0.00     0.007 C 
ATOM     18  C   UNL A   1      29.361  30.036  22.611  1.00  0.00     0.117 C 
ATOM     19  C   UNL A   1      27.773  28.338  23.132  1.00  0.00     0.003 C 
ATOM     20  C   UNL A   1      28.021  29.477  22.154  1.00  0.00     0.032 C 
BRANCH  18  21
ATOM     21  O   UNL A   1      29.967  30.832  21.610  1.00  0.00    -0.393 OA
ATOM     22  H   UNL A   1      30.346  31.628  22.016  1.00  0.00     0.210 HD
ENDBRANCH  18  21
ENDBRANCH  15  16
ENDBRANCH  14  15
ENDBRANCH   6   8
ENDBRANCH   4   6
ENDBRANCH   3   4
ENDBRANCH   2   3
ENDBRANCH   1   2
BRANCH   1  23
ATOM     23  O   UNL A   1      35.408  19.145  24.695  1.00  0.00    -0.374 OA
BRANCH  23  24
ATOM     24  C   UNL A   1      36.227  20.263  25.026  1.00  0.00     0.202 C 
BRANCH  24  25
ATOM     25  C   UNL A   1      37.741  20.033  24.959  1.00  0.00     0.261 C 
BRANCH  25  26
ATOM     26  O   UNL A   1      38.485  21.217  25.288  1.00  0.00    -0.460 OA
BRANCH  26  27
ATOM     27  C   UNL A   1      39.510  21.011  26.149  1.00  0.00     0.338 C 
ATOM     28  O   UNL A   1      40.135  19.972  26.325  1.00  0.00    -0.246 OA
BRANCH  27  29
ATOM     29  C   UNL A   1      39.920  22.283  26.768  1.00  0.00     0.060 A 
ATOM     30  C   UNL A   1      39.241  23.438  26.363  1.00  0.00     0.016 A 
ATOM     31  C   UNL A   1      40.986  22.363  27.667  1.00  0.00     0.016 A 
ATOM     32  C   UNL A   1      39.660  24.687  26.813  1.00  0.00     0.010 A 
ATOM     33  C   UNL A   1      41.412  23.619  28.111  1.00  0.00     0.010 A 
ATOM     34  C   UNL A   1      40.774  24.788  27.656  1.00  0.00    -0.014 A 
BRANCH  34  35
ATOM     35  C   UNL A   1      41.357  26.125  27.924  1.00  0.00     0.031 A 
ATOM     36  C   UNL A   1      42.744  26.425  27.424  1.00  0.00     0.074 A 
ATOM     37  C   UNL A   1      40.645  27.073  28.555  1.00  0.00     0.049 A 
ATOM     38  N   UNL A   1      43.449  27.522  27.536  1.00  0.00    -0.248 NA
ATOM     39  C   UNL A   1      43.427  25.342  26.699  1.00  0.00     0.031 C 
ATOM     40  C   UNL A   1      39.278  26.915  29.047  1.00  0.00     0.029 A 
ATOM     41  N   UNL A   1      40.978  28.362  28.889  1.00  0.00    -0.354 N 
ATOM     42  C   UNL A   1      44.655  27.260  26.900  1.00  0.00     0.074 A 
ATOM     43  C   UNL A   1      44.601  25.893  26.430  1.00  0.00     0.031 C 
ATOM     44  C   UNL A   1      38.888  28.064  29.626  1.00  0.00     0.029 A 
ATOM     45  C   UNL A   1      39.987  29.027  29.568  1.00  0.00     0.049 A 
ATOM     46  H   UNL A   1      41.845  28.771  28.663  1.00  0.00     0.167 HD
ATOM     47  C   UNL A   1      45.710  28.090  26.717  1.00  0.00     0.037 A 
ATOM     48  C   UNL A   1      39.979  30.267  30.096  1.00  0.00     0.037 A 
ATOM     49  C   UNL A   1      45.761  29.451  27.180  1.00  0.00     0.049 A 
ATOM     50  C   UNL A   1      41.192  31.145  29.937  1.00  0.00     0.074 A 
ATOM     51  C   UNL A   1      46.774  30.380  27.021  1.00  0.00     0.029 A 
ATOM     52  N   UNL A   1      44.754  30.076  27.900  1.00  0.00    -0.354 N 
ATOM     53  N   UNL A   1      42.316  30.902  29.308  1.00  0.00    -0.248 NA
ATOM     54  C   UNL A   1      41.133  32.475  30.562  1.00  0.00     0.031 C 
ATOM     55  C   UNL A   1      46.402  31.552  27.688  1.00  0.00     0.029 A 
ATOM     56  C   UNL A   1      45.135  31.370  28.219  1.00  0.00     0.049 A 
ATOM     57  H   UNL A   1      43.896  29.662  28.148  1.00  0.00     0.167 HD
ATOM     58  C   UNL A   1      43.084  32.052  29.436  1.00  0.00     0.074 A 
ATOM     59  C   UNL A   1      42.293  33.000  30.193  1.00  0.00     0.031 C 
ATOM     60  C   UNL A   1      44.330  32.303  28.966  1.00  0.00     0.037 A 
BRANCH  47  61
ATOM     61  C   UNL A   1      46.910  27.539  26.005  1.00  0.00     0.064 A 
ATOM     62  C   UNL A   1      47.054  27.643  24.613  1.00  0.00     0.173 A 
ATOM     63  C   UNL A   1      47.945  26.929  26.730  1.00  0.00     0.173 A 
ATOM     64  F   UNL A   1      46.086  28.203  23.874  1.00  0.00    -0.203 F 
ATOM     65  C   UNL A   1      48.182  27.136  23.972  1.00  0.00     0.198 A 
ATOM     66  C   UNL A   1      49.082  26.448  26.088  1.00  0.00     0.198 A 
ATOM     67  F   UNL A   1      47.856  26.807  28.062  1.00  0.00    -0.203 F 
ATOM     68  F   UNL A   1      48.281  27.209  22.637  1.00  0.00    -0.200 F 
ATOM     69  C   UNL A   1      49.198  26.546  24.710  1.00  0.00     0.200 A 
ATOM     70  F   UNL A   1      50.067  25.887  26.804  1.00  0.00    -0.200 F 
ATOM     71  F   UNL A   1      50.285  26.066  24.091  1.00  0.00    -0.200 F 
ENDBRANCH  47  61
BRANCH  48  72
ATOM     72  C   UNL A   1      38.782  30.753  30.830  1.00  0.00     0.064 A 
ATOM     73  C   UNL A   1      37.722  31.376  30.157  1.00  0.00     0.173 A 
ATOM     74  C   UNL A   1      38.684  30.624  32.224  1.00  0.00     0.173 A 
ATOM     75  F   UNL A   1      37.782  31.547  28.828  1.00  0.00    -0.203 F 
ATOM     76  C   UNL A   1      36.619  31.868  30.851  1.00  0.00     0.198 A 
ATOM     77  C   UNL A   1      37.568  31.092  32.913  1.00  0.00     0.198 A 
ATOM     78  F   UNL A   1      39.673  30.039  32.915  1.00  0.00    -0.203 F 
ATOM     79  F   UNL A   1      35.642  32.501  30.188  1.00  0.00    -0.200 F 
ATOM     80  C   UNL A   1      36.540  31.720  32.228  1.00  0.00     0.200 A 
ATOM     81  F   UNL A   1      37.492  30.938  34.243  1.00  0.00    -0.200 F 
ATOM     82  F   UNL A   1      35.478  32.192  32.895  1.00  0.00    -0.200 F 
ENDBRANCH  48  72
BRANCH  60  83
ATOM     83  C   UNL A   1      44.906  33.665  29.225  1.00  0.00     0.064 A 
ATOM     84  C   UNL A   1      45.693  33.930  30.355  1.00  0.00     0.173 A 
ATOM     85  C   UNL A   1      44.702  34.708  28.307  1.00  0.00     0.173 A 
ATOM     86  F   UNL A   1      45.905  32.970  31.268  1.00  0.00    -0.203 F 
ATOM     87  C   UNL A   1      46.236  35.194  30.568  1.00  0.00     0.198 A 
ATOM     88  C   UNL A   1      45.270  35.962  28.510  1.00  0.00     0.198 A 
ATOM     89  F   UNL A   1      43.962  34.505  27.206  1.00  0.00    -0.203 F 
ATOM     90  F   UNL A   1      46.948  35.436  31.678  1.00  0.00    -0.200 F 
ATOM     91  C   UNL A   1      46.030  36.206  29.643  1.00  0.00     0.200 A 
ATOM     92  F   UNL A   1      45.081  36.935  27.607  1.00  0.00    -0.200 F 
ATOM     93  F   UNL A   1      46.560  37.420  29.847  1.00  0.00    -0.200 F 
ENDBRANCH  60  83
ENDBRANCH  34  35
ENDBRANCH  27  29
ENDBRANCH  26  27
ENDBRANCH  25  26
ENDBRANCH  24  25
ENDBRANCH  23  24
ENDBRANCH   1  23
TORSDOF 18
ENDMDL
MODEL 2
REMARK VINA RESULT:     -11.6      5.056      8.458
REMARK SMILES C[C@@H](C(=O)OCCOCCOC(=O)c1ccc(-c2c3nc(c(-c4c(F)c(F)c(F)c(F)c4F)c4ccc([nH]4)c(-c4c(F)c(F)c(F)c(F)c4F)c4nc(c(-c5c(F)c(F)c(F)c(F)c5F)c5ccc2[nH]5)C=C4)C=C3)cc1)c1ccc(C[C@H]2CCC[C@@H]2O)cc1F
REMARK SMILES IDX 7 1 6 2 5 3 3 4 4 5 2 6 1 7 77 8 78 9 89 10 79 11 88 12
REMARK SMILES IDX 90 13 80 14 81 15 82 16 83 17 86 18 84 19 85 20 87 21 8 23
REMARK SMILES IDX 9 24 10 25 11 26 12 27 13 28 14 29 15 30 76 31 16 32 75 33
REMARK SMILES IDX 17 34 18 35 19 36 69 37 20 38 74 39 68 40 70 41 21 42 73 43
REMARK SMILES IDX 67 44 66 45 22 47 54 48 34 49 53 50 35 51 38 52 52 53 71 54
REMARK SMILES IDX 36 55 37 56 51 58 72 59 39 60 23 61 24 62 32 63 25 64 26 65
REMARK SMILES IDX 30 66 33 67 27 68 28 69 31 70 29 71 55 72 56 73 64 74 57 75
REMARK SMILES IDX 58 76 62 77 65 78 59 79 60 80 63 81 61 82 40 83 41 84 49 85
REMARK SMILES IDX 42 86 43 87 47 88 50 89 44 90 45 91 48 92 46 93
REMARK H PARENT 87 22 70 46 38 57
REMARK Flexibility Score: inf
ROOT
ATOM      1  C   UNL A   1      31.957  29.736  26.936  1.00  0.00     0.202 C 
ENDROOT
BRANCH   1   2
ATOM      2  C   UNL A   1      31.946  28.357  27.601  1.00  0.00     0.261 C 
BRANCH   2   3
ATOM      3  O   UNL A   1      32.774  27.439  26.859  1.00  0.00    -0.463 OA
BRANCH   3   4
ATOM      4  C   UNL A   1      32.121  26.402  26.263  1.00  0.00     0.313 C 
ATOM      5  O   UNL A   1      31.442  25.585  26.875  1.00  0.00    -0.252 OA
BRANCH   4   6
ATOM      6  C   UNL A   1      32.298  26.385  24.735  1.00  0.00     0.129 C 
ATOM      7  C   UNL A   1      33.638  26.930  24.231  1.00  0.00     0.025 C 
BRANCH   6   8
ATOM      8  C   UNL A   1      31.097  27.063  24.091  1.00  0.00     0.002 A 
ATOM      9  C   UNL A   1      31.056  28.438  23.811  1.00  0.00     0.008 A 
ATOM     10  C   UNL A   1      29.923  26.325  23.906  1.00  0.00     0.127 A 
ATOM     11  C   UNL A   1      29.857  29.057  23.444  1.00  0.00     0.004 A 
ATOM     12  C   UNL A   1      28.728  26.935  23.536  1.00  0.00     0.043 A 
ATOM     13  F   UNL A   1      29.924  25.004  24.136  1.00  0.00    -0.207 F 
ATOM     14  C   UNL A   1      28.671  28.321  23.352  1.00  0.00    -0.045 A 
BRANCH  14  15
ATOM     15  C   UNL A   1      27.347  29.006  23.113  1.00  0.00     0.041 C 
BRANCH  15  16
ATOM     16  C   UNL A   1      27.420  30.501  22.745  1.00  0.00     0.022 C 
ATOM     17  C   UNL A   1      27.921  31.455  23.842  1.00  0.00     0.007 C 
ATOM     18  C   UNL A   1      28.283  30.847  21.530  1.00  0.00     0.117 C 
ATOM     19  C   UNL A   1      28.663  32.584  23.116  1.00  0.00     0.003 C 
ATOM     20  C   UNL A   1      28.405  32.361  21.634  1.00  0.00     0.032 C 
BRANCH  18  21
ATOM     21  O   UNL A   1      27.654  30.452  20.326  1.00  0.00    -0.393 OA
ATOM     22  H   UNL A   1      26.964  31.095  20.097  1.00  0.00     0.210 HD
ENDBRANCH  18  21
ENDBRANCH  15  16
ENDBRANCH  14  15
ENDBRANCH   6   8
ENDBRANCH   4   6
ENDBRANCH   3   4
ENDBRANCH   2   3
ENDBRANCH   1   2
BRANCH   1  23
ATOM     23  O   UNL A   1      33.249  30.309  26.710  1.00  0.00    -0.374 OA
BRANCH  23  24
ATOM     24  C   UNL A   1      33.640  31.378  27.566  1.00  0.00     0.202 C 
BRANCH  24  25
ATOM     25  C   UNL A   1      32.697  32.585  27.611  1.00  0.00     0.261 C 
BRANCH  25  26
ATOM     26  O   UNL A   1      33.403  33.831  27.490  1.00  0.00    -0.460 OA
BRANCH  26  27
ATOM     27  C   UNL A   1      33.377  34.597  28.606  1.00  0.00     0.338 C 
ATOM     28  O   UNL A   1      32.528  35.421  28.923  1.00  0.00    -0.246 OA
BRANCH  27  29
ATOM     29  C   UNL A   1      34.454  34.194  29.528  1.00  0.00     0.060 A 
ATOM     30  C   UNL A   1      35.771  34.350  29.078  1.00  0.00     0.016 A 
ATOM     31  C   UNL A   1      34.191  33.613  30.770  1.00  0.00     0.016 A 
ATOM     32  C   UNL A   1      36.831  33.875  29.844  1.00  0.00     0.010 A 
ATOM     33  C   UNL A   1      35.257  33.128  31.536  1.00  0.00     0.010 A 
ATOM     34  C   UNL A   1      36.577  33.223  31.058  1.00  0.00    -0.014 A 
BRANCH  34  35
ATOM     35  C   UNL A   1      37.684  32.507  31.738  1.00  0.00     0.031 A 
ATOM     36  C   UNL A   1      38.337  31.348  31.036  1.00  0.00     0.074 A 
ATOM     37  C   UNL A   1      38.134  32.914  32.936  1.00  0.00     0.049 A 
ATOM     38  N   UNL A   1      39.321  30.583  31.434  1.00  0.00    -0.248 NA
ATOM     39  C   UNL A   1      37.809  31.007  29.705  1.00  0.00     0.031 C 
ATOM     40  C   UNL A   1      37.611  34.049  33.694  1.00  0.00     0.029 A 
ATOM     41  N   UNL A   1      39.140  32.415  33.726  1.00  0.00    -0.354 N 
ATOM     42  C   UNL A   1      39.528  29.671  30.407  1.00  0.00     0.074 A 
ATOM     43  C   UNL A   1      38.549  29.957  29.380  1.00  0.00     0.031 C 
ATOM     44  C   UNL A   1      38.299  34.158  34.844  1.00  0.00     0.029 A 
ATOM     45  C   UNL A   1      39.290  33.086  34.914  1.00  0.00     0.049 A 
ATOM     46  H   UNL A   1      39.701  31.649  33.465  1.00  0.00     0.167 HD
ATOM     47  C   UNL A   1      40.457  28.690  30.324  1.00  0.00     0.037 A 
ATOM     48  C   UNL A   1      40.123  32.847  35.946  1.00  0.00     0.037 A 
ATOM     49  C   UNL A   1      41.433  28.409  31.343  1.00  0.00     0.049 A 
ATOM     50  C   UNL A   1      41.102  31.706  35.856  1.00  0.00     0.074 A 
ATOM     51  C   UNL A   1      42.433  27.453  31.341  1.00  0.00     0.029 A 
ATOM     52  N   UNL A   1      41.527  29.084  32.551  1.00  0.00    -0.354 N 
ATOM     53  N   UNL A   1      41.311  30.868  34.870  1.00  0.00    -0.248 NA
ATOM     54  C   UNL A   1      41.961  31.477  37.027  1.00  0.00     0.031 C 
ATOM     55  C   UNL A   1      43.101  27.516  32.568  1.00  0.00     0.029 A 
ATOM     56  C   UNL A   1      42.550  28.544  33.315  1.00  0.00     0.049 A 
ATOM     57  H   UNL A   1      40.952  29.834  32.825  1.00  0.00     0.167 HD
ATOM     58  C   UNL A   1      42.342  30.035  35.286  1.00  0.00     0.074 A 
ATOM     59  C   UNL A   1      42.724  30.475  36.612  1.00  0.00     0.031 C 
ATOM     60  C   UNL A   1      42.923  29.001  34.630  1.00  0.00     0.037 A 
BRANCH  47  61
ATOM     61  C   UNL A   1      40.446  27.826  29.098  1.00  0.00     0.064 A 
ATOM     62  C   UNL A   1      41.233  28.127  27.976  1.00  0.00     0.173 A 
ATOM     63  C   UNL A   1      39.662  26.663  29.058  1.00  0.00     0.173 A 
ATOM     64  F   UNL A   1      41.988  29.236  27.959  1.00  0.00    -0.203 F 
ATOM     65  C   UNL A   1      41.219  27.306  26.852  1.00  0.00     0.198 A 
ATOM     66  C   UNL A   1      39.671  25.831  27.942  1.00  0.00     0.198 A 
ATOM     67  F   UNL A   1      38.893  26.329  30.104  1.00  0.00    -0.203 F 
ATOM     68  F   UNL A   1      41.947  27.634  25.774  1.00  0.00    -0.200 F 
ATOM     69  C   UNL A   1      40.444  26.155  26.838  1.00  0.00     0.200 A 
ATOM     70  F   UNL A   1      38.930  24.714  27.935  1.00  0.00    -0.200 F 
ATOM     71  F   UNL A   1      40.437  25.363  25.757  1.00  0.00    -0.200 F 
ENDBRANCH  47  61
BRANCH  48  72
ATOM     72  C   UNL A   1      40.067  33.704  37.158  1.00  0.00     0.064 A 
ATOM     73  C   UNL A   1      39.155  33.439  38.190  1.00  0.00     0.173 A 
ATOM     74  C   UNL A   1      40.908  34.817  37.301  1.00  0.00     0.173 A 
ATOM     75  F   UNL A   1      38.311  32.402  38.088  1.00  0.00    -0.203 F 
ATOM     76  C   UNL A   1      39.075  34.265  39.309  1.00  0.00     0.198 A 
ATOM     77  C   UNL A   1      40.845  35.627  38.433  1.00  0.00     0.198 A 
ATOM     78  F   UNL A   1      41.795  35.115  36.340  1.00  0.00    -0.203 F 
ATOM     79  F   UNL A   1      38.163  34.017  40.259  1.00  0.00    -0.200 F 
ATOM     80  C   UNL A   1      39.924  35.355  39.432  1.00  0.00     0.200 A 
ATOM     81  F   UNL A   1      41.675  36.673  38.551  1.00  0.00    -0.200 F 
ATOM     82  F   UNL A   1      39.848  36.149  40.508  1.00  0.00    -0.200 F 
ENDBRANCH  48  72
BRANCH  60  83
ATOM     83  C   UNL A   1      44.055  28.294  35.316  1.00  0.00     0.064 A 
ATOM     84  C   UNL A   1      43.833  27.198  36.163  1.00  0.00     0.173 A 
ATOM     85  C   UNL A   1      45.381  28.693  35.091  1.00  0.00     0.173 A 
ATOM     86  F   UNL A   1      42.583  26.787  36.421  1.00  0.00    -0.203 F 
ATOM     87  C   UNL A   1      44.897  26.541  36.775  1.00  0.00     0.198 A 
ATOM     88  C   UNL A   1      46.444  28.016  35.682  1.00  0.00     0.198 A 
ATOM     89  F   UNL A   1      45.648  29.732  34.284  1.00  0.00    -0.203 F 
ATOM     90  F   UNL A   1      44.659  25.523  37.614  1.00  0.00    -0.200 F 
ATOM     91  C   UNL A   1      46.201  26.946  36.529  1.00  0.00     0.200 A 
ATOM     92  F   UNL A   1      47.704  28.400  35.432  1.00  0.00    -0.200 F 
ATOM     93  F   UNL A   1      47.224  26.306  37.113  1.00  0.00    -0.200 F 
ENDBRANCH  60  83
ENDBRANCH  34  35
ENDBRANCH  27  29
ENDBRANCH  26  27
ENDBRANCH  25  26
ENDBRANCH  24  25
ENDBRANCH  23  24
ENDBRANCH   1  23
TORSDOF 18
ENDMDL
MODEL 3
REMARK VINA RESULT:     -11.5      4.832      7.730
REMARK SMILES C[C@@H](C(=O)OCCOCCOC(=O)c1ccc(-c2c3nc(c(-c4c(F)c(F)c(F)c(F)c4F)c4ccc([nH]4)c(-c4c(F)c(F)c(F)c(F)c4F)c4nc(c(-c5c(F)c(F)c(F)c(F)c5F)c5ccc2[nH]5)C=C4)C=C3)cc1)c1ccc(C[C@H]2CCC[C@@H]2O)cc1F
REMARK SMILES IDX 7 1 6 2 5 3 3 4 4 5 2 6 1 7 77 8 78 9 89 10 79 11 88 12
REMARK SMILES IDX 90 13 80 14 81 15 82 16 83 17 86 18 84 19 85 20 87 21 8 23
REMARK SMILES IDX 9 24 10 25 11 26 12 27 13 28 14 29 15 30 76 31 16 32 75 33
REMARK SMILES IDX 17 34 18 35 19 36 69 37 20 38 74 39 68 40 70 41 21 42 73 43
REMARK SMILES IDX 67 44 66 45 22 47 54 48 34 49 53 50 35 51 38 52 52 53 71 54
REMARK SMILES IDX 36 55 37 56 51 58 72 59 39 60 23 61 24 62 32 63 25 64 26 65
REMARK SMILES IDX 30 66 33 67 27 68 28 69 31 70 29 71 55 72 56 73 64 74 57 75
REMARK SMILES IDX 58 76 62 77 65 78 59 79 60 80 63 81 61 82 40 83 41 84 49 85
REMARK SMILES IDX 42 86 43 87 47 88 50 89 44 90 45 91 48 92 46 93
REMARK H PARENT 87 22 70 46 38 57
REMARK Flexibility Score: inf
ROOT
ATOM      1  C   UNL A   1      44.345  19.307  24.736  1.00  0.00     0.202 C 
ENDROOT
BRANCH   1   2
ATOM      2  C   UNL A   1      43.217  19.334  25.772  1.00  0.00     0.261 C 
BRANCH   2   3
ATOM      3  O   UNL A   1      42.187  20.256  25.363  1.00  0.00    -0.463 OA
BRANCH   3   4
ATOM      4  C   UNL A   1      41.059  20.259  26.126  1.00  0.00     0.313 C 
ATOM      5  O   UNL A   1      40.414  19.251  26.392  1.00  0.00    -0.252 OA
BRANCH   4   6
ATOM      6  C   UNL A   1      40.697  21.660  26.649  1.00  0.00     0.129 C 
ATOM      7  C   UNL A   1      40.913  21.868  28.152  1.00  0.00     0.025 C 
BRANCH   6   8
ATOM      8  C   UNL A   1      39.286  22.009  26.195  1.00  0.00     0.002 A 
ATOM      9  C   UNL A   1      38.525  21.174  25.363  1.00  0.00     0.008 A 
ATOM     10  C   UNL A   1      38.778  23.279  26.486  1.00  0.00     0.127 A 
ATOM     11  C   UNL A   1      37.340  21.636  24.779  1.00  0.00     0.004 A 
ATOM     12  C   UNL A   1      37.597  23.742  25.913  1.00  0.00     0.043 A 
ATOM     13  F   UNL A   1      39.460  24.100  27.299  1.00  0.00    -0.207 F 
ATOM     14  C   UNL A   1      36.892  22.940  25.008  1.00  0.00    -0.045 A 
BRANCH  14  15
ATOM     15  C   UNL A   1      35.704  23.496  24.260  1.00  0.00     0.041 C 
BRANCH  15  16
ATOM     16  C   UNL A   1      34.652  22.466  23.805  1.00  0.00     0.022 C 
ATOM     17  C   UNL A   1      33.985  21.631  24.911  1.00  0.00     0.007 C 
ATOM     18  C   UNL A   1      33.475  23.027  23.004  1.00  0.00     0.117 C 
ATOM     19  C   UNL A   1      32.556  21.355  24.431  1.00  0.00     0.003 C 
ATOM     20  C   UNL A   1      32.497  21.860  22.998  1.00  0.00     0.032 C 
BRANCH  18  21
ATOM     21  O   UNL A   1      33.872  23.386  21.694  1.00  0.00    -0.393 OA
ATOM     22  H   UNL A   1      34.700  23.890  21.735  1.00  0.00     0.210 HD
ENDBRANCH  18  21
ENDBRANCH  15  16
ENDBRANCH  14  15
ENDBRANCH   6   8
ENDBRANCH   4   6
ENDBRANCH   3   4
ENDBRANCH   2   3
ENDBRANCH   1   2
BRANCH   1  23
ATOM     23  O   UNL A   1      44.651  20.560  24.116  1.00  0.00    -0.374 OA
BRANCH  23  24
ATOM     24  C   UNL A   1      45.699  21.329  24.697  1.00  0.00     0.202 C 
BRANCH  24  25
ATOM     25  C   UNL A   1      45.286  22.300  25.809  1.00  0.00     0.261 C 
BRANCH  25  26
ATOM     26  O   UNL A   1      44.247  23.199  25.388  1.00  0.00    -0.460 OA
BRANCH  26  27
ATOM     27  C   UNL A   1      44.617  24.501  25.353  1.00  0.00     0.338 C 
ATOM     28  O   UNL A   1      45.429  25.023  24.599  1.00  0.00    -0.246 OA
BRANCH  27  29
ATOM     29  C   UNL A   1      43.772  25.296  26.261  1.00  0.00     0.060 A 
ATOM     30  C   UNL A   1      44.058  26.662  26.367  1.00  0.00     0.016 A 
ATOM     31  C   UNL A   1      42.772  24.716  27.045  1.00  0.00     0.016 A 
ATOM     32  C   UNL A   1      43.383  27.446  27.298  1.00  0.00     0.010 A 
ATOM     33  C   UNL A   1      42.100  25.503  27.987  1.00  0.00     0.010 A 
ATOM     34  C   UNL A   1      42.430  26.862  28.142  1.00  0.00    -0.014 A 
BRANCH  34  35
ATOM     35  C   UNL A   1      41.903  27.645  29.286  1.00  0.00     0.031 A 
ATOM     36  C   UNL A   1      42.621  27.573  30.606  1.00  0.00     0.074 A 
ATOM     37  C   UNL A   1      40.835  28.447  29.139  1.00  0.00     0.049 A 
ATOM     38  N   UNL A   1      42.346  28.173  31.736  1.00  0.00    -0.248 NA
ATOM     39  C   UNL A   1      43.810  26.708  30.658  1.00  0.00     0.031 C 
ATOM     40  C   UNL A   1      40.084  28.633  27.900  1.00  0.00     0.029 A 
ATOM     41  N   UNL A   1      40.199  29.258  30.046  1.00  0.00    -0.354 N 
ATOM     42  C   UNL A   1      43.324  27.758  32.631  1.00  0.00     0.074 A 
ATOM     43  C   UNL A   1      44.181  26.832  31.924  1.00  0.00     0.031 C 
ATOM     44  C   UNL A   1      39.083  29.501  28.124  1.00  0.00     0.029 A 
ATOM     45  C   UNL A   1      39.108  29.910  29.528  1.00  0.00     0.049 A 
ATOM     46  H   UNL A   1      40.497  29.362  30.978  1.00  0.00     0.167 HD
ATOM     47  C   UNL A   1      43.495  28.123  33.923  1.00  0.00     0.037 A 
ATOM     48  C   UNL A   1      38.223  30.731  30.127  1.00  0.00     0.037 A 
ATOM     49  C   UNL A   1      42.645  29.049  34.624  1.00  0.00     0.049 A 
ATOM     50  C   UNL A   1      38.398  31.068  31.585  1.00  0.00     0.074 A 
ATOM     51  C   UNL A   1      42.751  29.503  35.926  1.00  0.00     0.029 A 
ATOM     52  N   UNL A   1      41.525  29.657  34.078  1.00  0.00    -0.354 N 
ATOM     53  N   UNL A   1      39.341  30.695  32.415  1.00  0.00    -0.248 NA
ATOM     54  C   UNL A   1      37.381  31.942  32.188  1.00  0.00     0.031 C 
ATOM     55  C   UNL A   1      41.667  30.348  36.185  1.00  0.00     0.029 A 
ATOM     56  C   UNL A   1      40.913  30.460  35.027  1.00  0.00     0.049 A 
ATOM     57  H   UNL A   1      41.210  29.537  33.153  1.00  0.00     0.167 HD
ATOM     58  C   UNL A   1      39.051  31.310  33.626  1.00  0.00     0.074 A 
ATOM     59  C   UNL A   1      37.849  32.090  33.420  1.00  0.00     0.031 C 
ATOM     60  C   UNL A   1      39.721  31.238  34.803  1.00  0.00     0.037 A 
BRANCH  47  61
ATOM     61  C   UNL A   1      44.633  27.500  34.675  1.00  0.00     0.064 A 
ATOM     62  C   UNL A   1      45.896  28.110  34.741  1.00  0.00     0.173 A 
ATOM     63  C   UNL A   1      44.449  26.293  35.366  1.00  0.00     0.173 A 
ATOM     64  F   UNL A   1      46.126  29.256  34.085  1.00  0.00    -0.203 F 
ATOM     65  C   UNL A   1      46.936  27.522  35.455  1.00  0.00     0.198 A 
ATOM     66  C   UNL A   1      45.485  25.723  36.100  1.00  0.00     0.198 A 
ATOM     67  F   UNL A   1      43.262  25.671  35.336  1.00  0.00    -0.203 F 
ATOM     68  F   UNL A   1      48.146  28.100  35.471  1.00  0.00    -0.200 F 
ATOM     69  C   UNL A   1      46.729  26.333  36.139  1.00  0.00     0.200 A 
ATOM     70  F   UNL A   1      45.279  24.579  36.769  1.00  0.00    -0.200 F 
ATOM     71  F   UNL A   1      47.731  25.773  36.831  1.00  0.00    -0.200 F 
ENDBRANCH  47  61
BRANCH  48  72
ATOM     72  C   UNL A   1      37.086  31.289  29.351  1.00  0.00     0.064 A 
ATOM     73  C   UNL A   1      37.064  32.637  28.967  1.00  0.00     0.173 A 
ATOM     74  C   UNL A   1      35.986  30.492  28.999  1.00  0.00     0.173 A 
ATOM     75  F   UNL A   1      38.079  33.446  29.304  1.00  0.00    -0.203 F 
ATOM     76  C   UNL A   1      35.979  33.171  28.274  1.00  0.00     0.198 A 
ATOM     77  C   UNL A   1      34.914  31.021  28.283  1.00  0.00     0.198 A 
ATOM     78  F   UNL A   1      35.957  29.198  29.347  1.00  0.00    -0.203 F 
ATOM     79  F   UNL A   1      35.962  34.473  27.959  1.00  0.00    -0.200 F 
ATOM     80  C   UNL A   1      34.907  32.361  27.928  1.00  0.00     0.200 A 
ATOM     81  F   UNL A   1      33.886  30.231  27.942  1.00  0.00    -0.200 F 
ATOM     82  F   UNL A   1      33.865  32.873  27.262  1.00  0.00    -0.200 F 
ENDBRANCH  48  72
BRANCH  60  83
ATOM     83  C   UNL A   1      39.193  32.048  35.950  1.00  0.00     0.064 A 
ATOM     84  C   UNL A   1      38.286  31.511  36.875  1.00  0.00     0.173 A 
ATOM     85  C   UNL A   1      39.632  33.366  36.150  1.00  0.00     0.173 A 
ATOM     86  F   UNL A   1      37.825  30.261  36.720  1.00  0.00    -0.203 F 
ATOM     87  C   UNL A   1      37.823  32.271  37.946  1.00  0.00     0.198 A 
ATOM     88  C   UNL A   1      39.189  34.112  37.238  1.00  0.00     0.198 A 
ATOM     89  F   UNL A   1      40.505  33.925  35.297  1.00  0.00    -0.203 F 
ATOM     90  F   UNL A   1      36.923  31.751  38.793  1.00  0.00    -0.200 F 
ATOM     91  C   UNL A   1      38.279  33.567  38.130  1.00  0.00     0.200 A 
ATOM     92  F   UNL A   1      39.641  35.361  37.421  1.00  0.00    -0.200 F 
ATOM     93  F   UNL A   1      37.837  34.294  39.166  1.00  0.00    -0.200 F 
ENDBRANCH  60  83
ENDBRANCH  34  35
ENDBRANCH  27  29
ENDBRANCH  26  27
ENDBRANCH  25  26
ENDBRANCH  24  25
ENDBRANCH  23  24
ENDBRANCH   1  23
TORSDOF 18
ENDMDL
