MODEL 1
REMARK VINA RESULT:     -12.4      0.000      0.000
REMARK SMILES O=C(OCCOCCOC(=O)[C@@H]1CC2(CC[NH2+]CC2)C[N@H+]1Cc1cccc2nonc12)c1ccc(-c2c3nc(c(-c4c(F)c(F)c(F)c(F)c4F)c4ccc([nH]4)c(-c4c(F)c(F)c(F)c(F)c4F)c4nc(c(-c5c(F)c(F)c(F)c(F)c5F)c5ccc2[nH]5)C=C4)C=C3)cc1
REMARK SMILES IDX 6 1 5 2 4 3 3 4 2 5 1 6 32 7 33 8 94 9 34 10 93 11 35 12
REMARK SMILES IDX 36 13 37 14 87 15 38 16 92 17 86 18 88 19 39 20 91 21 85 22
REMARK SMILES IDX 84 23 40 25 72 26 52 27 71 28 53 29 56 30 70 31 89 32 54 33
REMARK SMILES IDX 55 34 69 36 90 37 57 38 41 39 42 40 50 41 43 42 44 43 48 44
REMARK SMILES IDX 51 45 45 46 46 47 49 48 47 49 73 50 74 51 82 52 75 53 76 54
REMARK SMILES IDX 80 55 83 56 77 57 78 58 81 59 79 60 58 61 59 62 67 63 60 64
REMARK SMILES IDX 61 65 65 66 68 67 62 68 63 69 66 70 64 71 7 72 8 73 9 74
REMARK SMILES IDX 10 75 11 76 12 77 13 78 21 79 14 80 20 81 15 83 19 84 16 85
REMARK SMILES IDX 18 86 17 87 22 90 23 91 24 92 31 93 25 94 27 95 30 96 26 97
REMARK SMILES IDX 28 98 29 99
REMARK H PARENT 88 24 56 35 21 82 17 88 17 89
REMARK Flexibility Score: inf
ROOT
ATOM      1  O   UNL A   1      30.989  26.477  26.957  1.00  0.00    -0.374 OA
ENDROOT
BRANCH   1   2
ATOM      2  C   UNL A   1      31.645  27.609  26.371  1.00  0.00     0.202 C 
BRANCH   2   3
ATOM      3  C   UNL A   1      31.763  28.787  27.347  1.00  0.00     0.261 C 
BRANCH   3   4
ATOM      4  O   UNL A   1      32.333  29.929  26.663  1.00  0.00    -0.460 OA
BRANCH   4   5
ATOM      5  C   UNL A   1      33.633  29.973  26.281  1.00  0.00     0.338 C 
ATOM      6  O   UNL A   1      34.040  29.528  25.219  1.00  0.00    -0.246 OA
BRANCH   5   7
ATOM      7  C   UNL A   1      34.555  30.193  27.419  1.00  0.00     0.060 A 
ATOM      8  C   UNL A   1      34.408  31.323  28.237  1.00  0.00     0.016 A 
ATOM      9  C   UNL A   1      35.563  29.292  27.697  1.00  0.00     0.016 A 
ATOM     10  C   UNL A   1      35.328  31.592  29.268  1.00  0.00     0.010 A 
ATOM     11  C   UNL A   1      36.488  29.577  28.698  1.00  0.00     0.010 A 
ATOM     12  C   UNL A   1      36.404  30.729  29.498  1.00  0.00    -0.014 A 
BRANCH  12  13
ATOM     13  C   UNL A   1      37.287  30.886  30.690  1.00  0.00     0.031 A 
ATOM     14  C   UNL A   1      38.377  29.849  30.778  1.00  0.00     0.074 A 
ATOM     15  C   UNL A   1      37.620  32.057  31.282  1.00  0.00     0.049 A 
ATOM     16  N   UNL A   1      39.513  29.980  30.155  1.00  0.00    -0.248 NA
ATOM     17  C   UNL A   1      38.130  28.485  31.248  1.00  0.00     0.031 C 
ATOM     18  C   UNL A   1      37.919  33.318  30.597  1.00  0.00     0.029 A 
ATOM     19  N   UNL A   1      37.990  32.288  32.593  1.00  0.00    -0.354 N 
ATOM     20  C   UNL A   1      40.116  28.729  30.103  1.00  0.00     0.074 A 
ATOM     21  C   UNL A   1      39.213  27.833  30.790  1.00  0.00     0.031 C 
ATOM     22  C   UNL A   1      38.585  34.125  31.453  1.00  0.00     0.029 A 
ATOM     23  C   UNL A   1      38.649  33.495  32.770  1.00  0.00     0.049 A 
ATOM     24  H   UNL A   1      37.805  31.659  33.326  1.00  0.00     0.167 HD
ATOM     25  C   UNL A   1      41.328  28.524  29.510  1.00  0.00     0.037 A 
ATOM     26  C   UNL A   1      39.558  33.762  33.746  1.00  0.00     0.037 A 
ATOM     27  C   UNL A   1      42.034  29.682  29.006  1.00  0.00     0.049 A 
ATOM     28  C   UNL A   1      40.837  33.261  33.116  1.00  0.00     0.074 A 
ATOM     29  C   UNL A   1      42.949  30.015  28.026  1.00  0.00     0.029 A 
ATOM     30  N   UNL A   1      41.817  30.846  29.685  1.00  0.00    -0.354 N 
ATOM     31  N   UNL A   1      41.570  33.887  32.229  1.00  0.00    -0.248 NA
ATOM     32  C   UNL A   1      41.182  31.840  33.298  1.00  0.00     0.031 C 
ATOM     33  C   UNL A   1      43.399  31.355  28.301  1.00  0.00     0.029 A 
ATOM     34  C   UNL A   1      42.779  31.784  29.463  1.00  0.00     0.049 A 
ATOM     35  H   UNL A   1      41.043  30.994  30.275  1.00  0.00     0.167 HD
ATOM     36  C   UNL A   1      42.274  32.876  31.580  1.00  0.00     0.074 A 
ATOM     37  C   UNL A   1      42.119  31.675  32.373  1.00  0.00     0.031 C 
ATOM     38  C   UNL A   1      42.713  32.959  30.292  1.00  0.00     0.037 A 
BRANCH  25  39
ATOM     39  C   UNL A   1      42.086  27.258  29.658  1.00  0.00     0.064 A 
ATOM     40  C   UNL A   1      43.038  27.193  30.691  1.00  0.00     0.173 A 
ATOM     41  C   UNL A   1      42.041  26.201  28.745  1.00  0.00     0.173 A 
ATOM     42  F   UNL A   1      43.116  28.187  31.592  1.00  0.00    -0.203 F 
ATOM     43  C   UNL A   1      43.930  26.131  30.793  1.00  0.00     0.198 A 
ATOM     44  C   UNL A   1      42.933  25.129  28.854  1.00  0.00     0.198 A 
ATOM     45  F   UNL A   1      41.162  26.216  27.734  1.00  0.00    -0.203 F 
ATOM     46  F   UNL A   1      44.843  26.118  31.773  1.00  0.00    -0.200 F 
ATOM     47  C   UNL A   1      43.882  25.102  29.870  1.00  0.00     0.200 A 
ATOM     48  F   UNL A   1      42.892  24.128  27.964  1.00  0.00    -0.200 F 
ATOM     49  F   UNL A   1      44.753  24.085  29.955  1.00  0.00    -0.200 F 
ENDBRANCH  25  39
BRANCH  26  50
ATOM     50  C   UNL A   1      39.155  33.475  35.164  1.00  0.00     0.064 A 
ATOM     51  C   UNL A   1      39.223  34.526  36.104  1.00  0.00     0.173 A 
ATOM     52  C   UNL A   1      38.721  32.240  35.668  1.00  0.00     0.173 A 
ATOM     53  F   UNL A   1      39.761  35.707  35.755  1.00  0.00    -0.203 F 
ATOM     54  C   UNL A   1      38.738  34.394  37.406  1.00  0.00     0.198 A 
ATOM     55  C   UNL A   1      38.203  32.114  36.960  1.00  0.00     0.198 A 
ATOM     56  F   UNL A   1      38.782  31.127  34.926  1.00  0.00    -0.203 F 
ATOM     57  F   UNL A   1      38.784  35.436  38.247  1.00  0.00    -0.200 F 
ATOM     58  C   UNL A   1      38.188  33.197  37.821  1.00  0.00     0.200 A 
ATOM     59  F   UNL A   1      37.693  30.939  37.359  1.00  0.00    -0.200 F 
ATOM     60  F   UNL A   1      37.653  33.082  39.044  1.00  0.00    -0.200 F 
ENDBRANCH  26  50
BRANCH  38  61
ATOM     61  C   UNL A   1      42.930  34.307  29.734  1.00  0.00     0.064 A 
ATOM     62  C   UNL A   1      44.220  34.852  29.729  1.00  0.00     0.173 A 
ATOM     63  C   UNL A   1      41.894  35.032  29.132  1.00  0.00     0.173 A 
ATOM     64  F   UNL A   1      45.247  34.172  30.266  1.00  0.00    -0.203 F 
ATOM     65  C   UNL A   1      44.470  36.079  29.133  1.00  0.00     0.198 A 
ATOM     66  C   UNL A   1      42.152  36.254  28.521  1.00  0.00     0.198 A 
ATOM     67  F   UNL A   1      40.637  34.560  29.123  1.00  0.00    -0.203 F 
ATOM     68  F   UNL A   1      45.715  36.578  29.128  1.00  0.00    -0.200 F 
ATOM     69  C   UNL A   1      43.439  36.774  28.519  1.00  0.00     0.200 A 
ATOM     70  F   UNL A   1      41.158  36.922  27.920  1.00  0.00    -0.200 F 
ATOM     71  F   UNL A   1      43.689  37.942  27.912  1.00  0.00    -0.200 F 
ENDBRANCH  38  61
ENDBRANCH  12  13
ENDBRANCH   5   7
ENDBRANCH   4   5
ENDBRANCH   3   4
ENDBRANCH   2   3
ENDBRANCH   1   2
BRANCH   1  72
ATOM     72  C   UNL A   1      29.972  25.878  26.144  1.00  0.00     0.202 C 
BRANCH  72  73
ATOM     73  C   UNL A   1      29.648  24.425  26.428  1.00  0.00     0.261 C 
BRANCH  73  74
ATOM     74  O   UNL A   1      30.742  23.797  27.078  1.00  0.00    -0.459 OA
BRANCH  74  75
ATOM     75  C   UNL A   1      31.225  22.685  26.462  1.00  0.00     0.365 C 
ATOM     76  O   UNL A   1      30.544  21.856  25.887  1.00  0.00    -0.245 OA
BRANCH  75  77
ATOM     77  C   UNL A   1      32.742  22.564  26.617  1.00  0.00     0.296 C 
ATOM     78  C   UNL A   1      33.314  23.926  26.204  1.00  0.00     0.091 C 
ATOM     79  N   UNL A   1      33.383  21.645  25.663  1.00  0.00    -0.319 N 
ATOM     80  C   UNL A   1      33.801  23.708  24.755  1.00  0.00     0.036 C 
ATOM     81  C   UNL A   1      34.423  22.315  24.907  1.00  0.00     0.270 C 
ATOM     82  H   UNL A   1      32.640  21.414  25.004  1.00  0.00     0.349 HD
ATOM     83  C   UNL A   1      34.794  24.792  24.327  1.00  0.00     0.074 C 
ATOM     84  C   UNL A   1      32.657  23.689  23.698  1.00  0.00     0.074 C 
ATOM     85  C   UNL A   1      34.085  26.136  24.111  1.00  0.00     0.261 C 
ATOM     86  C   UNL A   1      32.004  25.054  23.516  1.00  0.00     0.261 C 
ATOM     87  N   UNL A   1      33.000  26.051  23.129  1.00  0.00    -0.346 N 
ATOM     88  H   UNL A   1      33.393  25.794  22.224  1.00  0.00     0.346 HD
ATOM     89  H   UNL A   1      32.542  26.961  23.080  1.00  0.00     0.346 HD
BRANCH  79  90
ATOM     90  C   UNL A   1      33.428  20.214  25.882  1.00  0.00     0.302 C 
BRANCH  90  91
ATOM     91  C   UNL A   1      33.225  19.460  24.589  1.00  0.00     0.038 A 
ATOM     92  C   UNL A   1      32.450  19.973  23.511  1.00  0.00     0.012 A 
ATOM     93  C   UNL A   1      33.700  18.156  24.326  1.00  0.00     0.144 A 
ATOM     94  C   UNL A   1      32.069  19.232  22.362  1.00  0.00     0.003 A 
ATOM     95  C   UNL A   1      33.313  17.395  23.142  1.00  0.00     0.135 A 
ATOM     96  N   UNL A   1      34.522  17.389  25.053  1.00  0.00    -0.049 NA
ATOM     97  C   UNL A   1      32.458  17.904  22.151  1.00  0.00     0.034 A 
ATOM     98  N   UNL A   1      33.895  16.194  23.202  1.00  0.00    -0.050 NA
ATOM     99  O   UNL A   1      34.653  16.202  24.358  1.00  0.00    -0.243 OA
ENDBRANCH  90  91
ENDBRANCH  79  90
ENDBRANCH  75  77
ENDBRANCH  74  75
ENDBRANCH  73  74
ENDBRANCH  72  73
ENDBRANCH   1  72
TORSDOF 16
ENDMDL
MODEL 2
REMARK VINA RESULT:     -12.3      3.831      6.038
REMARK SMILES O=C(OCCOCCOC(=O)[C@@H]1CC2(CC[NH2+]CC2)C[N@H+]1Cc1cccc2nonc12)c1ccc(-c2c3nc(c(-c4c(F)c(F)c(F)c(F)c4F)c4ccc([nH]4)c(-c4c(F)c(F)c(F)c(F)c4F)c4nc(c(-c5c(F)c(F)c(F)c(F)c5F)c5ccc2[nH]5)C=C4)C=C3)cc1
REMARK SMILES IDX 6 1 5 2 4 3 3 4 2 5 1 6 32 7 33 8 94 9 34 10 93 11 35 12
REMARK SMILES IDX 36 13 37 14 87 15 38 16 92 17 86 18 88 19 39 20 91 21 85 22
REMARK SMILES IDX 84 23 40 25 72 26 52 27 71 28 53 29 56 30 70 31 89 32 54 33
REMARK SMILES IDX 55 34 69 36 90 37 57 38 41 39 42 40 50 41 43 42 44 43 48 44
REMARK SMILES IDX 51 45 45 46 46 47 49 48 47 49 73 50 74 51 82 52 75 53 76 54
REMARK SMILES IDX 80 55 83 56 77 57 78 58 81 59 79 60 58 61 59 62 67 63 60 64
REMARK SMILES IDX 61 65 65 66 68 67 62 68 63 69 66 70 64 71 7 72 8 73 9 74
REMARK SMILES IDX 10 75 11 76 12 77 13 78 21 79 14 80 20 81 15 83 19 84 16 85
REMARK SMILES IDX 18 86 17 87 22 90 23 91 24 92 31 93 25 94 27 95 30 96 26 97
REMARK SMILES IDX 28 98 29 99
REMARK H PARENT 88 24 56 35 21 82 17 88 17 89
REMARK Flexibility Score: inf
ROOT
ATOM      1  O   UNL A   1      31.766  28.877  26.541  1.00  0.00    -0.374 OA
ENDROOT
BRANCH   1   2
ATOM      2  C   UNL A   1      33.030  29.398  26.972  1.00  0.00     0.202 C 
BRANCH   2   3
ATOM      3  C   UNL A   1      32.979  30.907  27.245  1.00  0.00     0.261 C 
BRANCH   3   4
ATOM      4  O   UNL A   1      34.320  31.452  27.214  1.00  0.00    -0.460 OA
BRANCH   4   5
ATOM      5  C   UNL A   1      34.880  32.066  28.285  1.00  0.00     0.338 C 
ATOM      6  O   UNL A   1      34.764  33.260  28.514  1.00  0.00    -0.246 OA
BRANCH   5   7
ATOM      7  C   UNL A   1      35.980  31.278  28.884  1.00  0.00     0.060 A 
ATOM      8  C   UNL A   1      36.779  30.454  28.077  1.00  0.00     0.016 A 
ATOM      9  C   UNL A   1      36.243  31.345  30.238  1.00  0.00     0.016 A 
ATOM     10  C   UNL A   1      37.772  29.633  28.643  1.00  0.00     0.010 A 
ATOM     11  C   UNL A   1      37.206  30.509  30.797  1.00  0.00     0.010 A 
ATOM     12  C   UNL A   1      37.984  29.630  30.025  1.00  0.00    -0.014 A 
BRANCH  12  13
ATOM     13  C   UNL A   1      39.141  28.913  30.633  1.00  0.00     0.031 A 
ATOM     14  C   UNL A   1      39.334  27.514  30.107  1.00  0.00     0.074 A 
ATOM     15  C   UNL A   1      40.294  29.483  31.057  1.00  0.00     0.049 A 
ATOM     16  N   UNL A   1      39.999  27.268  29.015  1.00  0.00    -0.248 NA
ATOM     17  C   UNL A   1      38.513  26.387  30.549  1.00  0.00     0.031 C 
ATOM     18  C   UNL A   1      41.013  30.575  30.395  1.00  0.00     0.029 A 
ATOM     19  N   UNL A   1      41.172  29.039  32.027  1.00  0.00    -0.354 N 
ATOM     20  C   UNL A   1      39.664  25.987  28.593  1.00  0.00     0.074 A 
ATOM     21  C   UNL A   1      38.732  25.484  29.577  1.00  0.00     0.031 C 
ATOM     22  C   UNL A   1      42.282  30.600  30.861  1.00  0.00     0.029 A 
ATOM     23  C   UNL A   1      42.429  29.617  31.932  1.00  0.00     0.049 A 
ATOM     24  H   UNL A   1      40.931  28.379  32.715  1.00  0.00     0.167 HD
ATOM     25  C   UNL A   1      40.193  25.425  27.468  1.00  0.00     0.037 A 
ATOM     26  C   UNL A   1      43.593  29.048  32.348  1.00  0.00     0.037 A 
ATOM     27  C   UNL A   1      41.208  26.171  26.756  1.00  0.00     0.049 A 
ATOM     28  C   UNL A   1      43.980  28.228  31.139  1.00  0.00     0.074 A 
ATOM     29  C   UNL A   1      41.706  26.317  25.476  1.00  0.00     0.029 A 
ATOM     30  N   UNL A   1      41.993  26.978  27.526  1.00  0.00    -0.354 N 
ATOM     31  N   UNL A   1      44.556  28.667  30.048  1.00  0.00    -0.248 NA
ATOM     32  C   UNL A   1      43.443  26.859  31.037  1.00  0.00     0.031 C 
ATOM     33  C   UNL A   1      42.927  27.072  25.577  1.00  0.00     0.029 A 
ATOM     34  C   UNL A   1      43.161  27.326  26.919  1.00  0.00     0.049 A 
ATOM     35  H   UNL A   1      41.742  27.279  28.428  1.00  0.00     0.167 HD
ATOM     36  C   UNL A   1      44.220  27.730  29.074  1.00  0.00     0.074 A 
ATOM     37  C   UNL A   1      43.679  26.578  29.762  1.00  0.00     0.031 C 
ATOM     38  C   UNL A   1      44.117  28.017  27.745  1.00  0.00     0.037 A 
BRANCH  25  39
ATOM     39  C   UNL A   1      40.032  23.986  27.142  1.00  0.00     0.064 A 
ATOM     40  C   UNL A   1      41.026  23.105  27.605  1.00  0.00     0.173 A 
ATOM     41  C   UNL A   1      39.064  23.478  26.272  1.00  0.00     0.173 A 
ATOM     42  F   UNL A   1      41.977  23.551  28.443  1.00  0.00    -0.203 F 
ATOM     43  C   UNL A   1      41.070  21.778  27.192  1.00  0.00     0.198 A 
ATOM     44  C   UNL A   1      39.104  22.140  25.866  1.00  0.00     0.198 A 
ATOM     45  F   UNL A   1      38.100  24.275  25.791  1.00  0.00    -0.203 F 
ATOM     46  F   UNL A   1      42.051  20.975  27.630  1.00  0.00    -0.200 F 
ATOM     47  C   UNL A   1      40.113  21.297  26.317  1.00  0.00     0.200 A 
ATOM     48  F   UNL A   1      38.180  21.667  25.019  1.00  0.00    -0.200 F 
ATOM     49  F   UNL A   1      40.164  20.022  25.905  1.00  0.00    -0.200 F 
ENDBRANCH  25  39
BRANCH  26  50
ATOM     50  C   UNL A   1      43.646  28.537  33.759  1.00  0.00     0.064 A 
ATOM     51  C   UNL A   1      44.726  28.940  34.575  1.00  0.00     0.173 A 
ATOM     52  C   UNL A   1      42.724  27.669  34.361  1.00  0.00     0.173 A 
ATOM     53  F   UNL A   1      45.737  29.652  34.050  1.00  0.00    -0.203 F 
ATOM     54  C   UNL A   1      44.788  28.631  35.935  1.00  0.00     0.198 A 
ATOM     55  C   UNL A   1      42.765  27.387  35.730  1.00  0.00     0.198 A 
ATOM     56  F   UNL A   1      41.759  27.076  33.647  1.00  0.00    -0.203 F 
ATOM     57  F   UNL A   1      45.811  29.077  36.677  1.00  0.00    -0.200 F 
ATOM     58  C   UNL A   1      43.782  27.889  36.522  1.00  0.00     0.200 A 
ATOM     59  F   UNL A   1      41.794  26.645  36.284  1.00  0.00    -0.200 F 
ATOM     60  F   UNL A   1      43.794  27.651  37.840  1.00  0.00    -0.200 F 
ENDBRANCH  26  50
BRANCH  38  61
ATOM     61  C   UNL A   1      44.875  29.177  27.240  1.00  0.00     0.064 A 
ATOM     62  C   UNL A   1      44.209  30.388  27.009  1.00  0.00     0.173 A 
ATOM     63  C   UNL A   1      46.263  29.130  27.059  1.00  0.00     0.173 A 
ATOM     64  F   UNL A   1      42.884  30.483  27.205  1.00  0.00    -0.203 F 
ATOM     65  C   UNL A   1      44.910  31.519  26.618  1.00  0.00     0.198 A 
ATOM     66  C   UNL A   1      46.962  30.271  26.683  1.00  0.00     0.198 A 
ATOM     67  F   UNL A   1      46.945  27.991  27.253  1.00  0.00    -0.203 F 
ATOM     68  F   UNL A   1      44.256  32.672  26.414  1.00  0.00    -0.200 F 
ATOM     69  C   UNL A   1      46.287  31.464  26.466  1.00  0.00     0.200 A 
ATOM     70  F   UNL A   1      48.295  30.220  26.545  1.00  0.00    -0.200 F 
ATOM     71  F   UNL A   1      46.967  32.566  26.125  1.00  0.00    -0.200 F 
ENDBRANCH  38  61
ENDBRANCH  12  13
ENDBRANCH   5   7
ENDBRANCH   4   5
ENDBRANCH   3   4
ENDBRANCH   2   3
ENDBRANCH   1   2
BRANCH   1  72
ATOM     72  C   UNL A   1      31.408  27.610  27.107  1.00  0.00     0.202 C 
BRANCH  72  73
ATOM     73  C   UNL A   1      32.034  26.384  26.471  1.00  0.00     0.261 C 
BRANCH  73  74
ATOM     74  O   UNL A   1      31.046  25.629  25.788  1.00  0.00    -0.459 OA
BRANCH  74  75
ATOM     75  C   UNL A   1      30.990  24.311  26.117  1.00  0.00     0.365 C 
ATOM     76  O   UNL A   1      30.928  23.879  27.253  1.00  0.00    -0.245 OA
BRANCH  75  77
ATOM     77  C   UNL A   1      31.063  23.414  24.880  1.00  0.00     0.296 C 
ATOM     78  C   UNL A   1      32.026  22.278  25.244  1.00  0.00     0.091 C 
ATOM     79  N   UNL A   1      31.721  24.029  23.716  1.00  0.00    -0.319 N 
ATOM     80  C   UNL A   1      33.363  22.688  24.589  1.00  0.00     0.036 C 
ATOM     81  C   UNL A   1      32.832  23.222  23.253  1.00  0.00     0.270 C 
ATOM     82  H   UNL A   1      32.117  24.895  24.084  1.00  0.00     0.349 HD
ATOM     83  C   UNL A   1      34.312  21.496  24.453  1.00  0.00     0.074 C 
ATOM     84  C   UNL A   1      34.130  23.803  25.361  1.00  0.00     0.074 C 
ATOM     85  C   UNL A   1      34.869  21.075  25.819  1.00  0.00     0.261 C 
ATOM     86  C   UNL A   1      34.674  23.320  26.700  1.00  0.00     0.261 C 
ATOM     87  N   UNL A   1      35.555  22.169  26.511  1.00  0.00    -0.346 N 
ATOM     88  H   UNL A   1      36.362  22.457  25.957  1.00  0.00     0.346 HD
ATOM     89  H   UNL A   1      35.847  21.834  27.429  1.00  0.00     0.346 HD
BRANCH  79  90
ATOM     90  C   UNL A   1      31.017  24.913  22.810  1.00  0.00     0.302 C 
BRANCH  90  91
ATOM     91  C   UNL A   1      31.622  26.297  22.821  1.00  0.00     0.038 A 
ATOM     92  C   UNL A   1      33.024  26.525  22.736  1.00  0.00     0.012 A 
ATOM     93  C   UNL A   1      30.899  27.499  22.991  1.00  0.00     0.144 A 
ATOM     94  C   UNL A   1      33.655  27.781  22.935  1.00  0.00     0.003 A 
ATOM     95  C   UNL A   1      31.547  28.792  23.190  1.00  0.00     0.135 A 
ATOM     96  N   UNL A   1      29.576  27.695  23.024  1.00  0.00    -0.049 NA
ATOM     97  C   UNL A   1      32.942  28.955  23.203  1.00  0.00     0.034 A 
ATOM     98  N   UNL A   1      30.599  29.718  23.355  1.00  0.00    -0.050 NA
ATOM     99  O   UNL A   1      29.395  29.050  23.228  1.00  0.00    -0.243 OA
ENDBRANCH  90  91
ENDBRANCH  79  90
ENDBRANCH  75  77
ENDBRANCH  74  75
ENDBRANCH  73  74
ENDBRANCH  72  73
ENDBRANCH   1  72
TORSDOF 16
ENDMDL
MODEL 3
REMARK VINA RESULT:     -12.3      1.876      2.926
REMARK SMILES O=C(OCCOCCOC(=O)[C@@H]1CC2(CC[NH2+]CC2)C[N@H+]1Cc1cccc2nonc12)c1ccc(-c2c3nc(c(-c4c(F)c(F)c(F)c(F)c4F)c4ccc([nH]4)c(-c4c(F)c(F)c(F)c(F)c4F)c4nc(c(-c5c(F)c(F)c(F)c(F)c5F)c5ccc2[nH]5)C=C4)C=C3)cc1
REMARK SMILES IDX 6 1 5 2 4 3 3 4 2 5 1 6 32 7 33 8 94 9 34 10 93 11 35 12
REMARK SMILES IDX 36 13 37 14 87 15 38 16 92 17 86 18 88 19 39 20 91 21 85 22
REMARK SMILES IDX 84 23 40 25 72 26 52 27 71 28 53 29 56 30 70 31 89 32 54 33
REMARK SMILES IDX 55 34 69 36 90 37 57 38 41 39 42 40 50 41 43 42 44 43 48 44
REMARK SMILES IDX 51 45 45 46 46 47 49 48 47 49 73 50 74 51 82 52 75 53 76 54
REMARK SMILES IDX 80 55 83 56 77 57 78 58 81 59 79 60 58 61 59 62 67 63 60 64
REMARK SMILES IDX 61 65 65 66 68 67 62 68 63 69 66 70 64 71 7 72 8 73 9 74
REMARK SMILES IDX 10 75 11 76 12 77 13 78 21 79 14 80 20 81 15 83 19 84 16 85
REMARK SMILES IDX 18 86 17 87 22 90 23 91 24 92 31 93 25 94 27 95 30 96 26 97
REMARK SMILES IDX 28 98 29 99
REMARK H PARENT 88 24 56 35 21 82 17 88 17 89
REMARK Flexibility Score: inf
ROOT
ATOM      1  O   UNL A   1      33.929  26.809  23.183  1.00  0.00    -0.374 OA
ENDROOT
BRANCH   1   2
ATOM      2  C   UNL A   1      33.092  27.537  24.091  1.00  0.00     0.202 C 
BRANCH   2   3
ATOM      3  C   UNL A   1      33.614  28.954  24.361  1.00  0.00     0.261 C 
BRANCH   3   4
ATOM      4  O   UNL A   1      34.056  29.056  25.735  1.00  0.00    -0.460 OA
BRANCH   4   5
ATOM      5  C   UNL A   1      33.642  30.048  26.561  1.00  0.00     0.338 C 
ATOM      6  O   UNL A   1      32.769  30.850  26.267  1.00  0.00    -0.246 OA
BRANCH   5   7
ATOM      7  C   UNL A   1      34.620  30.345  27.632  1.00  0.00     0.060 A 
ATOM      8  C   UNL A   1      34.515  31.530  28.375  1.00  0.00     0.016 A 
ATOM      9  C   UNL A   1      35.641  29.461  27.923  1.00  0.00     0.016 A 
ATOM     10  C   UNL A   1      35.486  31.868  29.336  1.00  0.00     0.010 A 
ATOM     11  C   UNL A   1      36.615  29.814  28.854  1.00  0.00     0.010 A 
ATOM     12  C   UNL A   1      36.571  31.020  29.573  1.00  0.00    -0.014 A 
BRANCH  12  13
ATOM     13  C   UNL A   1      37.513  31.258  30.705  1.00  0.00     0.031 A 
ATOM     14  C   UNL A   1      38.584  30.204  30.836  1.00  0.00     0.074 A 
ATOM     15  C   UNL A   1      37.900  32.467  31.175  1.00  0.00     0.049 A 
ATOM     16  N   UNL A   1      39.692  30.251  30.152  1.00  0.00    -0.248 NA
ATOM     17  C   UNL A   1      38.330  28.894  31.435  1.00  0.00     0.031 C 
ATOM     18  C   UNL A   1      38.193  33.655  30.368  1.00  0.00     0.029 A 
ATOM     19  N   UNL A   1      38.337  32.803  32.442  1.00  0.00    -0.354 N 
ATOM     20  C   UNL A   1      40.264  28.986  30.184  1.00  0.00     0.074 A 
ATOM     21  C   UNL A   1      39.375  28.176  30.988  1.00  0.00     0.031 C 
ATOM     22  C   UNL A   1      38.916  34.516  31.118  1.00  0.00     0.029 A 
ATOM     23  C   UNL A   1      39.029  34.003  32.481  1.00  0.00     0.049 A 
ATOM     24  H   UNL A   1      38.173  32.246  33.236  1.00  0.00     0.167 HD
ATOM     25  C   UNL A   1      41.441  28.698  29.557  1.00  0.00     0.037 A 
ATOM     26  C   UNL A   1      39.989  34.331  33.388  1.00  0.00     0.037 A 
ATOM     27  C   UNL A   1      42.148  29.789  28.921  1.00  0.00     0.049 A 
ATOM     28  C   UNL A   1      41.226  33.744  32.747  1.00  0.00     0.074 A 
ATOM     29  C   UNL A   1      43.023  30.011  27.875  1.00  0.00     0.029 A 
ATOM     30  N   UNL A   1      41.989  31.012  29.503  1.00  0.00    -0.354 N 
ATOM     31  N   UNL A   1      41.929  34.270  31.776  1.00  0.00    -0.248 NA
ATOM     32  C   UNL A   1      41.548  32.335  33.038  1.00  0.00     0.031 C 
ATOM     33  C   UNL A   1      43.514  31.358  28.008  1.00  0.00     0.029 A 
ATOM     34  C   UNL A   1      42.959  31.902  29.156  1.00  0.00     0.049 A 
ATOM     35  H   UNL A   1      41.247  31.231  30.112  1.00  0.00     0.167 HD
ATOM     36  C   UNL A   1      42.580  33.188  31.188  1.00  0.00     0.074 A 
ATOM     37  C   UNL A   1      42.436  32.066  32.090  1.00  0.00     0.031 C 
ATOM     38  C   UNL A   1      42.959  33.147  29.879  1.00  0.00     0.037 A 
BRANCH  25  39
ATOM     39  C   UNL A   1      42.178  27.430  29.782  1.00  0.00     0.064 A 
ATOM     40  C   UNL A   1      43.122  27.409  30.825  1.00  0.00     0.173 A 
ATOM     41  C   UNL A   1      42.122  26.324  28.931  1.00  0.00     0.173 A 
ATOM     42  F   UNL A   1      43.210  28.452  31.668  1.00  0.00    -0.203 F 
ATOM     43  C   UNL A   1      43.996  26.341  30.993  1.00  0.00     0.198 A 
ATOM     44  C   UNL A   1      42.996  25.246  29.107  1.00  0.00     0.198 A 
ATOM     45  F   UNL A   1      41.250  26.295  27.913  1.00  0.00    -0.203 F 
ATOM     46  F   UNL A   1      44.903  26.369  31.980  1.00  0.00    -0.200 F 
ATOM     47  C   UNL A   1      43.937  25.261  30.130  1.00  0.00     0.200 A 
ATOM     48  F   UNL A   1      42.944  24.196  28.275  1.00  0.00    -0.200 F 
ATOM     49  F   UNL A   1      44.791  24.238  30.279  1.00  0.00    -0.200 F 
ENDBRANCH  25  39
BRANCH  26  50
ATOM     50  C   UNL A   1      39.648  34.179  34.842  1.00  0.00     0.064 A 
ATOM     51  C   UNL A   1      39.800  35.302  35.684  1.00  0.00     0.173 A 
ATOM     52  C   UNL A   1      39.196  33.009  35.469  1.00  0.00     0.173 A 
ATOM     53  F   UNL A   1      40.362  36.427  35.211  1.00  0.00    -0.203 F 
ATOM     54  C   UNL A   1      39.378  35.299  37.015  1.00  0.00     0.198 A 
ATOM     55  C   UNL A   1      38.739  33.013  36.791  1.00  0.00     0.198 A 
ATOM     56  F   UNL A   1      39.179  31.837  34.823  1.00  0.00    -0.203 F 
ATOM     57  F   UNL A   1      39.502  36.405  37.760  1.00  0.00    -0.200 F 
ATOM     58  C   UNL A   1      38.806  34.163  37.555  1.00  0.00     0.200 A 
ATOM     59  F   UNL A   1      38.208  31.896  37.312  1.00  0.00    -0.200 F 
ATOM     60  F   UNL A   1      38.329  34.173  38.807  1.00  0.00    -0.200 F 
ENDBRANCH  26  50
BRANCH  38  61
ATOM     61  C   UNL A   1      43.178  34.434  29.194  1.00  0.00     0.064 A 
ATOM     62  C   UNL A   1      44.480  34.938  29.072  1.00  0.00     0.173 A 
ATOM     63  C   UNL A   1      42.129  35.136  28.587  1.00  0.00     0.173 A 
ATOM     64  F   UNL A   1      45.517  34.276  29.611  1.00  0.00    -0.203 F 
ATOM     65  C   UNL A   1      44.727  36.101  28.359  1.00  0.00     0.198 A 
ATOM     66  C   UNL A   1      42.384  36.292  27.859  1.00  0.00     0.198 A 
ATOM     67  F   UNL A   1      40.862  34.703  28.686  1.00  0.00    -0.203 F 
ATOM     68  F   UNL A   1      45.981  36.560  28.244  1.00  0.00    -0.200 F 
ATOM     69  C   UNL A   1      43.681  36.771  27.743  1.00  0.00     0.200 A 
ATOM     70  F   UNL A   1      41.374  36.936  27.255  1.00  0.00    -0.200 F 
ATOM     71  F   UNL A   1      43.926  37.875  27.023  1.00  0.00    -0.200 F 
ENDBRANCH  38  61
ENDBRANCH  12  13
ENDBRANCH   5   7
ENDBRANCH   4   5
ENDBRANCH   3   4
ENDBRANCH   2   3
ENDBRANCH   1   2
BRANCH   1  72
ATOM     72  C   UNL A   1      33.297  26.415  21.960  1.00  0.00     0.202 C 
BRANCH  72  73
ATOM     73  C   UNL A   1      32.903  24.956  21.841  1.00  0.00     0.261 C 
BRANCH  73  74
ATOM     74  O   UNL A   1      33.889  24.132  22.443  1.00  0.00    -0.459 OA
BRANCH  74  75
ATOM     75  C   UNL A   1      33.465  22.896  22.818  1.00  0.00     0.365 C 
ATOM     76  O   UNL A   1      32.560  22.279  22.287  1.00  0.00    -0.245 OA
BRANCH  75  77
ATOM     77  C   UNL A   1      34.235  22.377  24.035  1.00  0.00     0.296 C 
ATOM     78  C   UNL A   1      33.172  22.020  25.080  1.00  0.00     0.091 C 
ATOM     79  N   UNL A   1      35.037  23.396  24.730  1.00  0.00    -0.319 N 
ATOM     80  C   UNL A   1      33.165  23.227  26.042  1.00  0.00     0.036 C 
ATOM     81  C   UNL A   1      34.674  23.484  26.130  1.00  0.00     0.270 C 
ATOM     82  H   UNL A   1      34.754  24.274  24.295  1.00  0.00     0.349 HD
ATOM     83  C   UNL A   1      32.512  22.876  27.381  1.00  0.00     0.074 C 
ATOM     84  C   UNL A   1      32.425  24.479  25.483  1.00  0.00     0.074 C 
ATOM     85  C   UNL A   1      30.993  22.719  27.230  1.00  0.00     0.261 C 
ATOM     86  C   UNL A   1      30.920  24.268  25.373  1.00  0.00     0.261 C 
ATOM     87  N   UNL A   1      30.355  23.916  26.674  1.00  0.00    -0.346 N 
ATOM     88  H   UNL A   1      30.492  24.694  27.318  1.00  0.00     0.346 HD
ATOM     89  H   UNL A   1      29.361  23.720  26.550  1.00  0.00     0.346 HD
BRANCH  79  90
ATOM     90  C   UNL A   1      36.361  23.775  24.281  1.00  0.00     0.302 C 
BRANCH  90  91
ATOM     91  C   UNL A   1      37.424  23.253  25.218  1.00  0.00     0.038 A 
ATOM     92  C   UNL A   1      38.128  24.091  26.128  1.00  0.00     0.012 A 
ATOM     93  C   UNL A   1      37.895  21.921  25.253  1.00  0.00     0.144 A 
ATOM     94  C   UNL A   1      39.261  23.695  26.886  1.00  0.00     0.003 A 
ATOM     95  C   UNL A   1      39.056  21.511  26.036  1.00  0.00     0.135 A 
ATOM     96  N   UNL A   1      37.431  20.841  24.613  1.00  0.00    -0.049 NA
ATOM     97  C   UNL A   1      39.787  22.399  26.842  1.00  0.00     0.034 A 
ATOM     98  N   UNL A   1      39.266  20.208  25.830  1.00  0.00    -0.050 NA
ATOM     99  O   UNL A   1      38.257  19.795  24.981  1.00  0.00    -0.243 OA
ENDBRANCH  90  91
ENDBRANCH  79  90
ENDBRANCH  75  77
ENDBRANCH  74  75
ENDBRANCH  73  74
ENDBRANCH  72  73
ENDBRANCH   1  72
TORSDOF 16
ENDMDL
