MODEL 1
REMARK VINA RESULT:     -11.5      0.000      0.000
REMARK SMILES O=C(OCCOCCOC(=O)c1cc(/C=C/c2cc(O)cc(O)c2)ccc1O)c1ccc(-c2c3nc(c(-c4c(F)c(F)c(F)c(F)c4F)c4ccc([nH]4)c(-c4c(F)c(F)c(F)c(F)c4F)c4nc(c(-c5c(F)c(F)c(F)c(F)c5F)c5ccc2[nH]5)C=C4)C=C3)cc1
REMARK SMILES IDX 7 1 6 2 5 3 4 4 3 5 2 6 1 7 29 8 30 9 91 10 31 11 90 12
REMARK SMILES IDX 32 13 33 14 34 15 84 16 35 17 89 18 83 19 85 20 36 21 88 22
REMARK SMILES IDX 82 23 81 24 37 26 69 27 49 28 68 29 50 30 53 31 67 32 86 33
REMARK SMILES IDX 51 34 52 35 66 37 87 38 54 39 38 40 39 41 47 42 40 43 41 44
REMARK SMILES IDX 45 45 48 46 42 47 43 48 46 49 44 50 70 51 71 52 79 53 72 54
REMARK SMILES IDX 73 55 77 56 80 57 74 58 75 59 78 60 76 61 55 62 56 63 64 64
REMARK SMILES IDX 57 65 58 66 62 67 65 68 59 69 60 70 63 71 61 72 8 73 9 74
REMARK SMILES IDX 10 75 11 76 12 77 13 78 27 79 14 80 26 81 25 82 28 83 15 85
REMARK SMILES IDX 16 86 17 87 18 88 24 89 19 90 22 91 21 92 20 93 23 95
REMARK H PARENT 85 25 53 36 28 84 20 94 23 96
REMARK Flexibility Score: inf
ROOT
ATOM      1  C   UNL A   1      34.753  30.753  27.355  1.00  0.00     0.202 C 
ENDROOT
BRANCH   1   2
ATOM      2  O   UNL A   1      33.624  31.341  28.010  1.00  0.00    -0.374 OA
BRANCH   2   3
ATOM      3  C   UNL A   1      32.508  31.629  27.167  1.00  0.00     0.202 C 
BRANCH   3   4
ATOM      4  C   UNL A   1      32.328  33.121  26.876  1.00  0.00     0.261 C 
BRANCH   4   5
ATOM      5  O   UNL A   1      32.210  33.860  28.103  1.00  0.00    -0.460 OA
BRANCH   5   6
ATOM      6  C   UNL A   1      33.144  34.612  28.730  1.00  0.00     0.338 C 
ATOM      7  O   UNL A   1      33.018  35.836  28.711  1.00  0.00    -0.246 OA
BRANCH   6   8
ATOM      8  C   UNL A   1      34.309  34.049  29.479  1.00  0.00     0.060 A 
ATOM      9  C   UNL A   1      35.650  34.210  29.126  1.00  0.00     0.016 A 
ATOM     10  C   UNL A   1      34.027  33.365  30.675  1.00  0.00     0.016 A 
ATOM     11  C   UNL A   1      36.674  33.663  29.882  1.00  0.00     0.010 A 
ATOM     12  C   UNL A   1      35.054  32.837  31.465  1.00  0.00     0.010 A 
ATOM     13  C   UNL A   1      36.381  32.966  31.049  1.00  0.00    -0.014 A 
BRANCH  13  14
ATOM     14  C   UNL A   1      37.496  32.271  31.716  1.00  0.00     0.031 A 
ATOM     15  C   UNL A   1      38.246  31.237  30.937  1.00  0.00     0.074 A 
ATOM     16  C   UNL A   1      37.919  32.700  32.917  1.00  0.00     0.049 A 
ATOM     17  N   UNL A   1      39.285  30.527  31.284  1.00  0.00    -0.248 NA
ATOM     18  C   UNL A   1      37.772  30.983  29.565  1.00  0.00     0.031 C 
ATOM     19  C   UNL A   1      37.318  33.799  33.676  1.00  0.00     0.029 A 
ATOM     20  N   UNL A   1      38.978  32.300  33.686  1.00  0.00    -0.354 N 
ATOM     21  C   UNL A   1      39.571  29.725  30.188  1.00  0.00     0.074 A 
ATOM     22  C   UNL A   1      38.601  30.033  29.162  1.00  0.00     0.031 C 
ATOM     23  C   UNL A   1      38.044  34.011  34.786  1.00  0.00     0.029 A 
ATOM     24  C   UNL A   1      39.118  33.025  34.844  1.00  0.00     0.049 A 
ATOM     25  H   UNL A   1      39.581  31.564  33.433  1.00  0.00     0.167 HD
ATOM     26  C   UNL A   1      40.554  28.805  30.064  1.00  0.00     0.037 A 
ATOM     27  C   UNL A   1      40.011  32.885  35.840  1.00  0.00     0.037 A 
ATOM     28  C   UNL A   1      41.504  28.523  31.105  1.00  0.00     0.049 A 
ATOM     29  C   UNL A   1      41.043  31.796  35.711  1.00  0.00     0.074 A 
ATOM     30  C   UNL A   1      42.500  27.566  31.138  1.00  0.00     0.029 A 
ATOM     31  N   UNL A   1      41.569  29.214  32.309  1.00  0.00    -0.354 N 
ATOM     32  N   UNL A   1      41.266  30.982  34.705  1.00  0.00    -0.248 NA
ATOM     33  C   UNL A   1      41.938  31.595  36.857  1.00  0.00     0.031 C 
ATOM     34  C   UNL A   1      43.140  27.651  32.380  1.00  0.00     0.029 A 
ATOM     35  C   UNL A   1      42.578  28.696  33.099  1.00  0.00     0.049 A 
ATOM     36  H   UNL A   1      40.983  29.964  32.562  1.00  0.00     0.167 HD
ATOM     37  C   UNL A   1      42.338  30.189  35.085  1.00  0.00     0.074 A 
ATOM     38  C   UNL A   1      42.731  30.631  36.409  1.00  0.00     0.031 C 
ATOM     39  C   UNL A   1      42.944  29.181  34.407  1.00  0.00     0.037 A 
BRANCH  26  40
ATOM     40  C   UNL A   1      40.570  27.997  28.801  1.00  0.00     0.064 A 
ATOM     41  C   UNL A   1      39.847  26.802  28.667  1.00  0.00     0.173 A 
ATOM     42  C   UNL A   1      41.378  28.399  27.725  1.00  0.00     0.173 A 
ATOM     43  F   UNL A   1      39.087  26.356  29.679  1.00  0.00    -0.203 F 
ATOM     44  C   UNL A   1      39.962  26.021  27.519  1.00  0.00     0.198 A 
ATOM     45  C   UNL A   1      41.469  27.629  26.570  1.00  0.00     0.198 A 
ATOM     46  F   UNL A   1      42.099  29.527  27.805  1.00  0.00    -0.203 F 
ATOM     47  F   UNL A   1      39.319  24.847  27.442  1.00  0.00    -0.200 F 
ATOM     48  C   UNL A   1      40.771  26.435  26.471  1.00  0.00     0.200 A 
ATOM     49  F   UNL A   1      42.252  28.030  25.558  1.00  0.00    -0.200 F 
ATOM     50  F   UNL A   1      40.894  25.673  25.375  1.00  0.00    -0.200 F 
ENDBRANCH  26  40
BRANCH  27  51
ATOM     51  C   UNL A   1      39.952  33.766  37.036  1.00  0.00     0.064 A 
ATOM     52  C   UNL A   1      39.068  33.504  38.092  1.00  0.00     0.173 A 
ATOM     53  C   UNL A   1      40.775  34.898  37.147  1.00  0.00     0.173 A 
ATOM     54  F   UNL A   1      38.242  32.450  38.027  1.00  0.00    -0.203 F 
ATOM     55  C   UNL A   1      39.000  34.345  39.203  1.00  0.00     0.198 A 
ATOM     56  C   UNL A   1      40.729  35.721  38.271  1.00  0.00     0.198 A 
ATOM     57  F   UNL A   1      41.637  35.201  36.165  1.00  0.00    -0.203 F 
ATOM     58  F   UNL A   1      38.113  34.096  40.176  1.00  0.00    -0.200 F 
ATOM     59  C   UNL A   1      39.835  35.449  39.295  1.00  0.00     0.200 A 
ATOM     60  F   UNL A   1      41.547  36.778  38.358  1.00  0.00    -0.200 F 
ATOM     61  F   UNL A   1      39.772  36.254  40.363  1.00  0.00    -0.200 F 
ENDBRANCH  27  51
BRANCH  39  62
ATOM     62  C   UNL A   1      44.118  28.531  35.073  1.00  0.00     0.064 A 
ATOM     63  C   UNL A   1      45.420  29.023  34.915  1.00  0.00     0.173 A 
ATOM     64  C   UNL A   1      43.925  27.424  35.914  1.00  0.00     0.173 A 
ATOM     65  F   UNL A   1      45.653  30.070  34.108  1.00  0.00    -0.203 F 
ATOM     66  C   UNL A   1      46.494  28.415  35.557  1.00  0.00     0.198 A 
ATOM     67  C   UNL A   1      44.997  26.838  36.577  1.00  0.00     0.198 A 
ATOM     68  F   UNL A   1      42.695  26.923  36.100  1.00  0.00    -0.203 F 
ATOM     69  F   UNL A   1      47.737  28.873  35.358  1.00  0.00    -0.200 F 
ATOM     70  C   UNL A   1      46.281  27.328  36.393  1.00  0.00     0.200 A 
ATOM     71  F   UNL A   1      44.787  25.796  37.394  1.00  0.00    -0.200 F 
ATOM     72  F   UNL A   1      47.316  26.749  37.017  1.00  0.00    -0.200 F 
ENDBRANCH  39  62
ENDBRANCH  13  14
ENDBRANCH   6   8
ENDBRANCH   5   6
ENDBRANCH   4   5
ENDBRANCH   3   4
ENDBRANCH   2   3
ENDBRANCH   1   2
BRANCH   1  73
ATOM     73  C   UNL A   1      34.737  29.241  27.573  1.00  0.00     0.261 C 
BRANCH  73  74
ATOM     74  O   UNL A   1      34.429  28.614  26.320  1.00  0.00    -0.460 OA
BRANCH  74  75
ATOM     75  C   UNL A   1      33.386  27.744  26.320  1.00  0.00     0.342 C 
ATOM     76  O   UNL A   1      32.370  27.805  26.993  1.00  0.00    -0.246 OA
BRANCH  75  77
ATOM     77  C   UNL A   1      33.547  26.861  25.145  1.00  0.00     0.102 A 
ATOM     78  C   UNL A   1      33.456  25.474  25.363  1.00  0.00     0.027 A 
ATOM     79  C   UNL A   1      33.652  27.363  23.846  1.00  0.00     0.130 A 
ATOM     80  C   UNL A   1      33.371  24.592  24.281  1.00  0.00    -0.025 A 
ATOM     81  C   UNL A   1      33.621  26.490  22.764  1.00  0.00     0.048 A 
ATOM     82  C   UNL A   1      33.468  25.118  22.984  1.00  0.00     0.012 A 
BRANCH  79  83
ATOM     83  O   UNL A   1      33.795  28.704  23.628  1.00  0.00    -0.507 OA
ATOM     84  H   UNL A   1      34.392  29.202  24.152  1.00  0.00     0.293 HD
ENDBRANCH  79  83
BRANCH  80  85
ATOM     85  C   UNL A   1      33.210  23.135  24.421  1.00  0.00     0.009 C 
ATOM     86  C   UNL A   1      32.550  22.311  23.587  1.00  0.00     0.009 C 
BRANCH  86  87
ATOM     87  C   UNL A   1      32.504  20.854  23.814  1.00  0.00    -0.018 A 
ATOM     88  C   UNL A   1      32.235  19.963  22.762  1.00  0.00     0.054 A 
ATOM     89  C   UNL A   1      32.750  20.336  25.095  1.00  0.00     0.054 A 
ATOM     90  C   UNL A   1      32.172  18.593  23.002  1.00  0.00     0.119 A 
ATOM     91  C   UNL A   1      32.686  18.957  25.312  1.00  0.00     0.119 A 
ATOM     92  C   UNL A   1      32.391  18.082  24.274  1.00  0.00     0.092 A 
BRANCH  90  93
ATOM     93  O   UNL A   1      31.890  17.711  22.001  1.00  0.00    -0.508 OA
ATOM     94  H   UNL A   1      31.242  17.046  22.131  1.00  0.00     0.293 HD
ENDBRANCH  90  93
BRANCH  91  95
ATOM     95  O   UNL A   1      32.902  18.417  26.546  1.00  0.00    -0.508 OA
ATOM     96  H   UNL A   1      33.219  17.539  26.623  1.00  0.00     0.293 HD
ENDBRANCH  91  95
ENDBRANCH  86  87
ENDBRANCH  80  85
ENDBRANCH  75  77
ENDBRANCH  74  75
ENDBRANCH  73  74
ENDBRANCH   1  73
TORSDOF 19
ENDMDL
MODEL 2
REMARK VINA RESULT:     -11.3      4.572     10.923
REMARK SMILES O=C(OCCOCCOC(=O)c1cc(/C=C/c2cc(O)cc(O)c2)ccc1O)c1ccc(-c2c3nc(c(-c4c(F)c(F)c(F)c(F)c4F)c4ccc([nH]4)c(-c4c(F)c(F)c(F)c(F)c4F)c4nc(c(-c5c(F)c(F)c(F)c(F)c5F)c5ccc2[nH]5)C=C4)C=C3)cc1
REMARK SMILES IDX 7 1 6 2 5 3 4 4 3 5 2 6 1 7 29 8 30 9 91 10 31 11 90 12
REMARK SMILES IDX 32 13 33 14 34 15 84 16 35 17 89 18 83 19 85 20 36 21 88 22
REMARK SMILES IDX 82 23 81 24 37 26 69 27 49 28 68 29 50 30 53 31 67 32 86 33
REMARK SMILES IDX 51 34 52 35 66 37 87 38 54 39 38 40 39 41 47 42 40 43 41 44
REMARK SMILES IDX 45 45 48 46 42 47 43 48 46 49 44 50 70 51 71 52 79 53 72 54
REMARK SMILES IDX 73 55 77 56 80 57 74 58 75 59 78 60 76 61 55 62 56 63 64 64
REMARK SMILES IDX 57 65 58 66 62 67 65 68 59 69 60 70 63 71 61 72 8 73 9 74
REMARK SMILES IDX 10 75 11 76 12 77 13 78 27 79 14 80 26 81 25 82 28 83 15 85
REMARK SMILES IDX 16 86 17 87 18 88 24 89 19 90 22 91 21 92 20 93 23 95
REMARK H PARENT 85 25 53 36 28 84 20 94 23 96
REMARK Flexibility Score: inf
ROOT
ATOM      1  C   UNL A   1      32.604  35.721  30.873  1.00  0.00     0.202 C 
ENDROOT
BRANCH   1   2
ATOM      2  O   UNL A   1      32.509  34.956  29.666  1.00  0.00    -0.374 OA
BRANCH   2   3
ATOM      3  C   UNL A   1      33.751  34.680  29.018  1.00  0.00     0.202 C 
BRANCH   3   4
ATOM      4  C   UNL A   1      33.657  33.587  27.951  1.00  0.00     0.261 C 
BRANCH   4   5
ATOM      5  O   UNL A   1      33.864  32.292  28.540  1.00  0.00    -0.460 OA
BRANCH   5   6
ATOM      6  C   UNL A   1      34.438  31.197  27.993  1.00  0.00     0.338 C 
ATOM      7  O   UNL A   1      33.883  30.664  27.032  1.00  0.00    -0.246 OA
BRANCH   6   8
ATOM      8  C   UNL A   1      35.730  30.605  28.459  1.00  0.00     0.060 A 
ATOM      9  C   UNL A   1      35.880  29.762  29.561  1.00  0.00     0.016 A 
ATOM     10  C   UNL A   1      36.869  30.865  27.676  1.00  0.00     0.016 A 
ATOM     11  C   UNL A   1      37.115  29.246  29.922  1.00  0.00     0.010 A 
ATOM     12  C   UNL A   1      38.115  30.323  28.010  1.00  0.00     0.010 A 
ATOM     13  C   UNL A   1      38.239  29.532  29.155  1.00  0.00    -0.014 A 
BRANCH  13  14
ATOM     14  C   UNL A   1      39.542  29.092  29.681  1.00  0.00     0.031 A 
ATOM     15  C   UNL A   1      40.044  29.730  30.938  1.00  0.00     0.074 A 
ATOM     16  C   UNL A   1      40.152  28.027  29.133  1.00  0.00     0.049 A 
ATOM     17  N   UNL A   1      41.131  29.483  31.618  1.00  0.00    -0.248 NA
ATOM     18  C   UNL A   1      39.190  30.777  31.524  1.00  0.00     0.031 C 
ATOM     19  C   UNL A   1      39.647  27.267  27.987  1.00  0.00     0.029 A 
ATOM     20  N   UNL A   1      41.295  27.367  29.496  1.00  0.00    -0.354 N 
ATOM     21  C   UNL A   1      41.105  30.362  32.692  1.00  0.00     0.074 A 
ATOM     22  C   UNL A   1      39.897  31.146  32.580  1.00  0.00     0.031 C 
ATOM     23  C   UNL A   1      40.460  26.221  27.765  1.00  0.00     0.029 A 
ATOM     24  C   UNL A   1      41.569  26.275  28.711  1.00  0.00     0.049 A 
ATOM     25  H   UNL A   1      41.866  27.650  30.246  1.00  0.00     0.167 HD
ATOM     26  C   UNL A   1      42.023  30.500  33.676  1.00  0.00     0.037 A 
ATOM     27  C   UNL A   1      42.614  25.430  28.753  1.00  0.00     0.037 A 
ATOM     28  C   UNL A   1      43.215  29.702  33.759  1.00  0.00     0.049 A 
ATOM     29  C   UNL A   1      43.662  25.660  29.809  1.00  0.00     0.074 A 
ATOM     30  C   UNL A   1      44.260  29.791  34.658  1.00  0.00     0.029 A 
ATOM     31  N   UNL A   1      43.513  28.655  32.895  1.00  0.00    -0.354 N 
ATOM     32  N   UNL A   1      43.678  26.542  30.781  1.00  0.00    -0.248 NA
ATOM     33  C   UNL A   1      44.844  24.790  29.767  1.00  0.00     0.031 C 
ATOM     34  C   UNL A   1      45.211  28.823  34.311  1.00  0.00     0.029 A 
ATOM     35  C   UNL A   1      44.733  28.098  33.230  1.00  0.00     0.049 A 
ATOM     36  H   UNL A   1      42.939  28.354  32.154  1.00  0.00     0.167 HD
ATOM     37  C   UNL A   1      44.855  26.321  31.481  1.00  0.00     0.074 A 
ATOM     38  C   UNL A   1      45.520  25.210  30.829  1.00  0.00     0.031 C 
ATOM     39  C   UNL A   1      45.349  26.978  32.561  1.00  0.00     0.037 A 
BRANCH  26  40
ATOM     40  C   UNL A   1      41.797  31.608  34.660  1.00  0.00     0.064 A 
ATOM     41  C   UNL A   1      40.952  31.462  35.772  1.00  0.00     0.173 A 
ATOM     42  C   UNL A   1      42.390  32.863  34.448  1.00  0.00     0.173 A 
ATOM     43  F   UNL A   1      40.333  30.294  36.000  1.00  0.00    -0.203 F 
ATOM     44  C   UNL A   1      40.682  32.541  36.612  1.00  0.00     0.198 A 
ATOM     45  C   UNL A   1      42.138  33.930  35.305  1.00  0.00     0.198 A 
ATOM     46  F   UNL A   1      43.196  33.060  33.395  1.00  0.00    -0.203 F 
ATOM     47  F   UNL A   1      39.816  32.398  37.625  1.00  0.00    -0.200 F 
ATOM     48  C   UNL A   1      41.275  33.773  36.379  1.00  0.00     0.200 A 
ATOM     49  F   UNL A   1      42.712  35.120  35.078  1.00  0.00    -0.200 F 
ATOM     50  F   UNL A   1      40.999  34.813  37.178  1.00  0.00    -0.200 F 
ENDBRANCH  26  40
BRANCH  27  51
ATOM     51  C   UNL A   1      42.731  24.323  27.765  1.00  0.00     0.064 A 
ATOM     52  C   UNL A   1      43.195  24.555  26.463  1.00  0.00     0.173 A 
ATOM     53  C   UNL A   1      42.373  23.008  28.102  1.00  0.00     0.173 A 
ATOM     54  F   UNL A   1      43.527  25.796  26.082  1.00  0.00    -0.203 F 
ATOM     55  C   UNL A   1      43.283  23.519  25.533  1.00  0.00     0.198 A 
ATOM     56  C   UNL A   1      42.490  21.968  27.182  1.00  0.00     0.198 A 
ATOM     57  F   UNL A   1      41.919  22.729  29.333  1.00  0.00    -0.203 F 
ATOM     58  F   UNL A   1      43.686  23.777  24.282  1.00  0.00    -0.200 F 
ATOM     59  C   UNL A   1      42.937  22.225  25.895  1.00  0.00     0.200 A 
ATOM     60  F   UNL A   1      42.166  20.718  27.542  1.00  0.00    -0.200 F 
ATOM     61  F   UNL A   1      43.026  21.230  25.003  1.00  0.00    -0.200 F 
ENDBRANCH  27  51
BRANCH  39  62
ATOM     62  C   UNL A   1      46.643  26.475  33.123  1.00  0.00     0.064 A 
ATOM     63  C   UNL A   1      46.678  25.536  34.163  1.00  0.00     0.173 A 
ATOM     64  C   UNL A   1      47.862  26.908  32.580  1.00  0.00     0.173 A 
ATOM     65  F   UNL A   1      45.537  25.106  34.723  1.00  0.00    -0.203 F 
ATOM     66  C   UNL A   1      47.891  25.067  34.658  1.00  0.00     0.198 A 
ATOM     67  C   UNL A   1      49.071  26.415  33.057  1.00  0.00     0.198 A 
ATOM     68  F   UNL A   1      47.876  27.800  31.577  1.00  0.00    -0.203 F 
ATOM     69  F   UNL A   1      47.905  24.205  35.683  1.00  0.00    -0.200 F 
ATOM     70  C   UNL A   1      49.085  25.501  34.100  1.00  0.00     0.200 A 
ATOM     71  F   UNL A   1      50.222  26.825  32.508  1.00  0.00    -0.200 F 
ATOM     72  F   UNL A   1      50.252  25.042  34.573  1.00  0.00    -0.200 F 
ENDBRANCH  39  62
ENDBRANCH  13  14
ENDBRANCH   6   8
ENDBRANCH   5   6
ENDBRANCH   4   5
ENDBRANCH   3   4
ENDBRANCH   2   3
ENDBRANCH   1   2
BRANCH   1  73
ATOM     73  C   UNL A   1      33.976  35.501  31.508  1.00  0.00     0.261 C 
BRANCH  73  74
ATOM     74  O   UNL A   1      33.836  34.512  32.538  1.00  0.00    -0.460 OA
BRANCH  74  75
ATOM     75  C   UNL A   1      34.545  33.366  32.374  1.00  0.00     0.342 C 
ATOM     76  O   UNL A   1      34.190  32.350  31.798  1.00  0.00    -0.246 OA
BRANCH  75  77
ATOM     77  C   UNL A   1      35.945  33.654  32.754  1.00  0.00     0.102 A 
ATOM     78  C   UNL A   1      36.884  33.777  31.712  1.00  0.00     0.027 A 
ATOM     79  C   UNL A   1      36.317  33.928  34.072  1.00  0.00     0.130 A 
ATOM     80  C   UNL A   1      38.167  34.268  31.971  1.00  0.00    -0.025 A 
ATOM     81  C   UNL A   1      37.608  34.367  34.348  1.00  0.00     0.048 A 
ATOM     82  C   UNL A   1      38.517  34.547  33.301  1.00  0.00     0.012 A 
BRANCH  79  83
ATOM     83  O   UNL A   1      35.428  33.759  35.094  1.00  0.00    -0.507 OA
ATOM     84  H   UNL A   1      35.738  33.668  35.974  1.00  0.00     0.293 HD
ENDBRANCH  79  83
BRANCH  80  85
ATOM     85  C   UNL A   1      39.186  34.487  30.932  1.00  0.00     0.009 C 
ATOM     86  C   UNL A   1      40.521  34.397  31.077  1.00  0.00     0.009 C 
BRANCH  86  87
ATOM     87  C   UNL A   1      41.439  34.592  29.938  1.00  0.00    -0.018 A 
ATOM     88  C   UNL A   1      41.169  35.545  28.943  1.00  0.00     0.054 A 
ATOM     89  C   UNL A   1      42.616  33.833  29.848  1.00  0.00     0.054 A 
ATOM     90  C   UNL A   1      42.036  35.697  27.864  1.00  0.00     0.119 A 
ATOM     91  C   UNL A   1      43.473  34.005  28.759  1.00  0.00     0.119 A 
ATOM     92  C   UNL A   1      43.187  34.928  27.761  1.00  0.00     0.092 A 
BRANCH  90  93
ATOM     93  O   UNL A   1      41.782  36.599  26.873  1.00  0.00    -0.508 OA
ATOM     94  H   UNL A   1      41.669  36.306  25.990  1.00  0.00     0.293 HD
ENDBRANCH  90  93
BRANCH  91  95
ATOM     95  O   UNL A   1      44.618  33.273  28.628  1.00  0.00    -0.508 OA
ATOM     96  H   UNL A   1      45.363  33.472  29.160  1.00  0.00     0.293 HD
ENDBRANCH  91  95
ENDBRANCH  86  87
ENDBRANCH  80  85
ENDBRANCH  75  77
ENDBRANCH  74  75
ENDBRANCH  73  74
ENDBRANCH   1  73
TORSDOF 19
ENDMDL
MODEL 3
REMARK VINA RESULT:     -11.3      5.786     10.350
REMARK SMILES O=C(OCCOCCOC(=O)c1cc(/C=C/c2cc(O)cc(O)c2)ccc1O)c1ccc(-c2c3nc(c(-c4c(F)c(F)c(F)c(F)c4F)c4ccc([nH]4)c(-c4c(F)c(F)c(F)c(F)c4F)c4nc(c(-c5c(F)c(F)c(F)c(F)c5F)c5ccc2[nH]5)C=C4)C=C3)cc1
REMARK SMILES IDX 7 1 6 2 5 3 4 4 3 5 2 6 1 7 29 8 30 9 91 10 31 11 90 12
REMARK SMILES IDX 32 13 33 14 34 15 84 16 35 17 89 18 83 19 85 20 36 21 88 22
REMARK SMILES IDX 82 23 81 24 37 26 69 27 49 28 68 29 50 30 53 31 67 32 86 33
REMARK SMILES IDX 51 34 52 35 66 37 87 38 54 39 38 40 39 41 47 42 40 43 41 44
REMARK SMILES IDX 45 45 48 46 42 47 43 48 46 49 44 50 70 51 71 52 79 53 72 54
REMARK SMILES IDX 73 55 77 56 80 57 74 58 75 59 78 60 76 61 55 62 56 63 64 64
REMARK SMILES IDX 57 65 58 66 62 67 65 68 59 69 60 70 63 71 61 72 8 73 9 74
REMARK SMILES IDX 10 75 11 76 12 77 13 78 27 79 14 80 26 81 25 82 28 83 15 85
REMARK SMILES IDX 16 86 17 87 18 88 24 89 19 90 22 91 21 92 20 93 23 95
REMARK H PARENT 85 25 53 36 28 84 20 94 23 96
REMARK Flexibility Score: inf
ROOT
ATOM      1  C   UNL A   1      43.343  18.779  25.584  1.00  0.00     0.202 C 
ENDROOT
BRANCH   1   2
ATOM      2  O   UNL A   1      42.742  19.654  26.545  1.00  0.00    -0.374 OA
BRANCH   2   3
ATOM      3  C   UNL A   1      41.372  19.976  26.306  1.00  0.00     0.202 C 
BRANCH   3   4
ATOM      4  C   UNL A   1      41.091  21.480  26.279  1.00  0.00     0.261 C 
BRANCH   4   5
ATOM      5  O   UNL A   1      39.748  21.731  25.833  1.00  0.00    -0.460 OA
BRANCH   5   6
ATOM      6  C   UNL A   1      38.918  22.743  26.175  1.00  0.00     0.338 C 
ATOM      7  O   UNL A   1      37.705  22.568  26.064  1.00  0.00    -0.246 OA
BRANCH   6   8
ATOM      8  C   UNL A   1      39.379  24.059  26.715  1.00  0.00     0.060 A 
ATOM      9  C   UNL A   1      40.007  25.061  25.974  1.00  0.00     0.016 A 
ATOM     10  C   UNL A   1      39.087  24.332  28.064  1.00  0.00     0.016 A 
ATOM     11  C   UNL A   1      40.396  26.260  26.550  1.00  0.00     0.010 A 
ATOM     12  C   UNL A   1      39.443  25.552  28.649  1.00  0.00     0.010 A 
ATOM     13  C   UNL A   1      40.125  26.507  27.892  1.00  0.00    -0.014 A 
BRANCH  13  14
ATOM     14  C   UNL A   1      40.706  27.724  28.482  1.00  0.00     0.031 A 
ATOM     15  C   UNL A   1      42.192  27.891  28.429  1.00  0.00     0.074 A 
ATOM     16  C   UNL A   1      39.894  28.718  28.884  1.00  0.00     0.049 A 
ATOM     17  N   UNL A   1      42.931  28.887  28.836  1.00  0.00    -0.248 NA
ATOM     18  C   UNL A   1      42.949  26.790  27.810  1.00  0.00     0.031 C 
ATOM     19  C   UNL A   1      38.431  28.679  28.836  1.00  0.00     0.029 A 
ATOM     20  N   UNL A   1      40.181  29.967  29.362  1.00  0.00    -0.354 N 
ATOM     21  C   UNL A   1      44.239  28.521  28.549  1.00  0.00     0.074 A 
ATOM     22  C   UNL A   1      44.197  27.215  27.932  1.00  0.00     0.031 C 
ATOM     23  C   UNL A   1      37.949  29.868  29.231  1.00  0.00     0.029 A 
ATOM     24  C   UNL A   1      39.065  30.725  29.617  1.00  0.00     0.049 A 
ATOM     25  H   UNL A   1      41.099  30.292  29.508  1.00  0.00     0.167 HD
ATOM     26  C   UNL A   1      45.372  29.219  28.795  1.00  0.00     0.037 A 
ATOM     27  C   UNL A   1      38.970  31.967  30.124  1.00  0.00     0.037 A 
ATOM     28  C   UNL A   1      45.378  30.517  29.410  1.00  0.00     0.049 A 
ATOM     29  C   UNL A   1      40.248  32.688  30.465  1.00  0.00     0.074 A 
ATOM     30  C   UNL A   1      46.456  31.297  29.783  1.00  0.00     0.029 A 
ATOM     31  N   UNL A   1      44.231  31.228  29.742  1.00  0.00    -0.354 N 
ATOM     32  N   UNL A   1      41.489  32.310  30.265  1.00  0.00    -0.248 NA
ATOM     33  C   UNL A   1      40.115  33.998  31.113  1.00  0.00     0.031 C 
ATOM     34  C   UNL A   1      45.959  32.463  30.379  1.00  0.00     0.029 A 
ATOM     35  C   UNL A   1      44.573  32.432  30.328  1.00  0.00     0.049 A 
ATOM     36  H   UNL A   1      43.310  30.920  29.581  1.00  0.00     0.167 HD
ATOM     37  C   UNL A   1      42.285  33.341  30.741  1.00  0.00     0.074 A 
ATOM     38  C   UNL A   1      41.383  34.368  31.224  1.00  0.00     0.031 C 
ATOM     39  C   UNL A   1      43.639  33.433  30.781  1.00  0.00     0.037 A 
BRANCH  26  40
ATOM     40  C   UNL A   1      46.668  28.537  28.477  1.00  0.00     0.064 A 
ATOM     41  C   UNL A   1      47.337  27.728  29.409  1.00  0.00     0.173 A 
ATOM     42  C   UNL A   1      47.284  28.751  27.234  1.00  0.00     0.173 A 
ATOM     43  F   UNL A   1      46.808  27.520  30.625  1.00  0.00    -0.203 F 
ATOM     44  C   UNL A   1      48.590  27.191  29.121  1.00  0.00     0.198 A 
ATOM     45  C   UNL A   1      48.524  28.191  26.941  1.00  0.00     0.198 A 
ATOM     46  F   UNL A   1      46.694  29.525  26.312  1.00  0.00    -0.203 F 
ATOM     47  F   UNL A   1      49.243  26.481  30.053  1.00  0.00    -0.200 F 
ATOM     48  C   UNL A   1      49.182  27.421  27.888  1.00  0.00     0.200 A 
ATOM     49  F   UNL A   1      49.095  28.415  25.749  1.00  0.00    -0.200 F 
ATOM     50  F   UNL A   1      50.395  26.918  27.621  1.00  0.00    -0.200 F 
ENDBRANCH  26  40
BRANCH  27  51
ATOM     51  C   UNL A   1      37.639  32.587  30.359  1.00  0.00     0.064 A 
ATOM     52  C   UNL A   1      36.931  32.366  31.548  1.00  0.00     0.173 A 
ATOM     53  C   UNL A   1      37.040  33.411  29.393  1.00  0.00     0.173 A 
ATOM     54  F   UNL A   1      37.446  31.568  32.495  1.00  0.00    -0.203 F 
ATOM     55  C   UNL A   1      35.673  32.931  31.756  1.00  0.00     0.198 A 
ATOM     56  C   UNL A   1      35.796  34.001  29.614  1.00  0.00     0.198 A 
ATOM     57  F   UNL A   1      37.669  33.655  28.233  1.00  0.00    -0.203 F 
ATOM     58  F   UNL A   1      35.000  32.665  32.884  1.00  0.00    -0.200 F 
ATOM     59  C   UNL A   1      35.110  33.754  30.792  1.00  0.00     0.200 A 
ATOM     60  F   UNL A   1      35.264  34.804  28.683  1.00  0.00    -0.200 F 
ATOM     61  F   UNL A   1      33.904  34.300  30.994  1.00  0.00    -0.200 F 
ENDBRANCH  27  51
BRANCH  39  62
ATOM     62  C   UNL A   1      44.212  34.706  31.324  1.00  0.00     0.064 A 
ATOM     63  C   UNL A   1      44.554  34.841  32.676  1.00  0.00     0.173 A 
ATOM     64  C   UNL A   1      44.459  35.789  30.466  1.00  0.00     0.173 A 
ATOM     65  F   UNL A   1      44.321  33.837  33.535  1.00  0.00    -0.203 F 
ATOM     66  C   UNL A   1      45.103  36.027  33.157  1.00  0.00     0.198 A 
ATOM     67  C   UNL A   1      45.034  36.961  30.945  1.00  0.00     0.198 A 
ATOM     68  F   UNL A   1      44.154  35.702  29.163  1.00  0.00    -0.203 F 
ATOM     69  F   UNL A   1      45.381  36.152  34.461  1.00  0.00    -0.200 F 
ATOM     70  C   UNL A   1      45.349  37.082  32.290  1.00  0.00     0.200 A 
ATOM     71  F   UNL A   1      45.283  37.974  30.104  1.00  0.00    -0.200 F 
ATOM     72  F   UNL A   1      45.884  38.219  32.754  1.00  0.00    -0.200 F 
ENDBRANCH  39  62
ENDBRANCH  13  14
ENDBRANCH   6   8
ENDBRANCH   5   6
ENDBRANCH   4   5
ENDBRANCH   3   4
ENDBRANCH   2   3
ENDBRANCH   1   2
BRANCH   1  73
ATOM     73  C   UNL A   1      44.543  19.474  24.943  1.00  0.00     0.261 C 
BRANCH  73  74
ATOM     74  O   UNL A   1      44.664  20.780  25.526  1.00  0.00    -0.460 OA
BRANCH  74  75
ATOM     75  C   UNL A   1      44.746  21.822  24.660  1.00  0.00     0.342 C 
ATOM     76  O   UNL A   1      44.173  21.945  23.590  1.00  0.00    -0.246 OA
BRANCH  75  77
ATOM     77  C   UNL A   1      45.421  22.932  25.368  1.00  0.00     0.102 A 
ATOM     78  C   UNL A   1      45.057  23.157  26.709  1.00  0.00     0.027 A 
ATOM     79  C   UNL A   1      46.470  23.653  24.793  1.00  0.00     0.130 A 
ATOM     80  C   UNL A   1      45.803  24.030  27.507  1.00  0.00    -0.025 A 
ATOM     81  C   UNL A   1      47.186  24.562  25.564  1.00  0.00     0.048 A 
ATOM     82  C   UNL A   1      46.860  24.736  26.913  1.00  0.00     0.012 A 
BRANCH  79  83
ATOM     83  O   UNL A   1      46.794  23.479  23.478  1.00  0.00    -0.507 OA
ATOM     84  H   UNL A   1      46.863  24.222  22.911  1.00  0.00     0.293 HD
ENDBRANCH  79  83
BRANCH  80  85
ATOM     85  C   UNL A   1      45.531  24.274  28.933  1.00  0.00     0.009 C 
ATOM     86  C   UNL A   1      44.494  23.803  29.650  1.00  0.00     0.009 C 
BRANCH  86  87
ATOM     87  C   UNL A   1      44.361  24.080  31.093  1.00  0.00    -0.018 A 
ATOM     88  C   UNL A   1      44.004  23.067  31.997  1.00  0.00     0.054 A 
ATOM     89  C   UNL A   1      44.613  25.371  31.585  1.00  0.00     0.054 A 
ATOM     90  C   UNL A   1      43.860  23.356  33.352  1.00  0.00     0.119 A 
ATOM     91  C   UNL A   1      44.466  25.636  32.948  1.00  0.00     0.119 A 
ATOM     92  C   UNL A   1      44.084  24.638  33.835  1.00  0.00     0.092 A 
BRANCH  90  93
ATOM     93  O   UNL A   1      43.491  22.393  34.245  1.00  0.00    -0.508 OA
ATOM     94  H   UNL A   1      43.001  21.648  33.955  1.00  0.00     0.293 HD
ENDBRANCH  90  93
BRANCH  91  95
ATOM     95  O   UNL A   1      44.685  26.882  33.462  1.00  0.00    -0.508 OA
ATOM     96  H   UNL A   1      45.502  27.081  33.874  1.00  0.00     0.293 HD
ENDBRANCH  91  95
ENDBRANCH  86  87
ENDBRANCH  80  85
ENDBRANCH  75  77
ENDBRANCH  74  75
ENDBRANCH  73  74
ENDBRANCH   1  73
TORSDOF 19
ENDMDL
