MODEL 1
REMARK VINA RESULT:     -11.3      0.000      0.000
REMARK SMILES COC(=O)[C@H]1CCN(C(=O)N2C[C@@H](C)[C@@H](C(=O)OCCOCCOC(=O)c3ccc(-c4c5nc(c(-c6c(F)c(F)c(F)c(F)c6F)c6ccc([nH]6)c(-c6c(F)c(F)c(F)c(F)c6F)c6nc(c(-c7c(F)c(F)c(F)c(F)c7F)c7ccc4[nH]7)C=C6)C=C5)cc3)C2)C1
REMARK SMILES IDX 20 1 19 2 18 3 16 4 17 5 15 6 11 7 12 8 90 9 13 10 14 11
REMARK SMILES IDX 9 12 10 13 8 14 5 15 6 16 91 17 7 18 3 19 4 20 2 21 1 22
REMARK SMILES IDX 21 23 22 24 23 25 24 26 25 27 26 28 27 29 28 30 89 31 29 32
REMARK SMILES IDX 88 33 30 34 31 35 32 36 82 37 33 38 87 39 81 40 83 41 34 42
REMARK SMILES IDX 86 43 80 44 79 45 35 47 67 48 47 49 66 50 48 51 51 52 65 53
REMARK SMILES IDX 84 54 49 55 50 56 64 58 85 59 52 60 36 61 37 62 45 63 38 64
REMARK SMILES IDX 39 65 43 66 46 67 40 68 41 69 44 70 42 71 68 72 69 73 77 74
REMARK SMILES IDX 70 75 71 76 75 77 78 78 72 79 73 80 76 81 74 82 53 83 54 84
REMARK SMILES IDX 62 85 55 86 56 87 60 88 63 89 57 90 58 91 61 92 59 93
REMARK H PARENT 83 46 51 57
REMARK Flexibility Score: inf
ROOT
ATOM      1  C   UNL A   1      40.079  21.225  26.595  1.00  0.00     0.202 C 
ENDROOT
BRANCH   1   2
ATOM      2  C   UNL A   1      38.871  21.758  25.824  1.00  0.00     0.261 C 
BRANCH   2   3
ATOM      3  O   UNL A   1      38.434  23.050  26.282  1.00  0.00    -0.463 OA
BRANCH   3   4
ATOM      4  C   UNL A   1      37.154  23.374  25.958  1.00  0.00     0.311 C 
ATOM      5  O   UNL A   1      36.643  24.473  26.127  1.00  0.00    -0.252 OA
BRANCH   4   6
ATOM      6  C   UNL A   1      36.383  22.210  25.389  1.00  0.00     0.123 C 
ATOM      7  N   UNL A   1      34.152  21.665  24.951  1.00  0.00    -0.323 N 
ATOM      8  C   UNL A   1      34.584  22.415  23.791  1.00  0.00     0.125 C 
ATOM      9  C   UNL A   1      35.023  21.986  26.062  1.00  0.00     0.137 C 
ATOM     10  C   UNL A   1      36.095  22.240  23.863  1.00  0.00     0.021 C 
ATOM     11  C   UNL A   1      36.857  23.234  23.005  1.00  0.00     0.010 C 
BRANCH   7  12
ATOM     12  C   UNL A   1      33.021  20.911  25.090  1.00  0.00     0.320 C 
ATOM     13  O   UNL A   1      32.071  21.299  25.769  1.00  0.00    -0.248 OA
BRANCH  12  14
ATOM     14  N   UNL A   1      33.024  19.678  24.483  1.00  0.00    -0.324 N 
ATOM     15  C   UNL A   1      33.865  17.570  23.777  1.00  0.00     0.120 C 
ATOM     16  C   UNL A   1      32.517  17.866  23.115  1.00  0.00     0.039 C 
ATOM     17  C   UNL A   1      34.008  18.662  24.837  1.00  0.00     0.136 C 
ATOM     18  C   UNL A   1      32.447  19.373  23.184  1.00  0.00     0.122 C 
BRANCH  15  19
ATOM     19  C   UNL A   1      33.920  16.191  24.382  1.00  0.00     0.310 C 
ATOM     20  O   UNL A   1      34.940  15.541  24.561  1.00  0.00    -0.252 OA
BRANCH  19  21
ATOM     21  O   UNL A   1      32.668  15.792  24.741  1.00  0.00    -0.469 OA
ATOM     22  C   UNL A   1      32.655  14.655  25.606  1.00  0.00     0.282 C 
ENDBRANCH  19  21
ENDBRANCH  15  19
ENDBRANCH  12  14
ENDBRANCH   7  12
ENDBRANCH   4   6
ENDBRANCH   3   4
ENDBRANCH   2   3
ENDBRANCH   1   2
BRANCH   1  23
ATOM     23  O   UNL A   1      41.124  20.658  25.812  1.00  0.00    -0.374 OA
BRANCH  23  24
ATOM     24  C   UNL A   1      42.455  20.817  26.304  1.00  0.00     0.202 C 
BRANCH  24  25
ATOM     25  C   UNL A   1      43.427  21.563  25.382  1.00  0.00     0.261 C 
BRANCH  25  26
ATOM     26  O   UNL A   1      42.852  22.777  24.856  1.00  0.00    -0.460 OA
BRANCH  26  27
ATOM     27  C   UNL A   1      43.621  23.882  24.988  1.00  0.00     0.338 C 
ATOM     28  O   UNL A   1      44.617  24.179  24.342  1.00  0.00    -0.246 OA
BRANCH  27  29
ATOM     29  C   UNL A   1      42.997  24.822  25.937  1.00  0.00     0.060 A 
ATOM     30  C   UNL A   1      43.583  26.087  26.081  1.00  0.00     0.016 A 
ATOM     31  C   UNL A   1      41.905  24.454  26.726  1.00  0.00     0.016 A 
ATOM     32  C   UNL A   1      43.101  26.977  27.039  1.00  0.00     0.010 A 
ATOM     33  C   UNL A   1      41.431  25.345  27.696  1.00  0.00     0.010 A 
ATOM     34  C   UNL A   1      42.041  26.600  27.874  1.00  0.00    -0.014 A 
BRANCH  34  35
ATOM     35  C   UNL A   1      41.638  27.480  28.998  1.00  0.00     0.031 A 
ATOM     36  C   UNL A   1      42.413  27.436  30.285  1.00  0.00     0.074 A 
ATOM     37  C   UNL A   1      40.598  28.320  28.866  1.00  0.00     0.049 A 
ATOM     38  N   UNL A   1      42.206  28.088  31.401  1.00  0.00    -0.248 NA
ATOM     39  C   UNL A   1      43.580  26.541  30.318  1.00  0.00     0.031 C 
ATOM     40  C   UNL A   1      39.794  28.481  27.657  1.00  0.00     0.029 A 
ATOM     41  N   UNL A   1      40.035  29.191  29.765  1.00  0.00    -0.354 N 
ATOM     42  C   UNL A   1      43.212  27.683  32.268  1.00  0.00     0.074 A 
ATOM     43  C   UNL A   1      44.015  26.709  31.558  1.00  0.00     0.031 C 
ATOM     44  C   UNL A   1      38.829  29.387  27.894  1.00  0.00     0.029 A 
ATOM     45  C   UNL A   1      38.929  29.843  29.279  1.00  0.00     0.049 A 
ATOM     46  H   UNL A   1      40.390  29.335  30.672  1.00  0.00     0.167 HD
ATOM     47  C   UNL A   1      43.448  28.091  33.538  1.00  0.00     0.037 A 
ATOM     48  C   UNL A   1      38.080  30.691  29.891  1.00  0.00     0.037 A 
ATOM     49  C   UNL A   1      42.647  29.056  34.244  1.00  0.00     0.049 A 
ATOM     50  C   UNL A   1      38.315  31.063  31.331  1.00  0.00     0.074 A 
ATOM     51  C   UNL A   1      42.825  29.557  35.523  1.00  0.00     0.029 A 
ATOM     52  N   UNL A   1      41.506  29.658  33.735  1.00  0.00    -0.354 N 
ATOM     53  N   UNL A   1      39.285  30.699  32.133  1.00  0.00    -0.248 NA
ATOM     54  C   UNL A   1      37.331  31.961  31.953  1.00  0.00     0.031 C 
ATOM     55  C   UNL A   1      41.764  30.424  35.805  1.00  0.00     0.029 A 
ATOM     56  C   UNL A   1      40.951  30.501  34.686  1.00  0.00     0.049 A 
ATOM     57  H   UNL A   1      41.144  29.510  32.832  1.00  0.00     0.167 HD
ATOM     58  C   UNL A   1      39.042  31.335  33.343  1.00  0.00     0.074 A 
ATOM     59  C   UNL A   1      37.840  32.124  33.166  1.00  0.00     0.031 C 
ATOM     60  C   UNL A   1      39.750  31.274  34.497  1.00  0.00     0.037 A 
BRANCH  47  61
ATOM     61  C   UNL A   1      44.613  27.478  34.257  1.00  0.00     0.064 A 
ATOM     62  C   UNL A   1      44.488  26.276  34.969  1.00  0.00     0.173 A 
ATOM     63  C   UNL A   1      45.879  28.079  34.196  1.00  0.00     0.173 A 
ATOM     64  F   UNL A   1      43.296  25.670  35.065  1.00  0.00    -0.203 F 
ATOM     65  C   UNL A   1      45.585  25.709  35.612  1.00  0.00     0.198 A 
ATOM     66  C   UNL A   1      46.978  27.496  34.821  1.00  0.00     0.198 A 
ATOM     67  F   UNL A   1      46.052  29.227  33.524  1.00  0.00    -0.203 F 
ATOM     68  F   UNL A   1      45.435  24.579  36.318  1.00  0.00    -0.200 F 
ATOM     69  C   UNL A   1      46.830  26.315  35.532  1.00  0.00     0.200 A 
ATOM     70  F   UNL A   1      48.183  28.077  34.733  1.00  0.00    -0.200 F 
ATOM     71  F   UNL A   1      47.887  25.763  36.145  1.00  0.00    -0.200 F 
ENDBRANCH  47  61
BRANCH  48  72
ATOM     72  C   UNL A   1      36.912  31.232  29.151  1.00  0.00     0.064 A 
ATOM     73  C   UNL A   1      36.872  32.572  28.741  1.00  0.00     0.173 A 
ATOM     74  C   UNL A   1      35.806  30.422  28.849  1.00  0.00     0.173 A 
ATOM     75  F   UNL A   1      37.893  33.390  29.030  1.00  0.00    -0.203 F 
ATOM     76  C   UNL A   1      35.764  33.084  28.068  1.00  0.00     0.198 A 
ATOM     77  C   UNL A   1      34.712  30.929  28.154  1.00  0.00     0.198 A 
ATOM     78  F   UNL A   1      35.794  29.135  29.222  1.00  0.00    -0.203 F 
ATOM     79  F   UNL A   1      35.734  34.378  27.723  1.00  0.00    -0.200 F 
ATOM     80  C   UNL A   1      34.688  32.262  27.769  1.00  0.00     0.200 A 
ATOM     81  F   UNL A   1      33.678  30.129  27.857  1.00  0.00    -0.200 F 
ATOM     82  F   UNL A   1      33.626  32.755  27.119  1.00  0.00    -0.200 F 
ENDBRANCH  48  72
BRANCH  60  83
ATOM     83  C   UNL A   1      39.254  32.089  35.654  1.00  0.00     0.064 A 
ATOM     84  C   UNL A   1      38.423  31.535  36.639  1.00  0.00     0.173 A 
ATOM     85  C   UNL A   1      39.645  33.429  35.803  1.00  0.00     0.173 A 
ATOM     86  F   UNL A   1      38.009  30.263  36.533  1.00  0.00    -0.203 F 
ATOM     87  C   UNL A   1      37.984  32.297  37.718  1.00  0.00     0.198 A 
ATOM     88  C   UNL A   1      39.226  34.180  36.898  1.00  0.00     0.198 A 
ATOM     89  F   UNL A   1      40.442  34.006  34.892  1.00  0.00    -0.203 F 
ATOM     90  F   UNL A   1      37.157  31.758  38.624  1.00  0.00    -0.200 F 
ATOM     91  C   UNL A   1      38.392  33.616  37.850  1.00  0.00     0.200 A 
ATOM     92  F   UNL A   1      39.630  35.452  37.030  1.00  0.00    -0.200 F 
ATOM     93  F   UNL A   1      37.974  34.347  38.894  1.00  0.00    -0.200 F 
ENDBRANCH  60  83
ENDBRANCH  34  35
ENDBRANCH  27  29
ENDBRANCH  26  27
ENDBRANCH  25  26
ENDBRANCH  24  25
ENDBRANCH  23  24
ENDBRANCH   1  23
TORSDOF 18
ENDMDL
MODEL 2
REMARK VINA RESULT:     -11.0      3.289      8.670
REMARK SMILES COC(=O)[C@H]1CCN(C(=O)N2C[C@@H](C)[C@@H](C(=O)OCCOCCOC(=O)c3ccc(-c4c5nc(c(-c6c(F)c(F)c(F)c(F)c6F)c6ccc([nH]6)c(-c6c(F)c(F)c(F)c(F)c6F)c6nc(c(-c7c(F)c(F)c(F)c(F)c7F)c7ccc4[nH]7)C=C6)C=C5)cc3)C2)C1
REMARK SMILES IDX 20 1 19 2 18 3 16 4 17 5 15 6 11 7 12 8 90 9 13 10 14 11
REMARK SMILES IDX 9 12 10 13 8 14 5 15 6 16 91 17 7 18 3 19 4 20 2 21 1 22
REMARK SMILES IDX 21 23 22 24 23 25 24 26 25 27 26 28 27 29 28 30 89 31 29 32
REMARK SMILES IDX 88 33 30 34 31 35 32 36 82 37 33 38 87 39 81 40 83 41 34 42
REMARK SMILES IDX 86 43 80 44 79 45 35 47 67 48 47 49 66 50 48 51 51 52 65 53
REMARK SMILES IDX 84 54 49 55 50 56 64 58 85 59 52 60 36 61 37 62 45 63 38 64
REMARK SMILES IDX 39 65 43 66 46 67 40 68 41 69 44 70 42 71 68 72 69 73 77 74
REMARK SMILES IDX 70 75 71 76 75 77 78 78 72 79 73 80 76 81 74 82 53 83 54 84
REMARK SMILES IDX 62 85 55 86 56 87 60 88 63 89 57 90 58 91 61 92 59 93
REMARK H PARENT 83 46 51 57
REMARK Flexibility Score: inf
ROOT
ATOM      1  C   UNL A   1      32.095  29.870  27.098  1.00  0.00     0.202 C 
ENDROOT
BRANCH   1   2
ATOM      2  C   UNL A   1      33.490  29.245  27.056  1.00  0.00     0.261 C 
BRANCH   2   3
ATOM      3  O   UNL A   1      33.479  27.864  26.651  1.00  0.00    -0.463 OA
BRANCH   3   4
ATOM      4  C   UNL A   1      33.533  27.657  25.309  1.00  0.00     0.311 C 
ATOM      5  O   UNL A   1      34.031  28.428  24.498  1.00  0.00    -0.252 OA
BRANCH   4   6
ATOM      6  C   UNL A   1      32.868  26.371  24.889  1.00  0.00     0.123 C 
ATOM      7  N   UNL A   1      31.697  24.621  25.904  1.00  0.00    -0.323 N 
ATOM      8  C   UNL A   1      30.699  25.641  25.659  1.00  0.00     0.125 C 
ATOM      9  C   UNL A   1      33.003  25.244  25.921  1.00  0.00     0.137 C 
ATOM     10  C   UNL A   1      31.356  26.445  24.545  1.00  0.00     0.021 C 
ATOM     11  C   UNL A   1      30.729  27.813  24.341  1.00  0.00     0.010 C 
BRANCH   7  12
ATOM     12  C   UNL A   1      31.494  23.314  26.249  1.00  0.00     0.320 C 
ATOM     13  O   UNL A   1      30.965  23.007  27.316  1.00  0.00    -0.248 OA
BRANCH  12  14
ATOM     14  N   UNL A   1      31.964  22.365  25.371  1.00  0.00    -0.324 N 
ATOM     15  C   UNL A   1      33.420  20.708  24.487  1.00  0.00     0.120 C 
ATOM     16  C   UNL A   1      32.344  21.087  23.467  1.00  0.00     0.039 C 
ATOM     17  C   UNL A   1      32.962  21.385  25.780  1.00  0.00     0.136 C 
ATOM     18  C   UNL A   1      31.937  22.468  23.922  1.00  0.00     0.122 C 
BRANCH  15  19
ATOM     19  C   UNL A   1      33.559  19.218  24.654  1.00  0.00     0.310 C 
ATOM     20  O   UNL A   1      34.566  18.572  24.402  1.00  0.00    -0.252 OA
BRANCH  19  21
ATOM     21  O   UNL A   1      32.410  18.700  25.171  1.00  0.00    -0.469 OA
ATOM     22  C   UNL A   1      32.579  17.414  25.770  1.00  0.00     0.282 C 
ENDBRANCH  19  21
ENDBRANCH  15  19
ENDBRANCH  12  14
ENDBRANCH   7  12
ENDBRANCH   4   6
ENDBRANCH   3   4
ENDBRANCH   2   3
ENDBRANCH   1   2
BRANCH   1  23
ATOM     23  O   UNL A   1      31.848  30.919  26.168  1.00  0.00    -0.374 OA
BRANCH  23  24
ATOM     24  C   UNL A   1      31.480  32.186  26.711  1.00  0.00     0.202 C 
BRANCH  24  25
ATOM     25  C   UNL A   1      32.639  33.097  27.137  1.00  0.00     0.261 C 
BRANCH  25  26
ATOM     26  O   UNL A   1      32.253  34.013  28.182  1.00  0.00    -0.460 OA
BRANCH  26  27
ATOM     27  C   UNL A   1      33.220  34.869  28.582  1.00  0.00     0.338 C 
ATOM     28  O   UNL A   1      33.137  36.084  28.704  1.00  0.00    -0.246 OA
BRANCH  27  29
ATOM     29  C   UNL A   1      34.403  34.117  29.041  1.00  0.00     0.060 A 
ATOM     30  C   UNL A   1      34.189  33.017  29.882  1.00  0.00     0.016 A 
ATOM     31  C   UNL A   1      35.701  34.521  28.719  1.00  0.00     0.016 A 
ATOM     32  C   UNL A   1      35.274  32.335  30.432  1.00  0.00     0.010 A 
ATOM     33  C   UNL A   1      36.787  33.843  29.282  1.00  0.00     0.010 A 
ATOM     34  C   UNL A   1      36.580  32.763  30.160  1.00  0.00    -0.014 A 
BRANCH  34  35
ATOM     35  C   UNL A   1      37.722  32.143  30.874  1.00  0.00     0.031 A 
ATOM     36  C   UNL A   1      38.515  31.059  30.199  1.00  0.00     0.074 A 
ATOM     37  C   UNL A   1      38.057  32.553  32.109  1.00  0.00     0.049 A 
ATOM     38  N   UNL A   1      39.521  30.358  30.658  1.00  0.00    -0.248 NA
ATOM     39  C   UNL A   1      38.125  30.724  28.821  1.00  0.00     0.031 C 
ATOM     40  C   UNL A   1      37.390  33.620  32.852  1.00  0.00     0.029 A 
ATOM     41  N   UNL A   1      39.040  32.112  32.960  1.00  0.00    -0.354 N 
ATOM     42  C   UNL A   1      39.883  29.499  29.629  1.00  0.00     0.074 A 
ATOM     43  C   UNL A   1      38.974  29.747  28.530  1.00  0.00     0.031 C 
ATOM     44  C   UNL A   1      37.974  33.741  34.057  1.00  0.00     0.029 A 
ATOM     45  C   UNL A   1      39.033  32.740  34.180  1.00  0.00     0.049 A 
ATOM     46  H   UNL A   1      39.689  31.411  32.718  1.00  0.00     0.167 HD
ATOM     47  C   UNL A   1      40.887  28.590  29.602  1.00  0.00     0.037 A 
ATOM     48  C   UNL A   1      39.779  32.515  35.279  1.00  0.00     0.037 A 
ATOM     49  C   UNL A   1      41.788  28.340  30.695  1.00  0.00     0.049 A 
ATOM     50  C   UNL A   1      40.832  31.440  35.252  1.00  0.00     0.074 A 
ATOM     51  C   UNL A   1      42.857  27.461  30.752  1.00  0.00     0.029 A 
ATOM     52  N   UNL A   1      41.719  28.963  31.933  1.00  0.00    -0.354 N 
ATOM     53  N   UNL A   1      41.187  30.653  34.266  1.00  0.00    -0.248 NA
ATOM     54  C   UNL A   1      41.585  31.217  36.495  1.00  0.00     0.031 C 
ATOM     55  C   UNL A   1      43.402  27.517  32.039  1.00  0.00     0.029 A 
ATOM     56  C   UNL A   1      42.704  28.464  32.771  1.00  0.00     0.049 A 
ATOM     57  H   UNL A   1      41.067  29.657  32.180  1.00  0.00     0.167 HD
ATOM     58  C   UNL A   1      42.214  29.859  34.759  1.00  0.00     0.074 A 
ATOM     59  C   UNL A   1      42.437  30.269  36.131  1.00  0.00     0.031 C 
ATOM     60  C   UNL A   1      42.910  28.878  34.135  1.00  0.00     0.037 A 
BRANCH  47  61
ATOM     61  C   UNL A   1      41.054  27.779  28.350  1.00  0.00     0.064 A 
ATOM     62  C   UNL A   1      41.917  28.184  27.321  1.00  0.00     0.173 A 
ATOM     63  C   UNL A   1      40.375  26.561  28.200  1.00  0.00     0.173 A 
ATOM     64  F   UNL A   1      42.579  29.347  27.414  1.00  0.00    -0.203 F 
ATOM     65  C   UNL A   1      42.077  27.408  26.177  1.00  0.00     0.198 A 
ATOM     66  C   UNL A   1      40.557  25.776  27.064  1.00  0.00     0.198 A 
ATOM     67  F   UNL A   1      39.542  26.127  29.158  1.00  0.00    -0.203 F 
ATOM     68  F   UNL A   1      42.877  27.832  25.188  1.00  0.00    -0.200 F 
ATOM     69  C   UNL A   1      41.403  26.202  26.052  1.00  0.00     0.200 A 
ATOM     70  F   UNL A   1      39.914  24.606  26.950  1.00  0.00    -0.200 F 
ATOM     71  F   UNL A   1      41.565  25.453  24.952  1.00  0.00    -0.200 F 
ENDBRANCH  47  61
BRANCH  48  72
ATOM     72  C   UNL A   1      39.541  33.311  36.510  1.00  0.00     0.064 A 
ATOM     73  C   UNL A   1      40.264  34.485  36.764  1.00  0.00     0.173 A 
ATOM     74  C   UNL A   1      38.595  32.908  37.464  1.00  0.00     0.173 A 
ATOM     75  F   UNL A   1      41.198  34.896  35.894  1.00  0.00    -0.203 F 
ATOM     76  C   UNL A   1      40.059  35.217  37.931  1.00  0.00     0.198 A 
ATOM     77  C   UNL A   1      38.372  33.655  38.618  1.00  0.00     0.198 A 
ATOM     78  F   UNL A   1      37.880  31.790  37.269  1.00  0.00    -0.203 F 
ATOM     79  F   UNL A   1      40.791  36.313  38.168  1.00  0.00    -0.200 F 
ATOM     80  C   UNL A   1      39.109  34.805  38.854  1.00  0.00     0.200 A 
ATOM     81  F   UNL A   1      37.446  33.260  39.502  1.00  0.00    -0.200 F 
ATOM     82  F   UNL A   1      38.909  35.514  39.974  1.00  0.00    -0.200 F 
ENDBRANCH  48  72
BRANCH  60  83
ATOM     83  C   UNL A   1      43.987  28.190  34.920  1.00  0.00     0.064 A 
ATOM     84  C   UNL A   1      45.292  28.699  34.976  1.00  0.00     0.173 A 
ATOM     85  C   UNL A   1      43.701  27.030  35.658  1.00  0.00     0.173 A 
ATOM     86  F   UNL A   1      45.619  29.795  34.274  1.00  0.00    -0.203 F 
ATOM     87  C   UNL A   1      46.279  28.060  35.724  1.00  0.00     0.198 A 
ATOM     88  C   UNL A   1      44.683  26.411  36.427  1.00  0.00     0.198 A 
ATOM     89  F   UNL A   1      42.467  26.506  35.643  1.00  0.00    -0.203 F 
ATOM     90  F   UNL A   1      47.530  28.541  35.728  1.00  0.00    -0.200 F 
ATOM     91  C   UNL A   1      45.971  26.922  36.453  1.00  0.00     0.200 A 
ATOM     92  F   UNL A   1      44.382  25.317  37.140  1.00  0.00    -0.200 F 
ATOM     93  F   UNL A   1      46.920  26.313  37.179  1.00  0.00    -0.200 F 
ENDBRANCH  60  83
ENDBRANCH  34  35
ENDBRANCH  27  29
ENDBRANCH  26  27
ENDBRANCH  25  26
ENDBRANCH  24  25
ENDBRANCH  23  24
ENDBRANCH   1  23
TORSDOF 18
ENDMDL
MODEL 3
REMARK VINA RESULT:     -11.0      3.298      8.255
REMARK SMILES COC(=O)[C@H]1CCN(C(=O)N2C[C@@H](C)[C@@H](C(=O)OCCOCCOC(=O)c3ccc(-c4c5nc(c(-c6c(F)c(F)c(F)c(F)c6F)c6ccc([nH]6)c(-c6c(F)c(F)c(F)c(F)c6F)c6nc(c(-c7c(F)c(F)c(F)c(F)c7F)c7ccc4[nH]7)C=C6)C=C5)cc3)C2)C1
REMARK SMILES IDX 20 1 19 2 18 3 16 4 17 5 15 6 11 7 12 8 90 9 13 10 14 11
REMARK SMILES IDX 9 12 10 13 8 14 5 15 6 16 91 17 7 18 3 19 4 20 2 21 1 22
REMARK SMILES IDX 21 23 22 24 23 25 24 26 25 27 26 28 27 29 28 30 89 31 29 32
REMARK SMILES IDX 88 33 30 34 31 35 32 36 82 37 33 38 87 39 81 40 83 41 34 42
REMARK SMILES IDX 86 43 80 44 79 45 35 47 67 48 47 49 66 50 48 51 51 52 65 53
REMARK SMILES IDX 84 54 49 55 50 56 64 58 85 59 52 60 36 61 37 62 45 63 38 64
REMARK SMILES IDX 39 65 43 66 46 67 40 68 41 69 44 70 42 71 68 72 69 73 77 74
REMARK SMILES IDX 70 75 71 76 75 77 78 78 72 79 73 80 76 81 74 82 53 83 54 84
REMARK SMILES IDX 62 85 55 86 56 87 60 88 63 89 57 90 58 91 61 92 59 93
REMARK H PARENT 83 46 51 57
REMARK Flexibility Score: inf
ROOT
ATOM      1  C   UNL A   1      30.893  29.267  23.081  1.00  0.00     0.202 C 
ENDROOT
BRANCH   1   2
ATOM      2  C   UNL A   1      29.833  28.229  22.708  1.00  0.00     0.261 C 
BRANCH   2   3
ATOM      3  O   UNL A   1      30.326  26.878  22.748  1.00  0.00    -0.463 OA
BRANCH   3   4
ATOM      4  C   UNL A   1      29.798  26.101  23.731  1.00  0.00     0.311 C 
ATOM      5  O   UNL A   1      28.744  26.323  24.312  1.00  0.00    -0.252 OA
BRANCH   4   6
ATOM      6  C   UNL A   1      30.675  24.925  24.080  1.00  0.00     0.123 C 
ATOM      7  N   UNL A   1      32.810  24.142  23.537  1.00  0.00    -0.323 N 
ATOM      8  C   UNL A   1      33.025  25.086  24.613  1.00  0.00     0.125 C 
ATOM      9  C   UNL A   1      31.539  24.434  22.911  1.00  0.00     0.137 C 
ATOM     10  C   UNL A   1      31.652  25.111  25.272  1.00  0.00     0.021 C 
ATOM     11  C   UNL A   1      31.449  26.301  26.192  1.00  0.00     0.010 C 
BRANCH   7  12
ATOM     12  C   UNL A   1      33.693  23.229  23.033  1.00  0.00     0.320 C 
ATOM     13  O   UNL A   1      34.191  23.368  21.916  1.00  0.00    -0.248 OA
BRANCH  12  14
ATOM     14  N   UNL A   1      33.948  22.124  23.809  1.00  0.00    -0.324 N 
ATOM     15  C   UNL A   1      33.493  20.285  25.244  1.00  0.00     0.120 C 
ATOM     16  C   UNL A   1      35.001  20.515  25.117  1.00  0.00     0.039 C 
ATOM     17  C   UNL A   1      32.886  21.196  24.177  1.00  0.00     0.136 C 
ATOM     18  C   UNL A   1      35.074  21.968  24.715  1.00  0.00     0.122 C 
BRANCH  15  19
ATOM     19  C   UNL A   1      33.109  18.844  25.035  1.00  0.00     0.310 C 
ATOM     20  O   UNL A   1      32.239  18.249  25.656  1.00  0.00    -0.252 OA
BRANCH  19  21
ATOM     21  O   UNL A   1      33.845  18.310  24.020  1.00  0.00    -0.469 OA
ATOM     22  C   UNL A   1      33.115  17.392  23.204  1.00  0.00     0.282 C 
ENDBRANCH  19  21
ENDBRANCH  15  19
ENDBRANCH  12  14
ENDBRANCH   7  12
ENDBRANCH   4   6
ENDBRANCH   3   4
ENDBRANCH   2   3
ENDBRANCH   1   2
BRANCH   1  23
ATOM     23  O   UNL A   1      31.317  29.272  24.440  1.00  0.00    -0.374 OA
BRANCH  23  24
ATOM     24  C   UNL A   1      31.063  30.461  25.188  1.00  0.00     0.202 C 
BRANCH  24  25
ATOM     25  C   UNL A   1      31.714  30.533  26.575  1.00  0.00     0.261 C 
BRANCH  25  26
ATOM     26  O   UNL A   1      33.142  30.716  26.495  1.00  0.00    -0.460 OA
BRANCH  26  27
ATOM     27  C   UNL A   1      33.638  31.714  27.261  1.00  0.00     0.338 C 
ATOM     28  O   UNL A   1      33.077  32.752  27.588  1.00  0.00    -0.246 OA
BRANCH  27  29
ATOM     29  C   UNL A   1      34.939  31.318  27.829  1.00  0.00     0.060 A 
ATOM     30  C   UNL A   1      35.084  29.994  28.265  1.00  0.00     0.016 A 
ATOM     31  C   UNL A   1      35.976  32.238  28.002  1.00  0.00     0.016 A 
ATOM     32  C   UNL A   1      36.255  29.593  28.907  1.00  0.00     0.010 A 
ATOM     33  C   UNL A   1      37.145  31.836  28.657  1.00  0.00     0.010 A 
ATOM     34  C   UNL A   1      37.281  30.520  29.135  1.00  0.00    -0.014 A 
BRANCH  34  35
ATOM     35  C   UNL A   1      38.452  30.135  29.960  1.00  0.00     0.031 A 
ATOM     36  C   UNL A   1      39.451  29.154  29.414  1.00  0.00     0.074 A 
ATOM     37  C   UNL A   1      38.628  30.668  31.181  1.00  0.00     0.049 A 
ATOM     38  N   UNL A   1      40.517  28.652  29.983  1.00  0.00    -0.248 NA
ATOM     39  C   UNL A   1      39.218  28.677  28.042  1.00  0.00     0.031 C 
ATOM     40  C   UNL A   1      37.751  31.656  31.804  1.00  0.00     0.029 A 
ATOM     41  N   UNL A   1      39.604  30.442  32.120  1.00  0.00    -0.354 N 
ATOM     42  C   UNL A   1      41.083  27.801  29.043  1.00  0.00     0.074 A 
ATOM     43  C   UNL A   1      40.227  27.834  27.875  1.00  0.00     0.031 C 
ATOM     44  C   UNL A   1      38.220  31.943  33.031  1.00  0.00     0.029 A 
ATOM     45  C   UNL A   1      39.410  31.134  33.290  1.00  0.00     0.049 A 
ATOM     46  H   UNL A   1      40.370  29.841  31.970  1.00  0.00     0.167 HD
ATOM     47  C   UNL A   1      42.215  27.066  29.142  1.00  0.00     0.037 A 
ATOM     48  C   UNL A   1      40.101  31.098  34.446  1.00  0.00     0.037 A 
ATOM     49  C   UNL A   1      43.063  27.030  30.304  1.00  0.00     0.049 A 
ATOM     50  C   UNL A   1      41.308  30.206  34.561  1.00  0.00     0.074 A 
ATOM     51  C   UNL A   1      44.249  26.339  30.489  1.00  0.00     0.029 A 
ATOM     52  N   UNL A   1      42.808  27.707  31.488  1.00  0.00    -0.354 N 
ATOM     53  N   UNL A   1      41.852  29.429  33.657  1.00  0.00    -0.248 NA
ATOM     54  C   UNL A   1      41.995  30.183  35.861  1.00  0.00     0.031 C 
ATOM     55  C   UNL A   1      44.684  26.559  31.800  1.00  0.00     0.029 A 
ATOM     56  C   UNL A   1      43.796  27.424  32.418  1.00  0.00     0.049 A 
ATOM     57  H   UNL A   1      42.039  28.302  31.644  1.00  0.00     0.167 HD
ATOM     58  C   UNL A   1      42.952  28.841  34.268  1.00  0.00     0.074 A 
ATOM     59  C   UNL A   1      43.008  29.364  35.618  1.00  0.00     0.031 C 
ATOM     60  C   UNL A   1      43.836  27.948  33.759  1.00  0.00     0.037 A 
BRANCH  47  61
ATOM     61  C   UNL A   1      42.596  26.217  27.964  1.00  0.00     0.064 A 
ATOM     62  C   UNL A   1      43.493  26.676  26.988  1.00  0.00     0.173 A 
ATOM     63  C   UNL A   1      42.092  24.915  27.836  1.00  0.00     0.173 A 
ATOM     64  F   UNL A   1      43.994  27.917  27.061  1.00  0.00    -0.203 F 
ATOM     65  C   UNL A   1      43.854  25.867  25.914  1.00  0.00     0.198 A 
ATOM     66  C   UNL A   1      42.474  24.101  26.773  1.00  0.00     0.198 A 
ATOM     67  F   UNL A   1      41.235  24.428  28.746  1.00  0.00    -0.203 F 
ATOM     68  F   UNL A   1      44.683  26.338  24.971  1.00  0.00    -0.200 F 
ATOM     69  C   UNL A   1      43.349  24.578  25.810  1.00  0.00     0.200 A 
ATOM     70  F   UNL A   1      41.995  22.853  26.681  1.00  0.00    -0.200 F 
ATOM     71  F   UNL A   1      43.704  23.799  24.779  1.00  0.00    -0.200 F 
ENDBRANCH  47  61
BRANCH  48  72
ATOM     72  C   UNL A   1      39.654  31.919  35.600  1.00  0.00     0.064 A 
ATOM     73  C   UNL A   1      40.236  33.165  35.871  1.00  0.00     0.173 A 
ATOM     74  C   UNL A   1      38.643  31.468  36.463  1.00  0.00     0.173 A 
ATOM     75  F   UNL A   1      41.223  33.626  35.090  1.00  0.00    -0.203 F 
ATOM     76  C   UNL A   1      39.834  33.923  36.969  1.00  0.00     0.198 A 
ATOM     77  C   UNL A   1      38.225  32.238  37.545  1.00  0.00     0.198 A 
ATOM     78  F   UNL A   1      38.057  30.282  36.249  1.00  0.00    -0.203 F 
ATOM     79  F   UNL A   1      40.434  35.092  37.228  1.00  0.00    -0.200 F 
ATOM     80  C   UNL A   1      38.824  33.462  37.801  1.00  0.00     0.200 A 
ATOM     81  F   UNL A   1      37.241  31.796  38.340  1.00  0.00    -0.200 F 
ATOM     82  F   UNL A   1      38.435  34.195  38.854  1.00  0.00    -0.200 F 
ENDBRANCH  48  72
BRANCH  60  83
ATOM     83  C   UNL A   1      44.947  27.491  34.657  1.00  0.00     0.064 A 
ATOM     84  C   UNL A   1      46.154  28.199  34.748  1.00  0.00     0.173 A 
ATOM     85  C   UNL A   1      44.790  26.353  35.464  1.00  0.00     0.173 A 
ATOM     86  F   UNL A   1      46.359  29.283  33.985  1.00  0.00    -0.203 F 
ATOM     87  C   UNL A   1      47.171  27.774  35.599  1.00  0.00     0.198 A 
ATOM     88  C   UNL A   1      45.798  25.947  36.334  1.00  0.00     0.198 A 
ATOM     89  F   UNL A   1      43.653  25.644  35.418  1.00  0.00    -0.203 F 
ATOM     90  F   UNL A   1      48.332  28.442  35.639  1.00  0.00    -0.200 F 
ATOM     91  C   UNL A   1      46.989  26.653  36.396  1.00  0.00     0.200 A 
ATOM     92  F   UNL A   1      45.617  24.870  37.111  1.00  0.00    -0.200 F 
ATOM     93  F   UNL A   1      47.967  26.250  37.220  1.00  0.00    -0.200 F 
ENDBRANCH  60  83
ENDBRANCH  34  35
ENDBRANCH  27  29
ENDBRANCH  26  27
ENDBRANCH  25  26
ENDBRANCH  24  25
ENDBRANCH  23  24
ENDBRANCH   1  23
TORSDOF 18
ENDMDL
