MODEL 1
REMARK VINA RESULT:     -11.9      0.000      0.000
REMARK SMILES Cc1ccc2c(c1C)O[C@@H](C(=O)OCCOCCOC(=O)c1ccc(-c3c4nc(c(-c5c(F)c(F)c(F)c(F)c5F)c5ccc([nH]5)c(-c5c(F)c(F)c(F)c(F)c5F)c5nc(c(-c6c(F)c(F)c(F)c(F)c6F)c6ccc3[nH]6)C=C5)C=C4)cc1)CC2=O
REMARK SMILES IDX 17 1 16 2 15 3 14 4 13 5 11 6 12 7 10 8 1 9 2 10 3 11 7 12
REMARK SMILES IDX 4 13 6 14 8 15 5 16 9 17 86 18 85 19 87 20 18 21 19 22 20 23
REMARK SMILES IDX 21 24 22 25 23 26 84 27 24 28 83 29 25 30 26 31 27 32 77 33
REMARK SMILES IDX 28 34 82 35 76 36 78 37 29 38 81 39 75 40 74 41 30 43 62 44
REMARK SMILES IDX 42 45 61 46 43 47 46 48 60 49 79 50 44 51 45 52 59 54 80 55
REMARK SMILES IDX 47 56 31 57 32 58 40 59 33 60 34 61 38 62 41 63 35 64 36 65
REMARK SMILES IDX 39 66 37 67 63 68 64 69 72 70 65 71 66 72 70 73 73 74 67 75
REMARK SMILES IDX 68 76 71 77 69 78 48 79 49 80 57 81 50 82 51 83 55 84 58 85
REMARK SMILES IDX 52 86 53 87 56 88 54 89
REMARK H PARENT 78 42 46 53
REMARK Flexibility Score: inf
ROOT
ATOM      1  C   UNL A   1      32.079  29.277  24.936  1.00  0.00     0.202 C 
ENDROOT
BRANCH   1   2
ATOM      2  O   UNL A   1      33.370  29.332  24.331  1.00  0.00    -0.374 OA
BRANCH   2   3
ATOM      3  C   UNL A   1      33.467  28.956  22.959  1.00  0.00     0.202 C 
BRANCH   3   4
ATOM      4  C   UNL A   1      32.680  27.712  22.549  1.00  0.00     0.261 C 
BRANCH   4   5
ATOM      5  O   UNL A   1      33.362  26.500  22.928  1.00  0.00    -0.460 OA
BRANCH   5   6
ATOM      6  C   UNL A   1      32.710  25.704  23.820  1.00  0.00     0.347 C 
ATOM      7  O   UNL A   1      31.756  24.984  23.549  1.00  0.00    -0.248 OA
BRANCH   6   8
ATOM      8  C   UNL A   1      33.266  25.841  25.242  1.00  0.00     0.290 C 
ATOM      9  C   UNL A   1      36.327  20.572  25.077  1.00  0.00     0.045 C 
ATOM     10  C   UNL A   1      35.247  21.540  25.479  1.00  0.00    -0.044 A 
ATOM     11  C   UNL A   1      34.100  21.038  26.119  1.00  0.00     0.005 A 
ATOM     12  C   UNL A   1      35.341  22.921  25.205  1.00  0.00    -0.005 A 
ATOM     13  C   UNL A   1      33.063  21.886  26.503  1.00  0.00     0.016 A 
ATOM     14  C   UNL A   1      34.300  23.770  25.621  1.00  0.00     0.134 A 
ATOM     15  C   UNL A   1      36.507  23.527  24.465  1.00  0.00     0.049 C 
ATOM     16  C   UNL A   1      33.170  23.253  26.257  1.00  0.00     0.060 A 
ATOM     17  O   UNL A   1      34.475  25.111  25.405  1.00  0.00    -0.477 OA
ATOM     18  C   UNL A   1      32.094  24.168  26.674  1.00  0.00     0.170 C 
ATOM     19  C   UNL A   1      32.289  25.628  26.386  1.00  0.00     0.138 C 
ATOM     20  O   UNL A   1      31.110  23.753  27.281  1.00  0.00    -0.294 OA
ENDBRANCH   6   8
ENDBRANCH   5   6
ENDBRANCH   4   5
ENDBRANCH   3   4
ENDBRANCH   2   3
ENDBRANCH   1   2
BRANCH   1  21
ATOM     21  C   UNL A   1      31.698  30.464  25.828  1.00  0.00     0.261 C 
BRANCH  21  22
ATOM     22  O   UNL A   1      32.427  30.457  27.068  1.00  0.00    -0.460 OA
BRANCH  22  23
ATOM     23  C   UNL A   1      33.156  31.571  27.309  1.00  0.00     0.338 C 
ATOM     24  O   UNL A   1      32.758  32.727  27.352  1.00  0.00    -0.246 OA
BRANCH  23  25
ATOM     25  C   UNL A   1      34.528  31.213  27.698  1.00  0.00     0.060 A 
ATOM     26  C   UNL A   1      34.804  29.858  27.927  1.00  0.00     0.016 A 
ATOM     27  C   UNL A   1      35.484  32.191  27.977  1.00  0.00     0.016 A 
ATOM     28  C   UNL A   1      36.019  29.481  28.491  1.00  0.00     0.010 A 
ATOM     29  C   UNL A   1      36.695  31.812  28.568  1.00  0.00     0.010 A 
ATOM     30  C   UNL A   1      36.947  30.461  28.865  1.00  0.00    -0.014 A 
BRANCH  30  31
ATOM     31  C   UNL A   1      38.083  30.078  29.736  1.00  0.00     0.031 A 
ATOM     32  C   UNL A   1      39.116  29.123  29.199  1.00  0.00     0.074 A 
ATOM     33  C   UNL A   1      38.229  30.613  30.959  1.00  0.00     0.049 A 
ATOM     34  N   UNL A   1      40.204  28.671  29.768  1.00  0.00    -0.248 NA
ATOM     35  C   UNL A   1      38.896  28.621  27.832  1.00  0.00     0.031 C 
ATOM     36  C   UNL A   1      37.329  31.591  31.566  1.00  0.00     0.029 A 
ATOM     37  N   UNL A   1      39.199  30.409  31.909  1.00  0.00    -0.354 N 
ATOM     38  C   UNL A   1      40.806  27.848  28.825  1.00  0.00     0.074 A 
ATOM     39  C   UNL A   1      39.948  27.835  27.659  1.00  0.00     0.031 C 
ATOM     40  C   UNL A   1      37.788  31.902  32.790  1.00  0.00     0.029 A 
ATOM     41  C   UNL A   1      38.999  31.126  33.062  1.00  0.00     0.049 A 
ATOM     42  H   UNL A   1      39.967  29.807  31.775  1.00  0.00     0.167 HD
ATOM     43  C   UNL A   1      41.977  27.176  28.916  1.00  0.00     0.037 A 
ATOM     44  C   UNL A   1      39.708  31.141  34.208  1.00  0.00     0.037 A 
ATOM     45  C   UNL A   1      42.822  27.171  30.080  1.00  0.00     0.049 A 
ATOM     46  C   UNL A   1      40.947  30.292  34.327  1.00  0.00     0.074 A 
ATOM     47  C   UNL A   1      44.027  26.516  30.270  1.00  0.00     0.029 A 
ATOM     48  N   UNL A   1      42.543  27.846  31.258  1.00  0.00    -0.354 N 
ATOM     49  N   UNL A   1      41.519  29.531  33.426  1.00  0.00    -0.248 NA
ATOM     50  C   UNL A   1      41.637  30.302  35.625  1.00  0.00     0.031 C 
ATOM     51  C   UNL A   1      44.453  26.759  31.578  1.00  0.00     0.029 A 
ATOM     52  C   UNL A   1      43.538  27.601  32.189  1.00  0.00     0.049 A 
ATOM     53  H   UNL A   1      41.754  28.416  31.410  1.00  0.00     0.167 HD
ATOM     54  C   UNL A   1      42.644  28.991  34.038  1.00  0.00     0.074 A 
ATOM     55  C   UNL A   1      42.681  29.519  35.385  1.00  0.00     0.031 C 
ATOM     56  C   UNL A   1      43.562  28.135  33.527  1.00  0.00     0.037 A 
BRANCH  43  57
ATOM     57  C   UNL A   1      42.411  26.374  27.727  1.00  0.00     0.064 A 
ATOM     58  C   UNL A   1      43.339  26.881  26.805  1.00  0.00     0.173 A 
ATOM     59  C   UNL A   1      41.940  25.067  27.538  1.00  0.00     0.173 A 
ATOM     60  F   UNL A   1      43.809  28.130  26.938  1.00  0.00    -0.203 F 
ATOM     61  C   UNL A   1      43.770  26.112  25.728  1.00  0.00     0.198 A 
ATOM     62  C   UNL A   1      42.391  24.291  26.472  1.00  0.00     0.198 A 
ATOM     63  F   UNL A   1      41.055  24.536  28.395  1.00  0.00    -0.203 F 
ATOM     64  F   UNL A   1      44.636  26.624  24.844  1.00  0.00    -0.200 F 
ATOM     65  C   UNL A   1      43.302  24.815  25.567  1.00  0.00     0.200 A 
ATOM     66  F   UNL A   1      41.946  23.036  26.324  1.00  0.00    -0.200 F 
ATOM     67  F   UNL A   1      43.728  24.071  24.537  1.00  0.00    -0.200 F 
ENDBRANCH  43  57
BRANCH  44  68
ATOM     68  C   UNL A   1      39.260  31.991  35.339  1.00  0.00     0.064 A 
ATOM     69  C   UNL A   1      39.633  33.339  35.420  1.00  0.00     0.173 A 
ATOM     70  C   UNL A   1      38.451  31.474  36.361  1.00  0.00     0.173 A 
ATOM     71  F   UNL A   1      40.428  33.871  34.480  1.00  0.00    -0.203 F 
ATOM     72  C   UNL A   1      39.220  34.137  36.485  1.00  0.00     0.198 A 
ATOM     73  C   UNL A   1      38.018  32.278  37.413  1.00  0.00     0.198 A 
ATOM     74  F   UNL A   1      38.069  30.189  36.331  1.00  0.00    -0.203 F 
ATOM     75  F   UNL A   1      39.617  35.415  36.557  1.00  0.00    -0.200 F 
ATOM     76  C   UNL A   1      38.406  33.607  37.477  1.00  0.00     0.200 A 
ATOM     77  F   UNL A   1      37.223  31.766  38.362  1.00  0.00    -0.200 F 
ATOM     78  F   UNL A   1      38.001  34.377  38.496  1.00  0.00    -0.200 F 
ENDBRANCH  44  68
BRANCH  56  79
ATOM     79  C   UNL A   1      44.697  27.718  34.415  1.00  0.00     0.064 A 
ATOM     80  C   UNL A   1      44.630  26.552  35.190  1.00  0.00     0.173 A 
ATOM     81  C   UNL A   1      45.897  28.448  34.427  1.00  0.00     0.173 A 
ATOM     82  F   UNL A   1      43.502  25.828  35.220  1.00  0.00    -0.203 F 
ATOM     83  C   UNL A   1      45.717  26.136  35.953  1.00  0.00     0.198 A 
ATOM     84  C   UNL A   1      46.991  28.016  35.172  1.00  0.00     0.198 A 
ATOM     85  F   UNL A   1      46.015  29.567  33.697  1.00  0.00    -0.203 F 
ATOM     86  F   UNL A   1      45.621  25.034  36.708  1.00  0.00    -0.200 F 
ATOM     87  C   UNL A   1      46.900  26.863  35.936  1.00  0.00     0.200 A 
ATOM     88  F   UNL A   1      48.136  28.710  35.142  1.00  0.00    -0.200 F 
ATOM     89  F   UNL A   1      47.951  26.451  36.658  1.00  0.00    -0.200 F 
ENDBRANCH  56  79
ENDBRANCH  30  31
ENDBRANCH  23  25
ENDBRANCH  22  23
ENDBRANCH  21  22
ENDBRANCH   1  21
TORSDOF 14
ENDMDL
MODEL 2
REMARK VINA RESULT:     -11.8      1.682      3.357
REMARK SMILES Cc1ccc2c(c1C)O[C@@H](C(=O)OCCOCCOC(=O)c1ccc(-c3c4nc(c(-c5c(F)c(F)c(F)c(F)c5F)c5ccc([nH]5)c(-c5c(F)c(F)c(F)c(F)c5F)c5nc(c(-c6c(F)c(F)c(F)c(F)c6F)c6ccc3[nH]6)C=C5)C=C4)cc1)CC2=O
REMARK SMILES IDX 17 1 16 2 15 3 14 4 13 5 11 6 12 7 10 8 1 9 2 10 3 11 7 12
REMARK SMILES IDX 4 13 6 14 8 15 5 16 9 17 86 18 85 19 87 20 18 21 19 22 20 23
REMARK SMILES IDX 21 24 22 25 23 26 84 27 24 28 83 29 25 30 26 31 27 32 77 33
REMARK SMILES IDX 28 34 82 35 76 36 78 37 29 38 81 39 75 40 74 41 30 43 62 44
REMARK SMILES IDX 42 45 61 46 43 47 46 48 60 49 79 50 44 51 45 52 59 54 80 55
REMARK SMILES IDX 47 56 31 57 32 58 40 59 33 60 34 61 38 62 41 63 35 64 36 65
REMARK SMILES IDX 39 66 37 67 63 68 64 69 72 70 65 71 66 72 70 73 73 74 67 75
REMARK SMILES IDX 68 76 71 77 69 78 48 79 49 80 57 81 50 82 51 83 55 84 58 85
REMARK SMILES IDX 52 86 53 87 56 88 54 89
REMARK H PARENT 78 42 46 53
REMARK Flexibility Score: inf
ROOT
ATOM      1  C   UNL A   1      31.626  28.875  27.313  1.00  0.00     0.202 C 
ENDROOT
BRANCH   1   2
ATOM      2  O   UNL A   1      31.301  27.802  26.431  1.00  0.00    -0.374 OA
BRANCH   2   3
ATOM      3  C   UNL A   1      32.121  26.637  26.486  1.00  0.00     0.202 C 
BRANCH   3   4
ATOM      4  C   UNL A   1      33.593  26.837  26.125  1.00  0.00     0.261 C 
BRANCH   4   5
ATOM      5  O   UNL A   1      33.862  26.469  24.758  1.00  0.00    -0.460 OA
BRANCH   5   6
ATOM      6  C   UNL A   1      33.503  27.381  23.814  1.00  0.00     0.347 C 
ATOM      7  O   UNL A   1      33.597  28.597  23.942  1.00  0.00    -0.248 OA
BRANCH   6   8
ATOM      8  C   UNL A   1      32.902  26.726  22.565  1.00  0.00     0.290 C 
ATOM      9  C   UNL A   1      27.510  29.520  23.096  1.00  0.00     0.045 C 
ATOM     10  C   UNL A   1      28.497  28.384  23.134  1.00  0.00    -0.044 A 
ATOM     11  C   UNL A   1      28.122  27.191  23.777  1.00  0.00     0.005 A 
ATOM     12  C   UNL A   1      29.787  28.495  22.574  1.00  0.00    -0.005 A 
ATOM     13  C   UNL A   1      28.999  26.111  23.853  1.00  0.00     0.016 A 
ATOM     14  C   UNL A   1      30.653  27.389  22.634  1.00  0.00     0.134 A 
ATOM     15  C   UNL A   1      30.288  29.762  21.926  1.00  0.00     0.049 C 
ATOM     16  C   UNL A   1      30.262  26.212  23.275  1.00  0.00     0.060 A 
ATOM     17  O   UNL A   1      31.863  27.519  22.005  1.00  0.00    -0.477 OA
ATOM     18  C   UNL A   1      31.196  25.074  23.327  1.00  0.00     0.170 C 
ATOM     19  C   UNL A   1      32.533  25.257  22.670  1.00  0.00     0.138 C 
ATOM     20  O   UNL A   1      30.864  24.007  23.839  1.00  0.00    -0.294 OA
ENDBRANCH   6   8
ENDBRANCH   5   6
ENDBRANCH   4   5
ENDBRANCH   3   4
ENDBRANCH   2   3
ENDBRANCH   1   2
BRANCH   1  21
ATOM     21  C   UNL A   1      31.770  30.260  26.670  1.00  0.00     0.261 C 
BRANCH  21  22
ATOM     22  O   UNL A   1      33.148  30.597  26.429  1.00  0.00    -0.460 OA
BRANCH  22  23
ATOM     23  C   UNL A   1      33.654  31.550  27.244  1.00  0.00     0.338 C 
ATOM     24  O   UNL A   1      33.073  32.526  27.698  1.00  0.00    -0.246 OA
BRANCH  23  25
ATOM     25  C   UNL A   1      35.007  31.182  27.687  1.00  0.00     0.060 A 
ATOM     26  C   UNL A   1      35.274  29.822  27.895  1.00  0.00     0.016 A 
ATOM     27  C   UNL A   1      35.948  32.153  28.035  1.00  0.00     0.016 A 
ATOM     28  C   UNL A   1      36.462  29.430  28.505  1.00  0.00     0.010 A 
ATOM     29  C   UNL A   1      37.131  31.759  28.672  1.00  0.00     0.010 A 
ATOM     30  C   UNL A   1      37.371  30.401  28.946  1.00  0.00    -0.014 A 
BRANCH  30  31
ATOM     31  C   UNL A   1      38.465  29.996  29.859  1.00  0.00     0.031 A 
ATOM     32  C   UNL A   1      39.504  29.030  29.357  1.00  0.00     0.074 A 
ATOM     33  C   UNL A   1      38.571  30.522  31.090  1.00  0.00     0.049 A 
ATOM     34  N   UNL A   1      40.563  28.557  29.965  1.00  0.00    -0.248 NA
ATOM     35  C   UNL A   1      39.332  28.538  27.979  1.00  0.00     0.031 C 
ATOM     36  C   UNL A   1      37.662  31.509  31.667  1.00  0.00     0.029 A 
ATOM     37  N   UNL A   1      39.500  30.298  32.076  1.00  0.00    -0.354 N 
ATOM     38  C   UNL A   1      41.189  27.731  29.041  1.00  0.00     0.074 A 
ATOM     39  C   UNL A   1      40.378  27.738  27.843  1.00  0.00     0.031 C 
ATOM     40  C   UNL A   1      38.077  31.806  32.910  1.00  0.00     0.029 A 
ATOM     41  C   UNL A   1      39.264  31.011  33.224  1.00  0.00     0.049 A 
ATOM     42  H   UNL A   1      40.263  29.685  31.969  1.00  0.00     0.167 HD
ATOM     43  C   UNL A   1      42.346  27.041  29.175  1.00  0.00     0.037 A 
ATOM     44  C   UNL A   1      39.927  31.009  34.398  1.00  0.00     0.037 A 
ATOM     45  C   UNL A   1      43.144  27.017  30.371  1.00  0.00     0.049 A 
ATOM     46  C   UNL A   1      41.149  30.141  34.560  1.00  0.00     0.074 A 
ATOM     47  C   UNL A   1      44.330  26.343  30.604  1.00  0.00     0.029 A 
ATOM     48  N   UNL A   1      42.828  27.690  31.541  1.00  0.00    -0.354 N 
ATOM     49  N   UNL A   1      41.744  29.377  33.678  1.00  0.00    -0.248 NA
ATOM     50  C   UNL A   1      41.787  30.134  35.885  1.00  0.00     0.031 C 
ATOM     51  C   UNL A   1      44.708  26.572  31.929  1.00  0.00     0.029 A 
ATOM     52  C   UNL A   1      43.782  27.424  32.510  1.00  0.00     0.049 A 
ATOM     53  H   UNL A   1      42.043  28.271  31.666  1.00  0.00     0.167 HD
ATOM     54  C   UNL A   1      42.836  28.817  34.330  1.00  0.00     0.074 A 
ATOM     55  C   UNL A   1      42.828  29.337  35.681  1.00  0.00     0.031 C 
ATOM     56  C   UNL A   1      43.761  27.950  33.851  1.00  0.00     0.037 A 
BRANCH  43  57
ATOM     57  C   UNL A   1      42.815  26.239  27.999  1.00  0.00     0.064 A 
ATOM     58  C   UNL A   1      42.441  24.897  27.837  1.00  0.00     0.173 A 
ATOM     59  C   UNL A   1      43.595  26.832  26.996  1.00  0.00     0.173 A 
ATOM     60  F   UNL A   1      41.705  24.283  28.776  1.00  0.00    -0.203 F 
ATOM     61  C   UNL A   1      42.844  24.172  26.719  1.00  0.00     0.198 A 
ATOM     62  C   UNL A   1      43.977  26.111  25.868  1.00  0.00     0.198 A 
ATOM     63  F   UNL A   1      43.973  28.114  27.103  1.00  0.00    -0.203 F 
ATOM     64  F   UNL A   1      42.501  22.883  26.597  1.00  0.00    -0.200 F 
ATOM     65  C   UNL A   1      43.605  24.782  25.731  1.00  0.00     0.200 A 
ATOM     66  F   UNL A   1      44.703  26.705  24.910  1.00  0.00    -0.200 F 
ATOM     67  F   UNL A   1      43.981  24.087  24.650  1.00  0.00    -0.200 F 
ENDBRANCH  43  57
BRANCH  44  68
ATOM     68  C   UNL A   1      39.448  31.860  35.516  1.00  0.00     0.064 A 
ATOM     69  C   UNL A   1      39.924  33.166  35.684  1.00  0.00     0.173 A 
ATOM     70  C   UNL A   1      38.504  31.384  36.438  1.00  0.00     0.173 A 
ATOM     71  F   UNL A   1      40.847  33.656  34.843  1.00  0.00    -0.203 F 
ATOM     72  C   UNL A   1      39.481  33.964  36.738  1.00  0.00     0.198 A 
ATOM     73  C   UNL A   1      38.043  32.189  37.477  1.00  0.00     0.198 A 
ATOM     74  F   UNL A   1      38.020  30.138  36.322  1.00  0.00    -0.203 F 
ATOM     75  F   UNL A   1      39.975  35.198  36.895  1.00  0.00    -0.200 F 
ATOM     76  C   UNL A   1      38.534  33.476  37.629  1.00  0.00     0.200 A 
ATOM     77  F   UNL A   1      37.121  31.720  38.328  1.00  0.00    -0.200 F 
ATOM     78  F   UNL A   1      38.101  34.246  38.636  1.00  0.00    -0.200 F 
ENDBRANCH  44  68
BRANCH  56  79
ATOM     79  C   UNL A   1      44.854  27.512  34.780  1.00  0.00     0.064 A 
ATOM     80  C   UNL A   1      46.004  28.289  34.975  1.00  0.00     0.173 A 
ATOM     81  C   UNL A   1      44.713  26.343  35.545  1.00  0.00     0.173 A 
ATOM     82  F   UNL A   1      46.191  29.407  34.259  1.00  0.00    -0.203 F 
ATOM     83  C   UNL A   1      46.978  27.909  35.894  1.00  0.00     0.198 A 
ATOM     84  C   UNL A   1      45.676  25.979  36.481  1.00  0.00     0.198 A 
ATOM     85  F   UNL A   1      43.627  25.569  35.401  1.00  0.00    -0.203 F 
ATOM     86  F   UNL A   1      48.082  28.652  36.044  1.00  0.00    -0.200 F 
ATOM     87  C   UNL A   1      46.809  26.759  36.653  1.00  0.00     0.200 A 
ATOM     88  F   UNL A   1      45.504  24.876  37.224  1.00  0.00    -0.200 F 
ATOM     89  F   UNL A   1      47.739  26.404  37.550  1.00  0.00    -0.200 F 
ENDBRANCH  56  79
ENDBRANCH  30  31
ENDBRANCH  23  25
ENDBRANCH  22  23
ENDBRANCH  21  22
ENDBRANCH   1  21
TORSDOF 14
ENDMDL
MODEL 3
REMARK VINA RESULT:     -11.7      1.196      7.735
REMARK SMILES Cc1ccc2c(c1C)O[C@@H](C(=O)OCCOCCOC(=O)c1ccc(-c3c4nc(c(-c5c(F)c(F)c(F)c(F)c5F)c5ccc([nH]5)c(-c5c(F)c(F)c(F)c(F)c5F)c5nc(c(-c6c(F)c(F)c(F)c(F)c6F)c6ccc3[nH]6)C=C5)C=C4)cc1)CC2=O
REMARK SMILES IDX 17 1 16 2 15 3 14 4 13 5 11 6 12 7 10 8 1 9 2 10 3 11 7 12
REMARK SMILES IDX 4 13 6 14 8 15 5 16 9 17 86 18 85 19 87 20 18 21 19 22 20 23
REMARK SMILES IDX 21 24 22 25 23 26 84 27 24 28 83 29 25 30 26 31 27 32 77 33
REMARK SMILES IDX 28 34 82 35 76 36 78 37 29 38 81 39 75 40 74 41 30 43 62 44
REMARK SMILES IDX 42 45 61 46 43 47 46 48 60 49 79 50 44 51 45 52 59 54 80 55
REMARK SMILES IDX 47 56 31 57 32 58 40 59 33 60 34 61 38 62 41 63 35 64 36 65
REMARK SMILES IDX 39 66 37 67 63 68 64 69 72 70 65 71 66 72 70 73 73 74 67 75
REMARK SMILES IDX 68 76 71 77 69 78 48 79 49 80 57 81 50 82 51 83 55 84 58 85
REMARK SMILES IDX 52 86 53 87 56 88 54 89
REMARK H PARENT 78 42 46 53
REMARK Flexibility Score: inf
ROOT
ATOM      1  C   UNL A   1      31.404  31.588  26.533  1.00  0.00     0.202 C 
ENDROOT
BRANCH   1   2
ATOM      2  O   UNL A   1      32.284  30.506  26.232  1.00  0.00    -0.374 OA
BRANCH   2   3
ATOM      3  C   UNL A   1      32.157  29.321  27.014  1.00  0.00     0.202 C 
BRANCH   3   4
ATOM      4  C   UNL A   1      32.373  28.003  26.270  1.00  0.00     0.261 C 
BRANCH   4   5
ATOM      5  O   UNL A   1      31.168  27.557  25.616  1.00  0.00    -0.460 OA
BRANCH   5   6
ATOM      6  C   UNL A   1      31.139  27.696  24.262  1.00  0.00     0.347 C 
ATOM      7  O   UNL A   1      31.307  28.752  23.662  1.00  0.00    -0.248 OA
BRANCH   6   8
ATOM      8  C   UNL A   1      30.814  26.380  23.545  1.00  0.00     0.290 C 
ATOM      9  C   UNL A   1      34.464  22.996  27.064  1.00  0.00     0.045 C 
ATOM     10  C   UNL A   1      34.000  23.708  25.821  1.00  0.00    -0.044 A 
ATOM     11  C   UNL A   1      34.919  23.895  24.773  1.00  0.00     0.005 A 
ATOM     12  C   UNL A   1      32.689  24.214  25.695  1.00  0.00    -0.005 A 
ATOM     13  C   UNL A   1      34.549  24.558  23.605  1.00  0.00     0.016 A 
ATOM     14  C   UNL A   1      32.320  24.857  24.500  1.00  0.00     0.134 A 
ATOM     15  C   UNL A   1      31.666  24.110  26.799  1.00  0.00     0.049 C 
ATOM     16  C   UNL A   1      33.246  25.032  23.470  1.00  0.00     0.060 A 
ATOM     17  O   UNL A   1      31.014  25.257  24.394  1.00  0.00    -0.477 OA
ATOM     18  C   UNL A   1      32.829  25.717  22.234  1.00  0.00     0.170 C 
ATOM     19  C   UNL A   1      31.406  26.186  22.160  1.00  0.00     0.138 C 
ATOM     20  O   UNL A   1      33.604  25.842  21.289  1.00  0.00    -0.294 OA
ENDBRANCH   6   8
ENDBRANCH   5   6
ENDBRANCH   4   5
ENDBRANCH   3   4
ENDBRANCH   2   3
ENDBRANCH   1   2
BRANCH   1  21
ATOM     21  C   UNL A   1      32.070  32.925  26.880  1.00  0.00     0.261 C 
BRANCH  21  22
ATOM     22  O   UNL A   1      32.897  32.823  28.053  1.00  0.00    -0.460 OA
BRANCH  22  23
ATOM     23  C   UNL A   1      33.954  33.665  28.081  1.00  0.00     0.338 C 
ATOM     24  O   UNL A   1      33.933  34.888  28.077  1.00  0.00    -0.246 OA
BRANCH  23  25
ATOM     25  C   UNL A   1      35.202  32.916  28.296  1.00  0.00     0.060 A 
ATOM     26  C   UNL A   1      35.096  31.550  28.589  1.00  0.00     0.016 A 
ATOM     27  C   UNL A   1      36.438  33.563  28.357  1.00  0.00     0.016 A 
ATOM     28  C   UNL A   1      36.218  30.837  29.001  1.00  0.00     0.010 A 
ATOM     29  C   UNL A   1      37.560  32.851  28.795  1.00  0.00     0.010 A 
ATOM     30  C   UNL A   1      37.443  31.497  29.159  1.00  0.00    -0.014 A 
BRANCH  30  31
ATOM     31  C   UNL A   1      38.538  30.812  29.885  1.00  0.00     0.031 A 
ATOM     32  C   UNL A   1      38.783  31.167  31.327  1.00  0.00     0.074 A 
ATOM     33  C   UNL A   1      39.263  29.848  29.294  1.00  0.00     0.049 A 
ATOM     34  N   UNL A   1      39.662  30.680  32.165  1.00  0.00    -0.248 NA
ATOM     35  C   UNL A   1      37.910  32.204  31.904  1.00  0.00     0.031 C 
ATOM     36  C   UNL A   1      39.083  29.376  27.924  1.00  0.00     0.029 A 
ATOM     37  N   UNL A   1      40.299  29.089  29.781  1.00  0.00    -0.354 N 
ATOM     38  C   UNL A   1      39.436  31.336  33.368  1.00  0.00     0.074 A 
ATOM     39  C   UNL A   1      38.362  32.279  33.146  1.00  0.00     0.031 C 
ATOM     40  C   UNL A   1      39.981  28.406  27.678  1.00  0.00     0.029 A 
ATOM     41  C   UNL A   1      40.814  28.210  28.864  1.00  0.00     0.049 A 
ATOM     42  H   UNL A   1      40.638  29.169  30.702  1.00  0.00     0.167 HD
ATOM     43  C   UNL A   1      40.059  31.156  34.557  1.00  0.00     0.037 A 
ATOM     44  C   UNL A   1      41.849  27.353  28.970  1.00  0.00     0.037 A 
ATOM     45  C   UNL A   1      41.141  30.233  34.775  1.00  0.00     0.049 A 
ATOM     46  C   UNL A   1      42.604  27.255  30.271  1.00  0.00     0.074 A 
ATOM     47  C   UNL A   1      41.839  29.983  35.944  1.00  0.00     0.029 A 
ATOM     48  N   UNL A   1      41.688  29.416  33.798  1.00  0.00    -0.354 N 
ATOM     49  N   UNL A   1      42.374  27.865  31.408  1.00  0.00    -0.248 NA
ATOM     50  C   UNL A   1      43.763  26.352  30.301  1.00  0.00     0.031 C 
ATOM     51  C   UNL A   1      42.839  29.048  35.662  1.00  0.00     0.029 A 
ATOM     52  C   UNL A   1      42.735  28.682  34.330  1.00  0.00     0.049 A 
ATOM     53  H   UNL A   1      41.378  29.365  32.865  1.00  0.00     0.167 HD
ATOM     54  C   UNL A   1      43.342  27.405  32.293  1.00  0.00     0.074 A 
ATOM     55  C   UNL A   1      44.157  26.456  31.564  1.00  0.00     0.031 C 
ATOM     56  C   UNL A   1      43.537  27.740  33.592  1.00  0.00     0.037 A 
BRANCH  43  57
ATOM     57  C   UNL A   1      39.597  31.987  35.714  1.00  0.00     0.064 A 
ATOM     58  C   UNL A   1      40.149  33.250  35.972  1.00  0.00     0.173 A 
ATOM     59  C   UNL A   1      38.554  31.543  36.540  1.00  0.00     0.173 A 
ATOM     60  F   UNL A   1      41.157  33.712  35.217  1.00  0.00    -0.203 F 
ATOM     61  C   UNL A   1      39.683  34.034  37.023  1.00  0.00     0.198 A 
ATOM     62  C   UNL A   1      38.073  32.339  37.576  1.00  0.00     0.198 A 
ATOM     63  F   UNL A   1      37.990  30.344  36.331  1.00  0.00    -0.203 F 
ATOM     64  F   UNL A   1      40.242  35.226  37.269  1.00  0.00    -0.200 F 
ATOM     65  C   UNL A   1      38.640  33.582  37.819  1.00  0.00     0.200 A 
ATOM     66  F   UNL A   1      37.059  31.905  38.338  1.00  0.00    -0.200 F 
ATOM     67  F   UNL A   1      38.183  34.343  38.822  1.00  0.00    -0.200 F 
ENDBRANCH  43  57
BRANCH  44  68
ATOM     68  C   UNL A   1      42.236  26.518  27.806  1.00  0.00     0.064 A 
ATOM     69  C   UNL A   1      41.627  25.277  27.573  1.00  0.00     0.173 A 
ATOM     70  C   UNL A   1      43.222  26.942  26.903  1.00  0.00     0.173 A 
ATOM     71  F   UNL A   1      40.698  24.819  28.424  1.00  0.00    -0.203 F 
ATOM     72  C   UNL A   1      41.994  24.489  26.485  1.00  0.00     0.198 A 
ATOM     73  C   UNL A   1      43.572  26.163  25.801  1.00  0.00     0.198 A 
ATOM     74  F   UNL A   1      43.838  28.119  27.083  1.00  0.00    -0.203 F 
ATOM     75  F   UNL A   1      41.419  23.293  26.302  1.00  0.00    -0.200 F 
ATOM     76  C   UNL A   1      42.961  24.936  25.595  1.00  0.00     0.200 A 
ATOM     77  F   UNL A   1      44.497  26.604  24.939  1.00  0.00    -0.200 F 
ATOM     78  F   UNL A   1      43.307  24.182  24.544  1.00  0.00    -0.200 F 
ENDBRANCH  44  68
BRANCH  56  79
ATOM     79  C   UNL A   1      44.664  27.073  34.323  1.00  0.00     0.064 A 
ATOM     80  C   UNL A   1      45.925  27.676  34.430  1.00  0.00     0.173 A 
ATOM     81  C   UNL A   1      44.457  25.857  34.994  1.00  0.00     0.173 A 
ATOM     82  F   UNL A   1      46.174  28.832  33.798  1.00  0.00    -0.203 F 
ATOM     83  C   UNL A   1      46.941  27.082  35.174  1.00  0.00     0.198 A 
ATOM     84  C   UNL A   1      45.468  25.278  35.757  1.00  0.00     0.198 A 
ATOM     85  F   UNL A   1      43.266  25.243  34.929  1.00  0.00    -0.203 F 
ATOM     86  F   UNL A   1      48.146  27.662  35.240  1.00  0.00    -0.200 F 
ATOM     87  C   UNL A   1      46.709  25.889  35.844  1.00  0.00     0.200 A 
ATOM     88  F   UNL A   1      45.237  24.134  36.415  1.00  0.00    -0.200 F 
ATOM     89  F   UNL A   1      47.684  25.329  36.573  1.00  0.00    -0.200 F 
ENDBRANCH  56  79
ENDBRANCH  30  31
ENDBRANCH  23  25
ENDBRANCH  22  23
ENDBRANCH  21  22
ENDBRANCH   1  21
TORSDOF 14
ENDMDL
