MODEL 1
REMARK VINA RESULT:     -10.9      0.000      0.000
REMARK SMILES COc1cnc(SCC(=O)OCCOCCOC(=O)c2ccc(-c3c4nc(c(-c5c(F)c(F)c(F)c(F)c5F)c5ccc([nH]5)c(-c5c(F)c(F)c(F)c(F)c5F)c5nc(c(-c6c(F)c(F)c(F)c(F)c6F)c6ccc3[nH]6)C=C5)C=C4)cc2)[nH]c1=O
REMARK SMILES IDX 13 1 12 2 11 3 9 4 10 5 8 6 7 7 6 8 3 9 4 10 84 11 5 12
REMARK SMILES IDX 83 13 85 14 2 16 1 17 14 18 15 19 16 20 17 21 18 22 19 23
REMARK SMILES IDX 20 24 21 25 82 26 22 27 81 28 23 29 24 30 25 31 75 32 26 33
REMARK SMILES IDX 80 34 74 35 76 36 27 37 79 38 73 39 72 40 28 42 60 43 40 44
REMARK SMILES IDX 59 45 41 46 44 47 58 48 77 49 42 50 43 51 57 53 78 54 45 55
REMARK SMILES IDX 29 56 30 57 38 58 31 59 32 60 36 61 39 62 33 63 34 64 37 65
REMARK SMILES IDX 35 66 61 67 62 68 70 69 63 70 64 71 68 72 71 73 65 74 66 75
REMARK SMILES IDX 69 76 67 77 46 78 47 79 55 80 48 81 49 82 53 83 56 84 50 85
REMARK SMILES IDX 51 86 54 87 52 88
REMARK H PARENT 83 15 76 41 44 52
REMARK Flexibility Score: inf
ROOT
ATOM      1  C   UNL A   1      34.013  37.221  32.919  1.00  0.00     0.202 C 
ENDROOT
BRANCH   1   2
ATOM      2  C   UNL A   1      32.876  36.806  31.980  1.00  0.00     0.261 C 
BRANCH   2   3
ATOM      3  O   UNL A   1      33.155  37.101  30.596  1.00  0.00    -0.463 OA
BRANCH   3   4
ATOM      4  C   UNL A   1      32.947  36.080  29.720  1.00  0.00     0.316 C 
ATOM      5  O   UNL A   1      32.277  36.185  28.694  1.00  0.00    -0.251 OA
BRANCH   4   6
ATOM      6  C   UNL A   1      33.595  34.761  30.084  1.00  0.00     0.200 C 
BRANCH   6   7
ATOM      7  S   UNL A   1      34.949  34.195  29.025  1.00  0.00    -0.076 SA
BRANCH   7   8
ATOM      8  C   UNL A   1      34.231  32.854  28.193  1.00  0.00     0.168 A 
ATOM      9  C   UNL A   1      32.800  30.872  26.951  1.00  0.00     0.202 A 
ATOM     10  C   UNL A   1      34.047  30.732  27.428  1.00  0.00     0.166 A 
ATOM     11  C   UNL A   1      32.210  32.240  27.073  1.00  0.00     0.293 A 
ATOM     12  N   UNL A   1      34.796  31.704  28.051  1.00  0.00    -0.229 NA
ATOM     13  N   UNL A   1      32.996  33.155  27.716  1.00  0.00    -0.298 N 
ATOM     14  O   UNL A   1      31.096  32.549  26.663  1.00  0.00    -0.265 OA
ATOM     15  H   UNL A   1      32.653  34.070  27.838  1.00  0.00     0.172 HD
BRANCH   9  16
ATOM     16  O   UNL A   1      32.098  29.752  26.546  1.00  0.00    -0.490 OA
ATOM     17  C   UNL A   1      32.052  28.664  27.457  1.00  0.00     0.278 C 
ENDBRANCH   9  16
ENDBRANCH   7   8
ENDBRANCH   6   7
ENDBRANCH   4   6
ENDBRANCH   3   4
ENDBRANCH   2   3
ENDBRANCH   1   2
BRANCH   1  18
ATOM     18  O   UNL A   1      34.470  36.222  33.829  1.00  0.00    -0.374 OA
BRANCH  18  19
ATOM     19  C   UNL A   1      35.188  35.118  33.277  1.00  0.00     0.202 C 
BRANCH  19  20
ATOM     20  C   UNL A   1      34.676  33.734  33.682  1.00  0.00     0.261 C 
BRANCH  20  21
ATOM     21  O   UNL A   1      35.311  32.680  32.942  1.00  0.00    -0.460 OA
BRANCH  21  22
ATOM     22  C   UNL A   1      36.434  32.208  33.527  1.00  0.00     0.338 C 
ATOM     23  O   UNL A   1      36.760  32.324  34.710  1.00  0.00    -0.246 OA
BRANCH  22  24
ATOM     24  C   UNL A   1      37.204  31.368  32.605  1.00  0.00     0.060 A 
ATOM     25  C   UNL A   1      38.255  30.624  33.152  1.00  0.00     0.016 A 
ATOM     26  C   UNL A   1      37.015  31.431  31.223  1.00  0.00     0.016 A 
ATOM     27  C   UNL A   1      39.179  30.009  32.313  1.00  0.00     0.010 A 
ATOM     28  C   UNL A   1      37.946  30.811  30.380  1.00  0.00     0.010 A 
ATOM     29  C   UNL A   1      39.061  30.147  30.923  1.00  0.00    -0.014 A 
BRANCH  29  30
ATOM     30  C   UNL A   1      40.210  29.757  30.072  1.00  0.00     0.031 A 
ATOM     31  C   UNL A   1      41.307  30.758  29.830  1.00  0.00     0.074 A 
ATOM     32  C   UNL A   1      40.311  28.506  29.590  1.00  0.00     0.049 A 
ATOM     33  N   UNL A   1      42.431  30.619  29.173  1.00  0.00    -0.248 NA
ATOM     34  C   UNL A   1      41.115  32.099  30.408  1.00  0.00     0.031 C 
ATOM     35  C   UNL A   1      39.324  27.446  29.785  1.00  0.00     0.029 A 
ATOM     36  N   UNL A   1      41.298  27.915  28.843  1.00  0.00    -0.354 N 
ATOM     37  C   UNL A   1      43.073  31.848  29.256  1.00  0.00     0.074 A 
ATOM     38  C   UNL A   1      42.205  32.733  30.001  1.00  0.00     0.031 C 
ATOM     39  C   UNL A   1      39.756  26.330  29.172  1.00  0.00     0.029 A 
ATOM     40  C   UNL A   1      41.040  26.604  28.530  1.00  0.00     0.049 A 
ATOM     41  H   UNL A   1      42.114  28.387  28.558  1.00  0.00     0.167 HD
ATOM     42  C   UNL A   1      44.283  32.203  28.763  1.00  0.00     0.037 A 
ATOM     43  C   UNL A   1      41.762  25.728  27.804  1.00  0.00     0.037 A 
ATOM     44  C   UNL A   1      45.153  31.316  28.037  1.00  0.00     0.049 A 
ATOM     45  C   UNL A   1      43.096  26.158  27.249  1.00  0.00     0.074 A 
ATOM     46  C   UNL A   1      46.408  31.571  27.514  1.00  0.00     0.029 A 
ATOM     47  N   UNL A   1      44.852  29.997  27.733  1.00  0.00    -0.354 N 
ATOM     48  N   UNL A   1      43.710  27.310  27.367  1.00  0.00    -0.248 NA
ATOM     49  C   UNL A   1      43.841  25.160  26.468  1.00  0.00     0.031 C 
ATOM     50  C   UNL A   1      46.851  30.416  26.862  1.00  0.00     0.029 A 
ATOM     51  C   UNL A   1      45.891  29.430  27.016  1.00  0.00     0.049 A 
ATOM     52  H   UNL A   1      44.023  29.533  27.990  1.00  0.00     0.167 HD
ATOM     53  C   UNL A   1      44.924  27.165  26.710  1.00  0.00     0.074 A 
ATOM     54  C   UNL A   1      44.965  25.810  26.202  1.00  0.00     0.031 C 
ATOM     55  C   UNL A   1      45.918  28.071  26.542  1.00  0.00     0.037 A 
BRANCH  42  56
ATOM     56  C   UNL A   1      44.739  33.615  28.979  1.00  0.00     0.064 A 
ATOM     57  C   UNL A   1      44.415  34.638  28.076  1.00  0.00     0.173 A 
ATOM     58  C   UNL A   1      45.462  33.958  30.131  1.00  0.00     0.173 A 
ATOM     59  F   UNL A   1      43.736  34.358  26.954  1.00  0.00    -0.203 F 
ATOM     60  C   UNL A   1      44.811  35.953  28.313  1.00  0.00     0.198 A 
ATOM     61  C   UNL A   1      45.836  35.277  30.375  1.00  0.00     0.198 A 
ATOM     62  F   UNL A   1      45.794  33.016  31.027  1.00  0.00    -0.203 F 
ATOM     63  F   UNL A   1      44.517  36.910  27.423  1.00  0.00    -0.200 F 
ATOM     64  C   UNL A   1      45.514  36.272  29.465  1.00  0.00     0.200 A 
ATOM     65  F   UNL A   1      46.507  35.585  31.494  1.00  0.00    -0.200 F 
ATOM     66  F   UNL A   1      45.883  37.539  29.698  1.00  0.00    -0.200 F 
ENDBRANCH  42  56
BRANCH  43  67
ATOM     67  C   UNL A   1      41.248  24.355  27.564  1.00  0.00     0.064 A 
ATOM     68  C   UNL A   1      41.848  23.239  28.166  1.00  0.00     0.173 A 
ATOM     69  C   UNL A   1      40.164  24.128  26.704  1.00  0.00     0.173 A 
ATOM     70  F   UNL A   1      42.902  23.403  28.978  1.00  0.00    -0.203 F 
ATOM     71  C   UNL A   1      41.399  21.948  27.896  1.00  0.00     0.198 A 
ATOM     72  C   UNL A   1      39.699  22.838  26.456  1.00  0.00     0.198 A 
ATOM     73  F   UNL A   1      39.556  25.161  26.103  1.00  0.00    -0.203 F 
ATOM     74  F   UNL A   1      42.022  20.896  28.444  1.00  0.00    -0.200 F 
ATOM     75  C   UNL A   1      40.321  21.749  27.045  1.00  0.00     0.200 A 
ATOM     76  F   UNL A   1      38.651  22.652  25.641  1.00  0.00    -0.200 F 
ATOM     77  F   UNL A   1      39.892  20.506  26.783  1.00  0.00    -0.200 F 
ENDBRANCH  43  67
BRANCH  55  78
ATOM     78  C   UNL A   1      47.151  27.613  25.821  1.00  0.00     0.064 A 
ATOM     79  C   UNL A   1      48.240  27.056  26.507  1.00  0.00     0.173 A 
ATOM     80  C   UNL A   1      47.223  27.692  24.423  1.00  0.00     0.173 A 
ATOM     81  F   UNL A   1      48.221  26.971  27.847  1.00  0.00    -0.203 F 
ATOM     82  C   UNL A   1      49.368  26.619  25.820  1.00  0.00     0.198 A 
ATOM     83  C   UNL A   1      48.342  27.230  23.737  1.00  0.00     0.198 A 
ATOM     84  F   UNL A   1      46.203  28.209  23.721  1.00  0.00    -0.203 F 
ATOM     85  F   UNL A   1      50.416  26.130  26.498  1.00  0.00    -0.200 F 
ATOM     86  C   UNL A   1      49.415  26.701  24.435  1.00  0.00     0.200 A 
ATOM     87  F   UNL A   1      48.381  27.299  22.399  1.00  0.00    -0.200 F 
ATOM     88  F   UNL A   1      50.501  26.275  23.776  1.00  0.00    -0.200 F 
ENDBRANCH  55  78
ENDBRANCH  29  30
ENDBRANCH  22  24
ENDBRANCH  21  22
ENDBRANCH  20  21
ENDBRANCH  19  20
ENDBRANCH  18  19
ENDBRANCH   1  18
TORSDOF 17
ENDMDL
MODEL 2
REMARK VINA RESULT:     -10.4      0.499      2.064
REMARK SMILES COc1cnc(SCC(=O)OCCOCCOC(=O)c2ccc(-c3c4nc(c(-c5c(F)c(F)c(F)c(F)c5F)c5ccc([nH]5)c(-c5c(F)c(F)c(F)c(F)c5F)c5nc(c(-c6c(F)c(F)c(F)c(F)c6F)c6ccc3[nH]6)C=C5)C=C4)cc2)[nH]c1=O
REMARK SMILES IDX 13 1 12 2 11 3 9 4 10 5 8 6 7 7 6 8 3 9 4 10 84 11 5 12
REMARK SMILES IDX 83 13 85 14 2 16 1 17 14 18 15 19 16 20 17 21 18 22 19 23
REMARK SMILES IDX 20 24 21 25 82 26 22 27 81 28 23 29 24 30 25 31 75 32 26 33
REMARK SMILES IDX 80 34 74 35 76 36 27 37 79 38 73 39 72 40 28 42 60 43 40 44
REMARK SMILES IDX 59 45 41 46 44 47 58 48 77 49 42 50 43 51 57 53 78 54 45 55
REMARK SMILES IDX 29 56 30 57 38 58 31 59 32 60 36 61 39 62 33 63 34 64 37 65
REMARK SMILES IDX 35 66 61 67 62 68 70 69 63 70 64 71 68 72 71 73 65 74 66 75
REMARK SMILES IDX 69 76 67 77 46 78 47 79 55 80 48 81 49 82 53 83 56 84 50 85
REMARK SMILES IDX 51 86 54 87 52 88
REMARK H PARENT 83 15 76 41 44 52
REMARK Flexibility Score: inf
ROOT
ATOM      1  C   UNL A   1      33.865  36.898  33.101  1.00  0.00     0.202 C 
ENDROOT
BRANCH   1   2
ATOM      2  C   UNL A   1      32.822  36.518  32.044  1.00  0.00     0.261 C 
BRANCH   2   3
ATOM      3  O   UNL A   1      33.130  37.043  30.737  1.00  0.00    -0.463 OA
BRANCH   3   4
ATOM      4  C   UNL A   1      32.924  36.193  29.694  1.00  0.00     0.316 C 
ATOM      5  O   UNL A   1      32.128  36.411  28.782  1.00  0.00    -0.251 OA
BRANCH   4   6
ATOM      6  C   UNL A   1      33.742  34.919  29.714  1.00  0.00     0.200 C 
BRANCH   6   7
ATOM      7  S   UNL A   1      34.877  34.655  28.329  1.00  0.00    -0.076 SA
BRANCH   7   8
ATOM      8  C   UNL A   1      34.666  32.966  27.997  1.00  0.00     0.168 A 
ATOM      9  C   UNL A   1      34.006  30.347  27.520  1.00  0.00     0.202 A 
ATOM     10  C   UNL A   1      35.212  30.771  27.928  1.00  0.00     0.166 A 
ATOM     11  C   UNL A   1      32.996  31.420  27.262  1.00  0.00     0.293 A 
ATOM     12  N   UNL A   1      35.581  32.074  28.171  1.00  0.00    -0.229 NA
ATOM     13  N   UNL A   1      33.417  32.691  27.540  1.00  0.00    -0.298 N 
ATOM     14  O   UNL A   1      31.857  31.212  26.859  1.00  0.00    -0.265 OA
ATOM     15  H   UNL A   1      32.790  33.437  27.402  1.00  0.00     0.172 HD
BRANCH   9  16
ATOM     16  O   UNL A   1      33.722  28.993  27.525  1.00  0.00    -0.490 OA
ATOM     17  C   UNL A   1      33.995  28.281  26.328  1.00  0.00     0.278 C 
ENDBRANCH   9  16
ENDBRANCH   7   8
ENDBRANCH   6   7
ENDBRANCH   4   6
ENDBRANCH   3   4
ENDBRANCH   2   3
ENDBRANCH   1   2
BRANCH   1  18
ATOM     18  O   UNL A   1      34.225  35.870  34.023  1.00  0.00    -0.374 OA
BRANCH  18  19
ATOM     19  C   UNL A   1      35.153  34.885  33.570  1.00  0.00     0.202 C 
BRANCH  19  20
ATOM     20  C   UNL A   1      34.815  33.442  33.951  1.00  0.00     0.261 C 
BRANCH  20  21
ATOM     21  O   UNL A   1      35.499  32.486  33.126  1.00  0.00    -0.460 OA
BRANCH  21  22
ATOM     22  C   UNL A   1      36.693  32.098  33.624  1.00  0.00     0.338 C 
ATOM     23  O   UNL A   1      37.112  32.270  34.769  1.00  0.00    -0.246 OA
BRANCH  22  24
ATOM     24  C   UNL A   1      37.431  31.273  32.661  1.00  0.00     0.060 A 
ATOM     25  C   UNL A   1      38.463  30.475  33.169  1.00  0.00     0.016 A 
ATOM     26  C   UNL A   1      37.232  31.397  31.285  1.00  0.00     0.016 A 
ATOM     27  C   UNL A   1      39.360  29.867  32.297  1.00  0.00     0.010 A 
ATOM     28  C   UNL A   1      38.137  30.784  30.409  1.00  0.00     0.010 A 
ATOM     29  C   UNL A   1      39.235  30.065  30.915  1.00  0.00    -0.014 A 
BRANCH  29  30
ATOM     30  C   UNL A   1      40.365  29.674  30.039  1.00  0.00     0.031 A 
ATOM     31  C   UNL A   1      41.473  30.665  29.798  1.00  0.00     0.074 A 
ATOM     32  C   UNL A   1      40.440  28.432  29.531  1.00  0.00     0.049 A 
ATOM     33  N   UNL A   1      42.584  30.522  29.121  1.00  0.00    -0.248 NA
ATOM     34  C   UNL A   1      41.310  31.997  30.404  1.00  0.00     0.031 C 
ATOM     35  C   UNL A   1      39.441  27.382  29.721  1.00  0.00     0.029 A 
ATOM     36  N   UNL A   1      41.407  27.841  28.756  1.00  0.00    -0.354 N 
ATOM     37  C   UNL A   1      43.246  31.740  29.217  1.00  0.00     0.074 A 
ATOM     38  C   UNL A   1      42.403  32.623  29.993  1.00  0.00     0.031 C 
ATOM     39  C   UNL A   1      39.847  26.273  29.080  1.00  0.00     0.029 A 
ATOM     40  C   UNL A   1      41.125  26.541  28.423  1.00  0.00     0.049 A 
ATOM     41  H   UNL A   1      42.225  28.307  28.468  1.00  0.00     0.167 HD
ATOM     42  C   UNL A   1      44.453  32.087  28.712  1.00  0.00     0.037 A 
ATOM     43  C   UNL A   1      41.822  25.669  27.669  1.00  0.00     0.037 A 
ATOM     44  C   UNL A   1      45.298  31.202  27.955  1.00  0.00     0.049 A 
ATOM     45  C   UNL A   1      43.153  26.090  27.101  1.00  0.00     0.074 A 
ATOM     46  C   UNL A   1      46.549  31.449  27.417  1.00  0.00     0.029 A 
ATOM     47  N   UNL A   1      44.973  29.893  27.631  1.00  0.00    -0.354 N 
ATOM     48  N   UNL A   1      43.786  27.230  27.232  1.00  0.00    -0.248 NA
ATOM     49  C   UNL A   1      43.872  25.097  26.289  1.00  0.00     0.031 C 
ATOM     50  C   UNL A   1      46.965  30.301  26.736  1.00  0.00     0.029 A 
ATOM     51  C   UNL A   1      45.993  29.326  26.886  1.00  0.00     0.049 A 
ATOM     52  H   UNL A   1      44.141  29.436  27.892  1.00  0.00     0.167 HD
ATOM     53  C   UNL A   1      44.988  27.081  26.553  1.00  0.00     0.074 A 
ATOM     54  C   UNL A   1      45.000  25.736  26.018  1.00  0.00     0.031 C 
ATOM     55  C   UNL A   1      45.992  27.976  26.386  1.00  0.00     0.037 A 
BRANCH  42  56
ATOM     56  C   UNL A   1      44.932  33.488  28.948  1.00  0.00     0.064 A 
ATOM     57  C   UNL A   1      45.624  33.842  30.115  1.00  0.00     0.173 A 
ATOM     58  C   UNL A   1      44.744  34.475  27.969  1.00  0.00     0.173 A 
ATOM     59  F   UNL A   1      45.818  32.937  31.086  1.00  0.00    -0.203 F 
ATOM     60  C   UNL A   1      46.099  35.139  30.299  1.00  0.00     0.198 A 
ATOM     61  C   UNL A   1      45.240  35.764  28.147  1.00  0.00     0.198 A 
ATOM     62  F   UNL A   1      44.092  34.186  26.833  1.00  0.00    -0.203 F 
ATOM     63  F   UNL A   1      46.731  35.464  31.435  1.00  0.00    -0.200 F 
ATOM     64  C   UNL A   1      45.913  36.096  29.313  1.00  0.00     0.200 A 
ATOM     65  F   UNL A   1      45.069  36.685  27.188  1.00  0.00    -0.200 F 
ATOM     66  F   UNL A   1      46.381  37.339  29.486  1.00  0.00    -0.200 F 
ENDBRANCH  42  56
BRANCH  43  67
ATOM     67  C   UNL A   1      41.284  24.308  27.411  1.00  0.00     0.064 A 
ATOM     68  C   UNL A   1      40.151  24.115  26.608  1.00  0.00     0.173 A 
ATOM     69  C   UNL A   1      41.875  23.176  27.990  1.00  0.00     0.173 A 
ATOM     70  F   UNL A   1      39.537  25.168  26.052  1.00  0.00    -0.203 F 
ATOM     71  C   UNL A   1      39.616  22.843  26.413  1.00  0.00     0.198 A 
ATOM     72  C   UNL A   1      41.354  21.901  27.772  1.00  0.00     0.198 A 
ATOM     73  F   UNL A   1      42.960  23.307  28.767  1.00  0.00    -0.203 F 
ATOM     74  F   UNL A   1      38.503  22.691  25.683  1.00  0.00    -0.200 F 
ATOM     75  C   UNL A   1      40.221  21.736  26.992  1.00  0.00     0.200 A 
ATOM     76  F   UNL A   1      41.949  20.834  28.325  1.00  0.00    -0.200 F 
ATOM     77  F   UNL A   1      39.704  20.514  26.807  1.00  0.00    -0.200 F 
ENDBRANCH  43  67
BRANCH  55  78
ATOM     78  C   UNL A   1      47.207  27.514  25.637  1.00  0.00     0.064 A 
ATOM     79  C   UNL A   1      47.334  27.703  24.253  1.00  0.00     0.173 A 
ATOM     80  C   UNL A   1      48.273  26.914  26.322  1.00  0.00     0.173 A 
ATOM     81  F   UNL A   1      46.334  28.263  23.554  1.00  0.00    -0.203 F 
ATOM     82  C   UNL A   1      48.476  27.284  23.578  1.00  0.00     0.198 A 
ATOM     83  C   UNL A   1      49.425  26.519  25.647  1.00  0.00     0.198 A 
ATOM     84  F   UNL A   1      48.202  26.718  27.647  1.00  0.00    -0.203 F 
ATOM     85  F   UNL A   1      48.560  27.435  22.249  1.00  0.00    -0.200 F 
ATOM     86  C   UNL A   1      49.523  26.699  24.277  1.00  0.00     0.200 A 
ATOM     87  F   UNL A   1      50.439  25.964  26.325  1.00  0.00    -0.200 F 
ATOM     88  F   UNL A   1      50.623  26.300  23.625  1.00  0.00    -0.200 F 
ENDBRANCH  55  78
ENDBRANCH  29  30
ENDBRANCH  22  24
ENDBRANCH  21  22
ENDBRANCH  20  21
ENDBRANCH  19  20
ENDBRANCH  18  19
ENDBRANCH   1  18
TORSDOF 17
ENDMDL
MODEL 3
REMARK VINA RESULT:     -10.3      6.448     12.072
REMARK SMILES COc1cnc(SCC(=O)OCCOCCOC(=O)c2ccc(-c3c4nc(c(-c5c(F)c(F)c(F)c(F)c5F)c5ccc([nH]5)c(-c5c(F)c(F)c(F)c(F)c5F)c5nc(c(-c6c(F)c(F)c(F)c(F)c6F)c6ccc3[nH]6)C=C5)C=C4)cc2)[nH]c1=O
REMARK SMILES IDX 13 1 12 2 11 3 9 4 10 5 8 6 7 7 6 8 3 9 4 10 84 11 5 12
REMARK SMILES IDX 83 13 85 14 2 16 1 17 14 18 15 19 16 20 17 21 18 22 19 23
REMARK SMILES IDX 20 24 21 25 82 26 22 27 81 28 23 29 24 30 25 31 75 32 26 33
REMARK SMILES IDX 80 34 74 35 76 36 27 37 79 38 73 39 72 40 28 42 60 43 40 44
REMARK SMILES IDX 59 45 41 46 44 47 58 48 77 49 42 50 43 51 57 53 78 54 45 55
REMARK SMILES IDX 29 56 30 57 38 58 31 59 32 60 36 61 39 62 33 63 34 64 37 65
REMARK SMILES IDX 35 66 61 67 62 68 70 69 63 70 64 71 68 72 71 73 65 74 66 75
REMARK SMILES IDX 69 76 67 77 46 78 47 79 55 80 48 81 49 82 53 83 56 84 50 85
REMARK SMILES IDX 51 86 54 87 52 88
REMARK H PARENT 83 15 76 41 44 52
REMARK Flexibility Score: inf
ROOT
ATOM      1  C   UNL A   1      42.658  20.897  26.202  1.00  0.00     0.202 C 
ENDROOT
BRANCH   1   2
ATOM      2  C   UNL A   1      41.565  19.828  26.304  1.00  0.00     0.261 C 
BRANCH   2   3
ATOM      3  O   UNL A   1      40.445  20.244  27.111  1.00  0.00    -0.463 OA
BRANCH   3   4
ATOM      4  C   UNL A   1      39.969  21.494  26.861  1.00  0.00     0.316 C 
ATOM      5  O   UNL A   1      40.252  22.482  27.536  1.00  0.00    -0.251 OA
BRANCH   4   6
ATOM      6  C   UNL A   1      39.035  21.615  25.675  1.00  0.00     0.200 C 
BRANCH   6   7
ATOM      7  S   UNL A   1      38.060  20.151  25.249  1.00  0.00    -0.076 SA
BRANCH   7   8
ATOM      8  C   UNL A   1      36.486  20.824  24.971  1.00  0.00     0.168 A 
ATOM      9  C   UNL A   1      33.897  21.575  24.468  1.00  0.00     0.202 A 
ATOM     10  C   UNL A   1      34.964  22.382  24.358  1.00  0.00     0.166 A 
ATOM     11  C   UNL A   1      34.180  20.191  24.962  1.00  0.00     0.293 A 
ATOM     12  N   UNL A   1      36.274  22.042  24.607  1.00  0.00    -0.229 NA
ATOM     13  N   UNL A   1      35.501  19.911  25.173  1.00  0.00    -0.298 N 
ATOM     14  O   UNL A   1      33.321  19.337  25.149  1.00  0.00    -0.265 OA
ATOM     15  H   UNL A   1      35.749  19.010  25.486  1.00  0.00     0.172 HD
BRANCH   9  16
ATOM     16  O   UNL A   1      32.673  21.994  23.979  1.00  0.00    -0.490 OA
ATOM     17  C   UNL A   1      32.259  21.438  22.740  1.00  0.00     0.278 C 
ENDBRANCH   9  16
ENDBRANCH   7   8
ENDBRANCH   6   7
ENDBRANCH   4   6
ENDBRANCH   3   4
ENDBRANCH   2   3
ENDBRANCH   1   2
BRANCH   1  18
ATOM     18  O   UNL A   1      43.331  20.987  24.947  1.00  0.00    -0.374 OA
BRANCH  18  19
ATOM     19  C   UNL A   1      44.708  21.362  24.973  1.00  0.00     0.202 C 
BRANCH  19  20
ATOM     20  C   UNL A   1      45.036  22.700  24.306  1.00  0.00     0.261 C 
BRANCH  20  21
ATOM     21  O   UNL A   1      44.048  23.704  24.587  1.00  0.00    -0.460 OA
BRANCH  21  22
ATOM     22  C   UNL A   1      44.573  24.878  25.003  1.00  0.00     0.338 C 
ATOM     23  O   UNL A   1      45.659  25.361  24.682  1.00  0.00    -0.246 OA
BRANCH  22  24
ATOM     24  C   UNL A   1      43.609  25.639  25.805  1.00  0.00     0.060 A 
ATOM     25  C   UNL A   1      43.902  26.988  26.036  1.00  0.00     0.016 A 
ATOM     26  C   UNL A   1      42.538  25.017  26.449  1.00  0.00     0.016 A 
ATOM     27  C   UNL A   1      43.176  27.700  26.986  1.00  0.00     0.010 A 
ATOM     28  C   UNL A   1      41.809  25.737  27.404  1.00  0.00     0.010 A 
ATOM     29  C   UNL A   1      42.164  27.062  27.715  1.00  0.00    -0.014 A 
BRANCH  29  30
ATOM     30  C   UNL A   1      41.625  27.738  28.919  1.00  0.00     0.031 A 
ATOM     31  C   UNL A   1      42.358  27.587  30.226  1.00  0.00     0.074 A 
ATOM     32  C   UNL A   1      40.546  28.535  28.832  1.00  0.00     0.049 A 
ATOM     33  N   UNL A   1      42.107  28.133  31.388  1.00  0.00    -0.248 NA
ATOM     34  C   UNL A   1      43.536  26.703  30.222  1.00  0.00     0.031 C 
ATOM     35  C   UNL A   1      39.775  28.779  27.615  1.00  0.00     0.029 A 
ATOM     36  N   UNL A   1      39.919  29.295  29.787  1.00  0.00    -0.354 N 
ATOM     37  C   UNL A   1      43.088  27.657  32.250  1.00  0.00     0.074 A 
ATOM     38  C   UNL A   1      43.924  26.756  31.487  1.00  0.00     0.031 C 
ATOM     39  C   UNL A   1      38.775  29.631  27.896  1.00  0.00     0.029 A 
ATOM     40  C   UNL A   1      38.828  29.980  29.315  1.00  0.00     0.049 A 
ATOM     41  H   UNL A   1      40.223  29.343  30.723  1.00  0.00     0.167 HD
ATOM     42  C   UNL A   1      43.281  27.955  33.556  1.00  0.00     0.037 A 
ATOM     43  C   UNL A   1      37.969  30.793  29.960  1.00  0.00     0.037 A 
ATOM     44  C   UNL A   1      42.458  28.864  34.308  1.00  0.00     0.049 A 
ATOM     45  C   UNL A   1      38.195  31.089  31.421  1.00  0.00     0.074 A 
ATOM     46  C   UNL A   1      42.581  29.250  35.631  1.00  0.00     0.029 A 
ATOM     47  N   UNL A   1      41.356  29.533  33.796  1.00  0.00    -0.354 N 
ATOM     48  N   UNL A   1      39.149  30.665  32.214  1.00  0.00    -0.248 NA
ATOM     49  C   UNL A   1      37.230  31.986  32.072  1.00  0.00     0.031 C 
ATOM     50  C   UNL A   1      41.531  30.125  35.930  1.00  0.00     0.029 A 
ATOM     51  C   UNL A   1      40.781  30.316  34.782  1.00  0.00     0.049 A 
ATOM     52  H   UNL A   1      41.032  29.461  32.869  1.00  0.00     0.167 HD
ATOM     53  C   UNL A   1      38.921  31.269  33.443  1.00  0.00     0.074 A 
ATOM     54  C   UNL A   1      37.743  32.096  33.289  1.00  0.00     0.031 C 
ATOM     55  C   UNL A   1      39.623  31.150  34.597  1.00  0.00     0.037 A 
BRANCH  42  56
ATOM     56  C   UNL A   1      44.416  27.281  34.266  1.00  0.00     0.064 A 
ATOM     57  C   UNL A   1      45.683  27.877  34.358  1.00  0.00     0.173 A 
ATOM     58  C   UNL A   1      44.220  26.050  34.909  1.00  0.00     0.173 A 
ATOM     59  F   UNL A   1      45.924  29.048  33.750  1.00  0.00    -0.203 F 
ATOM     60  C   UNL A   1      46.716  27.256  35.057  1.00  0.00     0.198 A 
ATOM     61  C   UNL A   1      45.249  25.444  35.625  1.00  0.00     0.198 A 
ATOM     62  F   UNL A   1      43.026  25.440  34.853  1.00  0.00    -0.203 F 
ATOM     63  F   UNL A   1      47.927  27.828  35.107  1.00  0.00    -0.200 F 
ATOM     64  C   UNL A   1      46.496  26.044  35.696  1.00  0.00     0.200 A 
ATOM     65  F   UNL A   1      45.032  24.278  36.251  1.00  0.00    -0.200 F 
ATOM     66  F   UNL A   1      47.487  25.455  36.378  1.00  0.00    -0.200 F 
ENDBRANCH  42  56
BRANCH  43  67
ATOM     67  C   UNL A   1      36.822  31.395  29.233  1.00  0.00     0.064 A 
ATOM     68  C   UNL A   1      36.798  32.761  28.917  1.00  0.00     0.173 A 
ATOM     69  C   UNL A   1      35.711  30.621  28.867  1.00  0.00     0.173 A 
ATOM     70  F   UNL A   1      37.826  33.547  29.267  1.00  0.00    -0.203 F 
ATOM     71  C   UNL A   1      35.696  33.334  28.285  1.00  0.00     0.198 A 
ATOM     72  C   UNL A   1      34.622  31.190  28.210  1.00  0.00     0.198 A 
ATOM     73  F   UNL A   1      35.684  29.310  29.147  1.00  0.00    -0.203 F 
ATOM     74  F   UNL A   1      35.677  34.651  28.040  1.00  0.00    -0.200 F 
ATOM     75  C   UNL A   1      34.611  32.547  27.927  1.00  0.00     0.200 A 
ATOM     76  F   UNL A   1      33.580  30.424  27.858  1.00  0.00    -0.200 F 
ATOM     77  F   UNL A   1      33.550  33.099  27.322  1.00  0.00    -0.200 F 
ENDBRANCH  43  67
BRANCH  55  78
ATOM     78  C   UNL A   1      39.165  31.970  35.767  1.00  0.00     0.064 A 
ATOM     79  C   UNL A   1      38.297  31.448  36.737  1.00  0.00     0.173 A 
ATOM     80  C   UNL A   1      39.636  33.280  35.939  1.00  0.00     0.173 A 
ATOM     81  F   UNL A   1      37.811  30.203  36.607  1.00  0.00    -0.203 F 
ATOM     82  C   UNL A   1      37.898  32.217  37.824  1.00  0.00     0.198 A 
ATOM     83  C   UNL A   1      39.255  34.037  37.043  1.00  0.00     0.198 A 
ATOM     84  F   UNL A   1      40.474  33.821  35.042  1.00  0.00    -0.203 F 
ATOM     85  F   UNL A   1      37.034  31.714  38.717  1.00  0.00    -0.200 F 
ATOM     86  C   UNL A   1      38.382  33.509  37.980  1.00  0.00     0.200 A 
ATOM     87  F   UNL A   1      39.732  35.280  37.197  1.00  0.00    -0.200 F 
ATOM     88  F   UNL A   1      37.999  34.246  39.031  1.00  0.00    -0.200 F 
ENDBRANCH  55  78
ENDBRANCH  29  30
ENDBRANCH  22  24
ENDBRANCH  21  22
ENDBRANCH  20  21
ENDBRANCH  19  20
ENDBRANCH  18  19
ENDBRANCH   1  18
TORSDOF 17
ENDMDL
