MODEL 1
REMARK VINA RESULT:     -14.6      0.000      0.000
REMARK SMILES O=C(OCCOCCOC(=O)c1ccc(-c2c3nc(c(-c4c(F)c(F)c(F)c(F)c4F)c4ccc([nH]4)c(-c4c(F)c(F)c(F)c(F)c4F)c4nc(c(-c5c(F)c(F)c(F)c(F)c5F)c5ccc2[nH]5)C=C4)C=C3)cc1)C1=Cc2cc(Cl)cc(-c3ccccc3)c2O[C@@H]1C(F)(F)F
REMARK SMILES IDX 7 1 6 2 5 3 4 4 3 5 2 6 1 7 75 8 76 9 91 10 77 11 90 12
REMARK SMILES IDX 78 13 89 14 79 15 82 16 80 17 81 18 92 19 93 20 94 21 95 22
REMARK SMILES IDX 83 23 84 24 88 25 85 26 87 27 86 28 8 29 9 30 10 31 11 32
REMARK SMILES IDX 12 33 13 34 74 35 14 36 73 37 15 38 16 39 17 40 67 41 18 42
REMARK SMILES IDX 72 43 66 44 68 45 19 46 71 47 65 48 64 49 20 51 52 52 32 53
REMARK SMILES IDX 51 54 33 55 36 56 50 57 69 58 34 59 35 60 49 62 70 63 37 64
REMARK SMILES IDX 21 65 22 66 30 67 23 68 24 69 28 70 31 71 25 72 26 73 29 74
REMARK SMILES IDX 27 75 53 76 54 77 62 78 55 79 56 80 60 81 63 82 57 83 58 84
REMARK SMILES IDX 61 85 59 86 38 87 39 88 47 89 40 90 41 91 45 92 48 93 42 94
REMARK SMILES IDX 43 95 46 96 44 97
REMARK H PARENT 68 50 36 61
REMARK Flexibility Score: inf
ROOT
ATOM      1  C   UNL A   1      40.917  20.652  26.537  1.00  0.00     0.202 C 
ENDROOT
BRANCH   1   2
ATOM      2  O   UNL A   1      40.191  19.655  25.767  1.00  0.00    -0.374 OA
BRANCH   2   3
ATOM      3  C   UNL A   1      38.691  19.655  25.084  1.00  0.00     0.202 C 
BRANCH   3   4
ATOM      4  C   UNL A   1      37.459  21.352  24.502  1.00  0.00     0.261 C 
BRANCH   4   5
ATOM      5  O   UNL A   1      35.908  21.303  24.255  1.00  0.00    -0.460 OA
BRANCH   5   6
ATOM      6  C   UNL A   1      35.417  22.420  23.706  1.00  0.00     0.338 C 
ATOM      7  O   UNL A   1      35.868  23.151  22.863  1.00  0.00    -0.246 OA
BRANCH   6   8
ATOM      8  C   UNL A   1      34.386  22.592  24.695  1.00  0.00     0.087 C 
ATOM      9  C   UNL A   1      34.658  23.753  25.548  1.00  0.00     0.027 C 
ATOM     10  C   UNL A   1      32.869  22.424  23.503  1.00  0.00     0.316 C 
ATOM     11  C   UNL A   1      33.734  25.301  25.447  1.00  0.00     0.019 A 
ATOM     12  O   UNL A   1      31.866  24.094  23.378  1.00  0.00    -0.475 OA
ATOM     13  C   UNL A   1      34.288  26.355  26.126  1.00  0.00     0.032 A 
ATOM     14  C   UNL A   1      32.390  25.558  24.358  1.00  0.00     0.135 A 
ATOM     15  C   UNL A   1      33.749  27.603  25.817  1.00  0.00     0.042 A 
ATOM     16  C   UNL A   1      31.853  26.875  24.201  1.00  0.00     0.026 A 
ATOM     17  Cl  UNL A   1      34.449  28.979  26.607  1.00  0.00    -0.084 Cl
ATOM     18  C   UNL A   1      32.656  27.842  24.899  1.00  0.00     0.033 A 
BRANCH  10  19
ATOM     19  C   UNL A   1      32.499  20.921  23.970  1.00  0.00     0.430 C 
ATOM     20  F   UNL A   1      31.698  20.844  25.053  1.00  0.00    -0.167 F 
ATOM     21  F   UNL A   1      31.774  20.331  22.973  1.00  0.00    -0.167 F 
ATOM     22  F   UNL A   1      33.556  20.096  24.147  1.00  0.00    -0.167 F 
ENDBRANCH  10  19
BRANCH  16  23
ATOM     23  C   UNL A   1      30.567  27.441  23.417  1.00  0.00    -0.015 A 
ATOM     24  C   UNL A   1      29.183  26.488  24.092  1.00  0.00     0.009 A 
ATOM     25  C   UNL A   1      30.065  29.132  22.391  1.00  0.00     0.009 A 
ATOM     26  C   UNL A   1      27.539  27.083  23.876  1.00  0.00     0.001 A 
ATOM     27  C   UNL A   1      28.334  29.611  22.271  1.00  0.00     0.001 A 
ATOM     28  C   UNL A   1      27.138  28.578  23.014  1.00  0.00     0.000 A 
ENDBRANCH  16  23
ENDBRANCH   6   8
ENDBRANCH   5   6
ENDBRANCH   4   5
ENDBRANCH   3   4
ENDBRANCH   2   3
ENDBRANCH   1   2
BRANCH   1  29
ATOM     29  C   UNL A   1      42.356  20.961  26.116  1.00  0.00     0.261 C 
BRANCH  29  30
ATOM     30  O   UNL A   1      42.672  22.267  26.518  1.00  0.00    -0.460 OA
BRANCH  30  31
ATOM     31  C   UNL A   1      42.749  23.078  25.450  1.00  0.00     0.338 C 
ATOM     32  O   UNL A   1      43.164  22.858  24.328  1.00  0.00    -0.246 OA
BRANCH  31  33
ATOM     33  C   UNL A   1      42.154  24.311  25.881  1.00  0.00     0.060 A 
ATOM     34  C   UNL A   1      43.183  25.761  25.954  1.00  0.00     0.016 A 
ATOM     35  C   UNL A   1      40.563  24.318  26.756  1.00  0.00     0.016 A 
ATOM     36  C   UNL A   1      42.746  27.204  26.906  1.00  0.00     0.010 A 
ATOM     37  C   UNL A   1      40.124  25.993  27.809  1.00  0.00     0.010 A 
ATOM     38  C   UNL A   1      41.276  27.350  27.844  1.00  0.00    -0.014 A 
BRANCH  38  39
ATOM     39  C   UNL A   1      41.070  28.297  28.989  1.00  0.00     0.031 A 
ATOM     40  C   UNL A   1      41.781  28.095  30.320  1.00  0.00     0.074 A 
ATOM     41  C   UNL A   1      39.993  29.099  28.972  1.00  0.00     0.049 A 
ATOM     42  N   UNL A   1      41.566  28.649  31.494  1.00  0.00    -0.248 NA
ATOM     43  C   UNL A   1      42.819  27.065  30.361  1.00  0.00     0.031 C 
ATOM     44  C   UNL A   1      39.081  29.252  27.844  1.00  0.00     0.029 A 
ATOM     45  N   UNL A   1      39.449  29.887  29.958  1.00  0.00    -0.354 N 
ATOM     46  C   UNL A   1      42.408  27.992  32.394  1.00  0.00     0.074 A 
ATOM     47  C   UNL A   1      43.043  26.927  31.657  1.00  0.00     0.031 C 
ATOM     48  C   UNL A   1      38.087  30.083  28.198  1.00  0.00     0.029 A 
ATOM     49  C   UNL A   1      38.296  30.524  29.576  1.00  0.00     0.049 A 
ATOM     50  H   UNL A   1      39.850  29.986  30.852  1.00  0.00     0.167 HD
ATOM     51  C   UNL A   1      42.684  28.273  33.694  1.00  0.00     0.037 A 
ATOM     52  C   UNL A   1      37.514  31.387  30.253  1.00  0.00     0.037 A 
ATOM     53  C   UNL A   1      42.074  29.357  34.418  1.00  0.00     0.049 A 
ATOM     54  C   UNL A   1      37.886  31.785  31.659  1.00  0.00     0.074 A 
ATOM     55  C   UNL A   1      42.380  29.852  35.674  1.00  0.00     0.029 A 
ATOM     56  N   UNL A   1      41.009  30.104  33.942  1.00  0.00    -0.354 N 
ATOM     57  N   UNL A   1      38.833  31.319  32.436  1.00  0.00    -0.248 NA
ATOM     58  C   UNL A   1      37.096  32.866  32.267  1.00  0.00     0.031 C 
ATOM     59  C   UNL A   1      41.459  30.861  35.981  1.00  0.00     0.029 A 
ATOM     60  C   UNL A   1      40.632  31.045  34.884  1.00  0.00     0.049 A 
ATOM     61  H   UNL A   1      40.582  29.984  33.063  1.00  0.00     0.167 HD
ATOM     62  C   UNL A   1      38.794  32.089  33.594  1.00  0.00     0.074 A 
ATOM     63  C   UNL A   1      37.728  33.051  33.416  1.00  0.00     0.031 C 
ATOM     64  C   UNL A   1      39.582  32.014  34.696  1.00  0.00     0.037 A 
BRANCH  51  65
ATOM     65  C   UNL A   1      43.728  27.435  34.402  1.00  0.00     0.064 A 
ATOM     66  C   UNL A   1      43.377  26.296  35.150  1.00  0.00     0.173 A 
ATOM     67  C   UNL A   1      45.097  27.741  34.308  1.00  0.00     0.173 A 
ATOM     68  F   UNL A   1      42.090  25.933  35.265  1.00  0.00    -0.203 F 
ATOM     69  C   UNL A   1      44.337  25.546  35.828  1.00  0.00     0.198 A 
ATOM     70  C   UNL A   1      46.060  26.957  34.947  1.00  0.00     0.198 A 
ATOM     71  F   UNL A   1      45.510  28.796  33.590  1.00  0.00    -0.203 F 
ATOM     72  F   UNL A   1      43.956  24.518  36.598  1.00  0.00    -0.200 F 
ATOM     73  C   UNL A   1      45.678  25.873  35.720  1.00  0.00     0.200 A 
ATOM     74  F   UNL A   1      47.360  27.256  34.818  1.00  0.00    -0.200 F 
ATOM     75  F   UNL A   1      46.599  25.146  36.368  1.00  0.00    -0.200 F 
ENDBRANCH  51  65
BRANCH  52  76
ATOM     76  C   UNL A   1      36.394  32.059  29.546  1.00  0.00     0.064 A 
ATOM     77  C   UNL A   1      36.478  33.428  29.252  1.00  0.00     0.173 A 
ATOM     78  C   UNL A   1      35.247  31.370  29.132  1.00  0.00     0.173 A 
ATOM     79  F   UNL A   1      37.555  34.129  29.639  1.00  0.00    -0.203 F 
ATOM     80  C   UNL A   1      35.444  34.091  28.599  1.00  0.00     0.198 A 
ATOM     81  C   UNL A   1      34.224  32.030  28.451  1.00  0.00     0.198 A 
ATOM     82  F   UNL A   1      35.128  30.056  29.369  1.00  0.00    -0.203 F 
ATOM     83  F   UNL A   1      35.534  35.409  28.376  1.00  0.00    -0.200 F 
ATOM     84  C   UNL A   1      34.319  33.390  28.194  1.00  0.00     0.200 A 
ATOM     85  F   UNL A   1      33.145  31.348  28.042  1.00  0.00    -0.200 F 
ATOM     86  F   UNL A   1      33.326  34.027  27.560  1.00  0.00    -0.200 F 
ENDBRANCH  52  76
BRANCH  64  87
ATOM     87  C   UNL A   1      39.381  33.045  35.771  1.00  0.00     0.064 A 
ATOM     88  C   UNL A   1      38.601  32.801  36.911  1.00  0.00     0.173 A 
ATOM     89  C   UNL A   1      40.013  34.297  35.668  1.00  0.00     0.173 A 
ATOM     90  F   UNL A   1      37.969  31.627  37.058  1.00  0.00    -0.203 F 
ATOM     91  C   UNL A   1      38.427  33.783  37.884  1.00  0.00     0.198 A 
ATOM     92  C   UNL A   1      39.870  35.260  36.662  1.00  0.00     0.198 A 
ATOM     93  F   UNL A   1      40.781  34.582  34.605  1.00  0.00    -0.203 F 
ATOM     94  F   UNL A   1      37.623  33.550  38.931  1.00  0.00    -0.200 F 
ATOM     95  C   UNL A   1      39.067  35.007  37.763  1.00  0.00     0.200 A 
ATOM     96  F   UNL A   1      40.509  36.433  36.553  1.00  0.00    -0.200 F 
ATOM     97  F   UNL A   1      38.903  35.947  38.704  1.00  0.00    -0.200 F 
ENDBRANCH  64  87
ENDBRANCH  38  39
ENDBRANCH  31  33
ENDBRANCH  30  31
ENDBRANCH  29  30
ENDBRANCH   1  29
TORSDOF 16
ENDMDL
MODEL 2
REMARK VINA RESULT:     -13.9      0.841      7.232
REMARK SMILES O=C(OCCOCCOC(=O)c1ccc(-c2c3nc(c(-c4c(F)c(F)c(F)c(F)c4F)c4ccc([nH]4)c(-c4c(F)c(F)c(F)c(F)c4F)c4nc(c(-c5c(F)c(F)c(F)c(F)c5F)c5ccc2[nH]5)C=C4)C=C3)cc1)C1=Cc2cc(Cl)cc(-c3ccccc3)c2O[C@@H]1C(F)(F)F
REMARK SMILES IDX 7 1 6 2 5 3 4 4 3 5 2 6 1 7 75 8 76 9 91 10 77 11 90 12
REMARK SMILES IDX 78 13 89 14 79 15 82 16 80 17 81 18 92 19 93 20 94 21 95 22
REMARK SMILES IDX 83 23 84 24 88 25 85 26 87 27 86 28 8 29 9 30 10 31 11 32
REMARK SMILES IDX 12 33 13 34 74 35 14 36 73 37 15 38 16 39 17 40 67 41 18 42
REMARK SMILES IDX 72 43 66 44 68 45 19 46 71 47 65 48 64 49 20 51 52 52 32 53
REMARK SMILES IDX 51 54 33 55 36 56 50 57 69 58 34 59 35 60 49 62 70 63 37 64
REMARK SMILES IDX 21 65 22 66 30 67 23 68 24 69 28 70 31 71 25 72 26 73 29 74
REMARK SMILES IDX 27 75 53 76 54 77 62 78 55 79 56 80 60 81 63 82 57 83 58 84
REMARK SMILES IDX 61 85 59 86 38 87 39 88 47 89 40 90 41 91 45 92 48 93 42 94
REMARK SMILES IDX 43 95 46 96 44 97
REMARK H PARENT 68 50 36 61
REMARK Flexibility Score: inf
ROOT
ATOM      1  C   UNL A   1      40.864  20.558  26.610  1.00  0.00     0.202 C 
ENDROOT
BRANCH   1   2
ATOM      2  O   UNL A   1      40.164  19.689  25.678  1.00  0.00    -0.374 OA
BRANCH   2   3
ATOM      3  C   UNL A   1      38.637  19.726  25.059  1.00  0.00     0.202 C 
BRANCH   3   4
ATOM      4  C   UNL A   1      37.427  21.453  24.519  1.00  0.00     0.261 C 
BRANCH   4   5
ATOM      5  O   UNL A   1      35.863  21.453  24.373  1.00  0.00    -0.460 OA
BRANCH   5   6
ATOM      6  C   UNL A   1      35.382  22.531  23.742  1.00  0.00     0.338 C 
ATOM      7  O   UNL A   1      35.869  23.231  22.893  1.00  0.00    -0.246 OA
BRANCH   6   8
ATOM      8  C   UNL A   1      34.291  22.726  24.659  1.00  0.00     0.087 C 
ATOM      9  C   UNL A   1      34.547  23.857  25.556  1.00  0.00     0.027 C 
ATOM     10  C   UNL A   1      32.858  22.646  23.358  1.00  0.00     0.316 C 
ATOM     11  C   UNL A   1      33.697  25.444  25.426  1.00  0.00     0.019 A 
ATOM     12  O   UNL A   1      31.935  24.359  23.201  1.00  0.00    -0.475 OA
ATOM     13  C   UNL A   1      34.242  26.459  26.166  1.00  0.00     0.032 A 
ATOM     14  C   UNL A   1      32.446  25.779  24.249  1.00  0.00     0.135 A 
ATOM     15  C   UNL A   1      33.777  27.735  25.849  1.00  0.00     0.042 A 
ATOM     16  C   UNL A   1      31.975  27.120  24.085  1.00  0.00     0.026 A 
ATOM     17  Cl  UNL A   1      34.473  29.064  26.719  1.00  0.00    -0.084 Cl
ATOM     18  C   UNL A   1      32.765  28.038  24.861  1.00  0.00     0.033 A 
BRANCH  10  19
ATOM     19  C   UNL A   1      32.395  21.151  23.763  1.00  0.00     0.430 C 
ATOM     20  F   UNL A   1      33.336  20.414  24.389  1.00  0.00    -0.167 F 
ATOM     21  F   UNL A   1      31.384  21.251  24.677  1.00  0.00    -0.167 F 
ATOM     22  F   UNL A   1      31.864  20.419  22.757  1.00  0.00    -0.167 F 
ENDBRANCH  10  19
BRANCH  16  23
ATOM     23  C   UNL A   1      30.773  27.756  23.226  1.00  0.00    -0.015 A 
ATOM     24  C   UNL A   1      29.288  26.952  23.880  1.00  0.00     0.009 A 
ATOM     25  C   UNL A   1      30.456  29.435  22.110  1.00  0.00     0.009 A 
ATOM     26  C   UNL A   1      27.710  27.670  23.570  1.00  0.00     0.001 A 
ATOM     27  C   UNL A   1      28.778  30.050  21.898  1.00  0.00     0.001 A 
ATOM     28  C   UNL A   1      27.471  29.154  22.632  1.00  0.00     0.000 A 
ENDBRANCH  16  23
ENDBRANCH   6   8
ENDBRANCH   5   6
ENDBRANCH   4   5
ENDBRANCH   3   4
ENDBRANCH   2   3
ENDBRANCH   1   2
BRANCH   1  29
ATOM     29  C   UNL A   1      42.274  21.016  26.226  1.00  0.00     0.261 C 
BRANCH  29  30
ATOM     30  O   UNL A   1      42.477  22.312  26.724  1.00  0.00    -0.460 OA
BRANCH  30  31
ATOM     31  C   UNL A   1      42.492  23.201  25.717  1.00  0.00     0.338 C 
ATOM     32  O   UNL A   1      42.926  23.097  24.586  1.00  0.00    -0.246 OA
BRANCH  31  33
ATOM     33  C   UNL A   1      41.798  24.348  26.231  1.00  0.00     0.060 A 
ATOM     34  C   UNL A   1      42.676  25.894  26.316  1.00  0.00     0.016 A 
ATOM     35  C   UNL A   1      40.264  24.155  27.183  1.00  0.00     0.016 A 
ATOM     36  C   UNL A   1      42.146  27.245  27.350  1.00  0.00     0.010 A 
ATOM     37  C   UNL A   1      39.714  25.735  28.329  1.00  0.00     0.010 A 
ATOM     38  C   UNL A   1      40.721  27.202  28.367  1.00  0.00    -0.014 A 
BRANCH  38  39
ATOM     39  C   UNL A   1      40.482  28.078  29.560  1.00  0.00     0.031 A 
ATOM     40  C   UNL A   1      39.389  29.137  29.557  1.00  0.00     0.074 A 
ATOM     41  C   UNL A   1      41.454  28.187  30.481  1.00  0.00     0.049 A 
ATOM     42  N   UNL A   1      39.173  30.142  30.378  1.00  0.00    -0.248 NA
ATOM     43  C   UNL A   1      38.460  29.119  28.426  1.00  0.00     0.031 C 
ATOM     44  C   UNL A   1      42.673  27.387  30.509  1.00  0.00     0.029 A 
ATOM     45  N   UNL A   1      41.595  29.059  31.533  1.00  0.00    -0.354 N 
ATOM     46  C   UNL A   1      38.125  30.880  29.823  1.00  0.00     0.074 A 
ATOM     47  C   UNL A   1      37.833  30.278  28.545  1.00  0.00     0.031 C 
ATOM     48  C   UNL A   1      43.444  27.805  31.527  1.00  0.00     0.029 A 
ATOM     49  C   UNL A   1      42.769  28.897  32.225  1.00  0.00     0.049 A 
ATOM     50  H   UNL A   1      40.919  29.735  31.768  1.00  0.00     0.167 HD
ATOM     51  C   UNL A   1      37.422  31.921  30.340  1.00  0.00     0.037 A 
ATOM     52  C   UNL A   1      43.230  29.539  33.316  1.00  0.00     0.037 A 
ATOM     53  C   UNL A   1      37.693  32.498  31.630  1.00  0.00     0.049 A 
ATOM     54  C   UNL A   1      42.395  30.619  33.955  1.00  0.00     0.074 A 
ATOM     55  C   UNL A   1      36.963  33.435  32.340  1.00  0.00     0.029 A 
ATOM     56  N   UNL A   1      38.807  32.195  32.396  1.00  0.00    -0.354 N 
ATOM     57  N   UNL A   1      41.276  31.164  33.543  1.00  0.00    -0.248 NA
ATOM     58  C   UNL A   1      42.875  31.145  35.242  1.00  0.00     0.031 C 
ATOM     59  C   UNL A   1      37.668  33.742  33.509  1.00  0.00     0.029 A 
ATOM     60  C   UNL A   1      38.796  32.939  33.563  1.00  0.00     0.049 A 
ATOM     61  H   UNL A   1      39.505  31.547  32.147  1.00  0.00     0.167 HD
ATOM     62  C   UNL A   1      40.887  32.046  34.545  1.00  0.00     0.074 A 
ATOM     63  C   UNL A   1      41.891  31.963  35.584  1.00  0.00     0.031 C 
ATOM     64  C   UNL A   1      39.787  32.840  34.604  1.00  0.00     0.037 A 
BRANCH  51  65
ATOM     65  C   UNL A   1      36.257  32.466  29.541  1.00  0.00     0.064 A 
ATOM     66  C   UNL A   1      36.245  33.790  29.063  1.00  0.00     0.173 A 
ATOM     67  C   UNL A   1      35.156  31.658  29.209  1.00  0.00     0.173 A 
ATOM     68  F   UNL A   1      37.274  34.612  29.325  1.00  0.00    -0.203 F 
ATOM     69  C   UNL A   1      35.158  34.300  28.356  1.00  0.00     0.198 A 
ATOM     70  C   UNL A   1      34.091  32.157  28.456  1.00  0.00     0.198 A 
ATOM     71  F   UNL A   1      35.110  30.377  29.605  1.00  0.00    -0.203 F 
ATOM     72  F   UNL A   1      35.145  35.589  27.992  1.00  0.00    -0.200 F 
ATOM     73  C   UNL A   1      34.085  33.481  28.047  1.00  0.00     0.200 A 
ATOM     74  F   UNL A   1      33.066  31.356  28.132  1.00  0.00    -0.200 F 
ATOM     75  F   UNL A   1      33.043  33.971  27.361  1.00  0.00    -0.200 F 
ENDBRANCH  51  65
BRANCH  52  76
ATOM     76  C   UNL A   1      44.477  29.059  33.965  1.00  0.00     0.064 A 
ATOM     77  C   UNL A   1      44.418  28.005  34.889  1.00  0.00     0.173 A 
ATOM     78  C   UNL A   1      45.733  29.605  33.675  1.00  0.00     0.173 A 
ATOM     79  F   UNL A   1      43.233  27.459  35.204  1.00  0.00    -0.203 F 
ATOM     80  C   UNL A   1      45.564  27.536  35.523  1.00  0.00     0.198 A 
ATOM     81  C   UNL A   1      46.886  29.114  34.290  1.00  0.00     0.198 A 
ATOM     82  F   UNL A   1      45.846  30.599  32.783  1.00  0.00    -0.203 F 
ATOM     83  F   UNL A   1      45.468  26.562  36.437  1.00  0.00    -0.200 F 
ATOM     84  C   UNL A   1      46.798  28.088  35.220  1.00  0.00     0.200 A 
ATOM     85  F   UNL A   1      48.081  29.634  33.981  1.00  0.00    -0.200 F 
ATOM     86  F   UNL A   1      47.903  27.632  35.825  1.00  0.00    -0.200 F 
ENDBRANCH  52  76
BRANCH  64  87
ATOM     87  C   UNL A   1      39.562  33.629  35.863  1.00  0.00     0.064 A 
ATOM     88  C   UNL A   1      40.049  34.934  36.030  1.00  0.00     0.173 A 
ATOM     89  C   UNL A   1      38.811  33.073  36.913  1.00  0.00     0.173 A 
ATOM     90  F   UNL A   1      40.778  35.512  35.063  1.00  0.00    -0.203 F 
ATOM     91  C   UNL A   1      39.830  35.634  37.214  1.00  0.00     0.198 A 
ATOM     92  C   UNL A   1      38.559  33.792  38.078  1.00  0.00     0.198 A 
ATOM     93  F   UNL A   1      38.309  31.833  36.804  1.00  0.00    -0.203 F 
ATOM     94  F   UNL A   1      40.363  36.853  37.376  1.00  0.00    -0.200 F 
ATOM     95  C   UNL A   1      39.080  35.067  38.233  1.00  0.00     0.200 A 
ATOM     96  F   UNL A   1      37.814  33.249  39.050  1.00  0.00    -0.200 F 
ATOM     97  F   UNL A   1      38.865  35.746  39.368  1.00  0.00    -0.200 F 
ENDBRANCH  64  87
ENDBRANCH  38  39
ENDBRANCH  31  33
ENDBRANCH  30  31
ENDBRANCH  29  30
ENDBRANCH   1  29
TORSDOF 16
ENDMDL
MODEL 3
REMARK VINA RESULT:     -13.4      8.003     15.138
REMARK SMILES O=C(OCCOCCOC(=O)c1ccc(-c2c3nc(c(-c4c(F)c(F)c(F)c(F)c4F)c4ccc([nH]4)c(-c4c(F)c(F)c(F)c(F)c4F)c4nc(c(-c5c(F)c(F)c(F)c(F)c5F)c5ccc2[nH]5)C=C4)C=C3)cc1)C1=Cc2cc(Cl)cc(-c3ccccc3)c2O[C@@H]1C(F)(F)F
REMARK SMILES IDX 7 1 6 2 5 3 4 4 3 5 2 6 1 7 75 8 76 9 91 10 77 11 90 12
REMARK SMILES IDX 78 13 89 14 79 15 82 16 80 17 81 18 92 19 93 20 94 21 95 22
REMARK SMILES IDX 83 23 84 24 88 25 85 26 87 27 86 28 8 29 9 30 10 31 11 32
REMARK SMILES IDX 12 33 13 34 74 35 14 36 73 37 15 38 16 39 17 40 67 41 18 42
REMARK SMILES IDX 72 43 66 44 68 45 19 46 71 47 65 48 64 49 20 51 52 52 32 53
REMARK SMILES IDX 51 54 33 55 36 56 50 57 69 58 34 59 35 60 49 62 70 63 37 64
REMARK SMILES IDX 21 65 22 66 30 67 23 68 24 69 28 70 31 71 25 72 26 73 29 74
REMARK SMILES IDX 27 75 53 76 54 77 62 78 55 79 56 80 60 81 63 82 57 83 58 84
REMARK SMILES IDX 61 85 59 86 38 87 39 88 47 89 40 90 41 91 45 92 48 93 42 94
REMARK SMILES IDX 43 95 46 96 44 97
REMARK H PARENT 68 50 36 61
REMARK Flexibility Score: inf
ROOT
ATOM      1  C   UNL A   1      48.292  22.770  39.552  1.00  0.00     0.202 C 
ENDROOT
BRANCH   1   2
ATOM      2  O   UNL A   1      47.898  21.488  40.114  1.00  0.00    -0.374 OA
BRANCH   2   3
ATOM      3  C   UNL A   1      47.890  19.960  39.497  1.00  0.00     0.202 C 
BRANCH   3   4
ATOM      4  C   UNL A   1      46.266  18.897  38.513  1.00  0.00     0.261 C 
BRANCH   4   5
ATOM      5  O   UNL A   1      45.298  17.875  39.212  1.00  0.00    -0.460 OA
BRANCH   5   6
ATOM      6  C   UNL A   1      45.851  17.234  40.248  1.00  0.00     0.338 C 
ATOM      7  O   UNL A   1      46.778  16.469  40.300  1.00  0.00    -0.246 OA
BRANCH   6   8
ATOM      8  C   UNL A   1      44.765  17.513  41.150  1.00  0.00     0.087 C 
ATOM      9  C   UNL A   1      43.552  16.789  40.759  1.00  0.00     0.027 C 
ATOM     10  C   UNL A   1      45.738  17.233  42.802  1.00  0.00     0.316 C 
ATOM     11  C   UNL A   1      42.906  15.366  41.662  1.00  0.00     0.019 A 
ATOM     12  O   UNL A   1      45.056  15.690  43.784  1.00  0.00    -0.475 OA
ATOM     13  C   UNL A   1      41.927  14.660  41.014  1.00  0.00     0.032 A 
ATOM     14  C   UNL A   1      43.633  14.734  43.122  1.00  0.00     0.135 A 
ATOM     15  C   UNL A   1      41.636  13.413  41.565  1.00  0.00     0.042 A 
ATOM     16  C   UNL A   1      43.177  13.485  43.652  1.00  0.00     0.026 A 
ATOM     17  Cl  UNL A   1      40.442  12.454  40.753  1.00  0.00    -0.084 Cl
ATOM     18  C   UNL A   1      42.245  12.858  42.755  1.00  0.00     0.033 A 
BRANCH  10  19
ATOM     19  C   UNL A   1      45.883  18.808  43.139  1.00  0.00     0.430 C 
ATOM     20  F   UNL A   1      45.450  19.639  42.168  1.00  0.00    -0.167 F 
ATOM     21  F   UNL A   1      45.079  19.091  44.207  1.00  0.00    -0.167 F 
ATOM     22  F   UNL A   1      47.115  19.202  43.535  1.00  0.00    -0.167 F 
ENDBRANCH  10  19
BRANCH  16  23
ATOM     23  C   UNL A   1      43.508  12.692  45.013  1.00  0.00    -0.015 A 
ATOM     24  C   UNL A   1      44.666  11.397  44.500  1.00  0.00     0.009 A 
ATOM     25  C   UNL A   1      43.416  13.059  47.018  1.00  0.00     0.009 A 
ATOM     26  C   UNL A   1      45.651  10.590  45.716  1.00  0.00     0.001 A 
ATOM     27  C   UNL A   1      44.503  12.155  48.132  1.00  0.00     0.001 A 
ATOM     28  C   UNL A   1      45.578  10.961  47.448  1.00  0.00     0.000 A 
ENDBRANCH  16  23
ENDBRANCH   6   8
ENDBRANCH   5   6
ENDBRANCH   4   5
ENDBRANCH   3   4
ENDBRANCH   2   3
ENDBRANCH   1   2
BRANCH   1  29
ATOM     29  C   UNL A   1      47.242  23.884  39.527  1.00  0.00     0.261 C 
BRANCH  29  30
ATOM     30  O   UNL A   1      47.678  24.894  38.656  1.00  0.00    -0.460 OA
BRANCH  30  31
ATOM     31  C   UNL A   1      46.874  25.966  38.745  1.00  0.00     0.338 C 
ATOM     32  O   UNL A   1      46.729  26.763  39.652  1.00  0.00    -0.246 OA
BRANCH  31  33
ATOM     33  C   UNL A   1      46.222  26.043  37.468  1.00  0.00     0.060 A 
ATOM     34  C   UNL A   1      46.534  27.468  36.450  1.00  0.00     0.016 A 
ATOM     35  C   UNL A   1      44.792  24.989  37.091  1.00  0.00     0.016 A 
ATOM     36  C   UNL A   1      45.462  27.944  35.107  1.00  0.00     0.010 A 
ATOM     37  C   UNL A   1      43.623  25.582  35.545  1.00  0.00     0.010 A 
ATOM     38  C   UNL A   1      44.019  27.067  34.647  1.00  0.00    -0.014 A 
BRANCH  38  39
ATOM     39  C   UNL A   1      42.869  27.638  33.871  1.00  0.00     0.031 A 
ATOM     40  C   UNL A   1      42.754  27.436  32.367  1.00  0.00     0.074 A 
ATOM     41  C   UNL A   1      42.149  28.626  34.425  1.00  0.00     0.049 A 
ATOM     42  N   UNL A   1      41.983  28.034  31.483  1.00  0.00    -0.248 NA
ATOM     43  C   UNL A   1      43.695  26.497  31.755  1.00  0.00     0.031 C 
ATOM     44  C   UNL A   1      42.282  29.087  35.803  1.00  0.00     0.029 A 
ATOM     45  N   UNL A   1      41.206  29.462  33.877  1.00  0.00    -0.354 N 
ATOM     46  C   UNL A   1      42.394  27.569  30.232  1.00  0.00     0.074 A 
ATOM     47  C   UNL A   1      43.551  26.739  30.463  1.00  0.00     0.031 C 
ATOM     48  C   UNL A   1      41.453  30.126  35.996  1.00  0.00     0.029 A 
ATOM     49  C   UNL A   1      40.726  30.398  34.757  1.00  0.00     0.049 A 
ATOM     50  H   UNL A   1      40.904  29.394  32.943  1.00  0.00     0.167 HD
ATOM     51  C   UNL A   1      41.837  27.755  29.006  1.00  0.00     0.037 A 
ATOM     52  C   UNL A   1      39.787  31.349  34.587  1.00  0.00     0.037 A 
ATOM     53  C   UNL A   1      40.663  28.556  28.783  1.00  0.00     0.049 A 
ATOM     54  C   UNL A   1      39.089  31.480  33.258  1.00  0.00     0.074 A 
ATOM     55  C   UNL A   1      39.904  28.695  27.634  1.00  0.00     0.029 A 
ATOM     56  N   UNL A   1      40.089  29.375  29.742  1.00  0.00    -0.354 N 
ATOM     57  N   UNL A   1      39.331  30.870  32.123  1.00  0.00    -0.248 NA
ATOM     58  C   UNL A   1      37.951  32.410  33.202  1.00  0.00     0.031 C 
ATOM     59  C   UNL A   1      38.906  29.644  27.882  1.00  0.00     0.029 A 
ATOM     60  C   UNL A   1      38.997  30.037  29.208  1.00  0.00     0.049 A 
ATOM     61  H   UNL A   1      40.411  29.474  30.667  1.00  0.00     0.167 HD
ATOM     62  C   UNL A   1      38.344  31.292  31.240  1.00  0.00     0.074 A 
ATOM     63  C   UNL A   1      37.499  32.211  31.972  1.00  0.00     0.031 C 
ATOM     64  C   UNL A   1      38.147  30.937  29.945  1.00  0.00     0.037 A 
BRANCH  51  65
ATOM     65  C   UNL A   1      42.452  27.037  27.823  1.00  0.00     0.064 A 
ATOM     66  C   UNL A   1      43.432  27.648  27.018  1.00  0.00     0.173 A 
ATOM     67  C   UNL A   1      42.096  25.715  27.504  1.00  0.00     0.173 A 
ATOM     68  F   UNL A   1      43.835  28.902  27.277  1.00  0.00    -0.203 F 
ATOM     69  C   UNL A   1      43.972  26.998  25.910  1.00  0.00     0.198 A 
ATOM     70  C   UNL A   1      42.677  25.049  26.423  1.00  0.00     0.198 A 
ATOM     71  F   UNL A   1      41.189  25.059  28.243  1.00  0.00    -0.203 F 
ATOM     72  F   UNL A   1      44.839  27.642  25.118  1.00  0.00    -0.200 F 
ATOM     73  C   UNL A   1      43.599  25.697  25.617  1.00  0.00     0.200 A 
ATOM     74  F   UNL A   1      42.338  23.780  26.159  1.00  0.00    -0.200 F 
ATOM     75  F   UNL A   1      44.125  25.072  24.555  1.00  0.00    -0.200 F 
ENDBRANCH  51  65
BRANCH  52  76
ATOM     76  C   UNL A   1      39.339  32.141  35.761  1.00  0.00     0.064 A 
ATOM     77  C   UNL A   1      39.891  33.409  35.996  1.00  0.00     0.173 A 
ATOM     78  C   UNL A   1      38.356  31.682  36.646  1.00  0.00     0.173 A 
ATOM     79  F   UNL A   1      40.843  33.885  35.178  1.00  0.00    -0.203 F 
ATOM     80  C   UNL A   1      39.502  34.175  37.090  1.00  0.00     0.198 A 
ATOM     81  C   UNL A   1      37.945  32.463  37.727  1.00  0.00     0.198 A 
ATOM     82  F   UNL A   1      37.781  30.487  36.454  1.00  0.00    -0.203 F 
ATOM     83  F   UNL A   1      40.083  35.361  37.314  1.00  0.00    -0.200 F 
ATOM     84  C   UNL A   1      38.525  33.704  37.953  1.00  0.00     0.200 A 
ATOM     85  F   UNL A   1      36.987  32.016  38.549  1.00  0.00    -0.200 F 
ATOM     86  F   UNL A   1      38.145  34.443  39.002  1.00  0.00    -0.200 F 
ENDBRANCH  52  76
BRANCH  64  87
ATOM     87  C   UNL A   1      36.929  31.477  29.249  1.00  0.00     0.064 A 
ATOM     88  C   UNL A   1      36.832  32.813  28.834  1.00  0.00     0.173 A 
ATOM     89  C   UNL A   1      35.848  30.625  28.965  1.00  0.00     0.173 A 
ATOM     90  F   UNL A   1      37.830  33.673  29.084  1.00  0.00    -0.203 F 
ATOM     91  C   UNL A   1      35.684  33.285  28.200  1.00  0.00     0.198 A 
ATOM     92  C   UNL A   1      34.721  31.090  28.295  1.00  0.00     0.198 A 
ATOM     93  F   UNL A   1      35.890  29.334  29.328  1.00  0.00    -0.203 F 
ATOM     94  F   UNL A   1      35.588  34.581  27.872  1.00  0.00    -0.200 F 
ATOM     95  C   UNL A   1      34.634  32.422  27.924  1.00  0.00     0.200 A 
ATOM     96  F   UNL A   1      33.718  30.248  28.010  1.00  0.00    -0.200 F 
ATOM     97  F   UNL A   1      33.535  32.877  27.308  1.00  0.00    -0.200 F 
ENDBRANCH  64  87
ENDBRANCH  38  39
ENDBRANCH  31  33
ENDBRANCH  30  31
ENDBRANCH  29  30
ENDBRANCH   1  29
TORSDOF 16
ENDMDL
