MODEL 1
REMARK VINA RESULT:     -12.8      0.000      0.000
REMARK SMILES Cc1ccc(Cl)c(Nc2ccccc2C(=O)N[C@@H](C)C(=O)OCCOCCOC(=O)c2ccc(-c3c4nc(c(-c5c(F)c(F)c(F)c(F)c5F)c5ccc([nH]5)c(-c5c(F)c(F)c(F)c(F)c5F)c5nc(c(-c6c(F)c(F)c(F)c(F)c6F)c6ccc3[nH]6)C=C5)C=C4)cc2)c1Cl
REMARK SMILES IDX 24 1 23 2 22 3 20 4 21 5 18 6 19 7 17 8 15 9 16 10 14 12
REMARK SMILES IDX 9 13 10 14 11 15 13 16 12 17 8 18 7 20 1 21 2 22 3 23 94 24
REMARK SMILES IDX 4 25 95 26 5 27 6 28 25 29 26 30 27 31 28 32 29 33 30 34
REMARK SMILES IDX 31 35 32 36 93 37 33 38 92 39 34 40 35 41 36 42 86 43 37 44
REMARK SMILES IDX 91 45 85 46 87 47 38 48 90 49 84 50 83 51 39 53 71 54 51 55
REMARK SMILES IDX 70 56 52 57 55 58 69 59 88 60 53 61 54 62 68 64 89 65 56 66
REMARK SMILES IDX 40 67 41 68 49 69 42 70 43 71 47 72 50 73 44 74 45 75 48 76
REMARK SMILES IDX 46 77 72 78 73 79 81 80 74 81 75 82 79 83 82 84 76 85 77 86
REMARK SMILES IDX 80 87 78 88 57 89 58 90 66 91 59 92 60 93 64 94 67 95 61 96
REMARK SMILES IDX 62 97 65 98 63 99
REMARK H PARENT 17 11 8 19 87 52 55 63
REMARK Flexibility Score: inf
ROOT
ATOM      1  C   UNL A   1      42.485  19.704  26.193  1.00  0.00     0.202 C 
ENDROOT
BRANCH   1   2
ATOM      2  C   UNL A   1      41.182  20.499  26.640  1.00  0.00     0.261 C 
BRANCH   2   3
ATOM      3  O   UNL A   1      40.317  21.134  25.638  1.00  0.00    -0.462 OA
BRANCH   3   4
ATOM      4  C   UNL A   1      39.221  21.824  26.122  1.00  0.00     0.328 C 
ATOM      5  O   UNL A   1      39.337  22.739  26.939  1.00  0.00    -0.250 OA
BRANCH   4   6
ATOM      6  C   UNL A   1      37.829  21.516  25.414  1.00  0.00     0.189 C 
ATOM      7  C   UNL A   1      37.767  20.041  25.001  1.00  0.00     0.043 C 
BRANCH   6   8
ATOM      8  N   UNL A   1      37.401  22.331  24.281  1.00  0.00    -0.339 N 
ATOM      9  C   UNL A   1      36.237  22.573  23.584  1.00  0.00     0.254 C 
ATOM     10  O   UNL A   1      36.495  23.180  22.527  1.00  0.00    -0.269 OA
ATOM     11  H   UNL A   1      38.151  22.851  23.912  1.00  0.00     0.164 HD
BRANCH   9  12
ATOM     12  C   UNL A   1      34.751  22.305  23.874  1.00  0.00     0.063 A 
ATOM     13  C   UNL A   1      33.523  22.894  23.466  1.00  0.00     0.051 A 
ATOM     14  C   UNL A   1      32.282  22.347  23.927  1.00  0.00     0.027 A 
ATOM     15  C   UNL A   1      32.207  21.204  24.713  1.00  0.00     0.002 A 
ATOM     16  C   UNL A   1      34.610  21.166  24.732  1.00  0.00     0.016 A 
ATOM     17  C   UNL A   1      33.381  20.612  25.122  1.00  0.00     0.001 A 
BRANCH  13  18
ATOM     18  N   UNL A   1      33.321  23.826  22.420  1.00  0.00    -0.352 N 
ATOM     19  H   UNL A   1      33.334  23.494  21.493  1.00  0.00     0.167 HD
BRANCH  18  20
ATOM     20  C   UNL A   1      33.096  25.233  22.637  1.00  0.00     0.077 A 
ATOM     21  C   UNL A   1      31.438  25.657  25.684  1.00  0.00     0.046 C 
ATOM     22  C   UNL A   1      31.875  26.222  24.367  1.00  0.00    -0.030 A 
ATOM     23  C   UNL A   1      31.091  26.919  23.443  1.00  0.00     0.006 A 
ATOM     24  C   UNL A   1      33.076  25.720  23.935  1.00  0.00     0.069 A 
ATOM     25  C   UNL A   1      31.406  26.868  22.085  1.00  0.00     0.023 A 
ATOM     26  Cl  UNL A   1      34.366  25.540  25.072  1.00  0.00    -0.082 Cl
ATOM     27  C   UNL A   1      32.367  25.949  21.675  1.00  0.00     0.066 A 
ATOM     28  Cl  UNL A   1      32.522  25.578  20.000  1.00  0.00    -0.082 Cl
ENDBRANCH  18  20
ENDBRANCH  13  18
ENDBRANCH   9  12
ENDBRANCH   6   8
ENDBRANCH   4   6
ENDBRANCH   3   4
ENDBRANCH   2   3
ENDBRANCH   1   2
BRANCH   1  29
ATOM     29  O   UNL A   1      43.416  20.300  25.288  1.00  0.00    -0.374 OA
BRANCH  29  30
ATOM     30  C   UNL A   1      43.905  21.624  25.608  1.00  0.00     0.202 C 
BRANCH  30  31
ATOM     31  C   UNL A   1      44.131  22.584  24.414  1.00  0.00     0.261 C 
BRANCH  31  32
ATOM     32  O   UNL A   1      43.351  23.761  24.630  1.00  0.00    -0.460 OA
BRANCH  32  33
ATOM     33  C   UNL A   1      43.982  24.871  25.001  1.00  0.00     0.338 C 
ATOM     34  O   UNL A   1      45.089  25.297  24.629  1.00  0.00    -0.246 OA
BRANCH  33  35
ATOM     35  C   UNL A   1      42.996  25.648  25.740  1.00  0.00     0.060 A 
ATOM     36  C   UNL A   1      43.286  27.008  25.918  1.00  0.00     0.016 A 
ATOM     37  C   UNL A   1      41.872  25.073  26.328  1.00  0.00     0.016 A 
ATOM     38  C   UNL A   1      42.467  27.809  26.687  1.00  0.00     0.010 A 
ATOM     39  C   UNL A   1      41.072  25.867  27.155  1.00  0.00     0.010 A 
ATOM     40  C   UNL A   1      41.408  27.218  27.380  1.00  0.00    -0.014 A 
BRANCH  40  41
ATOM     41  C   UNL A   1      40.943  27.930  28.590  1.00  0.00     0.031 A 
ATOM     42  C   UNL A   1      41.773  27.790  29.840  1.00  0.00     0.074 A 
ATOM     43  C   UNL A   1      39.922  28.800  28.556  1.00  0.00     0.049 A 
ATOM     44  N   UNL A   1      41.593  28.318  31.023  1.00  0.00    -0.248 NA
ATOM     45  C   UNL A   1      42.982  26.954  29.733  1.00  0.00     0.031 C 
ATOM     46  C   UNL A   1      39.115  29.120  27.384  1.00  0.00     0.029 A 
ATOM     47  N   UNL A   1      39.404  29.584  29.555  1.00  0.00    -0.354 N 
ATOM     48  C   UNL A   1      42.648  27.861  31.800  1.00  0.00     0.074 A 
ATOM     49  C   UNL A   1      43.459  27.003  30.966  1.00  0.00     0.031 C 
ATOM     50  C   UNL A   1      38.186  30.028  27.736  1.00  0.00     0.029 A 
ATOM     51  C   UNL A   1      38.318  30.321  29.164  1.00  0.00     0.049 A 
ATOM     52  H   UNL A   1      39.778  29.614  30.466  1.00  0.00     0.167 HD
ATOM     53  C   UNL A   1      42.924  28.134  33.095  1.00  0.00     0.037 A 
ATOM     54  C   UNL A   1      37.507  31.117  29.887  1.00  0.00     0.037 A 
ATOM     55  C   UNL A   1      42.134  28.995  33.931  1.00  0.00     0.049 A 
ATOM     56  C   UNL A   1      37.777  31.327  31.357  1.00  0.00     0.074 A 
ATOM     57  C   UNL A   1      42.329  29.318  35.262  1.00  0.00     0.029 A 
ATOM     58  N   UNL A   1      40.998  29.671  33.517  1.00  0.00    -0.354 N 
ATOM     59  N   UNL A   1      38.758  30.871  32.097  1.00  0.00    -0.248 NA
ATOM     60  C   UNL A   1      36.819  32.169  32.090  1.00  0.00     0.031 C 
ATOM     61  C   UNL A   1      41.282  30.151  35.668  1.00  0.00     0.029 A 
ATOM     62  C   UNL A   1      40.469  30.395  34.574  1.00  0.00     0.049 A 
ATOM     63  H   UNL A   1      40.622  29.642  32.608  1.00  0.00     0.167 HD
ATOM     64  C   UNL A   1      38.556  31.399  33.368  1.00  0.00     0.074 A 
ATOM     65  C   UNL A   1      37.366  32.218  33.296  1.00  0.00     0.031 C 
ATOM     66  C   UNL A   1      39.294  31.223  34.492  1.00  0.00     0.037 A 
BRANCH  53  67
ATOM     67  C   UNL A   1      44.112  27.451  33.703  1.00  0.00     0.064 A 
ATOM     68  C   UNL A   1      44.022  26.170  34.268  1.00  0.00     0.173 A 
ATOM     69  C   UNL A   1      45.364  28.081  33.691  1.00  0.00     0.173 A 
ATOM     70  F   UNL A   1      42.841  25.537  34.325  1.00  0.00    -0.203 F 
ATOM     71  C   UNL A   1      45.143  25.554  34.815  1.00  0.00     0.198 A 
ATOM     72  C   UNL A   1      46.488  27.448  34.209  1.00  0.00     0.198 A 
ATOM     73  F   UNL A   1      45.499  29.308  33.164  1.00  0.00    -0.203 F 
ATOM     74  F   UNL A   1      45.029  24.347  35.389  1.00  0.00    -0.200 F 
ATOM     75  C   UNL A   1      46.377  26.188  34.776  1.00  0.00     0.200 A 
ATOM     76  F   UNL A   1      47.680  28.058  34.160  1.00  0.00    -0.200 F 
ATOM     77  F   UNL A   1      47.457  25.586  35.291  1.00  0.00    -0.200 F 
ENDBRANCH  53  67
BRANCH  54  78
ATOM     78  C   UNL A   1      36.332  31.756  29.244  1.00  0.00     0.064 A 
ATOM     79  C   UNL A   1      35.245  30.993  28.796  1.00  0.00     0.173 A 
ATOM     80  C   UNL A   1      36.295  33.140  29.021  1.00  0.00     0.173 A 
ATOM     81  F   UNL A   1      35.250  29.661  28.958  1.00  0.00    -0.203 F 
ATOM     82  C   UNL A   1      34.177  31.588  28.127  1.00  0.00     0.198 A 
ATOM     83  C   UNL A   1      35.213  33.738  28.382  1.00  0.00     0.198 A 
ATOM     84  F   UNL A   1      37.315  33.913  29.425  1.00  0.00    -0.203 F 
ATOM     85  F   UNL A   1      33.179  30.828  27.657  1.00  0.00    -0.200 F 
ATOM     86  C   UNL A   1      34.160  32.959  27.926  1.00  0.00     0.200 A 
ATOM     87  F   UNL A   1      35.197  35.065  28.196  1.00  0.00    -0.200 F 
ATOM     88  F   UNL A   1      33.135  33.531  27.280  1.00  0.00    -0.200 F 
ENDBRANCH  54  78
BRANCH  66  89
ATOM     89  C   UNL A   1      38.877  31.974  35.726  1.00  0.00     0.064 A 
ATOM     90  C   UNL A   1      38.155  31.360  36.760  1.00  0.00     0.173 A 
ATOM     91  C   UNL A   1      39.236  33.321  35.888  1.00  0.00     0.173 A 
ATOM     92  F   UNL A   1      37.777  30.078  36.652  1.00  0.00    -0.203 F 
ATOM     93  C   UNL A   1      37.777  32.078  37.893  1.00  0.00     0.198 A 
ATOM     94  C   UNL A   1      38.884  34.027  37.037  1.00  0.00     0.198 A 
ATOM     95  F   UNL A   1      39.936  33.955  34.936  1.00  0.00    -0.203 F 
ATOM     96  F   UNL A   1      37.040  31.485  38.843  1.00  0.00    -0.200 F 
ATOM     97  C   UNL A   1      38.146  33.407  38.033  1.00  0.00     0.200 A 
ATOM     98  F   UNL A   1      39.256  35.306  37.177  1.00  0.00    -0.200 F 
ATOM     99  F   UNL A   1      37.785  34.094  39.125  1.00  0.00    -0.200 F 
ENDBRANCH  66  89
ENDBRANCH  40  41
ENDBRANCH  33  35
ENDBRANCH  32  33
ENDBRANCH  31  32
ENDBRANCH  30  31
ENDBRANCH  29  30
ENDBRANCH   1  29
TORSDOF 18
ENDMDL
MODEL 2
REMARK VINA RESULT:     -12.8      1.096      2.445
REMARK SMILES Cc1ccc(Cl)c(Nc2ccccc2C(=O)N[C@@H](C)C(=O)OCCOCCOC(=O)c2ccc(-c3c4nc(c(-c5c(F)c(F)c(F)c(F)c5F)c5ccc([nH]5)c(-c5c(F)c(F)c(F)c(F)c5F)c5nc(c(-c6c(F)c(F)c(F)c(F)c6F)c6ccc3[nH]6)C=C5)C=C4)cc2)c1Cl
REMARK SMILES IDX 24 1 23 2 22 3 20 4 21 5 18 6 19 7 17 8 15 9 16 10 14 12
REMARK SMILES IDX 9 13 10 14 11 15 13 16 12 17 8 18 7 20 1 21 2 22 3 23 94 24
REMARK SMILES IDX 4 25 95 26 5 27 6 28 25 29 26 30 27 31 28 32 29 33 30 34
REMARK SMILES IDX 31 35 32 36 93 37 33 38 92 39 34 40 35 41 36 42 86 43 37 44
REMARK SMILES IDX 91 45 85 46 87 47 38 48 90 49 84 50 83 51 39 53 71 54 51 55
REMARK SMILES IDX 70 56 52 57 55 58 69 59 88 60 53 61 54 62 68 64 89 65 56 66
REMARK SMILES IDX 40 67 41 68 49 69 42 70 43 71 47 72 50 73 44 74 45 75 48 76
REMARK SMILES IDX 46 77 72 78 73 79 81 80 74 81 75 82 79 83 82 84 76 85 77 86
REMARK SMILES IDX 80 87 78 88 57 89 58 90 66 91 59 92 60 93 64 94 67 95 61 96
REMARK SMILES IDX 62 97 65 98 63 99
REMARK H PARENT 17 11 8 19 87 52 55 63
REMARK Flexibility Score: inf
ROOT
ATOM      1  C   UNL A   1      40.868  20.079  26.250  1.00  0.00     0.202 C 
ENDROOT
BRANCH   1   2
ATOM      2  C   UNL A   1      39.855  21.283  26.480  1.00  0.00     0.261 C 
BRANCH   2   3
ATOM      3  O   UNL A   1      38.904  21.667  25.429  1.00  0.00    -0.462 OA
BRANCH   3   4
ATOM      4  C   UNL A   1      37.986  22.645  25.761  1.00  0.00     0.328 C 
ATOM      5  O   UNL A   1      38.333  23.741  26.204  1.00  0.00    -0.250 OA
BRANCH   4   6
ATOM      6  C   UNL A   1      36.475  22.362  25.343  1.00  0.00     0.189 C 
ATOM      7  C   UNL A   1      36.291  20.873  25.028  1.00  0.00     0.043 C 
BRANCH   6   8
ATOM      8  N   UNL A   1      35.866  23.140  24.268  1.00  0.00    -0.339 N 
ATOM      9  C   UNL A   1      34.598  23.451  23.830  1.00  0.00     0.254 C 
ATOM     10  O   UNL A   1      34.654  23.958  22.694  1.00  0.00    -0.269 OA
ATOM     11  H   UNL A   1      36.552  23.557  23.697  1.00  0.00     0.164 HD
BRANCH   9  12
ATOM     12  C   UNL A   1      33.201  23.352  24.468  1.00  0.00     0.063 A 
ATOM     13  C   UNL A   1      32.103  24.241  24.629  1.00  0.00     0.051 A 
ATOM     14  C   UNL A   1      30.906  23.785  25.271  1.00  0.00     0.027 A 
ATOM     15  C   UNL A   1      30.729  22.474  25.692  1.00  0.00     0.002 A 
ATOM     16  C   UNL A   1      32.979  22.031  24.975  1.00  0.00     0.016 A 
ATOM     17  C   UNL A   1      31.775  21.591  25.546  1.00  0.00     0.001 A 
BRANCH  13  18
ATOM     18  N   UNL A   1      31.908  25.491  23.997  1.00  0.00    -0.352 N 
ATOM     19  H   UNL A   1      32.133  25.570  23.042  1.00  0.00     0.167 HD
BRANCH  18  20
ATOM     20  C   UNL A   1      31.396  26.657  24.674  1.00  0.00     0.077 A 
ATOM     21  C   UNL A   1      29.659  28.631  22.372  1.00  0.00     0.046 C 
ATOM     22  C   UNL A   1      30.311  28.491  23.713  1.00  0.00    -0.030 A 
ATOM     23  C   UNL A   1      31.225  29.368  24.305  1.00  0.00     0.006 A 
ATOM     24  C   UNL A   1      30.212  27.226  24.234  1.00  0.00     0.069 A 
ATOM     25  C   UNL A   1      32.170  28.882  25.210  1.00  0.00     0.023 A 
ATOM     26  Cl  UNL A   1      28.705  26.385  24.106  1.00  0.00    -0.082 Cl
ATOM     27  C   UNL A   1      32.306  27.503  25.328  1.00  0.00     0.066 A 
ATOM     28  Cl  UNL A   1      33.688  26.855  26.127  1.00  0.00    -0.082 Cl
ENDBRANCH  18  20
ENDBRANCH  13  18
ENDBRANCH   9  12
ENDBRANCH   6   8
ENDBRANCH   4   6
ENDBRANCH   3   4
ENDBRANCH   2   3
ENDBRANCH   1   2
BRANCH   1  29
ATOM     29  O   UNL A   1      42.152  20.319  25.673  1.00  0.00    -0.374 OA
BRANCH  29  30
ATOM     30  C   UNL A   1      42.886  21.478  26.134  1.00  0.00     0.202 C 
BRANCH  30  31
ATOM     31  C   UNL A   1      43.761  22.206  25.083  1.00  0.00     0.261 C 
BRANCH  31  32
ATOM     32  O   UNL A   1      43.148  23.458  24.778  1.00  0.00    -0.460 OA
BRANCH  32  33
ATOM     33  C   UNL A   1      43.824  24.570  25.053  1.00  0.00     0.338 C 
ATOM     34  O   UNL A   1      44.934  24.931  24.626  1.00  0.00    -0.246 OA
BRANCH  33  35
ATOM     35  C   UNL A   1      42.883  25.429  25.759  1.00  0.00     0.060 A 
ATOM     36  C   UNL A   1      43.290  26.755  25.965  1.00  0.00     0.016 A 
ATOM     37  C   UNL A   1      41.684  24.958  26.289  1.00  0.00     0.016 A 
ATOM     38  C   UNL A   1      42.517  27.624  26.708  1.00  0.00     0.010 A 
ATOM     39  C   UNL A   1      40.927  25.817  27.091  1.00  0.00     0.010 A 
ATOM     40  C   UNL A   1      41.377  27.129  27.347  1.00  0.00    -0.014 A 
BRANCH  40  41
ATOM     41  C   UNL A   1      40.927  27.871  28.545  1.00  0.00     0.031 A 
ATOM     42  C   UNL A   1      41.758  27.741  29.795  1.00  0.00     0.074 A 
ATOM     43  C   UNL A   1      39.921  28.757  28.497  1.00  0.00     0.049 A 
ATOM     44  N   UNL A   1      41.590  28.294  30.968  1.00  0.00    -0.248 NA
ATOM     45  C   UNL A   1      42.953  26.883  29.701  1.00  0.00     0.031 C 
ATOM     46  C   UNL A   1      39.115  29.069  27.320  1.00  0.00     0.029 A 
ATOM     47  N   UNL A   1      39.418  29.569  29.482  1.00  0.00    -0.354 N 
ATOM     48  C   UNL A   1      42.639  27.834  31.751  1.00  0.00     0.074 A 
ATOM     49  C   UNL A   1      43.433  26.947  30.931  1.00  0.00     0.031 C 
ATOM     50  C   UNL A   1      38.203  29.998  27.657  1.00  0.00     0.029 A 
ATOM     51  C   UNL A   1      38.343  30.316  29.079  1.00  0.00     0.049 A 
ATOM     52  H   UNL A   1      39.795  29.610  30.391  1.00  0.00     0.167 HD
ATOM     53  C   UNL A   1      42.923  28.127  33.040  1.00  0.00     0.037 A 
ATOM     54  C   UNL A   1      37.548  31.139  29.789  1.00  0.00     0.037 A 
ATOM     55  C   UNL A   1      42.150  29.018  33.862  1.00  0.00     0.049 A 
ATOM     56  C   UNL A   1      37.826  31.372  31.254  1.00  0.00     0.074 A 
ATOM     57  C   UNL A   1      42.354  29.363  35.186  1.00  0.00     0.029 A 
ATOM     58  N   UNL A   1      41.024  29.704  33.437  1.00  0.00    -0.354 N 
ATOM     59  N   UNL A   1      38.801  30.915  32.001  1.00  0.00    -0.248 NA
ATOM     60  C   UNL A   1      36.884  32.244  31.973  1.00  0.00     0.031 C 
ATOM     61  C   UNL A   1      41.323  30.220  35.578  1.00  0.00     0.029 A 
ATOM     62  C   UNL A   1      40.511  30.457  34.481  1.00  0.00     0.049 A 
ATOM     63  H   UNL A   1      40.645  29.665  32.530  1.00  0.00     0.167 HD
ATOM     64  C   UNL A   1      38.612  31.469  33.261  1.00  0.00     0.074 A 
ATOM     65  C   UNL A   1      37.435  32.306  33.177  1.00  0.00     0.031 C 
ATOM     66  C   UNL A   1      39.349  31.303  34.387  1.00  0.00     0.037 A 
BRANCH  53  67
ATOM     67  C   UNL A   1      44.101  27.436  33.658  1.00  0.00     0.064 A 
ATOM     68  C   UNL A   1      45.386  27.996  33.634  1.00  0.00     0.173 A 
ATOM     69  C   UNL A   1      43.929  26.207  34.311  1.00  0.00     0.173 A 
ATOM     70  F   UNL A   1      45.606  29.159  33.001  1.00  0.00    -0.203 F 
ATOM     71  C   UNL A   1      46.460  27.340  34.227  1.00  0.00     0.198 A 
ATOM     72  C   UNL A   1      44.998  25.569  34.929  1.00  0.00     0.198 A 
ATOM     73  F   UNL A   1      42.718  25.630  34.357  1.00  0.00    -0.203 F 
ATOM     74  F   UNL A   1      47.690  27.870  34.156  1.00  0.00    -0.200 F 
ATOM     75  C   UNL A   1      46.264  26.132  34.882  1.00  0.00     0.200 A 
ATOM     76  F   UNL A   1      44.803  24.410  35.571  1.00  0.00    -0.200 F 
ATOM     77  F   UNL A   1      47.298  25.509  35.464  1.00  0.00    -0.200 F 
ENDBRANCH  53  67
BRANCH  54  78
ATOM     78  C   UNL A   1      36.382  31.785  29.137  1.00  0.00     0.064 A 
ATOM     79  C   UNL A   1      36.340  33.172  28.934  1.00  0.00     0.173 A 
ATOM     80  C   UNL A   1      35.265  31.033  28.746  1.00  0.00     0.173 A 
ATOM     81  F   UNL A   1      37.373  33.936  29.320  1.00  0.00    -0.203 F 
ATOM     82  C   UNL A   1      35.214  33.783  28.387  1.00  0.00     0.198 A 
ATOM     83  C   UNL A   1      34.153  31.641  28.171  1.00  0.00     0.198 A 
ATOM     84  F   UNL A   1      35.253  29.704  28.927  1.00  0.00    -0.203 F 
ATOM     85  F   UNL A   1      35.176  35.116  28.259  1.00  0.00    -0.200 F 
ATOM     86  C   UNL A   1      34.124  33.017  28.002  1.00  0.00     0.200 A 
ATOM     87  F   UNL A   1      33.105  30.896  27.793  1.00  0.00    -0.200 F 
ATOM     88  F   UNL A   1      33.040  33.606  27.480  1.00  0.00    -0.200 F 
ENDBRANCH  54  78
BRANCH  66  89
ATOM     89  C   UNL A   1      38.948  32.084  35.607  1.00  0.00     0.064 A 
ATOM     90  C   UNL A   1      39.302  33.431  35.775  1.00  0.00     0.173 A 
ATOM     91  C   UNL A   1      38.168  31.483  36.607  1.00  0.00     0.173 A 
ATOM     92  F   UNL A   1      40.055  34.052  34.855  1.00  0.00    -0.203 F 
ATOM     93  C   UNL A   1      38.921  34.134  36.916  1.00  0.00     0.198 A 
ATOM     94  C   UNL A   1      37.762  32.198  37.731  1.00  0.00     0.198 A 
ATOM     95  F   UNL A   1      37.792  30.200  36.493  1.00  0.00    -0.203 F 
ATOM     96  F   UNL A   1      39.318  35.404  37.081  1.00  0.00    -0.200 F 
ATOM     97  C   UNL A   1      38.148  33.520  37.890  1.00  0.00     0.200 A 
ATOM     98  F   UNL A   1      37.002  31.607  38.662  1.00  0.00    -0.200 F 
ATOM     99  F   UNL A   1      37.780  34.200  38.984  1.00  0.00    -0.200 F 
ENDBRANCH  66  89
ENDBRANCH  40  41
ENDBRANCH  33  35
ENDBRANCH  32  33
ENDBRANCH  31  32
ENDBRANCH  30  31
ENDBRANCH  29  30
ENDBRANCH   1  29
TORSDOF 18
ENDMDL
MODEL 3
REMARK VINA RESULT:     -12.7      1.317      2.464
REMARK SMILES Cc1ccc(Cl)c(Nc2ccccc2C(=O)N[C@@H](C)C(=O)OCCOCCOC(=O)c2ccc(-c3c4nc(c(-c5c(F)c(F)c(F)c(F)c5F)c5ccc([nH]5)c(-c5c(F)c(F)c(F)c(F)c5F)c5nc(c(-c6c(F)c(F)c(F)c(F)c6F)c6ccc3[nH]6)C=C5)C=C4)cc2)c1Cl
REMARK SMILES IDX 24 1 23 2 22 3 20 4 21 5 18 6 19 7 17 8 15 9 16 10 14 12
REMARK SMILES IDX 9 13 10 14 11 15 13 16 12 17 8 18 7 20 1 21 2 22 3 23 94 24
REMARK SMILES IDX 4 25 95 26 5 27 6 28 25 29 26 30 27 31 28 32 29 33 30 34
REMARK SMILES IDX 31 35 32 36 93 37 33 38 92 39 34 40 35 41 36 42 86 43 37 44
REMARK SMILES IDX 91 45 85 46 87 47 38 48 90 49 84 50 83 51 39 53 71 54 51 55
REMARK SMILES IDX 70 56 52 57 55 58 69 59 88 60 53 61 54 62 68 64 89 65 56 66
REMARK SMILES IDX 40 67 41 68 49 69 42 70 43 71 47 72 50 73 44 74 45 75 48 76
REMARK SMILES IDX 46 77 72 78 73 79 81 80 74 81 75 82 79 83 82 84 76 85 77 86
REMARK SMILES IDX 80 87 78 88 57 89 58 90 66 91 59 92 60 93 64 94 67 95 61 96
REMARK SMILES IDX 62 97 65 98 63 99
REMARK H PARENT 17 11 8 19 87 52 55 63
REMARK Flexibility Score: inf
ROOT
ATOM      1  C   UNL A   1      41.478  19.773  26.130  1.00  0.00     0.202 C 
ENDROOT
BRANCH   1   2
ATOM      2  C   UNL A   1      40.352  20.777  26.634  1.00  0.00     0.261 C 
BRANCH   2   3
ATOM      3  O   UNL A   1      39.303  21.238  25.716  1.00  0.00    -0.462 OA
BRANCH   3   4
ATOM      4  C   UNL A   1      38.573  22.340  26.123  1.00  0.00     0.328 C 
ATOM      5  O   UNL A   1      39.093  23.276  26.732  1.00  0.00    -0.250 OA
BRANCH   4   6
ATOM      6  C   UNL A   1      37.079  22.433  25.581  1.00  0.00     0.189 C 
ATOM      7  C   UNL A   1      36.884  23.744  24.810  1.00  0.00     0.043 C 
BRANCH   6   8
ATOM      8  N   UNL A   1      35.963  22.274  26.509  1.00  0.00    -0.339 N 
ATOM      9  C   UNL A   1      34.756  21.612  26.544  1.00  0.00     0.254 C 
ATOM     10  O   UNL A   1      34.071  22.029  27.496  1.00  0.00    -0.269 OA
ATOM     11  H   UNL A   1      36.116  22.779  27.340  1.00  0.00     0.164 HD
BRANCH   9  12
ATOM     12  C   UNL A   1      34.146  20.472  25.710  1.00  0.00     0.063 A 
ATOM     13  C   UNL A   1      32.832  20.119  25.297  1.00  0.00     0.051 A 
ATOM     14  C   UNL A   1      32.630  18.965  24.472  1.00  0.00     0.027 A 
ATOM     15  C   UNL A   1      33.678  18.194  23.985  1.00  0.00     0.002 A 
ATOM     16  C   UNL A   1      35.177  19.605  25.223  1.00  0.00     0.016 A 
ATOM     17  C   UNL A   1      34.961  18.515  24.367  1.00  0.00     0.001 A 
BRANCH  13  18
ATOM     18  N   UNL A   1      31.664  20.914  25.368  1.00  0.00    -0.352 N 
ATOM     19  H   UNL A   1      30.888  20.556  25.856  1.00  0.00     0.167 HD
BRANCH  18  20
ATOM     20  C   UNL A   1      31.549  22.219  24.767  1.00  0.00     0.077 A 
ATOM     21  C   UNL A   1      34.417  22.851  22.874  1.00  0.00     0.046 C 
ATOM     22  C   UNL A   1      33.175  23.361  23.538  1.00  0.00    -0.030 A 
ATOM     23  C   UNL A   1      33.062  24.472  24.380  1.00  0.00     0.006 A 
ATOM     24  C   UNL A   1      32.149  22.452  23.540  1.00  0.00     0.069 A 
ATOM     25  C   UNL A   1      32.071  24.502  25.362  1.00  0.00     0.023 A 
ATOM     26  Cl  UNL A   1      31.840  21.536  22.106  1.00  0.00    -0.082 Cl
ATOM     27  C   UNL A   1      31.366  23.329  25.608  1.00  0.00     0.066 A 
ATOM     28  Cl  UNL A   1      30.415  23.198  27.039  1.00  0.00    -0.082 Cl
ENDBRANCH  18  20
ENDBRANCH  13  18
ENDBRANCH   9  12
ENDBRANCH   6   8
ENDBRANCH   4   6
ENDBRANCH   3   4
ENDBRANCH   2   3
ENDBRANCH   1   2
BRANCH   1  29
ATOM     29  O   UNL A   1      42.617  20.266  25.422  1.00  0.00    -0.374 OA
BRANCH  29  30
ATOM     30  C   UNL A   1      43.203  21.507  25.879  1.00  0.00     0.202 C 
BRANCH  30  31
ATOM     31  C   UNL A   1      43.992  22.327  24.828  1.00  0.00     0.261 C 
BRANCH  31  32
ATOM     32  O   UNL A   1      43.372  23.606  24.698  1.00  0.00    -0.460 OA
BRANCH  32  33
ATOM     33  C   UNL A   1      44.054  24.677  25.096  1.00  0.00     0.338 C 
ATOM     34  O   UNL A   1      45.195  25.040  24.763  1.00  0.00    -0.246 OA
BRANCH  33  35
ATOM     35  C   UNL A   1      43.091  25.505  25.809  1.00  0.00     0.060 A 
ATOM     36  C   UNL A   1      43.447  26.848  25.995  1.00  0.00     0.016 A 
ATOM     37  C   UNL A   1      41.921  24.991  26.365  1.00  0.00     0.016 A 
ATOM     38  C   UNL A   1      42.652  27.693  26.742  1.00  0.00     0.010 A 
ATOM     39  C   UNL A   1      41.143  25.827  27.170  1.00  0.00     0.010 A 
ATOM     40  C   UNL A   1      41.544  27.159  27.406  1.00  0.00    -0.014 A 
BRANCH  40  41
ATOM     41  C   UNL A   1      41.084  27.896  28.604  1.00  0.00     0.031 A 
ATOM     42  C   UNL A   1      41.909  27.764  29.858  1.00  0.00     0.074 A 
ATOM     43  C   UNL A   1      40.075  28.778  28.552  1.00  0.00     0.049 A 
ATOM     44  N   UNL A   1      41.731  28.312  31.032  1.00  0.00    -0.248 NA
ATOM     45  C   UNL A   1      43.107  26.911  29.768  1.00  0.00     0.031 C 
ATOM     46  C   UNL A   1      39.275  29.091  27.372  1.00  0.00     0.029 A 
ATOM     47  N   UNL A   1      39.564  29.584  29.537  1.00  0.00    -0.354 N 
ATOM     48  C   UNL A   1      42.778  27.854  31.819  1.00  0.00     0.074 A 
ATOM     49  C   UNL A   1      43.580  26.973  31.001  1.00  0.00     0.031 C 
ATOM     50  C   UNL A   1      38.357  30.016  27.707  1.00  0.00     0.029 A 
ATOM     51  C   UNL A   1      38.488  30.329  29.131  1.00  0.00     0.049 A 
ATOM     52  H   UNL A   1      39.935  29.624  30.449  1.00  0.00     0.167 HD
ATOM     53  C   UNL A   1      43.053  28.144  33.111  1.00  0.00     0.037 A 
ATOM     54  C   UNL A   1      37.686  31.146  29.840  1.00  0.00     0.037 A 
ATOM     55  C   UNL A   1      42.272  29.028  33.931  1.00  0.00     0.049 A 
ATOM     56  C   UNL A   1      37.954  31.375  31.307  1.00  0.00     0.074 A 
ATOM     57  C   UNL A   1      42.467  29.369  35.258  1.00  0.00     0.029 A 
ATOM     58  N   UNL A   1      41.146  29.712  33.503  1.00  0.00    -0.354 N 
ATOM     59  N   UNL A   1      38.926  30.919  32.057  1.00  0.00    -0.248 NA
ATOM     60  C   UNL A   1      37.005  32.241  32.023  1.00  0.00     0.031 C 
ATOM     61  C   UNL A   1      41.430  30.221  35.647  1.00  0.00     0.029 A 
ATOM     62  C   UNL A   1      40.623  30.459  34.546  1.00  0.00     0.049 A 
ATOM     63  H   UNL A   1      40.773  29.674  32.593  1.00  0.00     0.167 HD
ATOM     64  C   UNL A   1      38.728  31.469  33.319  1.00  0.00     0.074 A 
ATOM     65  C   UNL A   1      37.548  32.302  33.230  1.00  0.00     0.031 C 
ATOM     66  C   UNL A   1      39.459  31.301  34.448  1.00  0.00     0.037 A 
BRANCH  53  67
ATOM     67  C   UNL A   1      44.230  27.455  33.734  1.00  0.00     0.064 A 
ATOM     68  C   UNL A   1      44.113  26.204  34.357  1.00  0.00     0.173 A 
ATOM     69  C   UNL A   1      45.499  28.047  33.676  1.00  0.00     0.173 A 
ATOM     70  F   UNL A   1      42.915  25.608  34.458  1.00  0.00    -0.203 F 
ATOM     71  C   UNL A   1      45.224  25.580  34.916  1.00  0.00     0.198 A 
ATOM     72  C   UNL A   1      46.613  27.407  34.208  1.00  0.00     0.198 A 
ATOM     73  F   UNL A   1      45.661  29.245  33.092  1.00  0.00    -0.203 F 
ATOM     74  F   UNL A   1      45.084  24.405  35.546  1.00  0.00    -0.200 F 
ATOM     75  C   UNL A   1      46.474  26.177  34.833  1.00  0.00     0.200 A 
ATOM     76  F   UNL A   1      47.821  27.979  34.115  1.00  0.00    -0.200 F 
ATOM     77  F   UNL A   1      47.545  25.568  35.360  1.00  0.00    -0.200 F 
ENDBRANCH  53  67
BRANCH  54  78
ATOM     78  C   UNL A   1      36.521  31.791  29.182  1.00  0.00     0.064 A 
ATOM     79  C   UNL A   1      36.486  33.174  28.961  1.00  0.00     0.173 A 
ATOM     80  C   UNL A   1      35.398  31.040  28.806  1.00  0.00     0.173 A 
ATOM     81  F   UNL A   1      37.524  33.938  29.334  1.00  0.00    -0.203 F 
ATOM     82  C   UNL A   1      35.361  33.784  28.410  1.00  0.00     0.198 A 
ATOM     83  C   UNL A   1      34.288  31.646  28.226  1.00  0.00     0.198 A 
ATOM     84  F   UNL A   1      35.380  29.713  29.004  1.00  0.00    -0.203 F 
ATOM     85  F   UNL A   1      35.331  35.116  28.264  1.00  0.00    -0.200 F 
ATOM     86  C   UNL A   1      34.266  33.020  28.039  1.00  0.00     0.200 A 
ATOM     87  F   UNL A   1      33.234  30.902  27.862  1.00  0.00    -0.200 F 
ATOM     88  F   UNL A   1      33.184  33.608  27.513  1.00  0.00    -0.200 F 
ENDBRANCH  54  78
BRANCH  66  89
ATOM     89  C   UNL A   1      39.048  32.076  35.668  1.00  0.00     0.064 A 
ATOM     90  C   UNL A   1      39.407  33.421  35.849  1.00  0.00     0.173 A 
ATOM     91  C   UNL A   1      38.255  31.473  36.656  1.00  0.00     0.173 A 
ATOM     92  F   UNL A   1      40.173  34.043  34.942  1.00  0.00    -0.203 F 
ATOM     93  C   UNL A   1      39.016  34.118  36.990  1.00  0.00     0.198 A 
ATOM     94  C   UNL A   1      37.839  32.183  37.780  1.00  0.00     0.198 A 
ATOM     95  F   UNL A   1      37.873  30.193  36.529  1.00  0.00    -0.203 F 
ATOM     96  F   UNL A   1      39.417  35.385  37.167  1.00  0.00    -0.200 F 
ATOM     97  C   UNL A   1      38.229  33.502  37.951  1.00  0.00     0.200 A 
ATOM     98  F   UNL A   1      37.065  31.590  38.698  1.00  0.00    -0.200 F 
ATOM     99  F   UNL A   1      37.852  34.176  39.045  1.00  0.00    -0.200 F 
ENDBRANCH  66  89
ENDBRANCH  40  41
ENDBRANCH  33  35
ENDBRANCH  32  33
ENDBRANCH  31  32
ENDBRANCH  30  31
ENDBRANCH  29  30
ENDBRANCH   1  29
TORSDOF 18
ENDMDL
