MODEL 1
REMARK VINA RESULT:     -12.1      0.000      0.000
REMARK SMILES Nc1ccc(-c2cc3ccccc3s2)c(C(=O)OCCOCCOC(=O)c2ccc(-c3c4nc(c(-c5c(F)c(F)c(F)c(F)c5F)c5ccc([nH]5)c(-c5c(F)c(F)c(F)c(F)c5F)c5nc(c(-c6c(F)c(F)c(F)c(F)c6F)c6ccc3[nH]6)C=C5)C=C4)cc2)n1
REMARK SMILES IDX 22 1 21 2 20 3 19 4 18 5 16 6 17 7 15 8 2 9 3 10 90 11 4 12
REMARK SMILES IDX 5 13 1 14 6 17 7 18 14 19 8 20 13 21 9 22 12 23 10 24 11 25
REMARK SMILES IDX 23 26 24 27 25 28 26 29 27 30 28 31 89 32 29 33 88 34 30 35
REMARK SMILES IDX 31 36 32 37 82 38 33 39 87 40 81 41 83 42 34 43 86 44 80 45
REMARK SMILES IDX 79 46 35 48 67 49 47 50 66 51 48 52 51 53 65 54 84 55 49 56
REMARK SMILES IDX 50 57 64 59 85 60 52 61 36 62 37 63 45 64 38 65 39 66 43 67
REMARK SMILES IDX 46 68 40 69 41 70 44 71 42 72 68 73 69 74 77 75 70 76 71 77
REMARK SMILES IDX 75 78 78 79 72 80 73 81 76 82 74 83 53 84 54 85 62 86 55 87
REMARK SMILES IDX 56 88 60 89 63 90 57 91 58 92 61 93 59 94
REMARK H PARENT 1 15 1 16 83 47 51 58
REMARK Flexibility Score: inf
ROOT
ATOM      1  C   UNL A   1      41.862  20.648  26.183  1.00  0.00     0.202 C 
ENDROOT
BRANCH   1   2
ATOM      2  O   UNL A   1      40.685  21.268  26.703  1.00  0.00    -0.374 OA
BRANCH   2   3
ATOM      3  C   UNL A   1      39.448  20.989  26.043  1.00  0.00     0.202 C 
BRANCH   3   4
ATOM      4  C   UNL A   1      38.573  22.209  25.751  1.00  0.00     0.261 C 
BRANCH   4   5
ATOM      5  O   UNL A   1      37.193  21.812  25.753  1.00  0.00    -0.458 OA
BRANCH   5   6
ATOM      6  C   UNL A   1      36.525  21.988  24.587  1.00  0.00     0.357 C 
ATOM      7  O   UNL A   1      36.971  22.507  23.572  1.00  0.00    -0.244 OA
BRANCH   6   8
ATOM      8  C   UNL A   1      35.187  21.340  24.682  1.00  0.00     0.159 A 
ATOM      9  C   UNL A   1      34.114  19.286  24.817  1.00  0.00     0.124 A 
ATOM     10  C   UNL A   1      32.879  19.908  24.861  1.00  0.00     0.047 A 
ATOM     11  N   UNL A   1      35.257  19.975  24.732  1.00  0.00    -0.224 NA
ATOM     12  C   UNL A   1      32.817  21.301  24.816  1.00  0.00     0.016 A 
ATOM     13  C   UNL A   1      33.991  22.063  24.741  1.00  0.00     0.025 A 
BRANCH   9  14
ATOM     14  N   UNL A   1      34.225  17.918  24.936  1.00  0.00    -0.384 N 
ATOM     15  H   UNL A   1      33.416  17.357  24.938  1.00  0.00     0.158 HD
ATOM     16  H   UNL A   1      35.113  17.501  25.017  1.00  0.00     0.158 HD
ENDBRANCH   9  14
BRANCH  13  17
ATOM     17  C   UNL A   1      33.918  23.529  24.704  1.00  0.00     0.038 A 
ATOM     18  C   UNL A   1      33.908  24.430  25.751  1.00  0.00     0.029 A 
ATOM     19  S   UNL A   1      33.773  24.340  23.201  1.00  0.00    -0.135 S 
ATOM     20  C   UNL A   1      33.783  25.795  25.328  1.00  0.00    -0.007 A 
ATOM     21  C   UNL A   1      33.731  25.892  23.938  1.00  0.00     0.035 A 
ATOM     22  C   UNL A   1      33.723  26.986  26.088  1.00  0.00     0.009 A 
ATOM     23  C   UNL A   1      33.653  27.138  23.288  1.00  0.00     0.019 A 
ATOM     24  C   UNL A   1      33.652  28.225  25.447  1.00  0.00     0.001 A 
ATOM     25  C   UNL A   1      33.627  28.299  24.062  1.00  0.00     0.001 A 
ENDBRANCH  13  17
ENDBRANCH   6   8
ENDBRANCH   5   6
ENDBRANCH   4   5
ENDBRANCH   3   4
ENDBRANCH   2   3
ENDBRANCH   1   2
BRANCH   1  26
ATOM     26  C   UNL A   1      42.993  21.598  25.769  1.00  0.00     0.261 C 
BRANCH  26  27
ATOM     27  O   UNL A   1      42.531  22.701  24.968  1.00  0.00    -0.460 OA
BRANCH  27  28
ATOM     28  C   UNL A   1      43.307  23.807  25.031  1.00  0.00     0.338 C 
ATOM     29  O   UNL A   1      44.326  24.039  24.391  1.00  0.00    -0.246 OA
BRANCH  28  30
ATOM     30  C   UNL A   1      42.697  24.823  25.907  1.00  0.00     0.060 A 
ATOM     31  C   UNL A   1      43.411  26.010  26.116  1.00  0.00     0.016 A 
ATOM     32  C   UNL A   1      41.509  24.580  26.599  1.00  0.00     0.016 A 
ATOM     33  C   UNL A   1      42.967  26.939  27.055  1.00  0.00     0.010 A 
ATOM     34  C   UNL A   1      41.068  25.511  27.548  1.00  0.00     0.010 A 
ATOM     35  C   UNL A   1      41.813  26.678  27.805  1.00  0.00    -0.014 A 
BRANCH  35  36
ATOM     36  C   UNL A   1      41.455  27.561  28.943  1.00  0.00     0.031 A 
ATOM     37  C   UNL A   1      42.214  27.445  30.235  1.00  0.00     0.074 A 
ATOM     38  C   UNL A   1      40.479  28.479  28.826  1.00  0.00     0.049 A 
ATOM     39  N   UNL A   1      42.033  28.080  31.365  1.00  0.00    -0.248 NA
ATOM     40  C   UNL A   1      43.337  26.495  30.252  1.00  0.00     0.031 C 
ATOM     41  C   UNL A   1      39.720  28.751  27.610  1.00  0.00     0.029 A 
ATOM     42  N   UNL A   1      39.949  29.338  29.756  1.00  0.00    -0.354 N 
ATOM     43  C   UNL A   1      43.027  27.622  32.219  1.00  0.00     0.074 A 
ATOM     44  C   UNL A   1      43.779  26.619  31.495  1.00  0.00     0.031 C 
ATOM     45  C   UNL A   1      38.783  29.675  27.881  1.00  0.00     0.029 A 
ATOM     46  C   UNL A   1      38.862  30.036  29.294  1.00  0.00     0.049 A 
ATOM     47  H   UNL A   1      40.312  29.443  30.665  1.00  0.00     0.167 HD
ATOM     48  C   UNL A   1      43.304  28.021  33.484  1.00  0.00     0.037 A 
ATOM     49  C   UNL A   1      38.004  30.845  29.943  1.00  0.00     0.037 A 
ATOM     50  C   UNL A   1      42.557  29.018  34.207  1.00  0.00     0.049 A 
ATOM     51  C   UNL A   1      38.240  31.166  31.394  1.00  0.00     0.074 A 
ATOM     52  C   UNL A   1      42.788  29.518  35.477  1.00  0.00     0.029 A 
ATOM     53  N   UNL A   1      41.424  29.656  33.726  1.00  0.00    -0.354 N 
ATOM     54  N   UNL A   1      39.204  30.760  32.182  1.00  0.00    -0.248 NA
ATOM     55  C   UNL A   1      37.281  32.074  32.038  1.00  0.00     0.031 C 
ATOM     56  C   UNL A   1      41.764  30.421  35.784  1.00  0.00     0.029 A 
ATOM     57  C   UNL A   1      40.923  30.520  34.687  1.00  0.00     0.049 A 
ATOM     58  H   UNL A   1      41.033  29.517  32.834  1.00  0.00     0.167 HD
ATOM     59  C   UNL A   1      38.999  31.400  33.397  1.00  0.00     0.074 A 
ATOM     60  C   UNL A   1      37.811  32.212  33.246  1.00  0.00     0.031 C 
ATOM     61  C   UNL A   1      39.744  31.332  34.528  1.00  0.00     0.037 A 
BRANCH  48  62
ATOM     62  C   UNL A   1      44.465  27.368  34.173  1.00  0.00     0.064 A 
ATOM     63  C   UNL A   1      44.310  26.184  34.910  1.00  0.00     0.173 A 
ATOM     64  C   UNL A   1      45.752  27.914  34.068  1.00  0.00     0.173 A 
ATOM     65  F   UNL A   1      43.097  25.629  35.049  1.00  0.00    -0.203 F 
ATOM     66  C   UNL A   1      45.400  25.585  35.537  1.00  0.00     0.198 A 
ATOM     67  C   UNL A   1      46.843  27.298  34.676  1.00  0.00     0.198 A 
ATOM     68  F   UNL A   1      45.954  29.042  33.371  1.00  0.00    -0.203 F 
ATOM     69  F   UNL A   1      45.221  24.477  36.271  1.00  0.00    -0.200 F 
ATOM     70  C   UNL A   1      46.665  26.138  35.415  1.00  0.00     0.200 A 
ATOM     71  F   UNL A   1      48.067  27.828  34.548  1.00  0.00    -0.200 F 
ATOM     72  F   UNL A   1      47.712  25.557  36.015  1.00  0.00    -0.200 F 
ENDBRANCH  48  62
BRANCH  49  73
ATOM     73  C   UNL A   1      36.823  31.390  29.228  1.00  0.00     0.064 A 
ATOM     74  C   UNL A   1      36.770  32.731  28.827  1.00  0.00     0.173 A 
ATOM     75  C   UNL A   1      35.719  30.575  28.938  1.00  0.00     0.173 A 
ATOM     76  F   UNL A   1      37.793  33.552  29.102  1.00  0.00    -0.203 F 
ATOM     77  C   UNL A   1      35.647  33.241  28.177  1.00  0.00     0.198 A 
ATOM     78  C   UNL A   1      34.606  31.081  28.269  1.00  0.00     0.198 A 
ATOM     79  F   UNL A   1      35.725  29.282  29.297  1.00  0.00    -0.203 F 
ATOM     80  F   UNL A   1      35.605  34.537  27.837  1.00  0.00    -0.200 F 
ATOM     81  C   UNL A   1      34.570  32.415  27.895  1.00  0.00     0.200 A 
ATOM     82  F   UNL A   1      33.573  30.276  27.988  1.00  0.00    -0.200 F 
ATOM     83  F   UNL A   1      33.493  32.906  27.266  1.00  0.00    -0.200 F 
ENDBRANCH  49  73
BRANCH  61  84
ATOM     84  C   UNL A   1      39.329  32.202  35.679  1.00  0.00     0.064 A 
ATOM     85  C   UNL A   1      39.790  33.519  35.815  1.00  0.00     0.173 A 
ATOM     86  C   UNL A   1      38.431  31.716  36.642  1.00  0.00     0.173 A 
ATOM     87  F   UNL A   1      40.665  34.022  34.931  1.00  0.00    -0.203 F 
ATOM     88  C   UNL A   1      39.384  34.311  36.887  1.00  0.00     0.198 A 
ATOM     89  C   UNL A   1      38.005  32.521  37.696  1.00  0.00     0.198 A 
ATOM     90  F   UNL A   1      37.956  30.464  36.555  1.00  0.00    -0.203 F 
ATOM     91  F   UNL A   1      39.873  35.551  37.022  1.00  0.00    -0.200 F 
ATOM     92  C   UNL A   1      38.488  33.814  37.820  1.00  0.00     0.200 A 
ATOM     93  F   UNL A   1      37.131  32.042  38.591  1.00  0.00    -0.200 F 
ATOM     94  F   UNL A   1      38.095  34.580  38.847  1.00  0.00    -0.200 F 
ENDBRANCH  61  84
ENDBRANCH  35  36
ENDBRANCH  28  30
ENDBRANCH  27  28
ENDBRANCH  26  27
ENDBRANCH   1  26
TORSDOF 16
ENDMDL
MODEL 2
REMARK VINA RESULT:     -11.9      0.427      1.729
REMARK SMILES Nc1ccc(-c2cc3ccccc3s2)c(C(=O)OCCOCCOC(=O)c2ccc(-c3c4nc(c(-c5c(F)c(F)c(F)c(F)c5F)c5ccc([nH]5)c(-c5c(F)c(F)c(F)c(F)c5F)c5nc(c(-c6c(F)c(F)c(F)c(F)c6F)c6ccc3[nH]6)C=C5)C=C4)cc2)n1
REMARK SMILES IDX 22 1 21 2 20 3 19 4 18 5 16 6 17 7 15 8 2 9 3 10 90 11 4 12
REMARK SMILES IDX 5 13 1 14 6 17 7 18 14 19 8 20 13 21 9 22 12 23 10 24 11 25
REMARK SMILES IDX 23 26 24 27 25 28 26 29 27 30 28 31 89 32 29 33 88 34 30 35
REMARK SMILES IDX 31 36 32 37 82 38 33 39 87 40 81 41 83 42 34 43 86 44 80 45
REMARK SMILES IDX 79 46 35 48 67 49 47 50 66 51 48 52 51 53 65 54 84 55 49 56
REMARK SMILES IDX 50 57 64 59 85 60 52 61 36 62 37 63 45 64 38 65 39 66 43 67
REMARK SMILES IDX 46 68 40 69 41 70 44 71 42 72 68 73 69 74 77 75 70 76 71 77
REMARK SMILES IDX 75 78 78 79 72 80 73 81 76 82 74 83 53 84 54 85 62 86 55 87
REMARK SMILES IDX 56 88 60 89 63 90 57 91 58 92 61 93 59 94
REMARK H PARENT 1 15 1 16 83 47 51 58
REMARK Flexibility Score: inf
ROOT
ATOM      1  C   UNL A   1      42.085  20.665  26.462  1.00  0.00     0.202 C 
ENDROOT
BRANCH   1   2
ATOM      2  O   UNL A   1      40.910  21.410  26.788  1.00  0.00    -0.374 OA
BRANCH   2   3
ATOM      3  C   UNL A   1      39.697  21.052  26.122  1.00  0.00     0.202 C 
BRANCH   3   4
ATOM      4  C   UNL A   1      38.705  22.196  25.910  1.00  0.00     0.261 C 
BRANCH   4   5
ATOM      5  O   UNL A   1      37.386  21.655  25.748  1.00  0.00    -0.458 OA
BRANCH   5   6
ATOM      6  C   UNL A   1      36.657  22.166  24.726  1.00  0.00     0.357 C 
ATOM      7  O   UNL A   1      37.027  23.026  23.938  1.00  0.00    -0.244 OA
BRANCH   6   8
ATOM      8  C   UNL A   1      35.364  21.432  24.627  1.00  0.00     0.159 A 
ATOM      9  C   UNL A   1      34.411  19.316  24.670  1.00  0.00     0.124 A 
ATOM     10  C   UNL A   1      33.151  19.854  24.482  1.00  0.00     0.047 A 
ATOM     11  N   UNL A   1      35.509  20.077  24.745  1.00  0.00    -0.224 NA
ATOM     12  C   UNL A   1      33.012  21.238  24.369  1.00  0.00     0.016 A 
ATOM     13  C   UNL A   1      34.134  22.075  24.456  1.00  0.00     0.025 A 
BRANCH   9  14
ATOM     14  N   UNL A   1      34.585  17.963  24.863  1.00  0.00    -0.384 N 
ATOM     15  H   UNL A   1      34.041  17.488  25.533  1.00  0.00     0.158 HD
ATOM     16  H   UNL A   1      35.251  17.471  24.331  1.00  0.00     0.158 HD
ENDBRANCH   9  14
BRANCH  13  17
ATOM     17  C   UNL A   1      33.977  23.531  24.346  1.00  0.00     0.038 A 
ATOM     18  C   UNL A   1      33.863  24.314  23.215  1.00  0.00     0.029 A 
ATOM     19  S   UNL A   1      33.969  24.498  25.761  1.00  0.00    -0.135 S 
ATOM     20  C   UNL A   1      33.767  25.717  23.500  1.00  0.00    -0.007 A 
ATOM     21  C   UNL A   1      33.780  25.958  24.873  1.00  0.00     0.035 A 
ATOM     22  C   UNL A   1      33.653  26.822  22.626  1.00  0.00     0.009 A 
ATOM     23  C   UNL A   1      33.653  27.258  25.396  1.00  0.00     0.019 A 
ATOM     24  C   UNL A   1      33.518  28.114  23.139  1.00  0.00     0.001 A 
ATOM     25  C   UNL A   1      33.510  28.327  24.511  1.00  0.00     0.001 A 
ENDBRANCH  13  17
ENDBRANCH   6   8
ENDBRANCH   5   6
ENDBRANCH   4   5
ENDBRANCH   3   4
ENDBRANCH   2   3
ENDBRANCH   1   2
BRANCH   1  26
ATOM     26  C   UNL A   1      43.139  21.408  25.631  1.00  0.00     0.261 C 
BRANCH  26  27
ATOM     27  O   UNL A   1      42.614  22.579  24.979  1.00  0.00    -0.460 OA
BRANCH  27  28
ATOM     28  C   UNL A   1      43.400  23.675  25.072  1.00  0.00     0.338 C 
ATOM     29  O   UNL A   1      44.445  23.895  24.471  1.00  0.00    -0.246 OA
BRANCH  28  30
ATOM     30  C   UNL A   1      42.771  24.698  25.926  1.00  0.00     0.060 A 
ATOM     31  C   UNL A   1      43.462  25.903  26.111  1.00  0.00     0.016 A 
ATOM     32  C   UNL A   1      41.586  24.448  26.622  1.00  0.00     0.016 A 
ATOM     33  C   UNL A   1      43.000  26.842  27.030  1.00  0.00     0.010 A 
ATOM     34  C   UNL A   1      41.128  25.391  27.550  1.00  0.00     0.010 A 
ATOM     35  C   UNL A   1      41.850  26.577  27.784  1.00  0.00    -0.014 A 
BRANCH  35  36
ATOM     36  C   UNL A   1      41.475  27.477  28.902  1.00  0.00     0.031 A 
ATOM     37  C   UNL A   1      42.239  27.407  30.195  1.00  0.00     0.074 A 
ATOM     38  C   UNL A   1      40.478  28.369  28.767  1.00  0.00     0.049 A 
ATOM     39  N   UNL A   1      42.046  28.063  31.311  1.00  0.00    -0.248 NA
ATOM     40  C   UNL A   1      43.383  26.484  30.229  1.00  0.00     0.031 C 
ATOM     41  C   UNL A   1      39.710  28.595  27.548  1.00  0.00     0.029 A 
ATOM     42  N   UNL A   1      39.930  29.236  29.679  1.00  0.00    -0.354 N 
ATOM     43  C   UNL A   1      43.052  27.648  32.172  1.00  0.00     0.074 A 
ATOM     44  C   UNL A   1      43.825  26.646  31.468  1.00  0.00     0.031 C 
ATOM     45  C   UNL A   1      38.753  29.504  27.800  1.00  0.00     0.029 A 
ATOM     46  C   UNL A   1      38.825  29.899  29.204  1.00  0.00     0.049 A 
ATOM     47  H   UNL A   1      40.292  29.370  30.585  1.00  0.00     0.167 HD
ATOM     48  C   UNL A   1      43.322  28.082  33.427  1.00  0.00     0.037 A 
ATOM     49  C   UNL A   1      37.951  30.702  29.838  1.00  0.00     0.037 A 
ATOM     50  C   UNL A   1      42.555  29.078  34.129  1.00  0.00     0.049 A 
ATOM     51  C   UNL A   1      38.183  31.061  31.280  1.00  0.00     0.074 A 
ATOM     52  C   UNL A   1      42.777  29.611  35.386  1.00  0.00     0.029 A 
ATOM     53  N   UNL A   1      41.406  29.678  33.637  1.00  0.00    -0.354 N 
ATOM     54  N   UNL A   1      39.158  30.695  32.074  1.00  0.00    -0.248 NA
ATOM     55  C   UNL A   1      37.204  31.961  31.906  1.00  0.00     0.031 C 
ATOM     56  C   UNL A   1      41.733  30.497  35.676  1.00  0.00     0.029 A 
ATOM     57  C   UNL A   1      40.887  30.552  34.580  1.00  0.00     0.049 A 
ATOM     58  H   UNL A   1      41.016  29.510  32.749  1.00  0.00     0.167 HD
ATOM     59  C   UNL A   1      38.941  31.357  33.275  1.00  0.00     0.074 A 
ATOM     60  C   UNL A   1      37.733  32.138  33.109  1.00  0.00     0.031 C 
ATOM     61  C   UNL A   1      39.690  31.333  34.405  1.00  0.00     0.037 A 
BRANCH  48  62
ATOM     62  C   UNL A   1      44.500  27.472  34.127  1.00  0.00     0.064 A 
ATOM     63  C   UNL A   1      44.379  26.290  34.874  1.00  0.00     0.173 A 
ATOM     64  C   UNL A   1      45.770  28.056  34.023  1.00  0.00     0.173 A 
ATOM     65  F   UNL A   1      43.182  25.699  35.013  1.00  0.00    -0.203 F 
ATOM     66  C   UNL A   1      45.483  25.730  35.511  1.00  0.00     0.198 A 
ATOM     67  C   UNL A   1      46.877  27.480  34.641  1.00  0.00     0.198 A 
ATOM     68  F   UNL A   1      45.940  29.184  33.317  1.00  0.00    -0.203 F 
ATOM     69  F   UNL A   1      45.335  24.625  36.255  1.00  0.00    -0.200 F 
ATOM     70  C   UNL A   1      46.731  26.322  35.391  1.00  0.00     0.200 A 
ATOM     71  F   UNL A   1      48.084  28.047  34.514  1.00  0.00    -0.200 F 
ATOM     72  F   UNL A   1      47.793  25.779  36.001  1.00  0.00    -0.200 F 
ENDBRANCH  48  62
BRANCH  49  73
ATOM     73  C   UNL A   1      36.756  31.203  29.113  1.00  0.00     0.064 A 
ATOM     74  C   UNL A   1      35.689  30.354  28.792  1.00  0.00     0.173 A 
ATOM     75  C   UNL A   1      36.666  32.547  28.721  1.00  0.00     0.173 A 
ATOM     76  F   UNL A   1      35.743  29.058  29.128  1.00  0.00    -0.203 F 
ATOM     77  C   UNL A   1      34.582  30.828  28.090  1.00  0.00     0.198 A 
ATOM     78  C   UNL A   1      35.549  33.024  28.038  1.00  0.00     0.198 A 
ATOM     79  F   UNL A   1      37.659  33.401  29.010  1.00  0.00    -0.203 F 
ATOM     80  F   UNL A   1      33.592  29.988  27.762  1.00  0.00    -0.200 F 
ATOM     81  C   UNL A   1      34.511  32.162  27.718  1.00  0.00     0.200 A 
ATOM     82  F   UNL A   1      35.479  34.317  27.692  1.00  0.00    -0.200 F 
ATOM     83  F   UNL A   1      33.445  32.617  27.046  1.00  0.00    -0.200 F 
ENDBRANCH  49  73
BRANCH  61  84
ATOM     84  C   UNL A   1      39.257  32.218  35.537  1.00  0.00     0.064 A 
ATOM     85  C   UNL A   1      38.429  31.749  36.568  1.00  0.00     0.173 A 
ATOM     86  C   UNL A   1      39.704  33.547  35.605  1.00  0.00     0.173 A 
ATOM     87  F   UNL A   1      37.960  30.493  36.537  1.00  0.00    -0.203 F 
ATOM     88  C   UNL A   1      38.048  32.587  37.614  1.00  0.00     0.198 A 
ATOM     89  C   UNL A   1      39.344  34.371  36.668  1.00  0.00     0.198 A 
ATOM     90  F   UNL A   1      40.501  34.042  34.647  1.00  0.00    -0.203 F 
ATOM     91  F   UNL A   1      37.219  32.132  38.564  1.00  0.00    -0.200 F 
ATOM     92  C   UNL A   1      38.511  33.892  37.667  1.00  0.00     0.200 A 
ATOM     93  F   UNL A   1      39.801  35.630  36.722  1.00  0.00    -0.200 F 
ATOM     94  F   UNL A   1      38.146  34.693  38.677  1.00  0.00    -0.200 F 
ENDBRANCH  61  84
ENDBRANCH  35  36
ENDBRANCH  28  30
ENDBRANCH  27  28
ENDBRANCH  26  27
ENDBRANCH   1  26
TORSDOF 16
ENDMDL
MODEL 3
REMARK VINA RESULT:     -11.9      3.293      8.054
REMARK SMILES Nc1ccc(-c2cc3ccccc3s2)c(C(=O)OCCOCCOC(=O)c2ccc(-c3c4nc(c(-c5c(F)c(F)c(F)c(F)c5F)c5ccc([nH]5)c(-c5c(F)c(F)c(F)c(F)c5F)c5nc(c(-c6c(F)c(F)c(F)c(F)c6F)c6ccc3[nH]6)C=C5)C=C4)cc2)n1
REMARK SMILES IDX 22 1 21 2 20 3 19 4 18 5 16 6 17 7 15 8 2 9 3 10 90 11 4 12
REMARK SMILES IDX 5 13 1 14 6 17 7 18 14 19 8 20 13 21 9 22 12 23 10 24 11 25
REMARK SMILES IDX 23 26 24 27 25 28 26 29 27 30 28 31 89 32 29 33 88 34 30 35
REMARK SMILES IDX 31 36 32 37 82 38 33 39 87 40 81 41 83 42 34 43 86 44 80 45
REMARK SMILES IDX 79 46 35 48 67 49 47 50 66 51 48 52 51 53 65 54 84 55 49 56
REMARK SMILES IDX 50 57 64 59 85 60 52 61 36 62 37 63 45 64 38 65 39 66 43 67
REMARK SMILES IDX 46 68 40 69 41 70 44 71 42 72 68 73 69 74 77 75 70 76 71 77
REMARK SMILES IDX 75 78 78 79 72 80 73 81 76 82 74 83 53 84 54 85 62 86 55 87
REMARK SMILES IDX 56 88 60 89 63 90 57 91 58 92 61 93 59 94
REMARK H PARENT 1 15 1 16 83 47 51 58
REMARK Flexibility Score: inf
ROOT
ATOM      1  C   UNL A   1      32.111  29.126  25.056  1.00  0.00     0.202 C 
ENDROOT
BRANCH   1   2
ATOM      2  O   UNL A   1      32.330  29.249  23.650  1.00  0.00    -0.374 OA
BRANCH   2   3
ATOM      3  C   UNL A   1      33.627  28.912  23.154  1.00  0.00     0.202 C 
BRANCH   3   4
ATOM      4  C   UNL A   1      33.648  27.880  22.025  1.00  0.00     0.261 C 
BRANCH   4   5
ATOM      5  O   UNL A   1      33.979  26.593  22.568  1.00  0.00    -0.458 OA
BRANCH   5   6
ATOM      6  C   UNL A   1      33.088  25.601  22.322  1.00  0.00     0.357 C 
ATOM      7  O   UNL A   1      33.091  24.854  21.353  1.00  0.00    -0.244 OA
BRANCH   6   8
ATOM      8  C   UNL A   1      32.162  25.471  23.482  1.00  0.00     0.159 A 
ATOM      9  C   UNL A   1      30.040  26.021  24.247  1.00  0.00     0.124 A 
ATOM     10  C   UNL A   1      30.281  25.379  25.448  1.00  0.00     0.047 A 
ATOM     11  N   UNL A   1      30.952  26.074  23.270  1.00  0.00    -0.224 NA
ATOM     12  C   UNL A   1      31.515  24.762  25.654  1.00  0.00     0.016 A 
ATOM     13  C   UNL A   1      32.496  24.780  24.652  1.00  0.00     0.025 A 
BRANCH   9  14
ATOM     14  N   UNL A   1      28.810  26.578  23.972  1.00  0.00    -0.384 N 
ATOM     15  H   UNL A   1      28.493  27.352  24.492  1.00  0.00     0.158 HD
ATOM     16  H   UNL A   1      28.248  26.202  23.256  1.00  0.00     0.158 HD
ENDBRANCH   9  14
BRANCH  13  17
ATOM     17  C   UNL A   1      33.788  24.119  24.873  1.00  0.00     0.038 A 
ATOM     18  C   UNL A   1      34.940  24.621  25.445  1.00  0.00     0.029 A 
ATOM     19  S   UNL A   1      34.024  22.507  24.340  1.00  0.00    -0.135 S 
ATOM     20  C   UNL A   1      36.027  23.686  25.453  1.00  0.00    -0.007 A 
ATOM     21  C   UNL A   1      35.649  22.463  24.900  1.00  0.00     0.035 A 
ATOM     22  C   UNL A   1      37.351  23.826  25.930  1.00  0.00     0.009 A 
ATOM     23  C   UNL A   1      36.537  21.374  24.840  1.00  0.00     0.019 A 
ATOM     24  C   UNL A   1      38.234  22.746  25.879  1.00  0.00     0.001 A 
ATOM     25  C   UNL A   1      37.828  21.530  25.347  1.00  0.00     0.001 A 
ENDBRANCH  13  17
ENDBRANCH   6   8
ENDBRANCH   5   6
ENDBRANCH   4   5
ENDBRANCH   3   4
ENDBRANCH   2   3
ENDBRANCH   1   2
BRANCH   1  26
ATOM     26  C   UNL A   1      31.800  30.430  25.802  1.00  0.00     0.261 C 
BRANCH  26  27
ATOM     27  O   UNL A   1      32.431  30.500  27.094  1.00  0.00    -0.460 OA
BRANCH  27  28
ATOM     28  C   UNL A   1      33.162  31.618  27.304  1.00  0.00     0.338 C 
ATOM     29  O   UNL A   1      32.777  32.780  27.245  1.00  0.00    -0.246 OA
BRANCH  28  30
ATOM     30  C   UNL A   1      34.518  31.276  27.766  1.00  0.00     0.060 A 
ATOM     31  C   UNL A   1      34.776  29.936  28.083  1.00  0.00     0.016 A 
ATOM     32  C   UNL A   1      35.488  32.256  27.991  1.00  0.00     0.016 A 
ATOM     33  C   UNL A   1      35.986  29.577  28.675  1.00  0.00     0.010 A 
ATOM     34  C   UNL A   1      36.699  31.893  28.592  1.00  0.00     0.010 A 
ATOM     35  C   UNL A   1      36.940  30.558  28.968  1.00  0.00    -0.014 A 
BRANCH  35  36
ATOM     36  C   UNL A   1      38.133  30.211  29.780  1.00  0.00     0.031 A 
ATOM     37  C   UNL A   1      39.112  29.197  29.257  1.00  0.00     0.074 A 
ATOM     38  C   UNL A   1      38.362  30.806  30.963  1.00  0.00     0.049 A 
ATOM     39  N   UNL A   1      40.188  28.712  29.823  1.00  0.00    -0.248 NA
ATOM     40  C   UNL A   1      38.851  28.669  27.909  1.00  0.00     0.031 C 
ATOM     41  C   UNL A   1      37.539  31.859  31.549  1.00  0.00     0.029 A 
ATOM     42  N   UNL A   1      39.349  30.591  31.892  1.00  0.00    -0.354 N 
ATOM     43  C   UNL A   1      40.742  27.839  28.897  1.00  0.00     0.074 A 
ATOM     44  C   UNL A   1      39.858  27.821  27.750  1.00  0.00     0.031 C 
ATOM     45  C   UNL A   1      38.024  32.163  32.765  1.00  0.00     0.029 A 
ATOM     46  C   UNL A   1      39.172  31.307  33.050  1.00  0.00     0.049 A 
ATOM     47  H   UNL A   1      40.109  29.983  31.743  1.00  0.00     0.167 HD
ATOM     48  C   UNL A   1      41.897  27.136  28.984  1.00  0.00     0.037 A 
ATOM     49  C   UNL A   1      39.836  31.251  34.220  1.00  0.00     0.037 A 
ATOM     50  C   UNL A   1      42.778  27.152  30.123  1.00  0.00     0.049 A 
ATOM     51  C   UNL A   1      41.035  30.353  34.351  1.00  0.00     0.074 A 
ATOM     52  C   UNL A   1      43.990  26.505  30.285  1.00  0.00     0.029 A 
ATOM     53  N   UNL A   1      42.530  27.840  31.301  1.00  0.00    -0.354 N 
ATOM     54  N   UNL A   1      41.574  29.561  33.458  1.00  0.00    -0.248 NA
ATOM     55  C   UNL A   1      41.729  30.357  35.647  1.00  0.00     0.031 C 
ATOM     56  C   UNL A   1      44.452  26.760  31.582  1.00  0.00     0.029 A 
ATOM     57  C   UNL A   1      43.551  27.606  32.209  1.00  0.00     0.049 A 
ATOM     58  H   UNL A   1      41.746  28.411  31.468  1.00  0.00     0.167 HD
ATOM     59  C   UNL A   1      42.697  29.012  34.062  1.00  0.00     0.074 A 
ATOM     60  C   UNL A   1      42.755  29.551  35.404  1.00  0.00     0.031 C 
ATOM     61  C   UNL A   1      43.607  28.153  33.541  1.00  0.00     0.037 A 
BRANCH  48  62
ATOM     62  C   UNL A   1      42.271  26.280  27.811  1.00  0.00     0.064 A 
ATOM     63  C   UNL A   1      43.201  26.712  26.853  1.00  0.00     0.173 A 
ATOM     64  C   UNL A   1      41.719  24.999  27.661  1.00  0.00     0.173 A 
ATOM     65  F   UNL A   1      43.749  27.933  26.947  1.00  0.00    -0.203 F 
ATOM     66  C   UNL A   1      43.546  25.901  25.775  1.00  0.00     0.198 A 
ATOM     67  C   UNL A   1      42.085  24.182  26.594  1.00  0.00     0.198 A 
ATOM     68  F   UNL A   1      40.829  24.537  28.552  1.00  0.00    -0.203 F 
ATOM     69  F   UNL A   1      44.404  26.352  24.849  1.00  0.00    -0.200 F 
ATOM     70  C   UNL A   1      42.993  24.636  25.649  1.00  0.00     0.200 A 
ATOM     71  F   UNL A   1      41.558  22.955  26.481  1.00  0.00    -0.200 F 
ATOM     72  F   UNL A   1      43.329  23.857  24.613  1.00  0.00    -0.200 F 
ENDBRANCH  48  62
BRANCH  49  73
ATOM     73  C   UNL A   1      39.362  32.059  35.372  1.00  0.00     0.064 A 
ATOM     74  C   UNL A   1      39.754  33.394  35.536  1.00  0.00     0.173 A 
ATOM     75  C   UNL A   1      38.510  31.502  36.337  1.00  0.00     0.173 A 
ATOM     76  F   UNL A   1      40.584  33.960  34.649  1.00  0.00    -0.203 F 
ATOM     77  C   UNL A   1      39.324  34.138  36.633  1.00  0.00     0.198 A 
ATOM     78  C   UNL A   1      38.064  32.254  37.423  1.00  0.00     0.198 A 
ATOM     79  F   UNL A   1      38.103  30.230  36.222  1.00  0.00    -0.203 F 
ATOM     80  F   UNL A   1      39.743  35.401  36.787  1.00  0.00    -0.200 F 
ATOM     81  C   UNL A   1      38.477  33.569  37.572  1.00  0.00     0.200 A 
ATOM     82  F   UNL A   1      37.236  31.704  38.321  1.00  0.00    -0.200 F 
ATOM     83  F   UNL A   1      38.062  34.286  38.625  1.00  0.00    -0.200 F 
ENDBRANCH  49  73
BRANCH  61  84
ATOM     84  C   UNL A   1      44.778  27.782  34.404  1.00  0.00     0.064 A 
ATOM     85  C   UNL A   1      45.948  28.553  34.432  1.00  0.00     0.173 A 
ATOM     86  C   UNL A   1      44.712  26.655  35.237  1.00  0.00     0.173 A 
ATOM     87  F   UNL A   1      46.067  29.629  33.640  1.00  0.00    -0.203 F 
ATOM     88  C   UNL A   1      47.019  28.195  35.248  1.00  0.00     0.198 A 
ATOM     89  C   UNL A   1      45.773  26.317  36.072  1.00  0.00     0.198 A 
ATOM     90  F   UNL A   1      43.612  25.886  35.250  1.00  0.00    -0.203 F 
ATOM     91  F   UNL A   1      48.146  28.920  35.226  1.00  0.00    -0.200 F 
ATOM     92  C   UNL A   1      46.928  27.084  36.072  1.00  0.00     0.200 A 
ATOM     93  F   UNL A   1      45.679  25.248  36.874  1.00  0.00    -0.200 F 
ATOM     94  F   UNL A   1      47.958  26.745  36.859  1.00  0.00    -0.200 F 
ENDBRANCH  61  84
ENDBRANCH  35  36
ENDBRANCH  28  30
ENDBRANCH  27  28
ENDBRANCH  26  27
ENDBRANCH   1  26
TORSDOF 16
ENDMDL
