MODEL 1
REMARK VINA RESULT:     -12.1      0.000      0.000
REMARK SMILES COc1cccc(/C=C2/C(=O)N(c3cccc(C(=O)OCCOCCOC(=O)c4ccc(-c5c6nc(c(-c7c(F)c(F)c(F)c(F)c7F)c7ccc([nH]7)c(-c7c(F)c(F)c(F)c(F)c7F)c7nc(c(-c8c(F)c(F)c(F)c(F)c8F)c8ccc5[nH]8)C=C7)C=C6)cc4)c3)N=C2C)c1
REMARK SMILES IDX 22 1 21 2 20 3 18 4 19 5 17 6 13 7 14 8 92 9 15 10 16 11
REMARK SMILES IDX 12 12 8 13 9 14 10 15 94 16 11 17 93 18 95 19 7 20 3 21 4 22
REMARK SMILES IDX 96 23 5 24 6 25 2 26 1 27 23 28 24 29 25 30 26 31 27 32
REMARK SMILES IDX 28 33 29 34 30 35 91 36 31 37 90 38 32 39 33 40 34 41 84 42
REMARK SMILES IDX 35 43 89 44 83 45 85 46 36 47 88 48 82 49 81 50 37 52 69 53
REMARK SMILES IDX 49 54 68 55 50 56 53 57 67 58 86 59 51 60 52 61 66 63 87 64
REMARK SMILES IDX 54 65 38 66 39 67 47 68 40 69 41 70 45 71 48 72 42 73 43 74
REMARK SMILES IDX 46 75 44 76 70 77 71 78 79 79 72 80 73 81 77 82 80 83 74 84
REMARK SMILES IDX 75 85 78 86 76 87 55 88 56 89 64 90 57 91 58 92 62 93 65 94
REMARK SMILES IDX 59 95 60 96 63 97 61 98
REMARK H PARENT 85 51 53 62
REMARK Flexibility Score: inf
ROOT
ATOM      1  C   UNL A   1      30.540  29.286  23.396  1.00  0.00     0.202 C 
ENDROOT
BRANCH   1   2
ATOM      2  C   UNL A   1      30.983  27.830  23.206  1.00  0.00     0.261 C 
BRANCH   2   3
ATOM      3  O   UNL A   1      31.966  27.695  22.167  1.00  0.00    -0.460 OA
BRANCH   3   4
ATOM      4  C   UNL A   1      33.251  27.879  22.563  1.00  0.00     0.338 C 
ATOM      5  O   UNL A   1      34.008  28.770  22.216  1.00  0.00    -0.246 OA
BRANCH   4   6
ATOM      6  C   UNL A   1      33.554  26.954  23.678  1.00  0.00     0.062 A 
ATOM      7  C   UNL A   1      33.657  24.734  24.644  1.00  0.00     0.070 A 
ATOM      8  C   UNL A   1      33.908  25.315  25.897  1.00  0.00     0.028 A 
ATOM      9  C   UNL A   1      33.467  25.565  23.532  1.00  0.00     0.044 A 
ATOM     10  C   UNL A   1      34.035  26.699  26.032  1.00  0.00     0.003 A 
ATOM     11  C   UNL A   1      33.865  27.518  24.921  1.00  0.00     0.016 A 
BRANCH   7  12
ATOM     12  N   UNL A   1      33.610  23.331  24.520  1.00  0.00    -0.196 N 
ATOM     13  C   UNL A   1      32.297  20.139  23.787  1.00  0.00     0.024 C 
ATOM     14  C   UNL A   1      33.044  21.182  24.169  1.00  0.00     0.065 C 
ATOM     15  C   UNL A   1      32.508  22.562  24.137  1.00  0.00     0.280 C 
ATOM     16  C   UNL A   1      34.432  21.340  24.646  1.00  0.00     0.071 C 
ATOM     17  O   UNL A   1      31.373  22.881  23.818  1.00  0.00    -0.267 OA
ATOM     18  N   UNL A   1      34.755  22.597  24.810  1.00  0.00    -0.169 NA
ATOM     19  C   UNL A   1      35.378  20.226  24.949  1.00  0.00     0.069 C 
BRANCH  13  20
ATOM     20  C   UNL A   1      32.718  18.743  23.832  1.00  0.00    -0.021 A 
ATOM     21  C   UNL A   1      32.862  16.657  25.059  1.00  0.00     0.119 A 
ATOM     22  C   UNL A   1      33.622  16.118  24.021  1.00  0.00     0.046 A 
ATOM     23  C   UNL A   1      32.396  17.966  24.953  1.00  0.00     0.054 A 
ATOM     24  C   UNL A   1      33.899  16.868  22.876  1.00  0.00     0.004 A 
ATOM     25  C   UNL A   1      33.450  18.185  22.782  1.00  0.00     0.008 A 
BRANCH  21  26
ATOM     26  O   UNL A   1      32.682  15.839  26.139  1.00  0.00    -0.497 OA
ATOM     27  C   UNL A   1      32.463  14.460  25.862  1.00  0.00     0.278 C 
ENDBRANCH  21  26
ENDBRANCH  13  20
ENDBRANCH   7  12
ENDBRANCH   4   6
ENDBRANCH   3   4
ENDBRANCH   2   3
ENDBRANCH   1   2
BRANCH   1  28
ATOM     28  O   UNL A   1      31.055  29.992  24.523  1.00  0.00    -0.374 OA
BRANCH  28  29
ATOM     29  C   UNL A   1      31.177  29.276  25.750  1.00  0.00     0.202 C 
BRANCH  29  30
ATOM     30  C   UNL A   1      31.959  29.943  26.890  1.00  0.00     0.261 C 
BRANCH  30  31
ATOM     31  O   UNL A   1      33.125  30.649  26.432  1.00  0.00    -0.460 OA
BRANCH  31  32
ATOM     32  C   UNL A   1      33.560  31.621  27.270  1.00  0.00     0.338 C 
ATOM     33  O   UNL A   1      32.943  32.594  27.665  1.00  0.00    -0.246 OA
BRANCH  32  34
ATOM     34  C   UNL A   1      34.883  31.257  27.810  1.00  0.00     0.060 A 
ATOM     35  C   UNL A   1      35.093  29.920  28.169  1.00  0.00     0.016 A 
ATOM     36  C   UNL A   1      35.871  32.218  28.031  1.00  0.00     0.016 A 
ATOM     37  C   UNL A   1      36.281  29.545  28.793  1.00  0.00     0.010 A 
ATOM     38  C   UNL A   1      37.061  31.839  28.662  1.00  0.00     0.010 A 
ATOM     39  C   UNL A   1      37.258  30.508  29.073  1.00  0.00    -0.014 A 
BRANCH  39  40
ATOM     40  C   UNL A   1      38.437  30.144  29.898  1.00  0.00     0.031 A 
ATOM     41  C   UNL A   1      39.447  29.174  29.352  1.00  0.00     0.074 A 
ATOM     42  C   UNL A   1      38.612  30.687  31.116  1.00  0.00     0.049 A 
ATOM     43  N   UNL A   1      40.515  28.675  29.923  1.00  0.00    -0.248 NA
ATOM     44  C   UNL A   1      39.222  28.697  27.979  1.00  0.00     0.031 C 
ATOM     45  C   UNL A   1      37.721  31.664  31.738  1.00  0.00     0.029 A 
ATOM     46  N   UNL A   1      39.596  30.483  32.052  1.00  0.00    -0.354 N 
ATOM     47  C   UNL A   1      41.079  27.818  28.986  1.00  0.00     0.074 A 
ATOM     48  C   UNL A   1      40.221  27.841  27.821  1.00  0.00     0.031 C 
ATOM     49  C   UNL A   1      38.191  31.966  32.960  1.00  0.00     0.029 A 
ATOM     50  C   UNL A   1      39.392  31.175  33.220  1.00  0.00     0.049 A 
ATOM     51  H   UNL A   1      40.372  29.897  31.900  1.00  0.00     0.167 HD
ATOM     52  C   UNL A   1      42.214  27.086  29.088  1.00  0.00     0.037 A 
ATOM     53  C   UNL A   1      40.081  31.149  34.378  1.00  0.00     0.037 A 
ATOM     54  C   UNL A   1      43.069  27.076  30.249  1.00  0.00     0.049 A 
ATOM     55  C   UNL A   1      41.305  30.274  34.487  1.00  0.00     0.074 A 
ATOM     56  C   UNL A   1      44.258  26.394  30.436  1.00  0.00     0.029 A 
ATOM     57  N   UNL A   1      42.819  27.771  31.422  1.00  0.00    -0.354 N 
ATOM     58  N   UNL A   1      41.851  29.494  33.588  1.00  0.00    -0.248 NA
ATOM     59  C   UNL A   1      42.011  30.282  35.777  1.00  0.00     0.031 C 
ATOM     60  C   UNL A   1      44.692  26.622  31.745  1.00  0.00     0.029 A 
ATOM     61  C   UNL A   1      43.814  27.506  32.350  1.00  0.00     0.049 A 
ATOM     62  H   UNL A   1      42.049  28.367  31.574  1.00  0.00     0.167 HD
ATOM     63  C   UNL A   1      42.978  28.946  34.187  1.00  0.00     0.074 A 
ATOM     64  C   UNL A   1      43.046  29.495  35.524  1.00  0.00     0.031 C 
ATOM     65  C   UNL A   1      43.875  28.066  33.676  1.00  0.00     0.037 A 
BRANCH  52  66
ATOM     66  C   UNL A   1      42.592  26.210  27.929  1.00  0.00     0.064 A 
ATOM     67  C   UNL A   1      42.039  24.933  27.752  1.00  0.00     0.173 A 
ATOM     68  C   UNL A   1      43.479  26.680  26.948  1.00  0.00     0.173 A 
ATOM     69  F   UNL A   1      41.195  24.430  28.666  1.00  0.00    -0.203 F 
ATOM     70  C   UNL A   1      42.377  24.151  26.649  1.00  0.00     0.198 A 
ATOM     71  C   UNL A   1      43.789  25.910  25.830  1.00  0.00     0.198 A 
ATOM     72  F   UNL A   1      44.033  27.897  27.064  1.00  0.00    -0.203 F 
ATOM     73  F   UNL A   1      41.869  22.918  26.524  1.00  0.00    -0.200 F 
ATOM     74  C   UNL A   1      43.243  24.645  25.684  1.00  0.00     0.200 A 
ATOM     75  F   UNL A   1      44.612  26.397  24.891  1.00  0.00    -0.200 F 
ATOM     76  F   UNL A   1      43.554  23.898  24.616  1.00  0.00    -0.200 F 
ENDBRANCH  52  66
BRANCH  53  77
ATOM     77  C   UNL A   1      39.620  31.958  35.539  1.00  0.00     0.064 A 
ATOM     78  C   UNL A   1      38.646  31.472  36.422  1.00  0.00     0.173 A 
ATOM     79  C   UNL A   1      40.122  33.248  35.768  1.00  0.00     0.173 A 
ATOM     80  F   UNL A   1      38.116  30.254  36.230  1.00  0.00    -0.203 F 
ATOM     81  C   UNL A   1      38.172  32.254  37.473  1.00  0.00     0.198 A 
ATOM     82  C   UNL A   1      39.673  34.016  36.841  1.00  0.00     0.198 A 
ATOM     83  F   UNL A   1      41.053  33.763  34.952  1.00  0.00    -0.203 F 
ATOM     84  F   UNL A   1      37.197  31.788  38.265  1.00  0.00    -0.200 F 
ATOM     85  C   UNL A   1      38.690  33.524  37.685  1.00  0.00     0.200 A 
ATOM     86  F   UNL A   1      40.186  35.236  37.049  1.00  0.00    -0.200 F 
ATOM     87  F   UNL A   1      38.233  34.276  38.695  1.00  0.00    -0.200 F 
ENDBRANCH  53  77
BRANCH  65  88
ATOM     88  C   UNL A   1      45.037  27.675  34.548  1.00  0.00     0.064 A 
ATOM     89  C   UNL A   1      44.994  26.543  35.376  1.00  0.00     0.173 A 
ATOM     90  C   UNL A   1      46.224  28.423  34.525  1.00  0.00     0.173 A 
ATOM     91  F   UNL A   1      43.879  25.799  35.446  1.00  0.00    -0.203 F 
ATOM     92  C   UNL A   1      46.084  26.194  36.170  1.00  0.00     0.198 A 
ATOM     93  C   UNL A   1      47.324  28.050  35.292  1.00  0.00     0.198 A 
ATOM     94  F   UNL A   1      46.324  29.510  33.745  1.00  0.00    -0.203 F 
ATOM     95  F   UNL A   1      45.999  25.141  36.995  1.00  0.00    -0.200 F 
ATOM     96  C   UNL A   1      47.249  26.943  36.122  1.00  0.00     0.200 A 
ATOM     97  F   UNL A   1      48.457  28.765  35.229  1.00  0.00    -0.200 F 
ATOM     98  F   UNL A   1      48.301  26.600  36.879  1.00  0.00    -0.200 F 
ENDBRANCH  65  88
ENDBRANCH  39  40
ENDBRANCH  32  34
ENDBRANCH  31  32
ENDBRANCH  30  31
ENDBRANCH  29  30
ENDBRANCH  28  29
ENDBRANCH   1  28
TORSDOF 17
ENDMDL
MODEL 2
REMARK VINA RESULT:     -12.1      0.342      7.044
REMARK SMILES COc1cccc(/C=C2/C(=O)N(c3cccc(C(=O)OCCOCCOC(=O)c4ccc(-c5c6nc(c(-c7c(F)c(F)c(F)c(F)c7F)c7ccc([nH]7)c(-c7c(F)c(F)c(F)c(F)c7F)c7nc(c(-c8c(F)c(F)c(F)c(F)c8F)c8ccc5[nH]8)C=C7)C=C6)cc4)c3)N=C2C)c1
REMARK SMILES IDX 22 1 21 2 20 3 18 4 19 5 17 6 13 7 14 8 92 9 15 10 16 11
REMARK SMILES IDX 12 12 8 13 9 14 10 15 94 16 11 17 93 18 95 19 7 20 3 21 4 22
REMARK SMILES IDX 96 23 5 24 6 25 2 26 1 27 23 28 24 29 25 30 26 31 27 32
REMARK SMILES IDX 28 33 29 34 30 35 91 36 31 37 90 38 32 39 33 40 34 41 84 42
REMARK SMILES IDX 35 43 89 44 83 45 85 46 36 47 88 48 82 49 81 50 37 52 69 53
REMARK SMILES IDX 49 54 68 55 50 56 53 57 67 58 86 59 51 60 52 61 66 63 87 64
REMARK SMILES IDX 54 65 38 66 39 67 47 68 40 69 41 70 45 71 48 72 42 73 43 74
REMARK SMILES IDX 46 75 44 76 70 77 71 78 79 79 72 80 73 81 77 82 80 83 74 84
REMARK SMILES IDX 75 85 78 86 76 87 55 88 56 89 64 90 57 91 58 92 62 93 65 94
REMARK SMILES IDX 59 95 60 96 63 97 61 98
REMARK H PARENT 85 51 53 62
REMARK Flexibility Score: inf
ROOT
ATOM      1  C   UNL A   1      30.276  29.381  23.444  1.00  0.00     0.202 C 
ENDROOT
BRANCH   1   2
ATOM      2  C   UNL A   1      30.679  27.907  23.311  1.00  0.00     0.261 C 
BRANCH   2   3
ATOM      3  O   UNL A   1      31.699  27.713  22.319  1.00  0.00    -0.460 OA
BRANCH   3   4
ATOM      4  C   UNL A   1      32.963  27.992  22.729  1.00  0.00     0.338 C 
ATOM      5  O   UNL A   1      33.640  28.958  22.422  1.00  0.00    -0.246 OA
BRANCH   4   6
ATOM      6  C   UNL A   1      33.341  27.052  23.808  1.00  0.00     0.062 A 
ATOM      7  C   UNL A   1      33.536  24.817  24.724  1.00  0.00     0.070 A 
ATOM      8  C   UNL A   1      33.843  25.380  25.973  1.00  0.00     0.028 A 
ATOM      9  C   UNL A   1      33.272  25.665  23.640  1.00  0.00     0.044 A 
ATOM     10  C   UNL A   1      33.953  26.762  26.128  1.00  0.00     0.003 A 
ATOM     11  C   UNL A   1      33.709  27.599  25.043  1.00  0.00     0.016 A 
BRANCH   7  12
ATOM     12  N   UNL A   1      33.507  23.416  24.576  1.00  0.00    -0.196 N 
ATOM     13  C   UNL A   1      32.225  20.218  23.815  1.00  0.00     0.024 C 
ATOM     14  C   UNL A   1      32.966  21.265  24.198  1.00  0.00     0.065 C 
ATOM     15  C   UNL A   1      32.408  22.637  24.204  1.00  0.00     0.280 C 
ATOM     16  C   UNL A   1      34.362  21.436  24.647  1.00  0.00     0.071 C 
ATOM     17  O   UNL A   1      31.262  22.944  23.917  1.00  0.00    -0.267 OA
ATOM     18  N   UNL A   1      34.669  22.694  24.826  1.00  0.00    -0.169 NA
ATOM     19  C   UNL A   1      35.330  20.331  24.908  1.00  0.00     0.069 C 
BRANCH  13  20
ATOM     20  C   UNL A   1      32.668  18.827  23.825  1.00  0.00    -0.021 A 
ATOM     21  C   UNL A   1      33.001  16.764  25.053  1.00  0.00     0.119 A 
ATOM     22  C   UNL A   1      33.626  16.217  23.932  1.00  0.00     0.046 A 
ATOM     23  C   UNL A   1      32.507  18.066  24.989  1.00  0.00     0.054 A 
ATOM     24  C   UNL A   1      33.740  16.952  22.750  1.00  0.00     0.004 A 
ATOM     25  C   UNL A   1      33.264  18.261  22.696  1.00  0.00     0.008 A 
BRANCH  21  26
ATOM     26  O   UNL A   1      32.975  15.962  26.160  1.00  0.00    -0.497 OA
ATOM     27  C   UNL A   1      32.152  14.803  26.085  1.00  0.00     0.278 C 
ENDBRANCH  21  26
ENDBRANCH  13  20
ENDBRANCH   7  12
ENDBRANCH   4   6
ENDBRANCH   3   4
ENDBRANCH   2   3
ENDBRANCH   1   2
BRANCH   1  28
ATOM     28  O   UNL A   1      30.859  30.133  24.506  1.00  0.00    -0.374 OA
BRANCH  28  29
ATOM     29  C   UNL A   1      31.122  29.449  25.731  1.00  0.00     0.202 C 
BRANCH  29  30
ATOM     30  C   UNL A   1      31.840  30.228  26.842  1.00  0.00     0.261 C 
BRANCH  30  31
ATOM     31  O   UNL A   1      33.055  30.852  26.393  1.00  0.00    -0.460 OA
BRANCH  31  32
ATOM     32  C   UNL A   1      33.578  31.753  27.259  1.00  0.00     0.338 C 
ATOM     33  O   UNL A   1      33.047  32.758  27.699  1.00  0.00    -0.246 OA
BRANCH  32  34
ATOM     34  C   UNL A   1      34.873  31.264  27.765  1.00  0.00     0.060 A 
ATOM     35  C   UNL A   1      34.976  29.903  28.081  1.00  0.00     0.016 A 
ATOM     36  C   UNL A   1      35.941  32.131  27.999  1.00  0.00     0.016 A 
ATOM     37  C   UNL A   1      36.136  29.411  28.673  1.00  0.00     0.010 A 
ATOM     38  C   UNL A   1      37.104  31.635  28.599  1.00  0.00     0.010 A 
ATOM     39  C   UNL A   1      37.195  30.280  28.967  1.00  0.00    -0.014 A 
BRANCH  39  40
ATOM     40  C   UNL A   1      38.350  29.794  29.760  1.00  0.00     0.031 A 
ATOM     41  C   UNL A   1      38.557  30.315  31.156  1.00  0.00     0.074 A 
ATOM     42  C   UNL A   1      39.198  28.885  29.246  1.00  0.00     0.049 A 
ATOM     43  N   UNL A   1      39.529  30.071  31.999  1.00  0.00    -0.248 NA
ATOM     44  C   UNL A   1      37.535  31.240  31.668  1.00  0.00     0.031 C 
ATOM     45  C   UNL A   1      39.083  28.282  27.920  1.00  0.00     0.029 A 
ATOM     46  N   UNL A   1      40.332  28.320  29.777  1.00  0.00    -0.354 N 
ATOM     47  C   UNL A   1      39.241  30.819  33.133  1.00  0.00     0.074 A 
ATOM     48  C   UNL A   1      38.022  31.549  32.861  1.00  0.00     0.031 C 
ATOM     49  C   UNL A   1      40.112  27.439  27.734  1.00  0.00     0.029 A 
ATOM     50  C   UNL A   1      40.979  27.474  28.911  1.00  0.00     0.049 A 
ATOM     51  H   UNL A   1      40.649  28.504  30.690  1.00  0.00     0.167 HD
ATOM     52  C   UNL A   1      39.929  30.883  34.298  1.00  0.00     0.037 A 
ATOM     53  C   UNL A   1      42.152  26.825  29.042  1.00  0.00     0.037 A 
ATOM     54  C   UNL A   1      41.138  30.146  34.566  1.00  0.00     0.049 A 
ATOM     55  C   UNL A   1      42.932  26.967  30.325  1.00  0.00     0.074 A 
ATOM     56  C   UNL A   1      41.890  30.118  35.727  1.00  0.00     0.029 A 
ATOM     57  N   UNL A   1      41.777  29.316  33.657  1.00  0.00    -0.354 N 
ATOM     58  N   UNL A   1      42.638  27.648  31.406  1.00  0.00    -0.248 NA
ATOM     59  C   UNL A   1      44.208  26.242  30.408  1.00  0.00     0.031 C 
ATOM     60  C   UNL A   1      43.019  29.325  35.499  1.00  0.00     0.029 A 
ATOM     61  C   UNL A   1      42.933  28.799  34.220  1.00  0.00     0.049 A 
ATOM     62  H   UNL A   1      41.456  29.121  32.747  1.00  0.00     0.167 HD
ATOM     63  C   UNL A   1      43.669  27.409  32.305  1.00  0.00     0.074 A 
ATOM     64  C   UNL A   1      44.592  26.507  31.648  1.00  0.00     0.031 C 
ATOM     65  C   UNL A   1      43.839  27.894  33.559  1.00  0.00     0.037 A 
BRANCH  52  66
ATOM     66  C   UNL A   1      39.414  31.802  35.369  1.00  0.00     0.064 A 
ATOM     67  C   UNL A   1      38.560  31.351  36.387  1.00  0.00     0.173 A 
ATOM     68  C   UNL A   1      39.828  33.143  35.408  1.00  0.00     0.173 A 
ATOM     69  F   UNL A   1      38.125  30.082  36.391  1.00  0.00    -0.203 F 
ATOM     70  C   UNL A   1      38.124  32.213  37.391  1.00  0.00     0.198 A 
ATOM     71  C   UNL A   1      39.417  33.993  36.431  1.00  0.00     0.198 A 
ATOM     72  F   UNL A   1      40.648  33.625  34.462  1.00  0.00    -0.203 F 
ATOM     73  F   UNL A   1      37.275  31.770  38.329  1.00  0.00    -0.200 F 
ATOM     74  C   UNL A   1      38.561  33.529  37.418  1.00  0.00     0.200 A 
ATOM     75  F   UNL A   1      39.854  35.259  36.464  1.00  0.00    -0.200 F 
ATOM     76  F   UNL A   1      38.152  34.353  38.393  1.00  0.00    -0.200 F 
ENDBRANCH  52  66
BRANCH  53  77
ATOM     77  C   UNL A   1      42.679  26.001  27.921  1.00  0.00     0.064 A 
ATOM     78  C   UNL A   1      42.361  24.641  27.807  1.00  0.00     0.173 A 
ATOM     79  C   UNL A   1      43.540  26.551  26.960  1.00  0.00     0.173 A 
ATOM     80  F   UNL A   1      41.563  24.061  28.717  1.00  0.00    -0.203 F 
ATOM     81  C   UNL A   1      42.904  23.856  26.792  1.00  0.00     0.198 A 
ATOM     82  C   UNL A   1      44.054  25.775  25.923  1.00  0.00     0.198 A 
ATOM     83  F   UNL A   1      43.879  27.847  27.023  1.00  0.00    -0.203 F 
ATOM     84  F   UNL A   1      42.631  22.545  26.742  1.00  0.00    -0.200 F 
ATOM     85  C   UNL A   1      43.745  24.425  25.847  1.00  0.00     0.200 A 
ATOM     86  F   UNL A   1      44.855  26.331  25.006  1.00  0.00    -0.200 F 
ATOM     87  F   UNL A   1      44.267  23.671  24.871  1.00  0.00    -0.200 F 
ENDBRANCH  53  77
BRANCH  65  88
ATOM     88  C   UNL A   1      45.044  27.424  34.328  1.00  0.00     0.064 A 
ATOM     89  C   UNL A   1      46.256  28.131  34.310  1.00  0.00     0.173 A 
ATOM     90  C   UNL A   1      44.971  26.271  35.125  1.00  0.00     0.173 A 
ATOM     91  F   UNL A   1      46.385  29.233  33.555  1.00  0.00    -0.203 F 
ATOM     92  C   UNL A   1      47.358  27.682  35.035  1.00  0.00     0.198 A 
ATOM     93  C   UNL A   1      46.062  25.846  35.876  1.00  0.00     0.198 A 
ATOM     94  F   UNL A   1      43.833  25.562  35.186  1.00  0.00    -0.203 F 
ATOM     95  F   UNL A   1      48.521  28.342  34.958  1.00  0.00    -0.200 F 
ATOM     96  C   UNL A   1      47.257  26.546  35.823  1.00  0.00     0.200 A 
ATOM     97  F   UNL A   1      45.957  24.758  36.653  1.00  0.00    -0.200 F 
ATOM     98  F   UNL A   1      48.316  26.121  36.528  1.00  0.00    -0.200 F 
ENDBRANCH  65  88
ENDBRANCH  39  40
ENDBRANCH  32  34
ENDBRANCH  31  32
ENDBRANCH  30  31
ENDBRANCH  29  30
ENDBRANCH  28  29
ENDBRANCH   1  28
TORSDOF 17
ENDMDL
MODEL 3
REMARK VINA RESULT:     -11.8      1.333      2.407
REMARK SMILES COc1cccc(/C=C2/C(=O)N(c3cccc(C(=O)OCCOCCOC(=O)c4ccc(-c5c6nc(c(-c7c(F)c(F)c(F)c(F)c7F)c7ccc([nH]7)c(-c7c(F)c(F)c(F)c(F)c7F)c7nc(c(-c8c(F)c(F)c(F)c(F)c8F)c8ccc5[nH]8)C=C7)C=C6)cc4)c3)N=C2C)c1
REMARK SMILES IDX 22 1 21 2 20 3 18 4 19 5 17 6 13 7 14 8 92 9 15 10 16 11
REMARK SMILES IDX 12 12 8 13 9 14 10 15 94 16 11 17 93 18 95 19 7 20 3 21 4 22
REMARK SMILES IDX 96 23 5 24 6 25 2 26 1 27 23 28 24 29 25 30 26 31 27 32
REMARK SMILES IDX 28 33 29 34 30 35 91 36 31 37 90 38 32 39 33 40 34 41 84 42
REMARK SMILES IDX 35 43 89 44 83 45 85 46 36 47 88 48 82 49 81 50 37 52 69 53
REMARK SMILES IDX 49 54 68 55 50 56 53 57 67 58 86 59 51 60 52 61 66 63 87 64
REMARK SMILES IDX 54 65 38 66 39 67 47 68 40 69 41 70 45 71 48 72 42 73 43 74
REMARK SMILES IDX 46 75 44 76 70 77 71 78 79 79 72 80 73 81 77 82 80 83 74 84
REMARK SMILES IDX 75 85 78 86 76 87 55 88 56 89 64 90 57 91 58 92 62 93 65 94
REMARK SMILES IDX 59 95 60 96 63 97 61 98
REMARK H PARENT 85 51 53 62
REMARK Flexibility Score: inf
ROOT
ATOM      1  C   UNL A   1      28.595  31.331  23.991  1.00  0.00     0.202 C 
ENDROOT
BRANCH   1   2
ATOM      2  C   UNL A   1      28.324  30.889  22.548  1.00  0.00     0.261 C 
BRANCH   2   3
ATOM      3  O   UNL A   1      29.279  29.919  22.091  1.00  0.00    -0.460 OA
BRANCH   3   4
ATOM      4  C   UNL A   1      29.278  28.744  22.772  1.00  0.00     0.338 C 
ATOM      5  O   UNL A   1      28.306  28.088  23.107  1.00  0.00    -0.246 OA
BRANCH   4   6
ATOM      6  C   UNL A   1      30.665  28.236  22.865  1.00  0.00     0.062 A 
ATOM      7  C   UNL A   1      32.272  26.482  23.327  1.00  0.00     0.070 A 
ATOM      8  C   UNL A   1      33.300  27.435  23.256  1.00  0.00     0.028 A 
ATOM      9  C   UNL A   1      30.945  26.894  23.141  1.00  0.00     0.044 A 
ATOM     10  C   UNL A   1      33.022  28.766  22.939  1.00  0.00     0.003 A 
ATOM     11  C   UNL A   1      31.704  29.165  22.737  1.00  0.00     0.016 A 
BRANCH   7  12
ATOM     12  N   UNL A   1      32.586  25.130  23.572  1.00  0.00    -0.196 N 
ATOM     13  C   UNL A   1      33.684  22.280  25.338  1.00  0.00     0.024 C 
ATOM     14  C   UNL A   1      33.242  23.155  24.427  1.00  0.00     0.065 C 
ATOM     15  C   UNL A   1      33.165  24.603  24.729  1.00  0.00     0.280 C 
ATOM     16  C   UNL A   1      32.729  23.042  23.047  1.00  0.00     0.071 C 
ATOM     17  O   UNL A   1      33.517  25.135  25.770  1.00  0.00    -0.267 OA
ATOM     18  N   UNL A   1      32.319  24.192  22.580  1.00  0.00    -0.169 NA
ATOM     19  C   UNL A   1      32.694  21.791  22.235  1.00  0.00     0.069 C 
BRANCH  13  20
ATOM     20  C   UNL A   1      33.845  20.846  25.116  1.00  0.00    -0.021 A 
ATOM     21  C   UNL A   1      32.891  18.618  25.163  1.00  0.00     0.119 A 
ATOM     22  C   UNL A   1      34.144  18.093  24.842  1.00  0.00     0.046 A 
ATOM     23  C   UNL A   1      32.742  19.999  25.282  1.00  0.00     0.054 A 
ATOM     24  C   UNL A   1      35.235  18.936  24.621  1.00  0.00     0.004 A 
ATOM     25  C   UNL A   1      35.088  20.315  24.762  1.00  0.00     0.008 A 
BRANCH  21  26
ATOM     26  O   UNL A   1      31.908  17.695  25.385  1.00  0.00    -0.497 OA
ATOM     27  C   UNL A   1      32.336  16.387  25.751  1.00  0.00     0.278 C 
ENDBRANCH  21  26
ENDBRANCH  13  20
ENDBRANCH   7  12
ENDBRANCH   4   6
ENDBRANCH   3   4
ENDBRANCH   2   3
ENDBRANCH   1   2
BRANCH   1  28
ATOM     28  O   UNL A   1      29.894  31.835  24.296  1.00  0.00    -0.374 OA
BRANCH  28  29
ATOM     29  C   UNL A   1      30.644  31.160  25.305  1.00  0.00     0.202 C 
BRANCH  29  30
ATOM     30  C   UNL A   1      31.149  31.991  26.492  1.00  0.00     0.261 C 
BRANCH  30  31
ATOM     31  O   UNL A   1      32.496  31.662  26.873  1.00  0.00    -0.460 OA
BRANCH  31  32
ATOM     32  C   UNL A   1      33.188  32.683  27.435  1.00  0.00     0.338 C 
ATOM     33  O   UNL A   1      32.804  33.823  27.629  1.00  0.00    -0.246 OA
BRANCH  32  34
ATOM     34  C   UNL A   1      34.471  32.184  27.962  1.00  0.00     0.060 A 
ATOM     35  C   UNL A   1      34.528  30.848  28.377  1.00  0.00     0.016 A 
ATOM     36  C   UNL A   1      35.573  33.027  28.120  1.00  0.00     0.016 A 
ATOM     37  C   UNL A   1      35.677  30.358  28.993  1.00  0.00     0.010 A 
ATOM     38  C   UNL A   1      36.724  32.533  28.743  1.00  0.00     0.010 A 
ATOM     39  C   UNL A   1      36.771  31.207  29.210  1.00  0.00    -0.014 A 
BRANCH  39  40
ATOM     40  C   UNL A   1      37.918  30.738  30.025  1.00  0.00     0.031 A 
ATOM     41  C   UNL A   1      38.893  29.760  29.431  1.00  0.00     0.074 A 
ATOM     42  C   UNL A   1      38.096  31.193  31.279  1.00  0.00     0.049 A 
ATOM     43  N   UNL A   1      39.928  29.177  29.984  1.00  0.00    -0.248 NA
ATOM     44  C   UNL A   1      38.670  29.383  28.027  1.00  0.00     0.031 C 
ATOM     45  C   UNL A   1      37.238  32.167  31.950  1.00  0.00     0.029 A 
ATOM     46  N   UNL A   1      39.054  30.885  32.213  1.00  0.00    -0.354 N 
ATOM     47  C   UNL A   1      40.469  28.358  29.002  1.00  0.00     0.074 A 
ATOM     48  C   UNL A   1      39.633  28.494  27.828  1.00  0.00     0.031 C 
ATOM     49  C   UNL A   1      37.701  32.368  33.196  1.00  0.00     0.029 A 
ATOM     50  C   UNL A   1      38.861  31.509  33.421  1.00  0.00     0.049 A 
ATOM     51  H   UNL A   1      39.806  30.275  32.034  1.00  0.00     0.167 HD
ATOM     52  C   UNL A   1      41.569  27.571  29.072  1.00  0.00     0.037 A 
ATOM     53  C   UNL A   1      39.529  31.377  34.584  1.00  0.00     0.037 A 
ATOM     54  C   UNL A   1      42.403  27.447  30.241  1.00  0.00     0.049 A 
ATOM     55  C   UNL A   1      40.711  30.443  34.653  1.00  0.00     0.074 A 
ATOM     56  C   UNL A   1      43.557  26.701  30.400  1.00  0.00     0.029 A 
ATOM     57  N   UNL A   1      42.164  28.076  31.453  1.00  0.00    -0.354 N 
ATOM     58  N   UNL A   1      41.237  29.698  33.712  1.00  0.00    -0.248 NA
ATOM     59  C   UNL A   1      41.394  30.335  35.950  1.00  0.00     0.031 C 
ATOM     60  C   UNL A   1      43.979  26.825  31.727  1.00  0.00     0.029 A 
ATOM     61  C   UNL A   1      43.130  27.707  32.376  1.00  0.00     0.049 A 
ATOM     62  H   UNL A   1      41.419  28.695  31.632  1.00  0.00     0.167 HD
ATOM     63  C   UNL A   1      42.329  29.062  34.290  1.00  0.00     0.074 A 
ATOM     64  C   UNL A   1      42.398  29.520  35.661  1.00  0.00     0.031 C 
ATOM     65  C   UNL A   1      43.194  28.177  33.736  1.00  0.00     0.037 A 
BRANCH  52  66
ATOM     66  C   UNL A   1      41.927  26.754  27.863  1.00  0.00     0.064 A 
ATOM     67  C   UNL A   1      42.865  27.198  26.918  1.00  0.00     0.173 A 
ATOM     68  C   UNL A   1      41.364  25.481  27.678  1.00  0.00     0.173 A 
ATOM     69  F   UNL A   1      43.425  28.411  27.041  1.00  0.00    -0.203 F 
ATOM     70  C   UNL A   1      43.209  26.407  25.824  1.00  0.00     0.198 A 
ATOM     71  C   UNL A   1      41.734  24.681  26.602  1.00  0.00     0.198 A 
ATOM     72  F   UNL A   1      40.466  25.006  28.554  1.00  0.00    -0.203 F 
ATOM     73  F   UNL A   1      44.076  26.869  24.912  1.00  0.00    -0.200 F 
ATOM     74  C   UNL A   1      42.651  25.146  25.672  1.00  0.00     0.200 A 
ATOM     75  F   UNL A   1      41.207  23.456  26.467  1.00  0.00    -0.200 F 
ATOM     76  F   UNL A   1      42.995  24.381  24.627  1.00  0.00    -0.200 F 
ENDBRANCH  52  66
BRANCH  53  77
ATOM     77  C   UNL A   1      39.085  32.130  35.788  1.00  0.00     0.064 A 
ATOM     78  C   UNL A   1      39.528  33.436  36.033  1.00  0.00     0.173 A 
ATOM     79  C   UNL A   1      38.233  31.542  36.736  1.00  0.00     0.173 A 
ATOM     80  F   UNL A   1      40.365  34.033  35.170  1.00  0.00    -0.203 F 
ATOM     81  C   UNL A   1      39.159  34.117  37.192  1.00  0.00     0.198 A 
ATOM     82  C   UNL A   1      37.835  32.237  37.876  1.00  0.00     0.198 A 
ATOM     83  F   UNL A   1      37.781  30.293  36.552  1.00  0.00    -0.203 F 
ATOM     84  F   UNL A   1      39.647  35.342  37.431  1.00  0.00    -0.200 F 
ATOM     85  C   UNL A   1      38.309  33.519  38.110  1.00  0.00     0.200 A 
ATOM     86  F   UNL A   1      37.004  31.659  38.753  1.00  0.00    -0.200 F 
ATOM     87  F   UNL A   1      37.955  34.173  39.224  1.00  0.00    -0.200 F 
ENDBRANCH  53  77
BRANCH  65  88
ATOM     88  C   UNL A   1      44.322  27.679  34.597  1.00  0.00     0.064 A 
ATOM     89  C   UNL A   1      44.221  26.491  35.338  1.00  0.00     0.173 A 
ATOM     90  C   UNL A   1      45.537  28.380  34.651  1.00  0.00     0.173 A 
ATOM     91  F   UNL A   1      43.078  25.787  35.332  1.00  0.00    -0.203 F 
ATOM     92  C   UNL A   1      45.280  26.043  36.123  1.00  0.00     0.198 A 
ATOM     93  C   UNL A   1      46.606  27.910  35.408  1.00  0.00     0.198 A 
ATOM     94  F   UNL A   1      45.692  29.517  33.956  1.00  0.00    -0.203 F 
ATOM     95  F   UNL A   1      45.140  24.936  36.865  1.00  0.00    -0.200 F 
ATOM     96  C   UNL A   1      46.474  26.749  36.151  1.00  0.00     0.200 A 
ATOM     97  F   UNL A   1      47.765  28.584  35.418  1.00  0.00    -0.200 F 
ATOM     98  F   UNL A   1      47.496  26.311  36.900  1.00  0.00    -0.200 F 
ENDBRANCH  65  88
ENDBRANCH  39  40
ENDBRANCH  32  34
ENDBRANCH  31  32
ENDBRANCH  30  31
ENDBRANCH  29  30
ENDBRANCH  28  29
ENDBRANCH   1  28
TORSDOF 17
ENDMDL
