MODEL 1
REMARK VINA RESULT:     -11.9      0.000      0.000
REMARK SMILES CS(=O)(=O)c1ccc(-n2nc(C(F)(F)F)cc2-c2ccc(CC(=O)OCCOCCOC(=O)c3ccc(-c4c5nc(c(-c6c(F)c(F)c(F)c(F)c6F)c6ccc([nH]6)c(-c6c(F)c(F)c(F)c(F)c6F)c6nc(c(-c7c(F)c(F)c(F)c(F)c7F)c7ccc4[nH]7)C=C6)C=C5)cc3)cc2)cc1
REMARK SMILES IDX 27 1 26 2 25 3 23 4 24 5 22 6 21 7 18 8 19 9 98 10 20 11
REMARK SMILES IDX 97 12 17 13 9 14 10 15 11 16 16 17 8 18 5 19 6 20 100 21
REMARK SMILES IDX 7 22 99 23 2 24 1 25 3 26 4 27 12 28 13 29 14 30 15 31 28 32
REMARK SMILES IDX 29 33 30 34 31 35 32 36 33 37 34 38 35 39 96 40 36 41 95 42
REMARK SMILES IDX 37 43 38 44 39 45 89 46 40 47 94 48 88 49 90 50 41 51 93 52
REMARK SMILES IDX 87 53 86 54 42 56 74 57 54 58 73 59 55 60 58 61 72 62 91 63
REMARK SMILES IDX 56 64 57 65 71 67 92 68 59 69 43 70 44 71 52 72 45 73 46 74
REMARK SMILES IDX 50 75 53 76 47 77 48 78 51 79 49 80 75 81 76 82 84 83 77 84
REMARK SMILES IDX 78 85 82 86 85 87 79 88 80 89 83 90 81 91 60 92 61 93 69 94
REMARK SMILES IDX 62 95 63 96 67 97 70 98 64 99 65 100 68 101 66 102
REMARK H PARENT 90 55 58 66
REMARK Flexibility Score: inf
ROOT
ATOM      1  C   UNL A   1      32.003  29.334  24.606  1.00  0.00     0.202 C 
ENDROOT
BRANCH   1   2
ATOM      2  C   UNL A   1      32.427  29.075  23.154  1.00  0.00     0.261 C 
BRANCH   2   3
ATOM      3  O   UNL A   1      32.439  27.701  22.727  1.00  0.00    -0.463 OA
BRANCH   3   4
ATOM      4  C   UNL A   1      31.200  27.162  22.544  1.00  0.00     0.310 C 
ATOM      5  O   UNL A   1      30.265  27.747  22.009  1.00  0.00    -0.252 OA
BRANCH   4   6
ATOM      6  C   UNL A   1      31.015  25.802  23.171  1.00  0.00     0.158 C 
BRANCH   6   7
ATOM      7  C   UNL A   1      32.215  25.051  23.696  1.00  0.00    -0.037 A 
ATOM      8  C   UNL A   1      34.636  23.942  24.648  1.00  0.00     0.000 A 
ATOM      9  C   UNL A   1      33.721  24.534  25.529  1.00  0.00     0.010 A 
ATOM     10  C   UNL A   1      34.328  23.907  23.284  1.00  0.00     0.010 A 
ATOM     11  C   UNL A   1      32.519  25.068  25.062  1.00  0.00     0.005 A 
ATOM     12  C   UNL A   1      33.126  24.451  22.814  1.00  0.00     0.005 A 
BRANCH   8  13
ATOM     13  C   UNL A   1      35.899  23.395  25.153  1.00  0.00     0.075 A 
ATOM     14  N   UNL A   1      36.168  22.049  25.415  1.00  0.00    -0.233 N 
ATOM     15  N   UNL A   1      37.316  21.901  26.130  1.00  0.00    -0.163 NA
ATOM     16  C   UNL A   1      37.885  23.121  26.150  1.00  0.00     0.167 A 
ATOM     17  C   UNL A   1      37.030  24.079  25.555  1.00  0.00     0.064 A 
BRANCH  14  18
ATOM     18  C   UNL A   1      35.474  20.887  24.949  1.00  0.00     0.065 A 
ATOM     19  C   UNL A   1      34.056  18.501  24.468  1.00  0.00     0.067 A 
ATOM     20  C   UNL A   1      35.436  18.483  24.599  1.00  0.00     0.022 A 
ATOM     21  C   UNL A   1      33.380  19.724  24.492  1.00  0.00     0.022 A 
ATOM     22  C   UNL A   1      36.146  19.666  24.828  1.00  0.00     0.030 A 
ATOM     23  C   UNL A   1      34.085  20.913  24.751  1.00  0.00     0.030 A 
BRANCH  19  24
ATOM     24  S   UNL A   1      33.108  16.991  24.516  1.00  0.00     0.175 S 
ATOM     25  C   UNL A   1      33.813  15.908  25.726  1.00  0.00     0.163 C 
ATOM     26  O   UNL A   1      33.277  16.355  23.230  1.00  0.00    -0.224 OA
ATOM     27  O   UNL A   1      31.796  17.377  25.012  1.00  0.00    -0.224 OA
ENDBRANCH  19  24
ENDBRANCH  14  18
BRANCH  16  28
ATOM     28  C   UNL A   1      39.234  23.412  26.760  1.00  0.00     0.435 C 
ATOM     29  F   UNL A   1      40.127  23.926  25.877  1.00  0.00    -0.164 F 
ATOM     30  F   UNL A   1      39.137  24.284  27.800  1.00  0.00    -0.164 F 
ATOM     31  F   UNL A   1      39.799  22.282  27.270  1.00  0.00    -0.164 F 
ENDBRANCH  16  28
ENDBRANCH   8  13
ENDBRANCH   6   7
ENDBRANCH   4   6
ENDBRANCH   3   4
ENDBRANCH   2   3
ENDBRANCH   1   2
BRANCH   1  32
ATOM     32  O   UNL A   1      32.877  30.077  25.439  1.00  0.00    -0.374 OA
BRANCH  32  33
ATOM     33  C   UNL A   1      32.417  30.418  26.739  1.00  0.00     0.202 C 
BRANCH  33  34
ATOM     34  C   UNL A   1      33.340  31.260  27.609  1.00  0.00     0.261 C 
BRANCH  34  35
ATOM     35  O   UNL A   1      34.737  31.103  27.293  1.00  0.00    -0.460 OA
BRANCH  35  36
ATOM     36  C   UNL A   1      35.589  31.902  28.002  1.00  0.00     0.338 C 
ATOM     37  O   UNL A   1      35.842  33.058  27.780  1.00  0.00    -0.246 OA
BRANCH  36  38
ATOM     38  C   UNL A   1      36.471  31.023  28.811  1.00  0.00     0.060 A 
ATOM     39  C   UNL A   1      37.640  31.634  29.273  1.00  0.00     0.016 A 
ATOM     40  C   UNL A   1      36.358  29.626  28.775  1.00  0.00     0.016 A 
ATOM     41  C   UNL A   1      38.770  30.859  29.463  1.00  0.00     0.010 A 
ATOM     42  C   UNL A   1      37.493  28.848  28.995  1.00  0.00     0.010 A 
ATOM     43  C   UNL A   1      38.715  29.473  29.255  1.00  0.00    -0.014 A 
BRANCH  43  44
ATOM     44  C   UNL A   1      39.941  28.721  29.521  1.00  0.00     0.031 A 
ATOM     45  C   UNL A   1      40.285  28.709  30.945  1.00  0.00     0.074 A 
ATOM     46  C   UNL A   1      40.730  28.061  28.647  1.00  0.00     0.049 A 
ATOM     47  N   UNL A   1      41.266  29.336  31.497  1.00  0.00    -0.248 NA
ATOM     48  C   UNL A   1      39.375  28.028  31.875  1.00  0.00     0.031 C 
ATOM     49  C   UNL A   1      40.413  27.798  27.260  1.00  0.00     0.029 A 
ATOM     50  N   UNL A   1      41.945  27.434  28.802  1.00  0.00    -0.354 N 
ATOM     51  C   UNL A   1      41.257  28.905  32.807  1.00  0.00     0.074 A 
ATOM     52  C   UNL A   1      39.984  28.265  33.037  1.00  0.00     0.031 C 
ATOM     53  C   UNL A   1      41.291  26.931  26.725  1.00  0.00     0.029 A 
ATOM     54  C   UNL A   1      42.327  26.666  27.704  1.00  0.00     0.049 A 
ATOM     55  H   UNL A   1      42.494  27.520  29.615  1.00  0.00     0.167 HD
ATOM     56  C   UNL A   1      42.430  28.768  33.469  1.00  0.00     0.037 A 
ATOM     57  C   UNL A   1      43.418  25.880  27.536  1.00  0.00     0.037 A 
ATOM     58  C   UNL A   1      43.515  29.484  32.858  1.00  0.00     0.049 A 
ATOM     59  C   UNL A   1      44.490  26.358  28.433  1.00  0.00     0.074 A 
ATOM     60  C   UNL A   1      43.987  30.778  32.841  1.00  0.00     0.029 A 
ATOM     61  N   UNL A   1      44.126  28.827  31.827  1.00  0.00    -0.354 N 
ATOM     62  N   UNL A   1      45.161  27.457  28.232  1.00  0.00    -0.248 NA
ATOM     63  C   UNL A   1      44.681  25.735  29.739  1.00  0.00     0.031 C 
ATOM     64  C   UNL A   1      44.891  30.881  31.741  1.00  0.00     0.029 A 
ATOM     65  C   UNL A   1      44.949  29.650  31.102  1.00  0.00     0.049 A 
ATOM     66  H   UNL A   1      43.990  27.872  31.628  1.00  0.00     0.167 HD
ATOM     67  C   UNL A   1      45.488  27.878  29.500  1.00  0.00     0.074 A 
ATOM     68  C   UNL A   1      45.352  26.710  30.356  1.00  0.00     0.031 C 
ATOM     69  C   UNL A   1      45.444  29.199  29.824  1.00  0.00     0.037 A 
BRANCH  56  70
ATOM     70  C   UNL A   1      42.680  27.592  34.364  1.00  0.00     0.064 A 
ATOM     71  C   UNL A   1      42.821  27.786  35.743  1.00  0.00     0.173 A 
ATOM     72  C   UNL A   1      43.049  26.322  33.866  1.00  0.00     0.173 A 
ATOM     73  F   UNL A   1      42.568  28.984  36.288  1.00  0.00    -0.203 F 
ATOM     74  C   UNL A   1      43.286  26.765  36.573  1.00  0.00     0.198 A 
ATOM     75  C   UNL A   1      43.452  25.288  34.703  1.00  0.00     0.198 A 
ATOM     76  F   UNL A   1      43.132  26.078  32.549  1.00  0.00    -0.203 F 
ATOM     77  F   UNL A   1      43.489  27.008  37.875  1.00  0.00    -0.200 F 
ATOM     78  C   UNL A   1      43.586  25.514  36.056  1.00  0.00     0.200 A 
ATOM     79  F   UNL A   1      43.770  24.096  34.176  1.00  0.00    -0.200 F 
ATOM     80  F   UNL A   1      44.050  24.543  36.852  1.00  0.00    -0.200 F 
ENDBRANCH  56  70
BRANCH  57  81
ATOM     81  C   UNL A   1      43.617  24.726  26.626  1.00  0.00     0.064 A 
ATOM     82  C   UNL A   1      44.522  24.784  25.552  1.00  0.00     0.173 A 
ATOM     83  C   UNL A   1      43.103  23.453  26.940  1.00  0.00     0.173 A 
ATOM     84  F   UNL A   1      45.100  25.945  25.210  1.00  0.00    -0.203 F 
ATOM     85  C   UNL A   1      44.909  23.637  24.853  1.00  0.00     0.198 A 
ATOM     86  C   UNL A   1      43.483  22.310  26.234  1.00  0.00     0.198 A 
ATOM     87  F   UNL A   1      42.295  23.281  27.996  1.00  0.00    -0.203 F 
ATOM     88  F   UNL A   1      45.828  23.725  23.881  1.00  0.00    -0.200 F 
ATOM     89  C   UNL A   1      44.394  22.400  25.200  1.00  0.00     0.200 A 
ATOM     90  F   UNL A   1      43.016  21.110  26.604  1.00  0.00    -0.200 F 
ATOM     91  F   UNL A   1      44.812  21.292  24.571  1.00  0.00    -0.200 F 
ENDBRANCH  57  81
BRANCH  69  92
ATOM     92  C   UNL A   1      45.747  30.183  28.742  1.00  0.00     0.064 A 
ATOM     93  C   UNL A   1      44.786  30.756  27.894  1.00  0.00     0.173 A 
ATOM     94  C   UNL A   1      47.085  30.562  28.559  1.00  0.00     0.173 A 
ATOM     95  F   UNL A   1      43.483  30.475  28.047  1.00  0.00    -0.203 F 
ATOM     96  C   UNL A   1      45.160  31.639  26.881  1.00  0.00     0.198 A 
ATOM     97  C   UNL A   1      47.451  31.467  27.569  1.00  0.00     0.198 A 
ATOM     98  F   UNL A   1      48.042  30.058  29.355  1.00  0.00    -0.203 F 
ATOM     99  F   UNL A   1      44.236  32.150  26.055  1.00  0.00    -0.200 F 
ATOM    100  C   UNL A   1      46.491  31.997  26.723  1.00  0.00     0.200 A 
ATOM    101  F   UNL A   1      48.736  31.827  27.436  1.00  0.00    -0.200 F 
ATOM    102  F   UNL A   1      46.850  32.858  25.761  1.00  0.00    -0.200 F 
ENDBRANCH  69  92
ENDBRANCH  43  44
ENDBRANCH  36  38
ENDBRANCH  35  36
ENDBRANCH  34  35
ENDBRANCH  33  34
ENDBRANCH  32  33
ENDBRANCH   1  32
TORSDOF 19
ENDMDL
MODEL 2
REMARK VINA RESULT:     -11.7      0.891      1.864
REMARK SMILES CS(=O)(=O)c1ccc(-n2nc(C(F)(F)F)cc2-c2ccc(CC(=O)OCCOCCOC(=O)c3ccc(-c4c5nc(c(-c6c(F)c(F)c(F)c(F)c6F)c6ccc([nH]6)c(-c6c(F)c(F)c(F)c(F)c6F)c6nc(c(-c7c(F)c(F)c(F)c(F)c7F)c7ccc4[nH]7)C=C6)C=C5)cc3)cc2)cc1
REMARK SMILES IDX 27 1 26 2 25 3 23 4 24 5 22 6 21 7 18 8 19 9 98 10 20 11
REMARK SMILES IDX 97 12 17 13 9 14 10 15 11 16 16 17 8 18 5 19 6 20 100 21
REMARK SMILES IDX 7 22 99 23 2 24 1 25 3 26 4 27 12 28 13 29 14 30 15 31 28 32
REMARK SMILES IDX 29 33 30 34 31 35 32 36 33 37 34 38 35 39 96 40 36 41 95 42
REMARK SMILES IDX 37 43 38 44 39 45 89 46 40 47 94 48 88 49 90 50 41 51 93 52
REMARK SMILES IDX 87 53 86 54 42 56 74 57 54 58 73 59 55 60 58 61 72 62 91 63
REMARK SMILES IDX 56 64 57 65 71 67 92 68 59 69 43 70 44 71 52 72 45 73 46 74
REMARK SMILES IDX 50 75 53 76 47 77 48 78 51 79 49 80 75 81 76 82 84 83 77 84
REMARK SMILES IDX 78 85 82 86 85 87 79 88 80 89 83 90 81 91 60 92 61 93 69 94
REMARK SMILES IDX 62 95 63 96 67 97 70 98 64 99 65 100 68 101 66 102
REMARK H PARENT 90 55 58 66
REMARK Flexibility Score: inf
ROOT
ATOM      1  C   UNL A   1      31.466  28.182  26.308  1.00  0.00     0.202 C 
ENDROOT
BRANCH   1   2
ATOM      2  C   UNL A   1      31.344  28.406  24.794  1.00  0.00     0.261 C 
BRANCH   2   3
ATOM      3  O   UNL A   1      30.344  27.629  24.112  1.00  0.00    -0.463 OA
BRANCH   3   4
ATOM      4  C   UNL A   1      30.727  26.353  23.823  1.00  0.00     0.310 C 
ATOM      5  O   UNL A   1      30.118  25.351  24.182  1.00  0.00    -0.252 OA
BRANCH   4   6
ATOM      6  C   UNL A   1      32.056  26.248  23.116  1.00  0.00     0.158 C 
BRANCH   6   7
ATOM      7  C   UNL A   1      33.145  25.377  23.697  1.00  0.00    -0.037 A 
ATOM      8  C   UNL A   1      35.397  24.011  24.723  1.00  0.00     0.000 A 
ATOM      9  C   UNL A   1      34.603  24.813  25.554  1.00  0.00     0.010 A 
ATOM     10  C   UNL A   1      35.052  23.896  23.372  1.00  0.00     0.010 A 
ATOM     11  C   UNL A   1      33.482  25.476  25.052  1.00  0.00     0.005 A 
ATOM     12  C   UNL A   1      33.933  24.568  22.866  1.00  0.00     0.005 A 
BRANCH   8  13
ATOM     13  C   UNL A   1      36.578  23.330  25.264  1.00  0.00     0.075 A 
ATOM     14  N   UNL A   1      36.694  21.961  25.520  1.00  0.00    -0.233 N 
ATOM     15  N   UNL A   1      37.796  21.687  26.271  1.00  0.00    -0.163 NA
ATOM     16  C   UNL A   1      38.488  22.841  26.323  1.00  0.00     0.167 A 
ATOM     17  C   UNL A   1      37.760  23.888  25.711  1.00  0.00     0.064 A 
BRANCH  14  18
ATOM     18  C   UNL A   1      35.898  20.882  25.018  1.00  0.00     0.065 A 
ATOM     19  C   UNL A   1      34.286  18.640  24.461  1.00  0.00     0.067 A 
ATOM     20  C   UNL A   1      35.665  18.511  24.542  1.00  0.00     0.022 A 
ATOM     21  C   UNL A   1      33.708  19.908  24.575  1.00  0.00     0.022 A 
ATOM     22  C   UNL A   1      36.471  19.623  24.808  1.00  0.00     0.030 A 
ATOM     23  C   UNL A   1      34.510  21.024  24.871  1.00  0.00     0.030 A 
BRANCH  19  24
ATOM     24  S   UNL A   1      33.227  17.206  24.463  1.00  0.00     0.175 S 
ATOM     25  C   UNL A   1      34.027  15.900  25.351  1.00  0.00     0.163 C 
ATOM     26  O   UNL A   1      33.112  16.775  23.089  1.00  0.00    -0.224 OA
ATOM     27  O   UNL A   1      32.061  17.590  25.244  1.00  0.00    -0.224 OA
ENDBRANCH  19  24
ENDBRANCH  14  18
BRANCH  16  28
ATOM     28  C   UNL A   1      39.839  22.983  26.982  1.00  0.00     0.435 C 
ATOM     29  F   UNL A   1      40.213  21.886  27.688  1.00  0.00    -0.164 F 
ATOM     30  F   UNL A   1      40.817  23.238  26.071  1.00  0.00    -0.164 F 
ATOM     31  F   UNL A   1      39.855  24.030  27.853  1.00  0.00    -0.164 F 
ENDBRANCH  16  28
ENDBRANCH   8  13
ENDBRANCH   6   7
ENDBRANCH   4   6
ENDBRANCH   3   4
ENDBRANCH   2   3
ENDBRANCH   1   2
BRANCH   1  32
ATOM     32  O   UNL A   1      32.764  28.142  26.879  1.00  0.00    -0.374 OA
BRANCH  32  33
ATOM     33  C   UNL A   1      33.684  29.155  26.496  1.00  0.00     0.202 C 
BRANCH  33  34
ATOM     34  C   UNL A   1      33.722  30.421  27.342  1.00  0.00     0.261 C 
BRANCH  34  35
ATOM     35  O   UNL A   1      35.014  31.057  27.375  1.00  0.00    -0.460 OA
BRANCH  35  36
ATOM     36  C   UNL A   1      35.577  31.171  28.614  1.00  0.00     0.338 C 
ATOM     37  O   UNL A   1      35.151  31.809  29.542  1.00  0.00    -0.246 OA
BRANCH  36  38
ATOM     38  C   UNL A   1      36.996  30.745  28.510  1.00  0.00     0.060 A 
ATOM     39  C   UNL A   1      37.181  29.433  28.065  1.00  0.00     0.016 A 
ATOM     40  C   UNL A   1      38.025  31.429  29.172  1.00  0.00     0.016 A 
ATOM     41  C   UNL A   1      38.293  28.730  28.495  1.00  0.00     0.010 A 
ATOM     42  C   UNL A   1      39.156  30.724  29.579  1.00  0.00     0.010 A 
ATOM     43  C   UNL A   1      39.247  29.356  29.311  1.00  0.00    -0.014 A 
BRANCH  43  44
ATOM     44  C   UNL A   1      40.414  28.558  29.685  1.00  0.00     0.031 A 
ATOM     45  C   UNL A   1      40.674  28.600  31.127  1.00  0.00     0.074 A 
ATOM     46  C   UNL A   1      41.217  27.817  28.892  1.00  0.00     0.049 A 
ATOM     47  N   UNL A   1      41.653  29.204  31.707  1.00  0.00    -0.248 NA
ATOM     48  C   UNL A   1      39.676  28.012  32.030  1.00  0.00     0.031 C 
ATOM     49  C   UNL A   1      40.967  27.501  27.503  1.00  0.00     0.029 A 
ATOM     50  N   UNL A   1      42.386  27.138  29.150  1.00  0.00    -0.354 N 
ATOM     51  C   UNL A   1      41.545  28.839  33.032  1.00  0.00     0.074 A 
ATOM     52  C   UNL A   1      40.229  28.276  33.215  1.00  0.00     0.031 C 
ATOM     53  C   UNL A   1      41.827  26.565  27.063  1.00  0.00     0.029 A 
ATOM     54  C   UNL A   1      42.790  26.299  28.114  1.00  0.00     0.049 A 
ATOM     55  H   UNL A   1      42.891  27.237  29.990  1.00  0.00     0.167 HD
ATOM     56  C   UNL A   1      42.669  28.677  33.770  1.00  0.00     0.037 A 
ATOM     57  C   UNL A   1      43.846  25.451  28.049  1.00  0.00     0.037 A 
ATOM     58  C   UNL A   1      43.824  29.307  33.193  1.00  0.00     0.049 A 
ATOM     59  C   UNL A   1      44.887  25.920  28.986  1.00  0.00     0.074 A 
ATOM     60  C   UNL A   1      44.363  30.573  33.144  1.00  0.00     0.029 A 
ATOM     61  N   UNL A   1      44.458  28.569  32.233  1.00  0.00    -0.354 N 
ATOM     62  N   UNL A   1      45.626  26.972  28.775  1.00  0.00    -0.248 NA
ATOM     63  C   UNL A   1      44.968  25.353  30.329  1.00  0.00     0.031 C 
ATOM     64  C   UNL A   1      45.334  30.575  32.097  1.00  0.00     0.029 A 
ATOM     65  C   UNL A   1      45.364  29.313  31.522  1.00  0.00     0.049 A 
ATOM     66  H   UNL A   1      44.284  27.613  32.071  1.00  0.00     0.167 HD
ATOM     67  C   UNL A   1      45.900  27.439  30.040  1.00  0.00     0.074 A 
ATOM     68  C   UNL A   1      45.653  26.323  30.939  1.00  0.00     0.031 C 
ATOM     69  C   UNL A   1      45.908  28.775  30.298  1.00  0.00     0.037 A 
BRANCH  56  70
ATOM     70  C   UNL A   1      42.804  27.536  34.732  1.00  0.00     0.064 A 
ATOM     71  C   UNL A   1      42.928  27.794  36.103  1.00  0.00     0.173 A 
ATOM     72  C   UNL A   1      43.083  26.216  34.312  1.00  0.00     0.173 A 
ATOM     73  F   UNL A   1      42.758  29.036  36.576  1.00  0.00    -0.203 F 
ATOM     74  C   UNL A   1      43.291  26.787  36.998  1.00  0.00     0.198 A 
ATOM     75  C   UNL A   1      43.383  25.201  35.214  1.00  0.00     0.198 A 
ATOM     76  F   UNL A   1      43.176  25.894  33.014  1.00  0.00    -0.203 F 
ATOM     77  F   UNL A   1      43.482  27.085  38.291  1.00  0.00    -0.200 F 
ATOM     78  C   UNL A   1      43.503  25.490  36.556  1.00  0.00     0.200 A 
ATOM     79  F   UNL A   1      43.617  23.961  34.760  1.00  0.00    -0.200 F 
ATOM     80  F   UNL A   1      43.870  24.530  37.415  1.00  0.00    -0.200 F 
ENDBRANCH  56  70
BRANCH  57  81
ATOM     81  C   UNL A   1      44.036  24.245  27.208  1.00  0.00     0.064 A 
ATOM     82  C   UNL A   1      43.519  22.994  27.589  1.00  0.00     0.173 A 
ATOM     83  C   UNL A   1      44.519  24.345  25.889  1.00  0.00     0.173 A 
ATOM     84  F   UNL A   1      42.995  22.817  28.811  1.00  0.00    -0.203 F 
ATOM     85  C   UNL A   1      43.464  21.918  26.698  1.00  0.00     0.198 A 
ATOM     86  C   UNL A   1      44.471  23.266  25.003  1.00  0.00     0.198 A 
ATOM     87  F   UNL A   1      44.957  25.516  25.405  1.00  0.00    -0.203 F 
ATOM     88  F   UNL A   1      42.900  20.764  27.078  1.00  0.00    -0.200 F 
ATOM     89  C   UNL A   1      43.934  22.058  25.404  1.00  0.00     0.200 A 
ATOM     90  F   UNL A   1      44.885  23.421  23.739  1.00  0.00    -0.200 F 
ATOM     91  F   UNL A   1      43.825  21.047  24.531  1.00  0.00    -0.200 F 
ENDBRANCH  57  81
BRANCH  69  92
ATOM     92  C   UNL A   1      46.325  29.687  29.192  1.00  0.00     0.064 A 
ATOM     93  C   UNL A   1      47.653  30.046  28.913  1.00  0.00     0.173 A 
ATOM     94  C   UNL A   1      45.320  30.225  28.375  1.00  0.00     0.173 A 
ATOM     95  F   UNL A   1      48.666  29.529  29.624  1.00  0.00    -0.203 F 
ATOM     96  C   UNL A   1      47.953  30.938  27.882  1.00  0.00     0.198 A 
ATOM     97  C   UNL A   1      45.624  31.089  27.327  1.00  0.00     0.198 A 
ATOM     98  F   UNL A   1      44.034  29.900  28.586  1.00  0.00    -0.203 F 
ATOM     99  F   UNL A   1      49.222  31.301  27.650  1.00  0.00    -0.200 F 
ATOM    100  C   UNL A   1      46.938  31.454  27.089  1.00  0.00     0.200 A 
ATOM    101  F   UNL A   1      44.641  31.566  26.549  1.00  0.00    -0.200 F 
ATOM    102  F   UNL A   1      47.226  32.298  26.088  1.00  0.00    -0.200 F 
ENDBRANCH  69  92
ENDBRANCH  43  44
ENDBRANCH  36  38
ENDBRANCH  35  36
ENDBRANCH  34  35
ENDBRANCH  33  34
ENDBRANCH  32  33
ENDBRANCH   1  32
TORSDOF 19
ENDMDL
MODEL 3
REMARK VINA RESULT:     -11.5      2.492      3.676
REMARK SMILES CS(=O)(=O)c1ccc(-n2nc(C(F)(F)F)cc2-c2ccc(CC(=O)OCCOCCOC(=O)c3ccc(-c4c5nc(c(-c6c(F)c(F)c(F)c(F)c6F)c6ccc([nH]6)c(-c6c(F)c(F)c(F)c(F)c6F)c6nc(c(-c7c(F)c(F)c(F)c(F)c7F)c7ccc4[nH]7)C=C6)C=C5)cc3)cc2)cc1
REMARK SMILES IDX 27 1 26 2 25 3 23 4 24 5 22 6 21 7 18 8 19 9 98 10 20 11
REMARK SMILES IDX 97 12 17 13 9 14 10 15 11 16 16 17 8 18 5 19 6 20 100 21
REMARK SMILES IDX 7 22 99 23 2 24 1 25 3 26 4 27 12 28 13 29 14 30 15 31 28 32
REMARK SMILES IDX 29 33 30 34 31 35 32 36 33 37 34 38 35 39 96 40 36 41 95 42
REMARK SMILES IDX 37 43 38 44 39 45 89 46 40 47 94 48 88 49 90 50 41 51 93 52
REMARK SMILES IDX 87 53 86 54 42 56 74 57 54 58 73 59 55 60 58 61 72 62 91 63
REMARK SMILES IDX 56 64 57 65 71 67 92 68 59 69 43 70 44 71 52 72 45 73 46 74
REMARK SMILES IDX 50 75 53 76 47 77 48 78 51 79 49 80 75 81 76 82 84 83 77 84
REMARK SMILES IDX 78 85 82 86 85 87 79 88 80 89 83 90 81 91 60 92 61 93 69 94
REMARK SMILES IDX 62 95 63 96 67 97 70 98 64 99 65 100 68 101 66 102
REMARK H PARENT 90 55 58 66
REMARK Flexibility Score: inf
ROOT
ATOM      1  C   UNL A   1      31.760  28.754  26.426  1.00  0.00     0.202 C 
ENDROOT
BRANCH   1   2
ATOM      2  C   UNL A   1      31.702  28.981  24.910  1.00  0.00     0.261 C 
BRANCH   2   3
ATOM      3  O   UNL A   1      30.702  28.237  24.190  1.00  0.00    -0.463 OA
BRANCH   3   4
ATOM      4  C   UNL A   1      31.070  27.887  22.924  1.00  0.00     0.310 C 
ATOM      5  O   UNL A   1      30.343  27.988  21.941  1.00  0.00    -0.252 OA
BRANCH   4   6
ATOM      6  C   UNL A   1      32.426  27.234  22.828  1.00  0.00     0.158 C 
BRANCH   6   7
ATOM      7  C   UNL A   1      32.580  25.774  23.181  1.00  0.00    -0.037 A 
ATOM      8  C   UNL A   1      33.156  23.131  24.007  1.00  0.00     0.000 A 
ATOM      9  C   UNL A   1      32.392  23.986  24.813  1.00  0.00     0.010 A 
ATOM     10  C   UNL A   1      33.627  23.610  22.779  1.00  0.00     0.010 A 
ATOM     11  C   UNL A   1      32.095  25.286  24.401  1.00  0.00     0.005 A 
ATOM     12  C   UNL A   1      33.336  24.917  22.369  1.00  0.00     0.005 A 
BRANCH   8  13
ATOM     13  C   UNL A   1      33.469  21.773  24.460  1.00  0.00     0.075 A 
ATOM     14  N   UNL A   1      34.740  21.279  24.767  1.00  0.00    -0.233 N 
ATOM     15  N   UNL A   1      34.731  19.923  24.885  1.00  0.00    -0.163 NA
ATOM     16  C   UNL A   1      33.432  19.570  24.857  1.00  0.00     0.167 A 
ATOM     17  C   UNL A   1      32.615  20.694  24.590  1.00  0.00     0.064 A 
BRANCH  14  18
ATOM     18  C   UNL A   1      35.938  22.004  25.060  1.00  0.00     0.065 A 
ATOM     19  C   UNL A   1      38.272  23.240  26.041  1.00  0.00     0.067 A 
ATOM     20  C   UNL A   1      37.034  23.840  26.213  1.00  0.00     0.022 A 
ATOM     21  C   UNL A   1      38.364  22.056  25.302  1.00  0.00     0.022 A 
ATOM     22  C   UNL A   1      35.873  23.236  25.719  1.00  0.00     0.030 A 
ATOM     23  C   UNL A   1      37.198  21.430  24.828  1.00  0.00     0.030 A 
BRANCH  19  24
ATOM     24  S   UNL A   1      39.703  23.806  26.942  1.00  0.00     0.175 S 
ATOM     25  C   UNL A   1      39.206  25.073  28.073  1.00  0.00     0.163 C 
ATOM     26  O   UNL A   1      40.583  24.422  25.976  1.00  0.00    -0.224 OA
ATOM     27  O   UNL A   1      40.125  22.669  27.746  1.00  0.00    -0.224 OA
ENDBRANCH  19  24
ENDBRANCH  14  18
BRANCH  16  28
ATOM     28  C   UNL A   1      32.940  18.157  25.050  1.00  0.00     0.435 C 
ATOM     29  F   UNL A   1      32.469  17.914  26.299  1.00  0.00    -0.164 F 
ATOM     30  F   UNL A   1      31.949  17.845  24.171  1.00  0.00    -0.164 F 
ATOM     31  F   UNL A   1      33.935  17.252  24.828  1.00  0.00    -0.164 F 
ENDBRANCH  16  28
ENDBRANCH   8  13
ENDBRANCH   6   7
ENDBRANCH   4   6
ENDBRANCH   3   4
ENDBRANCH   2   3
ENDBRANCH   1   2
BRANCH   1  32
ATOM     32  O   UNL A   1      32.916  28.136  26.969  1.00  0.00    -0.374 OA
BRANCH  32  33
ATOM     33  C   UNL A   1      34.080  28.937  27.123  1.00  0.00     0.202 C 
BRANCH  33  34
ATOM     34  C   UNL A   1      33.877  30.429  27.349  1.00  0.00     0.261 C 
BRANCH  34  35
ATOM     35  O   UNL A   1      35.107  31.172  27.450  1.00  0.00    -0.460 OA
BRANCH  35  36
ATOM     36  C   UNL A   1      35.701  31.152  28.680  1.00  0.00     0.338 C 
ATOM     37  O   UNL A   1      35.264  31.624  29.698  1.00  0.00    -0.246 OA
BRANCH  36  38
ATOM     38  C   UNL A   1      37.141  30.846  28.485  1.00  0.00     0.060 A 
ATOM     39  C   UNL A   1      37.403  29.568  27.981  1.00  0.00     0.016 A 
ATOM     40  C   UNL A   1      38.149  31.588  29.116  1.00  0.00     0.016 A 
ATOM     41  C   UNL A   1      38.590  28.944  28.324  1.00  0.00     0.010 A 
ATOM     42  C   UNL A   1      39.353  30.963  29.435  1.00  0.00     0.010 A 
ATOM     43  C   UNL A   1      39.535  29.617  29.112  1.00  0.00    -0.014 A 
BRANCH  43  44
ATOM     44  C   UNL A   1      40.781  28.903  29.393  1.00  0.00     0.031 A 
ATOM     45  C   UNL A   1      41.074  28.846  30.827  1.00  0.00     0.074 A 
ATOM     46  C   UNL A   1      41.627  28.312  28.523  1.00  0.00     0.049 A 
ATOM     47  N   UNL A   1      42.008  29.488  31.440  1.00  0.00    -0.248 NA
ATOM     48  C   UNL A   1      40.159  28.091  31.694  1.00  0.00     0.031 C 
ATOM     49  C   UNL A   1      41.372  28.094  27.116  1.00  0.00     0.029 A 
ATOM     50  N   UNL A   1      42.860  27.727  28.699  1.00  0.00    -0.354 N 
ATOM     51  C   UNL A   1      41.969  29.002  32.730  1.00  0.00     0.074 A 
ATOM     52  C   UNL A   1      40.716  28.304  32.887  1.00  0.00     0.031 C 
ATOM     53  C   UNL A   1      42.302  27.285  26.580  1.00  0.00     0.029 A 
ATOM     54  C   UNL A   1      43.313  27.021  27.586  1.00  0.00     0.049 A 
ATOM     55  H   UNL A   1      43.376  27.801  29.535  1.00  0.00     0.167 HD
ATOM     56  C   UNL A   1      43.123  28.884  33.430  1.00  0.00     0.037 A 
ATOM     57  C   UNL A   1      44.440  26.286  27.428  1.00  0.00     0.037 A 
ATOM     58  C   UNL A   1      44.199  29.667  32.889  1.00  0.00     0.049 A 
ATOM     59  C   UNL A   1      45.458  26.768  28.382  1.00  0.00     0.074 A 
ATOM     60  C   UNL A   1      44.617  30.978  32.942  1.00  0.00     0.029 A 
ATOM     61  N   UNL A   1      44.873  29.077  31.857  1.00  0.00    -0.354 N 
ATOM     62  N   UNL A   1      46.091  27.900  28.251  1.00  0.00    -0.248 NA
ATOM     63  C   UNL A   1      45.628  26.099  29.669  1.00  0.00     0.031 C 
ATOM     64  C   UNL A   1      45.556  31.162  31.882  1.00  0.00     0.029 A 
ATOM     65  C   UNL A   1      45.687  29.962  31.197  1.00  0.00     0.049 A 
ATOM     66  H   UNL A   1      44.783  28.127  31.615  1.00  0.00     0.167 HD
ATOM     67  C   UNL A   1      46.355  28.280  29.547  1.00  0.00     0.074 A 
ATOM     68  C   UNL A   1      46.236  27.073  30.349  1.00  0.00     0.031 C 
ATOM     69  C   UNL A   1      46.246  29.584  29.922  1.00  0.00     0.037 A 
BRANCH  56  70
ATOM     70  C   UNL A   1      43.388  27.683  34.286  1.00  0.00     0.064 A 
ATOM     71  C   UNL A   1      43.562  26.429  33.689  1.00  0.00     0.173 A 
ATOM     72  C   UNL A   1      43.210  27.693  35.688  1.00  0.00     0.173 A 
ATOM     73  F   UNL A   1      43.660  26.321  32.356  1.00  0.00    -0.203 F 
ATOM     74  C   UNL A   1      43.574  25.260  34.450  1.00  0.00     0.198 A 
ATOM     75  C   UNL A   1      43.285  26.534  36.451  1.00  0.00     0.198 A 
ATOM     76  F   UNL A   1      42.855  28.807  36.345  1.00  0.00    -0.203 F 
ATOM     77  F   UNL A   1      43.658  24.070  33.840  1.00  0.00    -0.200 F 
ATOM     78  C   UNL A   1      43.451  25.314  35.830  1.00  0.00     0.200 A 
ATOM     79  F   UNL A   1      43.130  26.606  37.781  1.00  0.00    -0.200 F 
ATOM     80  F   UNL A   1      43.443  24.189  36.557  1.00  0.00    -0.200 F 
ENDBRANCH  56  70
BRANCH  57  81
ATOM     81  C   UNL A   1      44.719  25.180  26.481  1.00  0.00     0.064 A 
ATOM     82  C   UNL A   1      45.753  25.266  25.533  1.00  0.00     0.173 A 
ATOM     83  C   UNL A   1      44.132  23.910  26.649  1.00  0.00     0.173 A 
ATOM     84  F   UNL A   1      46.402  26.423  25.336  1.00  0.00    -0.203 F 
ATOM     85  C   UNL A   1      46.192  24.147  24.818  1.00  0.00     0.198 A 
ATOM     86  C   UNL A   1      44.565  22.796  25.927  1.00  0.00     0.198 A 
ATOM     87  F   UNL A   1      43.193  23.707  27.585  1.00  0.00    -0.203 F 
ATOM     88  F   UNL A   1      47.228  24.257  23.974  1.00  0.00    -0.200 F 
ATOM     89  C   UNL A   1      45.602  22.912  25.021  1.00  0.00     0.200 A 
ATOM     90  F   UNL A   1      44.021  21.595  26.162  1.00  0.00    -0.200 F 
ATOM     91  F   UNL A   1      46.063  21.828  24.382  1.00  0.00    -0.200 F 
ENDBRANCH  57  81
BRANCH  69  92
ATOM     92  C   UNL A   1      46.547  30.623  28.892  1.00  0.00     0.064 A 
ATOM     93  C   UNL A   1      47.833  31.102  28.596  1.00  0.00     0.173 A 
ATOM     94  C   UNL A   1      45.471  31.160  28.171  1.00  0.00     0.173 A 
ATOM     95  F   UNL A   1      48.911  30.597  29.213  1.00  0.00    -0.203 F 
ATOM     96  C   UNL A   1      48.022  32.105  27.645  1.00  0.00     0.198 A 
ATOM     97  C   UNL A   1      45.666  32.137  27.200  1.00  0.00     0.198 A 
ATOM     98  F   UNL A   1      44.222  30.724  28.401  1.00  0.00    -0.203 F 
ATOM     99  F   UNL A   1      49.252  32.580  27.398  1.00  0.00    -0.200 F 
ATOM    100  C   UNL A   1      46.939  32.618  26.945  1.00  0.00     0.200 A 
ATOM    101  F   UNL A   1      44.617  32.611  26.511  1.00  0.00    -0.200 F 
ATOM    102  F   UNL A   1      47.121  33.570  26.019  1.00  0.00    -0.200 F 
ENDBRANCH  69  92
ENDBRANCH  43  44
ENDBRANCH  36  38
ENDBRANCH  35  36
ENDBRANCH  34  35
ENDBRANCH  33  34
ENDBRANCH  32  33
ENDBRANCH   1  32
TORSDOF 19
ENDMDL
