MODEL 1
REMARK VINA RESULT:     -13.7      0.000      0.000
REMARK SMILES CS(=O)(=O)c1ccc(C2=NN(c3ccc(C(=O)OCCOCCOC(=O)c4ccc(-c5c6nc(c(-c7c(F)c(F)c(F)c(F)c7F)c7ccc([nH]7)c(-c7c(F)c(F)c(F)c(F)c7F)c7nc(c(-c8c(F)c(F)c(F)c(F)c8F)c8ccc5[nH]8)C=C7)C=C6)cc4)cc3)[C@H](c3ccccc3)C2)cc1
REMARK SMILES IDX 20 1 19 2 18 3 16 4 17 5 15 6 12 7 13 8 91 9 14 10 90 11
REMARK SMILES IDX 11 12 9 13 10 14 99 15 92 16 8 17 5 18 6 19 101 20 7 21
REMARK SMILES IDX 100 22 2 23 1 24 3 25 4 26 93 27 94 28 98 29 95 30 97 31
REMARK SMILES IDX 96 32 21 33 22 34 23 35 24 36 25 37 26 38 27 39 28 40 89 41
REMARK SMILES IDX 29 42 88 43 30 44 31 45 32 46 82 47 33 48 87 49 81 50 83 51
REMARK SMILES IDX 34 52 86 53 80 54 79 55 35 57 67 58 47 59 66 60 48 61 51 62
REMARK SMILES IDX 65 63 84 64 49 65 50 66 64 68 85 69 52 70 36 71 37 72 45 73
REMARK SMILES IDX 38 74 39 75 43 76 46 77 40 78 41 79 44 80 42 81 68 82 69 83
REMARK SMILES IDX 77 84 70 85 71 86 75 87 78 88 72 89 73 90 76 91 74 92 53 93
REMARK SMILES IDX 54 94 62 95 55 96 56 97 60 98 63 99 57 100 58 101 61 102
REMARK SMILES IDX 59 103
REMARK H PARENT 83 56 51 67
REMARK Flexibility Score: inf
ROOT
ATOM      1  C   UNL A   1      41.016  20.565  26.418  1.00  0.00     0.202 C 
ENDROOT
BRANCH   1   2
ATOM      2  C   UNL A   1      40.376  21.907  26.781  1.00  0.00     0.261 C 
BRANCH   2   3
ATOM      3  O   UNL A   1      39.233  22.160  25.948  1.00  0.00    -0.460 OA
BRANCH   3   4
ATOM      4  C   UNL A   1      38.476  23.224  26.307  1.00  0.00     0.338 C 
ATOM      5  O   UNL A   1      38.848  24.199  26.949  1.00  0.00    -0.246 OA
BRANCH   4   6
ATOM      6  C   UNL A   1      37.125  23.128  25.703  1.00  0.00     0.060 A 
ATOM      7  C   UNL A   1      34.604  23.129  24.461  1.00  0.00     0.060 A 
ATOM      8  C   UNL A   1      35.766  23.310  23.703  1.00  0.00     0.029 A 
ATOM      9  C   UNL A   1      34.728  22.847  25.829  1.00  0.00     0.029 A 
ATOM     10  C   UNL A   1      37.018  23.321  24.319  1.00  0.00     0.018 A 
ATOM     11  C   UNL A   1      35.979  22.850  26.454  1.00  0.00     0.018 A 
BRANCH   7  12
ATOM     12  N   UNL A   1      33.334  23.365  23.909  1.00  0.00    -0.257 N 
ATOM     13  C   UNL A   1      31.661  24.700  23.905  1.00  0.00     0.071 C 
ATOM     14  N   UNL A   1      32.941  24.656  23.706  1.00  0.00    -0.176 NA
ATOM     15  C   UNL A   1      31.020  23.426  24.375  1.00  0.00     0.091 C 
ATOM     16  C   UNL A   1      32.241  22.501  24.407  1.00  0.00     0.144 C 
BRANCH  13  17
ATOM     17  C   UNL A   1      30.855  25.908  23.658  1.00  0.00    -0.002 A 
ATOM     18  C   UNL A   1      29.391  28.198  23.054  1.00  0.00     0.067 A 
ATOM     19  C   UNL A   1      30.775  28.196  22.863  1.00  0.00     0.021 A 
ATOM     20  C   UNL A   1      28.738  27.068  23.560  1.00  0.00     0.021 A 
ATOM     21  C   UNL A   1      31.509  27.052  23.183  1.00  0.00     0.011 A 
ATOM     22  C   UNL A   1      29.471  25.913  23.852  1.00  0.00     0.011 A 
BRANCH  18  23
ATOM     23  S   UNL A   1      28.428  29.635  22.636  1.00  0.00     0.175 S 
ATOM     24  C   UNL A   1      29.072  30.961  23.621  1.00  0.00     0.163 C 
ATOM     25  O   UNL A   1      27.074  29.385  23.094  1.00  0.00    -0.224 OA
ATOM     26  O   UNL A   1      28.708  29.923  21.244  1.00  0.00    -0.224 OA
ENDBRANCH  18  23
ENDBRANCH  13  17
BRANCH  16  27
ATOM     27  C   UNL A   1      32.175  21.201  23.618  1.00  0.00    -0.023 A 
ATOM     28  C   UNL A   1      31.816  21.129  22.266  1.00  0.00     0.006 A 
ATOM     29  C   UNL A   1      32.568  20.008  24.259  1.00  0.00     0.006 A 
ATOM     30  C   UNL A   1      31.843  19.908  21.583  1.00  0.00     0.000 A 
ATOM     31  C   UNL A   1      32.630  18.797  23.568  1.00  0.00     0.000 A 
ATOM     32  C   UNL A   1      32.263  18.746  22.229  1.00  0.00     0.000 A 
ENDBRANCH  16  27
ENDBRANCH   7  12
ENDBRANCH   4   6
ENDBRANCH   3   4
ENDBRANCH   2   3
ENDBRANCH   1   2
BRANCH   1  33
ATOM     33  O   UNL A   1      42.305  20.634  25.807  1.00  0.00    -0.374 OA
BRANCH  33  34
ATOM     34  C   UNL A   1      43.160  21.707  26.203  1.00  0.00     0.202 C 
BRANCH  34  35
ATOM     35  C   UNL A   1      44.075  22.279  25.114  1.00  0.00     0.261 C 
BRANCH  35  36
ATOM     36  O   UNL A   1      43.563  23.507  24.567  1.00  0.00    -0.460 OA
BRANCH  36  37
ATOM     37  C   UNL A   1      44.242  24.612  24.948  1.00  0.00     0.338 C 
ATOM     38  O   UNL A   1      45.372  24.940  24.612  1.00  0.00    -0.246 OA
BRANCH  37  39
ATOM     39  C   UNL A   1      43.381  25.506  25.746  1.00  0.00     0.060 A 
ATOM     40  C   UNL A   1      43.933  26.732  26.138  1.00  0.00     0.016 A 
ATOM     41  C   UNL A   1      42.119  25.118  26.200  1.00  0.00     0.016 A 
ATOM     42  C   UNL A   1      43.265  27.534  27.058  1.00  0.00     0.010 A 
ATOM     43  C   UNL A   1      41.448  25.925  27.127  1.00  0.00     0.010 A 
ATOM     44  C   UNL A   1      42.046  27.107  27.602  1.00  0.00    -0.014 A 
BRANCH  44  45
ATOM     45  C   UNL A   1      41.529  27.798  28.809  1.00  0.00     0.031 A 
ATOM     46  C   UNL A   1      42.274  27.635  30.109  1.00  0.00     0.074 A 
ATOM     47  C   UNL A   1      40.472  28.626  28.737  1.00  0.00     0.049 A 
ATOM     48  N   UNL A   1      42.036  28.173  31.279  1.00  0.00    -0.248 NA
ATOM     49  C   UNL A   1      43.449  26.749  30.084  1.00  0.00     0.031 C 
ATOM     50  C   UNL A   1      39.692  28.899  27.531  1.00  0.00     0.029 A 
ATOM     51  N   UNL A   1      39.880  29.400  29.704  1.00  0.00    -0.354 N 
ATOM     52  C   UNL A   1      43.033  27.698  32.122  1.00  0.00     0.074 A 
ATOM     53  C   UNL A   1      43.853  26.795  31.345  1.00  0.00     0.031 C 
ATOM     54  C   UNL A   1      38.717  29.775  27.832  1.00  0.00     0.029 A 
ATOM     55  C   UNL A   1      38.795  30.110  29.253  1.00  0.00     0.049 A 
ATOM     56  H   UNL A   1      40.202  29.440  30.634  1.00  0.00     0.167 HD
ATOM     57  C   UNL A   1      43.260  28.003  33.422  1.00  0.00     0.037 A 
ATOM     58  C   UNL A   1      37.959  30.931  29.917  1.00  0.00     0.037 A 
ATOM     59  C   UNL A   1      42.448  28.901  34.199  1.00  0.00     0.049 A 
ATOM     60  C   UNL A   1      38.203  31.210  31.380  1.00  0.00     0.074 A 
ATOM     61  C   UNL A   1      42.584  29.259  35.529  1.00  0.00     0.029 A 
ATOM     62  N   UNL A   1      41.347  29.586  33.711  1.00  0.00    -0.354 N 
ATOM     63  N   UNL A   1      39.155  30.766  32.163  1.00  0.00    -0.248 NA
ATOM     64  C   UNL A   1      37.258  32.119  32.046  1.00  0.00     0.031 C 
ATOM     65  C   UNL A   1      41.544  30.136  35.855  1.00  0.00     0.029 A 
ATOM     66  C   UNL A   1      40.788  30.360  34.716  1.00  0.00     0.049 A 
ATOM     67  H   UNL A   1      41.011  29.531  32.787  1.00  0.00     0.167 HD
ATOM     68  C   UNL A   1      38.944  31.363  33.399  1.00  0.00     0.074 A 
ATOM     69  C   UNL A   1      37.784  32.216  33.257  1.00  0.00     0.031 C 
ATOM     70  C   UNL A   1      39.643  31.216  34.551  1.00  0.00     0.037 A 
BRANCH  57  71
ATOM     71  C   UNL A   1      44.435  27.354  34.091  1.00  0.00     0.064 A 
ATOM     72  C   UNL A   1      45.701  27.961  34.095  1.00  0.00     0.173 A 
ATOM     73  C   UNL A   1      44.288  26.137  34.771  1.00  0.00     0.173 A 
ATOM     74  F   UNL A   1      45.897  29.117  33.444  1.00  0.00    -0.203 F 
ATOM     75  C   UNL A   1      46.779  27.363  34.743  1.00  0.00     0.198 A 
ATOM     76  C   UNL A   1      45.361  25.555  35.440  1.00  0.00     0.198 A 
ATOM     77  F   UNL A   1      43.098  25.517  34.798  1.00  0.00    -0.203 F 
ATOM     78  F   UNL A   1      47.986  27.943  34.704  1.00  0.00    -0.200 F 
ATOM     79  C   UNL A   1      46.607  26.167  35.422  1.00  0.00     0.200 A 
ATOM     80  F   UNL A   1      45.192  24.404  36.105  1.00  0.00    -0.200 F 
ATOM     81  F   UNL A   1      47.642  25.599  36.055  1.00  0.00    -0.200 F 
ENDBRANCH  57  71
BRANCH  58  82
ATOM     82  C   UNL A   1      36.800  31.548  29.218  1.00  0.00     0.064 A 
ATOM     83  C   UNL A   1      36.767  32.919  28.934  1.00  0.00     0.173 A 
ATOM     84  C   UNL A   1      35.678  30.782  28.870  1.00  0.00     0.173 A 
ATOM     85  F   UNL A   1      37.805  33.699  29.272  1.00  0.00    -0.203 F 
ATOM     86  C   UNL A   1      35.642  33.509  28.359  1.00  0.00     0.198 A 
ATOM     87  C   UNL A   1      34.566  31.366  28.266  1.00  0.00     0.198 A 
ATOM     88  F   UNL A   1      35.659  29.464  29.120  1.00  0.00    -0.203 F 
ATOM     89  F   UNL A   1      35.612  34.833  28.158  1.00  0.00    -0.200 F 
ATOM     90  C   UNL A   1      34.545  32.731  28.023  1.00  0.00     0.200 A 
ATOM     91  F   UNL A   1      33.512  30.610  27.935  1.00  0.00    -0.200 F 
ATOM     92  F   UNL A   1      33.459  33.299  27.479  1.00  0.00    -0.200 F 
ENDBRANCH  58  82
BRANCH  70  93
ATOM     93  C   UNL A   1      39.198  32.027  35.735  1.00  0.00     0.064 A 
ATOM     94  C   UNL A   1      39.630  33.347  35.927  1.00  0.00     0.173 A 
ATOM     95  C   UNL A   1      38.312  31.482  36.675  1.00  0.00     0.173 A 
ATOM     96  F   UNL A   1      40.488  33.909  35.062  1.00  0.00    -0.203 F 
ATOM     97  C   UNL A   1      39.220  34.079  37.038  1.00  0.00     0.198 A 
ATOM     98  C   UNL A   1      37.879  32.227  37.769  1.00  0.00     0.198 A 
ATOM     99  F   UNL A   1      37.860  30.226  36.532  1.00  0.00    -0.203 F 
ATOM    100  F   UNL A   1      39.691  35.319  37.231  1.00  0.00    -0.200 F 
ATOM    101  C   UNL A   1      38.342  33.521  37.955  1.00  0.00     0.200 A 
ATOM    102  F   UNL A   1      37.020  31.692  38.647  1.00  0.00    -0.200 F 
ATOM    103  F   UNL A   1      37.949  34.228  39.024  1.00  0.00    -0.200 F 
ENDBRANCH  70  93
ENDBRANCH  44  45
ENDBRANCH  37  39
ENDBRANCH  36  37
ENDBRANCH  35  36
ENDBRANCH  34  35
ENDBRANCH  33  34
ENDBRANCH   1  33
TORSDOF 18
ENDMDL
MODEL 2
REMARK VINA RESULT:     -13.4      0.827      7.078
REMARK SMILES CS(=O)(=O)c1ccc(C2=NN(c3ccc(C(=O)OCCOCCOC(=O)c4ccc(-c5c6nc(c(-c7c(F)c(F)c(F)c(F)c7F)c7ccc([nH]7)c(-c7c(F)c(F)c(F)c(F)c7F)c7nc(c(-c8c(F)c(F)c(F)c(F)c8F)c8ccc5[nH]8)C=C7)C=C6)cc4)cc3)[C@H](c3ccccc3)C2)cc1
REMARK SMILES IDX 20 1 19 2 18 3 16 4 17 5 15 6 12 7 13 8 91 9 14 10 90 11
REMARK SMILES IDX 11 12 9 13 10 14 99 15 92 16 8 17 5 18 6 19 101 20 7 21
REMARK SMILES IDX 100 22 2 23 1 24 3 25 4 26 93 27 94 28 98 29 95 30 97 31
REMARK SMILES IDX 96 32 21 33 22 34 23 35 24 36 25 37 26 38 27 39 28 40 89 41
REMARK SMILES IDX 29 42 88 43 30 44 31 45 32 46 82 47 33 48 87 49 81 50 83 51
REMARK SMILES IDX 34 52 86 53 80 54 79 55 35 57 67 58 47 59 66 60 48 61 51 62
REMARK SMILES IDX 65 63 84 64 49 65 50 66 64 68 85 69 52 70 36 71 37 72 45 73
REMARK SMILES IDX 38 74 39 75 43 76 46 77 40 78 41 79 44 80 42 81 68 82 69 83
REMARK SMILES IDX 77 84 70 85 71 86 75 87 78 88 72 89 73 90 76 91 74 92 53 93
REMARK SMILES IDX 54 94 62 95 55 96 56 97 60 98 63 99 57 100 58 101 61 102
REMARK SMILES IDX 59 103
REMARK H PARENT 83 56 51 67
REMARK Flexibility Score: inf
ROOT
ATOM      1  C   UNL A   1      41.641  20.796  26.747  1.00  0.00     0.202 C 
ENDROOT
BRANCH   1   2
ATOM      2  C   UNL A   1      40.155  20.476  26.566  1.00  0.00     0.261 C 
BRANCH   2   3
ATOM      3  O   UNL A   1      39.545  21.414  25.665  1.00  0.00    -0.460 OA
BRANCH   3   4
ATOM      4  C   UNL A   1      38.958  22.485  26.249  1.00  0.00     0.338 C 
ATOM      5  O   UNL A   1      39.430  23.176  27.144  1.00  0.00    -0.246 OA
BRANCH   4   6
ATOM      6  C   UNL A   1      37.681  22.812  25.571  1.00  0.00     0.060 A 
ATOM      7  C   UNL A   1      35.163  23.407  24.472  1.00  0.00     0.060 A 
ATOM      8  C   UNL A   1      35.614  24.079  25.614  1.00  0.00     0.029 A 
ATOM      9  C   UNL A   1      36.030  22.509  23.832  1.00  0.00     0.029 A 
ATOM     10  C   UNL A   1      36.858  23.777  26.168  1.00  0.00     0.018 A 
ATOM     11  C   UNL A   1      37.281  22.205  24.376  1.00  0.00     0.018 A 
BRANCH   7  12
ATOM     12  N   UNL A   1      33.827  23.509  24.050  1.00  0.00    -0.257 N 
ATOM     13  C   UNL A   1      32.120  24.797  23.979  1.00  0.00     0.071 C 
ATOM     14  N   UNL A   1      33.366  24.724  23.632  1.00  0.00    -0.176 NA
ATOM     15  C   UNL A   1      31.587  23.647  24.783  1.00  0.00     0.091 C 
ATOM     16  C   UNL A   1      32.835  22.761  24.853  1.00  0.00     0.144 C 
BRANCH  13  17
ATOM     17  C   UNL A   1      31.247  25.918  23.589  1.00  0.00    -0.002 A 
ATOM     18  C   UNL A   1      29.563  28.054  22.994  1.00  0.00     0.067 A 
ATOM     19  C   UNL A   1      29.081  26.991  23.762  1.00  0.00     0.021 A 
ATOM     20  C   UNL A   1      30.877  28.047  22.510  1.00  0.00     0.021 A 
ATOM     21  C   UNL A   1      29.923  25.913  24.044  1.00  0.00     0.011 A 
ATOM     22  C   UNL A   1      31.727  26.981  22.818  1.00  0.00     0.011 A 
BRANCH  18  23
ATOM     23  S   UNL A   1      28.520  29.451  22.636  1.00  0.00     0.175 S 
ATOM     24  C   UNL A   1      29.165  30.801  23.588  1.00  0.00     0.163 C 
ATOM     25  O   UNL A   1      27.206  29.146  23.169  1.00  0.00    -0.224 OA
ATOM     26  O   UNL A   1      28.709  29.752  21.231  1.00  0.00    -0.224 OA
ENDBRANCH  18  23
ENDBRANCH  13  17
BRANCH  16  27
ATOM     27  C   UNL A   1      32.720  21.322  24.369  1.00  0.00    -0.023 A 
ATOM     28  C   UNL A   1      32.216  20.962  23.113  1.00  0.00     0.006 A 
ATOM     29  C   UNL A   1      33.214  20.295  25.199  1.00  0.00     0.006 A 
ATOM     30  C   UNL A   1      32.202  19.623  22.704  1.00  0.00     0.000 A 
ATOM     31  C   UNL A   1      33.234  18.965  24.777  1.00  0.00     0.000 A 
ATOM     32  C   UNL A   1      32.723  18.628  23.529  1.00  0.00     0.000 A 
ENDBRANCH  16  27
ENDBRANCH   7  12
ENDBRANCH   4   6
ENDBRANCH   3   4
ENDBRANCH   2   3
ENDBRANCH   1   2
BRANCH   1  33
ATOM     33  O   UNL A   1      42.373  21.055  25.549  1.00  0.00    -0.374 OA
BRANCH  33  34
ATOM     34  C   UNL A   1      43.771  21.318  25.680  1.00  0.00     0.202 C 
BRANCH  34  35
ATOM     35  C   UNL A   1      44.157  22.757  26.036  1.00  0.00     0.261 C 
BRANCH  35  36
ATOM     36  O   UNL A   1      43.294  23.721  25.407  1.00  0.00    -0.460 OA
BRANCH  36  37
ATOM     37  C   UNL A   1      43.808  24.970  25.341  1.00  0.00     0.338 C 
ATOM     38  O   UNL A   1      44.704  25.365  24.607  1.00  0.00    -0.246 OA
BRANCH  37  39
ATOM     39  C   UNL A   1      43.041  25.896  26.196  1.00  0.00     0.060 A 
ATOM     40  C   UNL A   1      43.616  27.148  26.447  1.00  0.00     0.016 A 
ATOM     41  C   UNL A   1      41.855  25.520  26.830  1.00  0.00     0.016 A 
ATOM     42  C   UNL A   1      43.058  27.992  27.403  1.00  0.00     0.010 A 
ATOM     43  C   UNL A   1      41.295  26.369  27.792  1.00  0.00     0.010 A 
ATOM     44  C   UNL A   1      41.928  27.582  28.122  1.00  0.00    -0.014 A 
BRANCH  44  45
ATOM     45  C   UNL A   1      41.558  28.332  29.348  1.00  0.00     0.031 A 
ATOM     46  C   UNL A   1      40.325  29.198  29.321  1.00  0.00     0.074 A 
ATOM     47  C   UNL A   1      42.250  28.180  30.491  1.00  0.00     0.049 A 
ATOM     48  N   UNL A   1      39.784  29.909  30.278  1.00  0.00    -0.248 NA
ATOM     49  C   UNL A   1      39.601  29.266  28.041  1.00  0.00     0.031 C 
ATOM     50  C   UNL A   1      43.436  27.342  30.657  1.00  0.00     0.029 A 
ATOM     51  N   UNL A   1      42.043  28.722  31.735  1.00  0.00    -0.354 N 
ATOM     52  C   UNL A   1      38.657  30.499  29.719  1.00  0.00     0.074 A 
ATOM     53  C   UNL A   1      38.613  30.101  28.329  1.00  0.00     0.031 C 
ATOM     54  C   UNL A   1      43.858  27.431  31.930  1.00  0.00     0.029 A 
ATOM     55  C   UNL A   1      42.982  28.344  32.663  1.00  0.00     0.049 A 
ATOM     56  H   UNL A   1      41.293  29.327  31.942  1.00  0.00     0.167 HD
ATOM     57  C   UNL A   1      37.729  31.285  30.315  1.00  0.00     0.037 A 
ATOM     58  C   UNL A   1      43.118  28.703  33.954  1.00  0.00     0.037 A 
ATOM     59  C   UNL A   1      37.768  31.684  31.696  1.00  0.00     0.049 A 
ATOM     60  C   UNL A   1      42.099  29.625  34.578  1.00  0.00     0.074 A 
ATOM     61  C   UNL A   1      36.886  32.495  32.388  1.00  0.00     0.029 A 
ATOM     62  N   UNL A   1      38.746  31.295  32.599  1.00  0.00    -0.354 N 
ATOM     63  N   UNL A   1      41.031  30.165  34.044  1.00  0.00    -0.248 NA
ATOM     64  C   UNL A   1      42.301  29.973  35.992  1.00  0.00     0.031 C 
ATOM     65  C   UNL A   1      37.347  32.623  33.702  1.00  0.00     0.029 A 
ATOM     66  C   UNL A   1      38.492  31.856  33.840  1.00  0.00     0.049 A 
ATOM     67  H   UNL A   1      39.507  30.707  32.389  1.00  0.00     0.167 HD
ATOM     68  C   UNL A   1      40.420  30.889  35.060  1.00  0.00     0.074 A 
ATOM     69  C   UNL A   1      41.226  30.703  36.247  1.00  0.00     0.031 C 
ATOM     70  C   UNL A   1      39.296  31.645  35.015  1.00  0.00     0.037 A 
BRANCH  57  71
ATOM     71  C   UNL A   1      36.590  31.773  29.469  1.00  0.00     0.064 A 
ATOM     72  C   UNL A   1      35.538  30.920  29.099  1.00  0.00     0.173 A 
ATOM     73  C   UNL A   1      36.524  33.112  29.062  1.00  0.00     0.173 A 
ATOM     74  F   UNL A   1      35.563  29.626  29.450  1.00  0.00    -0.203 F 
ATOM     75  C   UNL A   1      34.470  31.391  28.339  1.00  0.00     0.198 A 
ATOM     76  C   UNL A   1      35.443  33.585  28.324  1.00  0.00     0.198 A 
ATOM     77  F   UNL A   1      37.504  33.968  29.392  1.00  0.00    -0.203 F 
ATOM     78  F   UNL A   1      33.494  30.550  27.967  1.00  0.00    -0.200 F 
ATOM     79  C   UNL A   1      34.419  32.723  27.959  1.00  0.00     0.200 A 
ATOM     80  F   UNL A   1      35.389  34.876  27.966  1.00  0.00    -0.200 F 
ATOM     81  F   UNL A   1      33.385  33.176  27.237  1.00  0.00    -0.200 F 
ENDBRANCH  57  71
BRANCH  58  82
ATOM     82  C   UNL A   1      44.268  28.203  34.754  1.00  0.00     0.064 A 
ATOM     83  C   UNL A   1      44.168  27.035  35.522  1.00  0.00     0.173 A 
ATOM     84  C   UNL A   1      45.473  28.918  34.809  1.00  0.00     0.173 A 
ATOM     85  F   UNL A   1      43.027  26.330  35.523  1.00  0.00    -0.203 F 
ATOM     86  C   UNL A   1      45.218  26.618  36.339  1.00  0.00     0.198 A 
ATOM     87  C   UNL A   1      46.533  28.484  35.602  1.00  0.00     0.198 A 
ATOM     88  F   UNL A   1      45.620  30.043  34.094  1.00  0.00    -0.203 F 
ATOM     89  F   UNL A   1      45.071  25.533  37.111  1.00  0.00    -0.200 F 
ATOM     90  C   UNL A   1      46.399  27.342  36.376  1.00  0.00     0.200 A 
ATOM     91  F   UNL A   1      47.677  29.181  35.628  1.00  0.00    -0.200 F 
ATOM     92  F   UNL A   1      47.405  26.947  37.169  1.00  0.00    -0.200 F 
ENDBRANCH  58  82
BRANCH  70  93
ATOM     93  C   UNL A   1      38.849  32.289  36.296  1.00  0.00     0.064 A 
ATOM     94  C   UNL A   1      38.060  31.602  37.230  1.00  0.00     0.173 A 
ATOM     95  C   UNL A   1      39.233  33.604  36.601  1.00  0.00     0.173 A 
ATOM     96  F   UNL A   1      37.656  30.348  36.979  1.00  0.00    -0.203 F 
ATOM     97  C   UNL A   1      37.641  32.221  38.405  1.00  0.00     0.198 A 
ATOM     98  C   UNL A   1      38.838  34.209  37.791  1.00  0.00     0.198 A 
ATOM     99  F   UNL A   1      39.996  34.302  35.745  1.00  0.00    -0.203 F 
ATOM    100  F   UNL A   1      36.839  31.563  39.255  1.00  0.00    -0.200 F 
ATOM    101  C   UNL A   1      38.034  33.520  38.686  1.00  0.00     0.200 A 
ATOM    102  F   UNL A   1      39.230  35.460  38.068  1.00  0.00    -0.200 F 
ATOM    103  F   UNL A   1      37.629  34.114  39.818  1.00  0.00    -0.200 F 
ENDBRANCH  70  93
ENDBRANCH  44  45
ENDBRANCH  37  39
ENDBRANCH  36  37
ENDBRANCH  35  36
ENDBRANCH  34  35
ENDBRANCH  33  34
ENDBRANCH   1  33
TORSDOF 18
ENDMDL
MODEL 3
REMARK VINA RESULT:     -12.7      1.369      2.042
REMARK SMILES CS(=O)(=O)c1ccc(C2=NN(c3ccc(C(=O)OCCOCCOC(=O)c4ccc(-c5c6nc(c(-c7c(F)c(F)c(F)c(F)c7F)c7ccc([nH]7)c(-c7c(F)c(F)c(F)c(F)c7F)c7nc(c(-c8c(F)c(F)c(F)c(F)c8F)c8ccc5[nH]8)C=C7)C=C6)cc4)cc3)[C@H](c3ccccc3)C2)cc1
REMARK SMILES IDX 20 1 19 2 18 3 16 4 17 5 15 6 12 7 13 8 91 9 14 10 90 11
REMARK SMILES IDX 11 12 9 13 10 14 99 15 92 16 8 17 5 18 6 19 101 20 7 21
REMARK SMILES IDX 100 22 2 23 1 24 3 25 4 26 93 27 94 28 98 29 95 30 97 31
REMARK SMILES IDX 96 32 21 33 22 34 23 35 24 36 25 37 26 38 27 39 28 40 89 41
REMARK SMILES IDX 29 42 88 43 30 44 31 45 32 46 82 47 33 48 87 49 81 50 83 51
REMARK SMILES IDX 34 52 86 53 80 54 79 55 35 57 67 58 47 59 66 60 48 61 51 62
REMARK SMILES IDX 65 63 84 64 49 65 50 66 64 68 85 69 52 70 36 71 37 72 45 73
REMARK SMILES IDX 38 74 39 75 43 76 46 77 40 78 41 79 44 80 42 81 68 82 69 83
REMARK SMILES IDX 77 84 70 85 71 86 75 87 78 88 72 89 73 90 76 91 74 92 53 93
REMARK SMILES IDX 54 94 62 95 55 96 56 97 60 98 63 99 57 100 58 101 61 102
REMARK SMILES IDX 59 103
REMARK H PARENT 83 56 51 67
REMARK Flexibility Score: inf
ROOT
ATOM      1  C   UNL A   1      42.124  20.202  26.669  1.00  0.00     0.202 C 
ENDROOT
BRANCH   1   2
ATOM      2  C   UNL A   1      40.604  20.028  26.728  1.00  0.00     0.261 C 
BRANCH   2   3
ATOM      3  O   UNL A   1      39.958  20.953  25.839  1.00  0.00    -0.460 OA
BRANCH   3   4
ATOM      4  C   UNL A   1      39.421  22.048  26.428  1.00  0.00     0.338 C 
ATOM      5  O   UNL A   1      39.934  22.724  27.311  1.00  0.00    -0.246 OA
BRANCH   4   6
ATOM      6  C   UNL A   1      38.147  22.421  25.768  1.00  0.00     0.060 A 
ATOM      7  C   UNL A   1      35.654  23.175  24.710  1.00  0.00     0.060 A 
ATOM      8  C   UNL A   1      36.345  24.032  25.575  1.00  0.00     0.029 A 
ATOM      9  C   UNL A   1      36.274  21.984  24.305  1.00  0.00     0.029 A 
ATOM     10  C   UNL A   1      37.577  23.655  26.110  1.00  0.00     0.018 A 
ATOM     11  C   UNL A   1      37.511  21.600  24.831  1.00  0.00     0.018 A 
BRANCH   7  12
ATOM     12  N   UNL A   1      34.315  23.418  24.365  1.00  0.00    -0.257 N 
ATOM     13  C   UNL A   1      32.762  24.891  24.353  1.00  0.00     0.071 C 
ATOM     14  N   UNL A   1      33.968  24.666  23.935  1.00  0.00    -0.176 NA
ATOM     15  C   UNL A   1      32.155  23.830  25.224  1.00  0.00     0.091 C 
ATOM     16  C   UNL A   1      33.297  22.809  25.249  1.00  0.00     0.144 C 
BRANCH  13  17
ATOM     17  C   UNL A   1      31.998  26.093  23.978  1.00  0.00    -0.002 A 
ATOM     18  C   UNL A   1      30.441  28.278  23.235  1.00  0.00     0.067 A 
ATOM     19  C   UNL A   1      30.600  27.212  22.345  1.00  0.00     0.021 A 
ATOM     20  C   UNL A   1      31.068  28.264  24.487  1.00  0.00     0.021 A 
ATOM     21  C   UNL A   1      31.396  26.126  22.714  1.00  0.00     0.011 A 
ATOM     22  C   UNL A   1      31.840  27.161  24.866  1.00  0.00     0.011 A 
BRANCH  18  23
ATOM     23  S   UNL A   1      29.416  29.667  22.800  1.00  0.00     0.175 S 
ATOM     24  C   UNL A   1      27.745  29.077  22.850  1.00  0.00     0.163 C 
ATOM     25  O   UNL A   1      29.709  29.994  21.418  1.00  0.00    -0.224 OA
ATOM     26  O   UNL A   1      29.586  30.646  23.855  1.00  0.00    -0.224 OA
ENDBRANCH  18  23
ENDBRANCH  13  17
BRANCH  16  27
ATOM     27  C   UNL A   1      32.991  21.381  24.820  1.00  0.00    -0.023 A 
ATOM     28  C   UNL A   1      32.563  21.030  23.533  1.00  0.00     0.006 A 
ATOM     29  C   UNL A   1      33.219  20.341  25.744  1.00  0.00     0.006 A 
ATOM     30  C   UNL A   1      32.366  19.689  23.186  1.00  0.00     0.000 A 
ATOM     31  C   UNL A   1      33.058  19.001  25.386  1.00  0.00     0.000 A 
ATOM     32  C   UNL A   1      32.625  18.675  24.107  1.00  0.00     0.000 A 
ENDBRANCH  16  27
ENDBRANCH   7  12
ENDBRANCH   4   6
ENDBRANCH   3   4
ENDBRANCH   2   3
ENDBRANCH   1   2
BRANCH   1  33
ATOM     33  O   UNL A   1      42.678  20.404  25.368  1.00  0.00    -0.374 OA
BRANCH  33  34
ATOM     34  C   UNL A   1      44.088  20.609  25.282  1.00  0.00     0.202 C 
BRANCH  34  35
ATOM     35  C   UNL A   1      44.607  21.961  25.785  1.00  0.00     0.261 C 
BRANCH  35  36
ATOM     36  O   UNL A   1      43.610  22.994  25.685  1.00  0.00    -0.460 OA
BRANCH  36  37
ATOM     37  C   UNL A   1      44.112  24.244  25.581  1.00  0.00     0.338 C 
ATOM     38  O   UNL A   1      44.505  24.803  24.566  1.00  0.00    -0.246 OA
BRANCH  37  39
ATOM     39  C   UNL A   1      44.004  24.960  26.867  1.00  0.00     0.060 A 
ATOM     40  C   UNL A   1      43.137  24.417  27.823  1.00  0.00     0.016 A 
ATOM     41  C   UNL A   1      44.636  26.184  27.096  1.00  0.00     0.016 A 
ATOM     42  C   UNL A   1      42.825  25.139  28.971  1.00  0.00     0.010 A 
ATOM     43  C   UNL A   1      44.320  26.911  28.251  1.00  0.00     0.010 A 
ATOM     44  C   UNL A   1      43.370  26.416  29.163  1.00  0.00    -0.014 A 
BRANCH  44  45
ATOM     45  C   UNL A   1      42.773  27.292  30.201  1.00  0.00     0.031 A 
ATOM     46  C   UNL A   1      43.476  27.423  31.527  1.00  0.00     0.074 A 
ATOM     47  C   UNL A   1      41.678  28.028  29.943  1.00  0.00     0.049 A 
ATOM     48  N   UNL A   1      43.167  28.159  32.566  1.00  0.00    -0.248 NA
ATOM     49  C   UNL A   1      44.697  26.619  31.704  1.00  0.00     0.031 C 
ATOM     50  C   UNL A   1      40.930  28.020  28.687  1.00  0.00     0.029 A 
ATOM     51  N   UNL A   1      41.010  28.935  30.727  1.00  0.00    -0.354 N 
ATOM     52  C   UNL A   1      44.156  27.912  33.510  1.00  0.00     0.074 A 
ATOM     53  C   UNL A   1      45.051  26.927  32.943  1.00  0.00     0.031 C 
ATOM     54  C   UNL A   1      39.900  28.879  28.788  1.00  0.00     0.029 A 
ATOM     55  C   UNL A   1      39.907  29.482  30.120  1.00  0.00     0.049 A 
ATOM     56  H   UNL A   1      41.295  29.171  31.641  1.00  0.00     0.167 HD
ATOM     57  C   UNL A   1      44.318  28.471  34.733  1.00  0.00     0.037 A 
ATOM     58  C   UNL A   1      39.005  30.364  30.592  1.00  0.00     0.037 A 
ATOM     59  C   UNL A   1      43.432  29.451  35.301  1.00  0.00     0.049 A 
ATOM     60  C   UNL A   1      39.179  30.929  31.980  1.00  0.00     0.074 A 
ATOM     61  C   UNL A   1      43.499  30.063  36.541  1.00  0.00     0.029 A 
ATOM     62  N   UNL A   1      42.315  29.965  34.662  1.00  0.00    -0.354 N 
ATOM     63  N   UNL A   1      40.124  30.699  32.859  1.00  0.00    -0.248 NA
ATOM     64  C   UNL A   1      38.164  31.891  32.434  1.00  0.00     0.031 C 
ATOM     65  C   UNL A   1      42.404  30.923  36.665  1.00  0.00     0.029 A 
ATOM     66  C   UNL A   1      41.680  30.882  35.484  1.00  0.00     0.049 A 
ATOM     67  H   UNL A   1      42.017  29.716  33.757  1.00  0.00     0.167 HD
ATOM     68  C   UNL A   1      39.836  31.507  33.952  1.00  0.00     0.074 A 
ATOM     69  C   UNL A   1      38.639  32.248  33.618  1.00  0.00     0.031 C 
ATOM     70  C   UNL A   1      40.498  31.623  35.129  1.00  0.00     0.037 A 
BRANCH  57  71
ATOM     71  C   UNL A   1      45.500  28.031  35.544  1.00  0.00     0.064 A 
ATOM     72  C   UNL A   1      46.715  28.733  35.507  1.00  0.00     0.173 A 
ATOM     73  C   UNL A   1      45.407  26.925  36.400  1.00  0.00     0.173 A 
ATOM     74  F   UNL A   1      46.859  29.788  34.690  1.00  0.00    -0.203 F 
ATOM     75  C   UNL A   1      47.797  28.333  36.286  1.00  0.00     0.198 A 
ATOM     76  C   UNL A   1      46.483  26.543  37.198  1.00  0.00     0.198 A 
ATOM     77  F   UNL A   1      44.267  26.221  36.474  1.00  0.00    -0.203 F 
ATOM     78  F   UNL A   1      48.959  28.997  36.207  1.00  0.00    -0.200 F 
ATOM     79  C   UNL A   1      47.678  27.245  37.137  1.00  0.00     0.200 A 
ATOM     80  F   UNL A   1      46.363  25.497  38.027  1.00  0.00    -0.200 F 
ATOM     81  F   UNL A   1      48.717  26.868  37.894  1.00  0.00    -0.200 F 
ENDBRANCH  57  71
BRANCH  58  82
ATOM     82  C   UNL A   1      37.842  30.767  29.757  1.00  0.00     0.064 A 
ATOM     83  C   UNL A   1      36.790  29.879  29.495  1.00  0.00     0.173 A 
ATOM     84  C   UNL A   1      37.789  32.035  29.159  1.00  0.00     0.173 A 
ATOM     85  F   UNL A   1      36.808  28.646  30.023  1.00  0.00    -0.203 F 
ATOM     86  C   UNL A   1      35.747  30.230  28.641  1.00  0.00     0.198 A 
ATOM     87  C   UNL A   1      36.730  32.397  28.329  1.00  0.00     0.198 A 
ATOM     88  F   UNL A   1      38.771  32.923  29.377  1.00  0.00    -0.203 F 
ATOM     89  F   UNL A   1      34.788  29.338  28.357  1.00  0.00    -0.200 F 
ATOM     90  C   UNL A   1      35.717  31.489  28.061  1.00  0.00     0.200 A 
ATOM     91  F   UNL A   1      36.700  33.617  27.779  1.00  0.00    -0.200 F 
ATOM     92  F   UNL A   1      34.718  31.823  27.231  1.00  0.00    -0.200 F 
ENDBRANCH  58  82
BRANCH  70  93
ATOM     93  C   UNL A   1      39.967  32.617  36.122  1.00  0.00     0.064 A 
ATOM     94  C   UNL A   1      40.508  33.905  36.235  1.00  0.00     0.173 A 
ATOM     95  C   UNL A   1      38.891  32.280  36.956  1.00  0.00     0.173 A 
ATOM     96  F   UNL A   1      41.546  34.271  35.468  1.00  0.00    -0.203 F 
ATOM     97  C   UNL A   1      40.014  34.808  37.172  1.00  0.00     0.198 A 
ATOM     98  C   UNL A   1      38.379  33.196  37.871  1.00  0.00     0.198 A 
ATOM     99  F   UNL A   1      38.331  31.063  36.881  1.00  0.00    -0.203 F 
ATOM    100  F   UNL A   1      40.584  36.015  37.301  1.00  0.00    -0.200 F 
ATOM    101  C   UNL A   1      38.948  34.455  37.985  1.00  0.00     0.200 A 
ATOM    102  F   UNL A   1      37.340  32.858  38.647  1.00  0.00    -0.200 F 
ATOM    103  F   UNL A   1      38.474  35.326  38.887  1.00  0.00    -0.200 F 
ENDBRANCH  70  93
ENDBRANCH  44  45
ENDBRANCH  37  39
ENDBRANCH  36  37
ENDBRANCH  35  36
ENDBRANCH  34  35
ENDBRANCH  33  34
ENDBRANCH   1  33
TORSDOF 18
ENDMDL
