MODEL 1
REMARK VINA RESULT:     -11.1      0.000      0.000
REMARK SMILES C[C@H]([C@@H](C)C(=O)OCCOCCOC(=O)c1ccc(-c2c3nc(c(-c4c(F)c(F)c(F)c(F)c4F)c4ccc([nH]4)c(-c4c(F)c(F)c(F)c(F)c4F)c4nc(c(-c5c(F)c(F)c(F)c(F)c5F)c5ccc2[nH]5)C=C4)C=C3)cc1)[NH+]1CCN(c2nccs2)CC1
REMARK SMILES IDX 9 1 8 2 7 3 5 4 6 5 3 6 4 7 2 8 1 9 79 10 80 11 89 12 81 14
REMARK SMILES IDX 88 15 82 16 83 17 84 18 87 19 85 20 86 21 10 22 11 23 12 24
REMARK SMILES IDX 13 25 14 26 15 27 16 28 17 29 78 30 18 31 77 32 19 33 20 34
REMARK SMILES IDX 21 35 71 36 22 37 76 38 70 39 72 40 23 41 75 42 69 43 68 44
REMARK SMILES IDX 24 46 56 47 36 48 55 49 37 50 40 51 54 52 73 53 38 54 39 55
REMARK SMILES IDX 53 57 74 58 41 59 25 60 26 61 34 62 27 63 28 64 32 65 35 66
REMARK SMILES IDX 29 67 30 68 33 69 31 70 57 71 58 72 66 73 59 74 60 75 64 76
REMARK SMILES IDX 67 77 61 78 62 79 65 80 63 81 42 82 43 83 51 84 44 85 45 86
REMARK SMILES IDX 49 87 52 88 46 89 47 90 50 91 48 92
REMARK H PARENT 79 13 72 45 40 56
REMARK Flexibility Score: inf
ROOT
ATOM      1  C   UNL A   1      31.056  28.557  23.198  1.00  0.00     0.202 C 
ENDROOT
BRANCH   1   2
ATOM      2  C   UNL A   1      31.433  27.194  22.621  1.00  0.00     0.261 C 
BRANCH   2   3
ATOM      3  O   UNL A   1      31.696  26.227  23.651  1.00  0.00    -0.463 OA
BRANCH   3   4
ATOM      4  C   UNL A   1      32.971  25.764  23.720  1.00  0.00     0.314 C 
ATOM      5  O   UNL A   1      33.729  25.650  22.765  1.00  0.00    -0.252 OA
BRANCH   4   6
ATOM      6  C   UNL A   1      33.348  25.339  25.129  1.00  0.00     0.154 C 
ATOM      7  C   UNL A   1      33.939  26.576  25.809  1.00  0.00     0.026 C 
BRANCH   6   8
ATOM      8  C   UNL A   1      34.140  23.993  25.191  1.00  0.00     0.195 C 
ATOM      9  C   UNL A   1      35.650  24.172  25.443  1.00  0.00     0.076 C 
BRANCH   8  10
ATOM     10  N   UNL A   1      33.739  22.924  26.138  1.00  0.00    -0.329 N 
ATOM     11  C   UNL A   1      32.436  22.269  25.978  1.00  0.00     0.284 C 
ATOM     12  C   UNL A   1      34.763  21.876  26.354  1.00  0.00     0.284 C 
ATOM     13  H   UNL A   1      33.638  23.518  26.961  1.00  0.00     0.348 HD
ATOM     14  C   UNL A   1      32.372  21.187  24.880  1.00  0.00     0.180 C 
ATOM     15  C   UNL A   1      34.818  20.784  25.262  1.00  0.00     0.180 C 
ATOM     16  N   UNL A   1      33.486  20.246  24.984  1.00  0.00    -0.337 N 
BRANCH  16  17
ATOM     17  C   UNL A   1      33.370  19.081  24.301  1.00  0.00     0.185 A 
ATOM     18  N   UNL A   1      32.433  18.863  23.409  1.00  0.00    -0.229 NA
ATOM     19  S   UNL A   1      34.545  17.813  24.431  1.00  0.00    -0.106 S 
ATOM     20  C   UNL A   1      32.697  17.702  22.711  1.00  0.00     0.125 A 
ATOM     21  C   UNL A   1      33.811  17.004  23.115  1.00  0.00     0.088 A 
ENDBRANCH  16  17
ENDBRANCH   8  10
ENDBRANCH   6   8
ENDBRANCH   4   6
ENDBRANCH   3   4
ENDBRANCH   2   3
ENDBRANCH   1   2
BRANCH   1  22
ATOM     22  O   UNL A   1      32.019  29.173  24.049  1.00  0.00    -0.374 OA
BRANCH  22  23
ATOM     23  C   UNL A   1      31.667  29.323  25.424  1.00  0.00     0.202 C 
BRANCH  23  24
ATOM     24  C   UNL A   1      31.747  30.747  25.984  1.00  0.00     0.261 C 
BRANCH  24  25
ATOM     25  O   UNL A   1      32.484  30.782  27.222  1.00  0.00    -0.460 OA
BRANCH  25  26
ATOM     26  C   UNL A   1      33.256  31.879  27.393  1.00  0.00     0.338 C 
ATOM     27  O   UNL A   1      32.899  33.049  27.354  1.00  0.00    -0.246 OA
BRANCH  26  28
ATOM     28  C   UNL A   1      34.603  31.484  27.852  1.00  0.00     0.060 A 
ATOM     29  C   UNL A   1      34.814  30.127  28.127  1.00  0.00     0.016 A 
ATOM     30  C   UNL A   1      35.620  32.415  28.065  1.00  0.00     0.016 A 
ATOM     31  C   UNL A   1      36.018  29.703  28.684  1.00  0.00     0.010 A 
ATOM     32  C   UNL A   1      36.828  31.990  28.633  1.00  0.00     0.010 A 
ATOM     33  C   UNL A   1      37.013  30.641  28.987  1.00  0.00    -0.014 A 
BRANCH  33  34
ATOM     34  C   UNL A   1      38.159  30.228  29.835  1.00  0.00     0.031 A 
ATOM     35  C   UNL A   1      39.151  29.242  29.281  1.00  0.00     0.074 A 
ATOM     36  C   UNL A   1      38.348  30.761  31.054  1.00  0.00     0.049 A 
ATOM     37  N   UNL A   1      40.215  28.725  29.843  1.00  0.00    -0.248 NA
ATOM     38  C   UNL A   1      38.911  28.775  27.907  1.00  0.00     0.031 C 
ATOM     39  C   UNL A   1      37.486  31.759  31.682  1.00  0.00     0.029 A 
ATOM     40  N   UNL A   1      39.332  30.531  31.984  1.00  0.00    -0.354 N 
ATOM     41  C   UNL A   1      40.765  27.872  28.894  1.00  0.00     0.074 A 
ATOM     42  C   UNL A   1      39.899  27.910  27.737  1.00  0.00     0.031 C 
ATOM     43  C   UNL A   1      37.973  32.049  32.901  1.00  0.00     0.029 A 
ATOM     44  C   UNL A   1      39.160  31.232  33.152  1.00  0.00     0.049 A 
ATOM     45  H   UNL A   1      40.088  29.920  31.829  1.00  0.00     0.167 HD
ATOM     46  C   UNL A   1      41.898  27.134  28.977  1.00  0.00     0.037 A 
ATOM     47  C   UNL A   1      39.867  31.199  34.298  1.00  0.00     0.037 A 
ATOM     48  C   UNL A   1      42.759  27.098  30.129  1.00  0.00     0.049 A 
ATOM     49  C   UNL A   1      41.080  30.308  34.394  1.00  0.00     0.074 A 
ATOM     50  C   UNL A   1      43.936  26.392  30.306  1.00  0.00     0.029 A 
ATOM     51  N   UNL A   1      42.532  27.794  31.307  1.00  0.00    -0.354 N 
ATOM     52  N   UNL A   1      41.606  29.521  33.487  1.00  0.00    -0.248 NA
ATOM     53  C   UNL A   1      41.800  30.304  35.676  1.00  0.00     0.031 C 
ATOM     54  C   UNL A   1      44.388  26.613  31.610  1.00  0.00     0.029 A 
ATOM     55  C   UNL A   1      43.531  27.511  32.225  1.00  0.00     0.049 A 
ATOM     56  H   UNL A   1      41.772  28.400  31.468  1.00  0.00     0.167 HD
ATOM     57  C   UNL A   1      42.732  28.957  34.074  1.00  0.00     0.074 A 
ATOM     58  C   UNL A   1      42.821  29.502  35.412  1.00  0.00     0.031 C 
ATOM     59  C   UNL A   1      43.613  28.066  33.553  1.00  0.00     0.037 A 
BRANCH  46  60
ATOM     60  C   UNL A   1      42.258  26.281  27.794  1.00  0.00     0.064 A 
ATOM     61  C   UNL A   1      43.197  26.699  26.838  1.00  0.00     0.173 A 
ATOM     62  C   UNL A   1      41.681  25.012  27.634  1.00  0.00     0.173 A 
ATOM     63  F   UNL A   1      43.767  27.909  26.936  1.00  0.00    -0.203 F 
ATOM     64  C   UNL A   1      43.523  25.890  25.752  1.00  0.00     0.198 A 
ATOM     65  C   UNL A   1      42.034  24.193  26.565  1.00  0.00     0.198 A 
ATOM     66  F   UNL A   1      40.782  24.560  28.521  1.00  0.00    -0.203 F 
ATOM     67  F   UNL A   1      44.383  26.332  24.824  1.00  0.00    -0.200 F 
ATOM     68  C   UNL A   1      42.948  24.635  25.621  1.00  0.00     0.200 A 
ATOM     69  F   UNL A   1      41.488  22.974  26.449  1.00  0.00    -0.200 F 
ATOM     70  F   UNL A   1      43.270  23.854  24.580  1.00  0.00    -0.200 F 
ENDBRANCH  46  60
BRANCH  47  71
ATOM     71  C   UNL A   1      39.437  32.022  35.459  1.00  0.00     0.064 A 
ATOM     72  C   UNL A   1      38.580  31.504  36.441  1.00  0.00     0.173 A 
ATOM     73  C   UNL A   1      39.854  33.355  35.597  1.00  0.00     0.173 A 
ATOM     74  F   UNL A   1      38.132  30.244  36.340  1.00  0.00    -0.203 F 
ATOM     75  C   UNL A   1      38.142  32.293  37.503  1.00  0.00     0.198 A 
ATOM     76  C   UNL A   1      39.441  34.132  36.677  1.00  0.00     0.198 A 
ATOM     77  F   UNL A   1      40.671  33.901  34.685  1.00  0.00    -0.203 F 
ATOM     78  F   UNL A   1      37.281  31.788  38.398  1.00  0.00    -0.200 F 
ATOM     79  C   UNL A   1      38.578  33.604  37.623  1.00  0.00     0.200 A 
ATOM     80  F   UNL A   1      39.876  35.394  36.796  1.00  0.00    -0.200 F 
ATOM     81  F   UNL A   1      38.157  34.360  38.646  1.00  0.00    -0.200 F 
ENDBRANCH  47  71
BRANCH  59  82
ATOM     82  C   UNL A   1      44.777  27.656  34.411  1.00  0.00     0.064 A 
ATOM     83  C   UNL A   1      45.985  28.369  34.409  1.00  0.00     0.173 A 
ATOM     84  C   UNL A   1      44.665  26.559  35.280  1.00  0.00     0.173 A 
ATOM     85  F   UNL A   1      46.150  29.417  33.589  1.00  0.00    -0.203 F 
ATOM     86  C   UNL A   1      47.047  27.980  35.223  1.00  0.00     0.198 A 
ATOM     87  C   UNL A   1      45.716  26.194  36.116  1.00  0.00     0.198 A 
ATOM     88  F   UNL A   1      43.528  25.847  35.328  1.00  0.00    -0.203 F 
ATOM     89  F   UNL A   1      48.210  28.644  35.166  1.00  0.00    -0.200 F 
ATOM     90  C   UNL A   1      46.909  26.899  36.082  1.00  0.00     0.200 A 
ATOM     91  F   UNL A   1      45.573  25.161  36.958  1.00  0.00    -0.200 F 
ATOM     92  F   UNL A   1      47.929  26.533  36.870  1.00  0.00    -0.200 F 
ENDBRANCH  59  82
ENDBRANCH  33  34
ENDBRANCH  26  28
ENDBRANCH  25  26
ENDBRANCH  24  25
ENDBRANCH  23  24
ENDBRANCH  22  23
ENDBRANCH   1  22
TORSDOF 17
ENDMDL
MODEL 2
REMARK VINA RESULT:     -11.1      0.930      2.313
REMARK SMILES C[C@H]([C@@H](C)C(=O)OCCOCCOC(=O)c1ccc(-c2c3nc(c(-c4c(F)c(F)c(F)c(F)c4F)c4ccc([nH]4)c(-c4c(F)c(F)c(F)c(F)c4F)c4nc(c(-c5c(F)c(F)c(F)c(F)c5F)c5ccc2[nH]5)C=C4)C=C3)cc1)[NH+]1CCN(c2nccs2)CC1
REMARK SMILES IDX 9 1 8 2 7 3 5 4 6 5 3 6 4 7 2 8 1 9 79 10 80 11 89 12 81 14
REMARK SMILES IDX 88 15 82 16 83 17 84 18 87 19 85 20 86 21 10 22 11 23 12 24
REMARK SMILES IDX 13 25 14 26 15 27 16 28 17 29 78 30 18 31 77 32 19 33 20 34
REMARK SMILES IDX 21 35 71 36 22 37 76 38 70 39 72 40 23 41 75 42 69 43 68 44
REMARK SMILES IDX 24 46 56 47 36 48 55 49 37 50 40 51 54 52 73 53 38 54 39 55
REMARK SMILES IDX 53 57 74 58 41 59 25 60 26 61 34 62 27 63 28 64 32 65 35 66
REMARK SMILES IDX 29 67 30 68 33 69 31 70 57 71 58 72 66 73 59 74 60 75 64 76
REMARK SMILES IDX 67 77 61 78 62 79 65 80 63 81 42 82 43 83 51 84 44 85 45 86
REMARK SMILES IDX 49 87 52 88 46 89 47 90 50 91 48 92
REMARK H PARENT 79 13 72 45 40 56
REMARK Flexibility Score: inf
ROOT
ATOM      1  C   UNL A   1      30.592  28.489  24.207  1.00  0.00     0.202 C 
ENDROOT
BRANCH   1   2
ATOM      2  C   UNL A   1      30.356  27.001  24.467  1.00  0.00     0.261 C 
BRANCH   2   3
ATOM      3  O   UNL A   1      31.040  26.546  25.646  1.00  0.00    -0.463 OA
BRANCH   3   4
ATOM      4  C   UNL A   1      31.915  25.523  25.466  1.00  0.00     0.314 C 
ATOM      5  O   UNL A   1      33.071  25.647  25.080  1.00  0.00    -0.252 OA
BRANCH   4   6
ATOM      6  C   UNL A   1      31.278  24.173  25.746  1.00  0.00     0.154 C 
ATOM      7  C   UNL A   1      31.794  23.728  27.117  1.00  0.00     0.026 C 
BRANCH   6   8
ATOM      8  C   UNL A   1      31.365  23.174  24.548  1.00  0.00     0.195 C 
ATOM      9  C   UNL A   1      30.673  23.678  23.266  1.00  0.00     0.076 C 
BRANCH   8  10
ATOM     10  N   UNL A   1      32.679  22.672  24.076  1.00  0.00    -0.329 N 
ATOM     11  C   UNL A   1      33.670  22.211  25.055  1.00  0.00     0.284 C 
ATOM     12  C   UNL A   1      32.602  21.672  22.986  1.00  0.00     0.284 C 
ATOM     13  H   UNL A   1      33.037  23.564  23.735  1.00  0.00     0.348 HD
ATOM     14  C   UNL A   1      33.436  20.791  25.611  1.00  0.00     0.180 C 
ATOM     15  C   UNL A   1      32.301  20.228  23.447  1.00  0.00     0.180 C 
ATOM     16  N   UNL A   1      33.185  19.827  24.541  1.00  0.00    -0.337 N 
BRANCH  16  17
ATOM     17  C   UNL A   1      33.289  18.514  24.862  1.00  0.00     0.185 A 
ATOM     18  N   UNL A   1      32.348  17.852  25.494  1.00  0.00    -0.229 NA
ATOM     19  S   UNL A   1      34.623  17.538  24.337  1.00  0.00    -0.106 S 
ATOM     20  C   UNL A   1      32.619  16.500  25.475  1.00  0.00     0.125 A 
ATOM     21  C   UNL A   1      33.803  16.137  24.877  1.00  0.00     0.088 A 
ENDBRANCH  16  17
ENDBRANCH   8  10
ENDBRANCH   6   8
ENDBRANCH   4   6
ENDBRANCH   3   4
ENDBRANCH   2   3
ENDBRANCH   1   2
BRANCH   1  22
ATOM     22  O   UNL A   1      31.931  28.875  23.912  1.00  0.00    -0.374 OA
BRANCH  22  23
ATOM     23  C   UNL A   1      32.669  29.504  24.959  1.00  0.00     0.202 C 
BRANCH  23  24
ATOM     24  C   UNL A   1      31.862  30.405  25.900  1.00  0.00     0.261 C 
BRANCH  24  25
ATOM     25  O   UNL A   1      32.513  30.543  27.178  1.00  0.00    -0.460 OA
BRANCH  25  26
ATOM     26  C   UNL A   1      33.246  31.669  27.324  1.00  0.00     0.338 C 
ATOM     27  O   UNL A   1      32.851  32.826  27.247  1.00  0.00    -0.246 OA
BRANCH  26  28
ATOM     28  C   UNL A   1      34.600  31.334  27.809  1.00  0.00     0.060 A 
ATOM     29  C   UNL A   1      34.884  29.981  28.033  1.00  0.00     0.016 A 
ATOM     30  C   UNL A   1      35.554  32.313  28.093  1.00  0.00     0.016 A 
ATOM     31  C   UNL A   1      36.094  29.604  28.610  1.00  0.00     0.010 A 
ATOM     32  C   UNL A   1      36.767  31.934  28.680  1.00  0.00     0.010 A 
ATOM     33  C   UNL A   1      37.022  30.584  28.983  1.00  0.00    -0.014 A 
BRANCH  33  34
ATOM     34  C   UNL A   1      38.165  30.202  29.848  1.00  0.00     0.031 A 
ATOM     35  C   UNL A   1      39.189  29.237  29.312  1.00  0.00     0.074 A 
ATOM     36  C   UNL A   1      38.325  30.743  31.068  1.00  0.00     0.049 A 
ATOM     37  N   UNL A   1      40.256  28.748  29.891  1.00  0.00    -0.248 NA
ATOM     38  C   UNL A   1      38.979  28.759  27.938  1.00  0.00     0.031 C 
ATOM     39  C   UNL A   1      37.430  31.723  31.680  1.00  0.00     0.029 A 
ATOM     40  N   UNL A   1      39.300  30.540  32.013  1.00  0.00    -0.354 N 
ATOM     41  C   UNL A   1      40.840  27.905  28.955  1.00  0.00     0.074 A 
ATOM     42  C   UNL A   1      39.990  27.917  27.785  1.00  0.00     0.031 C 
ATOM     43  C   UNL A   1      37.892  32.029  32.905  1.00  0.00     0.029 A 
ATOM     44  C   UNL A   1      39.095  31.242  33.175  1.00  0.00     0.049 A 
ATOM     45  H   UNL A   1      40.073  29.947  31.871  1.00  0.00     0.167 HD
ATOM     46  C   UNL A   1      41.989  27.194  29.056  1.00  0.00     0.037 A 
ATOM     47  C   UNL A   1      39.786  31.230  34.331  1.00  0.00     0.037 A 
ATOM     48  C   UNL A   1      42.834  27.184  30.221  1.00  0.00     0.049 A 
ATOM     49  C   UNL A   1      41.019  30.368  34.448  1.00  0.00     0.074 A 
ATOM     50  C   UNL A   1      44.025  26.506  30.417  1.00  0.00     0.029 A 
ATOM     51  N   UNL A   1      42.574  27.878  31.392  1.00  0.00    -0.354 N 
ATOM     52  N   UNL A   1      41.576  29.590  33.552  1.00  0.00    -0.248 NA
ATOM     53  C   UNL A   1      41.720  30.386  35.740  1.00  0.00     0.031 C 
ATOM     54  C   UNL A   1      44.453  26.743  31.726  1.00  0.00     0.029 A 
ATOM     55  C   UNL A   1      43.566  27.622  32.325  1.00  0.00     0.049 A 
ATOM     56  H   UNL A   1      41.798  28.467  31.540  1.00  0.00     0.167 HD
ATOM     57  C   UNL A   1      42.707  29.056  34.157  1.00  0.00     0.074 A 
ATOM     58  C   UNL A   1      42.764  29.608  35.493  1.00  0.00     0.031 C 
ATOM     59  C   UNL A   1      43.616  28.185  33.651  1.00  0.00     0.037 A 
BRANCH  46  60
ATOM     60  C   UNL A   1      42.385  26.346  27.882  1.00  0.00     0.064 A 
ATOM     61  C   UNL A   1      41.847  25.065  27.680  1.00  0.00     0.173 A 
ATOM     62  C   UNL A   1      43.290  26.833  26.927  1.00  0.00     0.173 A 
ATOM     63  F   UNL A   1      40.988  24.545  28.570  1.00  0.00    -0.203 F 
ATOM     64  C   UNL A   1      42.221  24.295  26.581  1.00  0.00     0.198 A 
ATOM     65  C   UNL A   1      43.637  26.075  25.813  1.00  0.00     0.198 A 
ATOM     66  F   UNL A   1      43.832  28.053  27.069  1.00  0.00    -0.203 F 
ATOM     67  F   UNL A   1      41.734  23.055  26.435  1.00  0.00    -0.200 F 
ATOM     68  C   UNL A   1      43.109  24.804  25.645  1.00  0.00     0.200 A 
ATOM     69  F   UNL A   1      44.483  26.574  24.902  1.00  0.00    -0.200 F 
ATOM     70  F   UNL A   1      43.461  24.065  24.582  1.00  0.00    -0.200 F 
ENDBRANCH  46  60
BRANCH  47  71
ATOM     71  C   UNL A   1      39.320  32.047  35.483  1.00  0.00     0.064 A 
ATOM     72  C   UNL A   1      39.729  33.378  35.644  1.00  0.00     0.173 A 
ATOM     73  C   UNL A   1      38.475  31.503  36.462  1.00  0.00     0.173 A 
ATOM     74  F   UNL A   1      40.559  33.936  34.749  1.00  0.00    -0.203 F 
ATOM     75  C   UNL A   1      39.328  34.127  36.748  1.00  0.00     0.198 A 
ATOM     76  C   UNL A   1      38.048  32.263  37.549  1.00  0.00     0.198 A 
ATOM     77  F   UNL A   1      38.056  30.233  36.359  1.00  0.00    -0.203 F 
ATOM     78  F   UNL A   1      39.776  35.380  36.904  1.00  0.00    -0.200 F 
ATOM     79  C   UNL A   1      38.482  33.570  37.696  1.00  0.00     0.200 A 
ATOM     80  F   UNL A   1      37.220  31.724  38.455  1.00  0.00    -0.200 F 
ATOM     81  F   UNL A   1      38.095  34.292  38.757  1.00  0.00    -0.200 F 
ENDBRANCH  47  71
BRANCH  59  82
ATOM     82  C   UNL A   1      44.778  27.806  34.528  1.00  0.00     0.064 A 
ATOM     83  C   UNL A   1      44.739  26.680  35.362  1.00  0.00     0.173 A 
ATOM     84  C   UNL A   1      45.962  28.560  34.498  1.00  0.00     0.173 A 
ATOM     85  F   UNL A   1      43.628  25.933  35.439  1.00  0.00    -0.203 F 
ATOM     86  C   UNL A   1      45.832  26.339  36.157  1.00  0.00     0.198 A 
ATOM     87  C   UNL A   1      47.064  28.196  35.267  1.00  0.00     0.198 A 
ATOM     88  F   UNL A   1      46.056  29.642  33.711  1.00  0.00    -0.203 F 
ATOM     89  F   UNL A   1      45.753  25.288  36.986  1.00  0.00    -0.200 F 
ATOM     90  C   UNL A   1      46.996  27.091  36.101  1.00  0.00     0.200 A 
ATOM     91  F   UNL A   1      48.194  28.915  35.199  1.00  0.00    -0.200 F 
ATOM     92  F   UNL A   1      48.049  26.757  36.860  1.00  0.00    -0.200 F 
ENDBRANCH  59  82
ENDBRANCH  33  34
ENDBRANCH  26  28
ENDBRANCH  25  26
ENDBRANCH  24  25
ENDBRANCH  23  24
ENDBRANCH  22  23
ENDBRANCH   1  22
TORSDOF 17
ENDMDL
MODEL 3
REMARK VINA RESULT:     -11.0      1.458      7.724
REMARK SMILES C[C@H]([C@@H](C)C(=O)OCCOCCOC(=O)c1ccc(-c2c3nc(c(-c4c(F)c(F)c(F)c(F)c4F)c4ccc([nH]4)c(-c4c(F)c(F)c(F)c(F)c4F)c4nc(c(-c5c(F)c(F)c(F)c(F)c5F)c5ccc2[nH]5)C=C4)C=C3)cc1)[NH+]1CCN(c2nccs2)CC1
REMARK SMILES IDX 9 1 8 2 7 3 5 4 6 5 3 6 4 7 2 8 1 9 79 10 80 11 89 12 81 14
REMARK SMILES IDX 88 15 82 16 83 17 84 18 87 19 85 20 86 21 10 22 11 23 12 24
REMARK SMILES IDX 13 25 14 26 15 27 16 28 17 29 78 30 18 31 77 32 19 33 20 34
REMARK SMILES IDX 21 35 71 36 22 37 76 38 70 39 72 40 23 41 75 42 69 43 68 44
REMARK SMILES IDX 24 46 56 47 36 48 55 49 37 50 40 51 54 52 73 53 38 54 39 55
REMARK SMILES IDX 53 57 74 58 41 59 25 60 26 61 34 62 27 63 28 64 32 65 35 66
REMARK SMILES IDX 29 67 30 68 33 69 31 70 57 71 58 72 66 73 59 74 60 75 64 76
REMARK SMILES IDX 67 77 61 78 62 79 65 80 63 81 42 82 43 83 51 84 44 85 45 86
REMARK SMILES IDX 49 87 52 88 46 89 47 90 50 91 48 92
REMARK H PARENT 79 13 72 45 40 56
REMARK Flexibility Score: inf
ROOT
ATOM      1  C   UNL A   1      32.248  28.214  24.752  1.00  0.00     0.202 C 
ENDROOT
BRANCH   1   2
ATOM      2  C   UNL A   1      31.353  27.519  25.776  1.00  0.00     0.261 C 
BRANCH   2   3
ATOM      3  O   UNL A   1      30.759  26.322  25.246  1.00  0.00    -0.463 OA
BRANCH   3   4
ATOM      4  C   UNL A   1      31.287  25.151  25.688  1.00  0.00     0.314 C 
ATOM      5  O   UNL A   1      31.404  24.834  26.865  1.00  0.00    -0.252 OA
BRANCH   4   6
ATOM      6  C   UNL A   1      31.781  24.283  24.545  1.00  0.00     0.154 C 
ATOM      7  C   UNL A   1      30.651  24.240  23.514  1.00  0.00     0.026 C 
BRANCH   6   8
ATOM      8  C   UNL A   1      32.429  22.938  25.009  1.00  0.00     0.195 C 
ATOM      9  C   UNL A   1      31.403  21.847  25.373  1.00  0.00     0.076 C 
BRANCH   8  10
ATOM     10  N   UNL A   1      33.413  22.237  24.149  1.00  0.00    -0.329 N 
ATOM     11  C   UNL A   1      34.476  23.005  23.493  1.00  0.00     0.284 C 
ATOM     12  C   UNL A   1      34.020  21.032  24.762  1.00  0.00     0.284 C 
ATOM     13  H   UNL A   1      32.767  21.984  23.401  1.00  0.00     0.348 HD
ATOM     14  C   UNL A   1      35.673  23.376  24.393  1.00  0.00     0.180 C 
ATOM     15  C   UNL A   1      35.187  21.315  25.736  1.00  0.00     0.180 C 
ATOM     16  N   UNL A   1      36.168  22.220  25.137  1.00  0.00    -0.337 N 
BRANCH  16  17
ATOM     17  C   UNL A   1      37.396  22.333  25.700  1.00  0.00     0.185 A 
ATOM     18  N   UNL A   1      38.275  21.358  25.707  1.00  0.00    -0.229 NA
ATOM     19  S   UNL A   1      37.984  23.834  26.339  1.00  0.00    -0.106 S 
ATOM     20  C   UNL A   1      39.503  21.824  26.129  1.00  0.00     0.125 A 
ATOM     21  C   UNL A   1      39.543  23.148  26.499  1.00  0.00     0.088 A 
ENDBRANCH  16  17
ENDBRANCH   8  10
ENDBRANCH   6   8
ENDBRANCH   4   6
ENDBRANCH   3   4
ENDBRANCH   2   3
ENDBRANCH   1   2
BRANCH   1  22
ATOM     22  O   UNL A   1      32.509  29.597  24.974  1.00  0.00    -0.374 OA
BRANCH  22  23
ATOM     23  C   UNL A   1      31.406  30.408  25.379  1.00  0.00     0.202 C 
BRANCH  23  24
ATOM     24  C   UNL A   1      31.689  31.413  26.500  1.00  0.00     0.261 C 
BRANCH  24  25
ATOM     25  O   UNL A   1      32.865  31.045  27.248  1.00  0.00    -0.460 OA
BRANCH  25  26
ATOM     26  C   UNL A   1      33.645  32.083  27.626  1.00  0.00     0.338 C 
ATOM     27  O   UNL A   1      33.299  33.243  27.807  1.00  0.00    -0.246 OA
BRANCH  26  28
ATOM     28  C   UNL A   1      34.985  31.597  28.010  1.00  0.00     0.060 A 
ATOM     29  C   UNL A   1      35.134  30.218  28.208  1.00  0.00     0.016 A 
ATOM     30  C   UNL A   1      36.058  32.462  28.228  1.00  0.00     0.016 A 
ATOM     31  C   UNL A   1      36.334  29.704  28.694  1.00  0.00     0.010 A 
ATOM     32  C   UNL A   1      37.262  31.946  28.724  1.00  0.00     0.010 A 
ATOM     33  C   UNL A   1      37.388  30.572  29.003  1.00  0.00    -0.014 A 
BRANCH  33  34
ATOM     34  C   UNL A   1      38.542  30.058  29.782  1.00  0.00     0.031 A 
ATOM     35  C   UNL A   1      38.722  30.524  31.201  1.00  0.00     0.074 A 
ATOM     36  C   UNL A   1      39.383  29.149  29.259  1.00  0.00     0.049 A 
ATOM     37  N   UNL A   1      39.661  30.225  32.063  1.00  0.00    -0.248 NA
ATOM     38  C   UNL A   1      37.707  31.454  31.718  1.00  0.00     0.031 C 
ATOM     39  C   UNL A   1      39.287  28.585  27.915  1.00  0.00     0.029 A 
ATOM     40  N   UNL A   1      40.490  28.545  29.801  1.00  0.00    -0.354 N 
ATOM     41  C   UNL A   1      39.351  30.932  33.218  1.00  0.00     0.074 A 
ATOM     42  C   UNL A   1      38.162  31.704  32.936  1.00  0.00     0.031 C 
ATOM     43  C   UNL A   1      40.302  27.721  27.733  1.00  0.00     0.029 A 
ATOM     44  C   UNL A   1      41.136  27.700  28.933  1.00  0.00     0.049 A 
ATOM     45  H   UNL A   1      40.793  28.703  30.725  1.00  0.00     0.167 HD
ATOM     46  C   UNL A   1      39.993  30.927  34.411  1.00  0.00     0.037 A 
ATOM     47  C   UNL A   1      42.282  27.008  29.085  1.00  0.00     0.037 A 
ATOM     48  C   UNL A   1      41.177  30.157  34.690  1.00  0.00     0.049 A 
ATOM     49  C   UNL A   1      43.024  27.081  30.396  1.00  0.00     0.074 A 
ATOM     50  C   UNL A   1      41.895  30.075  35.871  1.00  0.00     0.029 A 
ATOM     51  N   UNL A   1      41.823  29.342  33.773  1.00  0.00    -0.354 N 
ATOM     52  N   UNL A   1      42.713  27.734  31.490  1.00  0.00    -0.248 NA
ATOM     53  C   UNL A   1      44.275  26.316  30.494  1.00  0.00     0.031 C 
ATOM     54  C   UNL A   1      43.007  29.258  35.651  1.00  0.00     0.029 A 
ATOM     55  C   UNL A   1      42.947  28.776  34.353  1.00  0.00     0.049 A 
ATOM     56  H   UNL A   1      41.527  29.187  32.847  1.00  0.00     0.167 HD
ATOM     57  C   UNL A   1      43.708  27.434  32.412  1.00  0.00     0.074 A 
ATOM     58  C   UNL A   1      44.626  26.529  31.754  1.00  0.00     0.031 C 
ATOM     59  C   UNL A   1      43.850  27.869  33.690  1.00  0.00     0.037 A 
BRANCH  46  60
ATOM     60  C   UNL A   1      39.443  31.804  35.499  1.00  0.00     0.064 A 
ATOM     61  C   UNL A   1      38.501  31.330  36.426  1.00  0.00     0.173 A 
ATOM     62  C   UNL A   1      39.890  33.127  35.637  1.00  0.00     0.173 A 
ATOM     63  F   UNL A   1      38.030  30.078  36.330  1.00  0.00    -0.203 F 
ATOM     64  C   UNL A   1      38.008  32.157  37.433  1.00  0.00     0.198 A 
ATOM     65  C   UNL A   1      39.419  33.940  36.665  1.00  0.00     0.198 A 
ATOM     66  F   UNL A   1      40.793  33.630  34.781  1.00  0.00    -0.203 F 
ATOM     67  F   UNL A   1      37.071  31.699  38.275  1.00  0.00    -0.200 F 
ATOM     68  C   UNL A   1      38.473  33.458  37.556  1.00  0.00     0.200 A 
ATOM     69  F   UNL A   1      39.881  35.192  36.791  1.00  0.00    -0.200 F 
ATOM     70  F   UNL A   1      38.004  34.249  38.531  1.00  0.00    -0.200 F 
ENDBRANCH  46  60
BRANCH  47  71
ATOM     71  C   UNL A   1      42.814  26.197  27.958  1.00  0.00     0.064 A 
ATOM     72  C   UNL A   1      42.526  24.829  27.845  1.00  0.00     0.173 A 
ATOM     73  C   UNL A   1      43.643  26.769  26.981  1.00  0.00     0.173 A 
ATOM     74  F   UNL A   1      41.760  24.229  28.769  1.00  0.00    -0.203 F 
ATOM     75  C   UNL A   1      43.064  24.063  26.814  1.00  0.00     0.198 A 
ATOM     76  C   UNL A   1      44.154  26.009  25.932  1.00  0.00     0.198 A 
ATOM     77  F   UNL A   1      43.952  28.073  27.043  1.00  0.00    -0.203 F 
ATOM     78  F   UNL A   1      42.815  22.747  26.760  1.00  0.00    -0.200 F 
ATOM     79  C   UNL A   1      43.871  24.655  25.854  1.00  0.00     0.200 A 
ATOM     80  F   UNL A   1      44.922  26.589  25.000  1.00  0.00    -0.200 F 
ATOM     81  F   UNL A   1      44.386  23.917  24.861  1.00  0.00    -0.200 F 
ENDBRANCH  47  71
BRANCH  59  82
ATOM     82  C   UNL A   1      45.015  27.339  34.479  1.00  0.00     0.064 A 
ATOM     83  C   UNL A   1      44.954  26.114  35.157  1.00  0.00     0.173 A 
ATOM     84  C   UNL A   1      46.225  28.052  34.520  1.00  0.00     0.173 A 
ATOM     85  F   UNL A   1      43.819  25.399  35.161  1.00  0.00    -0.203 F 
ATOM     86  C   UNL A   1      46.050  25.635  35.872  1.00  0.00     0.198 A 
ATOM     87  C   UNL A   1      47.328  27.554  35.207  1.00  0.00     0.198 A 
ATOM     88  F   UNL A   1      46.341  29.226  33.882  1.00  0.00    -0.203 F 
ATOM     89  F   UNL A   1      45.951  24.486  36.556  1.00  0.00    -0.200 F 
ATOM     90  C   UNL A   1      47.239  26.350  35.888  1.00  0.00     0.200 A 
ATOM     91  F   UNL A   1      48.481  28.239  35.207  1.00  0.00    -0.200 F 
ATOM     92  F   UNL A   1      48.294  25.884  36.569  1.00  0.00    -0.200 F 
ENDBRANCH  59  82
ENDBRANCH  33  34
ENDBRANCH  26  28
ENDBRANCH  25  26
ENDBRANCH  24  25
ENDBRANCH  23  24
ENDBRANCH  22  23
ENDBRANCH   1  22
TORSDOF 17
ENDMDL
