MODEL 1
REMARK VINA RESULT:     -11.5      0.000      0.000
REMARK SMILES CCOc1cccc(C(=O)Nc2ccc(Cl)c(C(=O)OCCOCCOC(=O)c3ccc(-c4c5nc(c(-c6c(F)c(F)c(F)c(F)c6F)c6ccc([nH]6)c(-c6c(F)c(F)c(F)c(F)c6F)c6nc(c(-c7c(F)c(F)c(F)c(F)c7F)c7ccc4[nH]7)C=C6)C=C5)cc3)c2)c1
REMARK SMILES IDX 22 1 21 2 20 3 18 4 19 5 17 6 12 7 13 8 92 9 14 10 15 11
REMARK SMILES IDX 16 12 11 13 9 14 10 15 8 17 4 18 5 19 93 20 6 21 7 22 3 23
REMARK SMILES IDX 2 24 1 25 23 26 24 27 25 28 26 29 27 30 28 31 29 32 30 33
REMARK SMILES IDX 91 34 31 35 90 36 32 37 33 38 34 39 84 40 35 41 89 42 83 43
REMARK SMILES IDX 85 44 36 45 88 46 82 47 81 48 37 50 69 51 49 52 68 53 50 54
REMARK SMILES IDX 53 55 67 56 86 57 51 58 52 59 66 61 87 62 54 63 38 64 39 65
REMARK SMILES IDX 47 66 40 67 41 68 45 69 48 70 42 71 43 72 46 73 44 74 70 75
REMARK SMILES IDX 71 76 79 77 72 78 73 79 77 80 80 81 74 82 75 83 78 84 76 85
REMARK SMILES IDX 55 86 56 87 64 88 57 89 58 90 62 91 65 92 59 93 60 94 63 95
REMARK SMILES IDX 61 96
REMARK H PARENT 11 16 85 49 53 60
REMARK Flexibility Score: inf
ROOT
ATOM      1  C   UNL A   1      36.865  21.167  25.238  1.00  0.00     0.202 C 
ENDROOT
BRANCH   1   2
ATOM      2  C   UNL A   1      35.728  22.021  25.806  1.00  0.00     0.261 C 
BRANCH   2   3
ATOM      3  O   UNL A   1      34.660  22.238  24.869  1.00  0.00    -0.460 OA
BRANCH   3   4
ATOM      4  C   UNL A   1      33.472  21.702  25.247  1.00  0.00     0.339 C 
ATOM      5  O   UNL A   1      33.315  20.604  25.762  1.00  0.00    -0.246 OA
BRANCH   4   6
ATOM      6  C   UNL A   1      32.365  22.658  25.022  1.00  0.00     0.080 A 
ATOM      7  C   UNL A   1      31.221  24.650  25.807  1.00  0.00     0.042 A 
ATOM      8  C   UNL A   1      30.626  24.793  24.551  1.00  0.00     0.028 A 
ATOM      9  C   UNL A   1      31.994  23.517  26.070  1.00  0.00     0.043 A 
ATOM     10  C   UNL A   1      30.917  23.889  23.528  1.00  0.00     0.023 A 
ATOM     11  C   UNL A   1      31.814  22.841  23.749  1.00  0.00     0.055 A 
ATOM     12  Cl  UNL A   1      32.155  21.814  22.403  1.00  0.00    -0.083 Cl
BRANCH   7  13
ATOM     13  N   UNL A   1      31.074  25.722  26.707  1.00  0.00    -0.322 N 
ATOM     14  C   UNL A   1      31.457  27.050  26.640  1.00  0.00     0.255 C 
ATOM     15  O   UNL A   1      31.350  27.745  27.650  1.00  0.00    -0.269 OA
ATOM     16  H   UNL A   1      30.612  25.482  27.542  1.00  0.00     0.170 HD
BRANCH  14  17
ATOM     17  C   UNL A   1      31.939  27.692  25.384  1.00  0.00     0.043 A 
ATOM     18  C   UNL A   1      31.504  28.857  23.315  1.00  0.00     0.120 A 
ATOM     19  C   UNL A   1      32.773  28.516  22.852  1.00  0.00     0.046 A 
ATOM     20  C   UNL A   1      31.126  28.530  24.612  1.00  0.00     0.060 A 
ATOM     21  C   UNL A   1      33.662  27.840  23.690  1.00  0.00     0.005 A 
ATOM     22  C   UNL A   1      33.237  27.403  24.946  1.00  0.00     0.014 A 
BRANCH  18  23
ATOM     23  O   UNL A   1      30.581  29.260  22.389  1.00  0.00    -0.494 OA
BRANCH  23  24
ATOM     24  C   UNL A   1      29.218  28.975  22.706  1.00  0.00     0.226 C 
ATOM     25  C   UNL A   1      28.244  29.912  22.010  1.00  0.00     0.049 C 
ENDBRANCH  23  24
ENDBRANCH  18  23
ENDBRANCH  14  17
ENDBRANCH   7  13
ENDBRANCH   4   6
ENDBRANCH   3   4
ENDBRANCH   2   3
ENDBRANCH   1   2
BRANCH   1  26
ATOM     26  O   UNL A   1      38.152  21.742  25.039  1.00  0.00    -0.374 OA
BRANCH  26  27
ATOM     27  C   UNL A   1      39.205  21.430  25.941  1.00  0.00     0.202 C 
BRANCH  27  28
ATOM     28  C   UNL A   1      39.634  19.965  26.126  1.00  0.00     0.261 C 
BRANCH  28  29
ATOM     29  O   UNL A   1      40.735  19.553  25.304  1.00  0.00    -0.460 OA
BRANCH  29  30
ATOM     30  C   UNL A   1      41.862  19.270  26.001  1.00  0.00     0.338 C 
ATOM     31  O   UNL A   1      42.324  18.167  26.253  1.00  0.00    -0.246 OA
BRANCH  30  32
ATOM     32  C   UNL A   1      42.597  20.505  26.319  1.00  0.00     0.060 A 
ATOM     33  C   UNL A   1      42.565  20.948  27.647  1.00  0.00     0.016 A 
ATOM     34  C   UNL A   1      43.195  21.280  25.322  1.00  0.00     0.016 A 
ATOM     35  C   UNL A   1      43.080  22.196  27.978  1.00  0.00     0.010 A 
ATOM     36  C   UNL A   1      43.698  22.544  25.654  1.00  0.00     0.010 A 
ATOM     37  C   UNL A   1      43.600  23.022  26.972  1.00  0.00    -0.014 A 
BRANCH  37  38
ATOM     38  C   UNL A   1      43.849  24.448  27.287  1.00  0.00     0.031 A 
ATOM     39  C   UNL A   1      45.223  25.011  27.044  1.00  0.00     0.074 A 
ATOM     40  C   UNL A   1      42.851  25.246  27.706  1.00  0.00     0.049 A 
ATOM     41  N   UNL A   1      45.665  26.231  27.211  1.00  0.00    -0.248 NA
ATOM     42  C   UNL A   1      46.236  24.069  26.539  1.00  0.00     0.031 C 
ATOM     43  C   UNL A   1      41.472  24.823  27.933  1.00  0.00     0.029 A 
ATOM     44  N   UNL A   1      42.851  26.584  28.008  1.00  0.00    -0.354 N 
ATOM     45  C   UNL A   1      46.998  26.206  26.823  1.00  0.00     0.074 A 
ATOM     46  C   UNL A   1      47.307  24.842  26.450  1.00  0.00     0.031 C 
ATOM     47  C   UNL A   1      40.755  25.883  28.346  1.00  0.00     0.029 A 
ATOM     48  C   UNL A   1      41.632  27.050  28.432  1.00  0.00     0.049 A 
ATOM     49  H   UNL A   1      43.648  27.156  27.928  1.00  0.00     0.167 HD
ATOM     50  C   UNL A   1      47.881  27.230  26.765  1.00  0.00     0.037 A 
ATOM     51  C   UNL A   1      41.273  28.278  28.852  1.00  0.00     0.037 A 
ATOM     52  C   UNL A   1      47.577  28.584  27.146  1.00  0.00     0.049 A 
ATOM     53  C   UNL A   1      42.295  29.387  28.843  1.00  0.00     0.074 A 
ATOM     54  C   UNL A   1      48.406  29.691  27.147  1.00  0.00     0.029 A 
ATOM     55  N   UNL A   1      46.337  29.012  27.598  1.00  0.00    -0.354 N 
ATOM     56  N   UNL A   1      43.549  29.357  28.462  1.00  0.00    -0.248 NA
ATOM     57  C   UNL A   1      41.843  30.705  29.312  1.00  0.00     0.031 C 
ATOM     58  C   UNL A   1      47.679  30.782  27.635  1.00  0.00     0.029 A 
ATOM     59  C   UNL A   1      46.383  30.365  27.892  1.00  0.00     0.049 A 
ATOM     60  H   UNL A   1      45.542  28.439  27.695  1.00  0.00     0.167 HD
ATOM     61  C   UNL A   1      44.027  30.652  28.615  1.00  0.00     0.074 A 
ATOM     62  C   UNL A   1      42.923  31.448  29.110  1.00  0.00     0.031 C 
ATOM     63  C   UNL A   1      45.268  31.142  28.369  1.00  0.00     0.037 A 
BRANCH  50  64
ATOM     64  C   UNL A   1      49.270  26.918  26.288  1.00  0.00     0.064 A 
ATOM     65  C   UNL A   1      50.277  26.513  27.178  1.00  0.00     0.173 A 
ATOM     66  C   UNL A   1      49.592  27.000  24.926  1.00  0.00     0.173 A 
ATOM     67  F   UNL A   1      50.023  26.436  28.493  1.00  0.00    -0.203 F 
ATOM     68  C   UNL A   1      51.560  26.225  26.724  1.00  0.00     0.198 A 
ATOM     69  C   UNL A   1      50.870  26.685  24.472  1.00  0.00     0.198 A 
ATOM     70  F   UNL A   1      48.665  27.380  24.034  1.00  0.00    -0.203 F 
ATOM     71  F   UNL A   1      52.518  25.883  27.597  1.00  0.00    -0.200 F 
ATOM     72  C   UNL A   1      51.854  26.304  25.371  1.00  0.00     0.200 A 
ATOM     73  F   UNL A   1      51.149  26.753  23.162  1.00  0.00    -0.200 F 
ATOM     74  F   UNL A   1      53.089  26.021  24.934  1.00  0.00    -0.200 F 
ENDBRANCH  50  64
BRANCH  51  75
ATOM     75  C   UNL A   1      39.885  28.530  29.322  1.00  0.00     0.064 A 
ATOM     76  C   UNL A   1      38.897  29.005  28.449  1.00  0.00     0.173 A 
ATOM     77  C   UNL A   1      39.530  28.328  30.663  1.00  0.00     0.173 A 
ATOM     78  F   UNL A   1      39.194  29.236  27.163  1.00  0.00    -0.203 F 
ATOM     79  C   UNL A   1      37.612  29.293  28.906  1.00  0.00     0.198 A 
ATOM     80  C   UNL A   1      38.237  28.589  31.113  1.00  0.00     0.198 A 
ATOM     81  F   UNL A   1      40.439  27.874  31.539  1.00  0.00    -0.203 F 
ATOM     82  F   UNL A   1      36.701  29.796  28.063  1.00  0.00    -0.200 F 
ATOM     83  C   UNL A   1      37.282  29.081  30.236  1.00  0.00     0.200 A 
ATOM     84  F   UNL A   1      37.920  28.370  32.396  1.00  0.00    -0.200 F 
ATOM     85  F   UNL A   1      36.047  29.359  30.676  1.00  0.00    -0.200 F 
ENDBRANCH  51  75
BRANCH  63  86
ATOM     86  C   UNL A   1      45.482  32.611  28.586  1.00  0.00     0.064 A 
ATOM     87  C   UNL A   1      45.997  33.112  29.790  1.00  0.00     0.173 A 
ATOM     88  C   UNL A   1      45.192  33.527  27.562  1.00  0.00     0.173 A 
ATOM     89  F   UNL A   1      46.276  32.278  30.804  1.00  0.00    -0.203 F 
ATOM     90  C   UNL A   1      46.184  34.479  29.974  1.00  0.00     0.198 A 
ATOM     91  C   UNL A   1      45.408  34.891  27.739  1.00  0.00     0.198 A 
ATOM     92  F   UNL A   1      44.706  33.098  26.388  1.00  0.00    -0.203 F 
ATOM     93  F   UNL A   1      46.627  34.940  31.152  1.00  0.00    -0.200 F 
ATOM     94  C   UNL A   1      45.895  35.366  28.947  1.00  0.00     0.200 A 
ATOM     95  F   UNL A   1      45.141  35.745  26.742  1.00  0.00    -0.200 F 
ATOM     96  F   UNL A   1      46.078  36.682  29.126  1.00  0.00    -0.200 F 
ENDBRANCH  63  86
ENDBRANCH  37  38
ENDBRANCH  30  32
ENDBRANCH  29  30
ENDBRANCH  28  29
ENDBRANCH  27  28
ENDBRANCH  26  27
ENDBRANCH   1  26
TORSDOF 18
ENDMDL
MODEL 2
REMARK VINA RESULT:     -11.4      1.254      7.255
REMARK SMILES CCOc1cccc(C(=O)Nc2ccc(Cl)c(C(=O)OCCOCCOC(=O)c3ccc(-c4c5nc(c(-c6c(F)c(F)c(F)c(F)c6F)c6ccc([nH]6)c(-c6c(F)c(F)c(F)c(F)c6F)c6nc(c(-c7c(F)c(F)c(F)c(F)c7F)c7ccc4[nH]7)C=C6)C=C5)cc3)c2)c1
REMARK SMILES IDX 22 1 21 2 20 3 18 4 19 5 17 6 12 7 13 8 92 9 14 10 15 11
REMARK SMILES IDX 16 12 11 13 9 14 10 15 8 17 4 18 5 19 93 20 6 21 7 22 3 23
REMARK SMILES IDX 2 24 1 25 23 26 24 27 25 28 26 29 27 30 28 31 29 32 30 33
REMARK SMILES IDX 91 34 31 35 90 36 32 37 33 38 34 39 84 40 35 41 89 42 83 43
REMARK SMILES IDX 85 44 36 45 88 46 82 47 81 48 37 50 69 51 49 52 68 53 50 54
REMARK SMILES IDX 53 55 67 56 86 57 51 58 52 59 66 61 87 62 54 63 38 64 39 65
REMARK SMILES IDX 47 66 40 67 41 68 45 69 48 70 42 71 43 72 46 73 44 74 70 75
REMARK SMILES IDX 71 76 79 77 72 78 73 79 77 80 80 81 74 82 75 83 78 84 76 85
REMARK SMILES IDX 55 86 56 87 64 88 57 89 58 90 62 91 65 92 59 93 60 94 63 95
REMARK SMILES IDX 61 96
REMARK H PARENT 11 16 85 49 53 60
REMARK Flexibility Score: inf
ROOT
ATOM      1  C   UNL A   1      38.081  23.703  26.008  1.00  0.00     0.202 C 
ENDROOT
BRANCH   1   2
ATOM      2  C   UNL A   1      36.621  24.160  25.928  1.00  0.00     0.261 C 
BRANCH   2   3
ATOM      3  O   UNL A   1      35.758  23.192  25.308  1.00  0.00    -0.460 OA
BRANCH   3   4
ATOM      4  C   UNL A   1      34.913  23.714  24.383  1.00  0.00     0.339 C 
ATOM      5  O   UNL A   1      35.225  24.086  23.260  1.00  0.00    -0.246 OA
BRANCH   4   6
ATOM      6  C   UNL A   1      33.519  23.714  24.880  1.00  0.00     0.080 A 
ATOM      7  C   UNL A   1      31.839  24.871  26.195  1.00  0.00     0.042 A 
ATOM      8  C   UNL A   1      30.842  24.122  25.565  1.00  0.00     0.028 A 
ATOM      9  C   UNL A   1      33.179  24.578  25.933  1.00  0.00     0.043 A 
ATOM     10  C   UNL A   1      31.178  23.192  24.580  1.00  0.00     0.023 A 
ATOM     11  C   UNL A   1      32.512  23.010  24.209  1.00  0.00     0.055 A 
ATOM     12  Cl  UNL A   1      32.818  21.881  22.938  1.00  0.00    -0.083 Cl
BRANCH   7  13
ATOM     13  N   UNL A   1      31.416  25.950  26.993  1.00  0.00    -0.322 N 
ATOM     14  C   UNL A   1      31.445  27.319  26.795  1.00  0.00     0.255 C 
ATOM     15  O   UNL A   1      31.156  28.056  27.739  1.00  0.00    -0.269 OA
ATOM     16  H   UNL A   1      31.027  25.679  27.856  1.00  0.00     0.170 HD
BRANCH  14  17
ATOM     17  C   UNL A   1      31.753  27.941  25.476  1.00  0.00     0.043 A 
ATOM     18  C   UNL A   1      31.459  28.052  23.082  1.00  0.00     0.120 A 
ATOM     19  C   UNL A   1      32.626  28.804  22.971  1.00  0.00     0.046 A 
ATOM     20  C   UNL A   1      30.973  27.705  24.339  1.00  0.00     0.060 A 
ATOM     21  C   UNL A   1      33.310  29.204  24.121  1.00  0.00     0.005 A 
ATOM     22  C   UNL A   1      32.891  28.750  25.372  1.00  0.00     0.014 A 
BRANCH  18  23
ATOM     23  O   UNL A   1      30.983  27.453  21.949  1.00  0.00    -0.494 OA
BRANCH  23  24
ATOM     24  C   UNL A   1      31.115  26.031  21.896  1.00  0.00     0.226 C 
ATOM     25  C   UNL A   1      32.528  25.586  21.558  1.00  0.00     0.049 C 
ENDBRANCH  23  24
ENDBRANCH  18  23
ENDBRANCH  14  17
ENDBRANCH   7  13
ENDBRANCH   4   6
ENDBRANCH   3   4
ENDBRANCH   2   3
ENDBRANCH   1   2
BRANCH   1  26
ATOM     26  O   UNL A   1      38.384  22.351  26.331  1.00  0.00    -0.374 OA
BRANCH  26  27
ATOM     27  C   UNL A   1      38.434  21.379  25.294  1.00  0.00     0.202 C 
BRANCH  27  28
ATOM     28  C   UNL A   1      39.118  20.028  25.556  1.00  0.00     0.261 C 
BRANCH  28  29
ATOM     29  O   UNL A   1      40.037  20.023  26.658  1.00  0.00    -0.460 OA
BRANCH  29  30
ATOM     30  C   UNL A   1      41.312  19.733  26.305  1.00  0.00     0.338 C 
ATOM     31  O   UNL A   1      41.714  18.743  25.709  1.00  0.00    -0.246 OA
BRANCH  30  32
ATOM     32  C   UNL A   1      42.202  20.868  26.602  1.00  0.00     0.060 A 
ATOM     33  C   UNL A   1      42.264  21.305  27.930  1.00  0.00     0.016 A 
ATOM     34  C   UNL A   1      42.859  21.569  25.588  1.00  0.00     0.016 A 
ATOM     35  C   UNL A   1      42.936  22.480  28.247  1.00  0.00     0.010 A 
ATOM     36  C   UNL A   1      43.522  22.760  25.905  1.00  0.00     0.010 A 
ATOM     37  C   UNL A   1      43.523  23.241  27.226  1.00  0.00    -0.014 A 
BRANCH  37  38
ATOM     38  C   UNL A   1      43.952  24.625  27.535  1.00  0.00     0.031 A 
ATOM     39  C   UNL A   1      42.902  25.648  27.872  1.00  0.00     0.074 A 
ATOM     40  C   UNL A   1      45.257  24.945  27.593  1.00  0.00     0.049 A 
ATOM     41  N   UNL A   1      43.041  26.905  28.208  1.00  0.00    -0.248 NA
ATOM     42  C   UNL A   1      41.504  25.188  27.828  1.00  0.00     0.031 C 
ATOM     43  C   UNL A   1      46.363  24.028  27.331  1.00  0.00     0.029 A 
ATOM     44  N   UNL A   1      45.867  26.135  27.898  1.00  0.00    -0.354 N 
ATOM     45  C   UNL A   1      41.754  27.381  28.425  1.00  0.00     0.074 A 
ATOM     46  C   UNL A   1      40.844  26.292  28.144  1.00  0.00     0.031 C 
ATOM     47  C   UNL A   1      47.522  24.692  27.482  1.00  0.00     0.029 A 
ATOM     48  C   UNL A   1      47.236  26.083  27.827  1.00  0.00     0.049 A 
ATOM     49  H   UNL A   1      45.371  26.949  28.144  1.00  0.00     0.167 HD
ATOM     50  C   UNL A   1      41.366  28.611  28.838  1.00  0.00     0.037 A 
ATOM     51  C   UNL A   1      48.150  27.055  28.012  1.00  0.00     0.037 A 
ATOM     52  C   UNL A   1      42.271  29.697  29.106  1.00  0.00     0.049 A 
ATOM     53  C   UNL A   1      47.688  28.436  28.406  1.00  0.00     0.074 A 
ATOM     54  C   UNL A   1      41.979  30.988  29.507  1.00  0.00     0.029 A 
ATOM     55  N   UNL A   1      43.651  29.613  28.997  1.00  0.00    -0.354 N 
ATOM     56  N   UNL A   1      46.471  28.873  28.621  1.00  0.00    -0.248 NA
ATOM     57  C   UNL A   1      48.732  29.453  28.593  1.00  0.00     0.031 C 
ATOM     58  C   UNL A   1      43.181  31.698  29.605  1.00  0.00     0.029 A 
ATOM     59  C   UNL A   1      44.224  30.834  29.312  1.00  0.00     0.049 A 
ATOM     60  H   UNL A   1      44.150  28.806  28.735  1.00  0.00     0.167 HD
ATOM     61  C   UNL A   1      46.603  30.202  28.999  1.00  0.00     0.074 A 
ATOM     62  C   UNL A   1      48.021  30.497  28.997  1.00  0.00     0.031 C 
ATOM     63  C   UNL A   1      45.640  31.102  29.318  1.00  0.00     0.037 A 
BRANCH  50  64
ATOM     64  C   UNL A   1      39.894  28.849  29.006  1.00  0.00     0.064 A 
ATOM     65  C   UNL A   1      39.088  29.246  27.928  1.00  0.00     0.173 A 
ATOM     66  C   UNL A   1      39.277  28.657  30.250  1.00  0.00     0.173 A 
ATOM     67  F   UNL A   1      39.633  29.460  26.721  1.00  0.00    -0.203 F 
ATOM     68  C   UNL A   1      37.723  29.463  28.096  1.00  0.00     0.198 A 
ATOM     69  C   UNL A   1      37.907  28.849  30.409  1.00  0.00     0.198 A 
ATOM     70  F   UNL A   1      40.003  28.276  31.313  1.00  0.00    -0.203 F 
ATOM     71  F   UNL A   1      36.981  29.884  27.063  1.00  0.00    -0.200 F 
ATOM     72  C   UNL A   1      37.133  29.258  29.334  1.00  0.00     0.200 A 
ATOM     73  F   UNL A   1      37.337  28.641  31.604  1.00  0.00    -0.200 F 
ATOM     74  F   UNL A   1      35.818  29.461  29.493  1.00  0.00    -0.200 F 
ENDBRANCH  50  64
BRANCH  51  75
ATOM     75  C   UNL A   1      49.596  26.765  27.824  1.00  0.00     0.064 A 
ATOM     76  C   UNL A   1      50.157  26.667  26.544  1.00  0.00     0.173 A 
ATOM     77  C   UNL A   1      50.437  26.548  28.925  1.00  0.00     0.173 A 
ATOM     78  F   UNL A   1      49.388  26.842  25.460  1.00  0.00    -0.203 F 
ATOM     79  C   UNL A   1      51.501  26.338  26.371  1.00  0.00     0.198 A 
ATOM     80  C   UNL A   1      51.787  26.248  28.751  1.00  0.00     0.198 A 
ATOM     81  F   UNL A   1      49.949  26.630  30.171  1.00  0.00    -0.203 F 
ATOM     82  F   UNL A   1      52.000  26.199  25.136  1.00  0.00    -0.200 F 
ATOM     83  C   UNL A   1      52.315  26.133  27.474  1.00  0.00     0.200 A 
ATOM     84  F   UNL A   1      52.572  26.064  29.821  1.00  0.00    -0.200 F 
ATOM     85  F   UNL A   1      53.606  25.816  27.308  1.00  0.00    -0.200 F 
ENDBRANCH  51  75
BRANCH  63  86
ATOM     86  C   UNL A   1      46.090  32.471  29.737  1.00  0.00     0.064 A 
ATOM     87  C   UNL A   1      46.371  32.779  31.076  1.00  0.00     0.173 A 
ATOM     88  C   UNL A   1      46.268  33.481  28.778  1.00  0.00     0.173 A 
ATOM     89  F   UNL A   1      46.203  31.851  32.031  1.00  0.00    -0.203 F 
ATOM     90  C   UNL A   1      46.783  34.056  31.445  1.00  0.00     0.198 A 
ATOM     91  C   UNL A   1      46.708  34.749  29.147  1.00  0.00     0.198 A 
ATOM     92  F   UNL A   1      46.021  33.236  27.483  1.00  0.00    -0.203 F 
ATOM     93  F   UNL A   1      46.995  34.343  32.737  1.00  0.00    -0.200 F 
ATOM     94  C   UNL A   1      46.957  35.038  30.480  1.00  0.00     0.200 A 
ATOM     95  F   UNL A   1      46.888  35.693  28.213  1.00  0.00    -0.200 F 
ATOM     96  F   UNL A   1      47.355  36.267  30.838  1.00  0.00    -0.200 F 
ENDBRANCH  63  86
ENDBRANCH  37  38
ENDBRANCH  30  32
ENDBRANCH  29  30
ENDBRANCH  28  29
ENDBRANCH  27  28
ENDBRANCH  26  27
ENDBRANCH   1  26
TORSDOF 18
ENDMDL
MODEL 3
REMARK VINA RESULT:     -11.2      1.768      2.902
REMARK SMILES CCOc1cccc(C(=O)Nc2ccc(Cl)c(C(=O)OCCOCCOC(=O)c3ccc(-c4c5nc(c(-c6c(F)c(F)c(F)c(F)c6F)c6ccc([nH]6)c(-c6c(F)c(F)c(F)c(F)c6F)c6nc(c(-c7c(F)c(F)c(F)c(F)c7F)c7ccc4[nH]7)C=C6)C=C5)cc3)c2)c1
REMARK SMILES IDX 22 1 21 2 20 3 18 4 19 5 17 6 12 7 13 8 92 9 14 10 15 11
REMARK SMILES IDX 16 12 11 13 9 14 10 15 8 17 4 18 5 19 93 20 6 21 7 22 3 23
REMARK SMILES IDX 2 24 1 25 23 26 24 27 25 28 26 29 27 30 28 31 29 32 30 33
REMARK SMILES IDX 91 34 31 35 90 36 32 37 33 38 34 39 84 40 35 41 89 42 83 43
REMARK SMILES IDX 85 44 36 45 88 46 82 47 81 48 37 50 69 51 49 52 68 53 50 54
REMARK SMILES IDX 53 55 67 56 86 57 51 58 52 59 66 61 87 62 54 63 38 64 39 65
REMARK SMILES IDX 47 66 40 67 41 68 45 69 48 70 42 71 43 72 46 73 44 74 70 75
REMARK SMILES IDX 71 76 79 77 72 78 73 79 77 80 80 81 74 82 75 83 78 84 76 85
REMARK SMILES IDX 55 86 56 87 64 88 57 89 58 90 62 91 65 92 59 93 60 94 63 95
REMARK SMILES IDX 61 96
REMARK H PARENT 11 16 85 49 53 60
REMARK Flexibility Score: inf
ROOT
ATOM      1  C   UNL A   1      35.909  22.633  25.071  1.00  0.00     0.202 C 
ENDROOT
BRANCH   1   2
ATOM      2  C   UNL A   1      34.741  21.651  24.932  1.00  0.00     0.261 C 
BRANCH   2   3
ATOM      3  O   UNL A   1      33.672  21.908  25.859  1.00  0.00    -0.460 OA
BRANCH   3   4
ATOM      4  C   UNL A   1      32.457  21.474  25.439  1.00  0.00     0.339 C 
ATOM      5  O   UNL A   1      32.078  20.310  25.427  1.00  0.00    -0.246 OA
BRANCH   4   6
ATOM      6  C   UNL A   1      31.593  22.612  25.054  1.00  0.00     0.080 A 
ATOM      7  C   UNL A   1      30.634  24.740  25.719  1.00  0.00     0.042 A 
ATOM      8  C   UNL A   1      30.362  25.027  24.380  1.00  0.00     0.028 A 
ATOM      9  C   UNL A   1      31.139  23.483  26.058  1.00  0.00     0.043 A 
ATOM     10  C   UNL A   1      30.726  24.124  23.379  1.00  0.00     0.023 A 
ATOM     11  C   UNL A   1      31.374  22.932  23.709  1.00  0.00     0.055 A 
ATOM     12  Cl  UNL A   1      31.838  21.911  22.395  1.00  0.00    -0.083 Cl
BRANCH   7  13
ATOM     13  N   UNL A   1      30.463  25.788  26.642  1.00  0.00    -0.322 N 
ATOM     14  C   UNL A   1      31.125  26.991  26.815  1.00  0.00     0.255 C 
ATOM     15  O   UNL A   1      30.877  27.660  27.819  1.00  0.00    -0.269 OA
ATOM     16  H   UNL A   1      29.735  25.637  27.288  1.00  0.00     0.170 HD
BRANCH  14  17
ATOM     17  C   UNL A   1      32.082  27.540  25.813  1.00  0.00     0.043 A 
ATOM     18  C   UNL A   1      32.741  27.924  23.523  1.00  0.00     0.120 A 
ATOM     19  C   UNL A   1      34.046  28.180  23.938  1.00  0.00     0.046 A 
ATOM     20  C   UNL A   1      31.743  27.700  24.465  1.00  0.00     0.060 A 
ATOM     21  C   UNL A   1      34.352  28.207  25.300  1.00  0.00     0.005 A 
ATOM     22  C   UNL A   1      33.378  27.860  26.237  1.00  0.00     0.014 A 
BRANCH  18  23
ATOM     23  O   UNL A   1      32.544  27.633  22.201  1.00  0.00    -0.494 OA
BRANCH  23  24
ATOM     24  C   UNL A   1      33.290  26.528  21.690  1.00  0.00     0.226 C 
ATOM     25  C   UNL A   1      32.484  25.671  20.726  1.00  0.00     0.049 C 
ENDBRANCH  23  24
ENDBRANCH  18  23
ENDBRANCH  14  17
ENDBRANCH   7  13
ENDBRANCH   4   6
ENDBRANCH   3   4
ENDBRANCH   2   3
ENDBRANCH   1   2
BRANCH   1  26
ATOM     26  O   UNL A   1      37.232  22.208  24.764  1.00  0.00    -0.374 OA
BRANCH  26  27
ATOM     27  C   UNL A   1      37.512  20.819  24.653  1.00  0.00     0.202 C 
BRANCH  27  28
ATOM     28  C   UNL A   1      38.675  20.215  25.457  1.00  0.00     0.261 C 
BRANCH  28  29
ATOM     29  O   UNL A   1      39.780  21.104  25.676  1.00  0.00    -0.460 OA
BRANCH  29  30
ATOM     30  C   UNL A   1      40.373  20.951  26.884  1.00  0.00     0.338 C 
ATOM     31  O   UNL A   1      40.774  19.914  27.392  1.00  0.00    -0.246 OA
BRANCH  30  32
ATOM     32  C   UNL A   1      40.634  22.263  27.501  1.00  0.00     0.060 A 
ATOM     33  C   UNL A   1      39.860  23.344  27.062  1.00  0.00     0.016 A 
ATOM     34  C   UNL A   1      41.693  22.457  28.390  1.00  0.00     0.016 A 
ATOM     35  C   UNL A   1      40.177  24.637  27.466  1.00  0.00     0.010 A 
ATOM     36  C   UNL A   1      42.022  23.760  28.782  1.00  0.00     0.010 A 
ATOM     37  C   UNL A   1      41.293  24.855  28.285  1.00  0.00    -0.014 A 
BRANCH  37  38
ATOM     38  C   UNL A   1      41.794  26.240  28.442  1.00  0.00     0.031 A 
ATOM     39  C   UNL A   1      43.143  26.588  27.873  1.00  0.00     0.074 A 
ATOM     40  C   UNL A   1      41.029  27.189  29.009  1.00  0.00     0.049 A 
ATOM     41  N   UNL A   1      43.769  27.737  27.859  1.00  0.00    -0.248 NA
ATOM     42  C   UNL A   1      43.883  25.491  27.228  1.00  0.00     0.031 C 
ATOM     43  C   UNL A   1      39.691  26.980  29.555  1.00  0.00     0.029 A 
ATOM     44  N   UNL A   1      41.274  28.523  29.214  1.00  0.00    -0.354 N 
ATOM     45  C   UNL A   1      44.968  27.504  27.197  1.00  0.00     0.074 A 
ATOM     46  C   UNL A   1      45.002  26.098  26.861  1.00  0.00     0.031 C 
ATOM     47  C   UNL A   1      39.231  28.147  30.039  1.00  0.00     0.029 A 
ATOM     48  C   UNL A   1      40.253  29.176  29.857  1.00  0.00     0.049 A 
ATOM     49  H   UNL A   1      42.103  28.970  28.927  1.00  0.00     0.167 HD
ATOM     50  C   UNL A   1      45.945  28.387  26.883  1.00  0.00     0.037 A 
ATOM     51  C   UNL A   1      40.164  30.458  30.259  1.00  0.00     0.037 A 
ATOM     52  C   UNL A   1      45.916  29.783  27.228  1.00  0.00     0.049 A 
ATOM     53  C   UNL A   1      41.297  31.406  29.957  1.00  0.00     0.074 A 
ATOM     54  C   UNL A   1      46.866  30.757  26.977  1.00  0.00     0.029 A 
ATOM     55  N   UNL A   1      44.876  30.403  27.904  1.00  0.00    -0.354 N 
ATOM     56  N   UNL A   1      42.420  31.180  29.320  1.00  0.00    -0.248 NA
ATOM     57  C   UNL A   1      41.140  32.792  30.421  1.00  0.00     0.031 C 
ATOM     58  C   UNL A   1      46.417  31.959  27.534  1.00  0.00     0.029 A 
ATOM     59  C   UNL A   1      45.166  31.744  28.089  1.00  0.00     0.049 A 
ATOM     60  H   UNL A   1      44.053  29.955  28.207  1.00  0.00     0.167 HD
ATOM     61  C   UNL A   1      43.088  32.397  29.279  1.00  0.00     0.074 A 
ATOM     62  C   UNL A   1      42.237  33.362  29.944  1.00  0.00     0.031 C 
ATOM     63  C   UNL A   1      44.298  32.692  28.741  1.00  0.00     0.037 A 
BRANCH  50  64
ATOM     64  C   UNL A   1      47.139  27.858  26.143  1.00  0.00     0.064 A 
ATOM     65  C   UNL A   1      48.276  27.393  26.821  1.00  0.00     0.173 A 
ATOM     66  C   UNL A   1      47.139  27.794  24.742  1.00  0.00     0.173 A 
ATOM     67  F   UNL A   1      48.332  27.449  28.161  1.00  0.00    -0.203 F 
ATOM     68  C   UNL A   1      49.376  26.904  26.124  1.00  0.00     0.198 A 
ATOM     69  C   UNL A   1      48.232  27.280  24.048  1.00  0.00     0.198 A 
ATOM     70  F   UNL A   1      46.077  28.226  24.046  1.00  0.00    -0.203 F 
ATOM     71  F   UNL A   1      50.469  26.506  26.791  1.00  0.00    -0.200 F 
ATOM     72  C   UNL A   1      49.351  26.842  24.739  1.00  0.00     0.200 A 
ATOM     73  F   UNL A   1      48.202  27.212  22.710  1.00  0.00    -0.200 F 
ATOM     74  F   UNL A   1      50.409  26.366  24.068  1.00  0.00    -0.200 F 
ENDBRANCH  50  64
BRANCH  51  75
ATOM     75  C   UNL A   1      38.960  30.926  30.997  1.00  0.00     0.064 A 
ATOM     76  C   UNL A   1      38.865  30.796  32.389  1.00  0.00     0.173 A 
ATOM     77  C   UNL A   1      37.868  31.483  30.316  1.00  0.00     0.173 A 
ATOM     78  F   UNL A   1      39.873  30.247  33.081  1.00  0.00    -0.203 F 
ATOM     79  C   UNL A   1      37.712  31.183  33.070  1.00  0.00     0.198 A 
ATOM     80  C   UNL A   1      36.728  31.897  31.002  1.00  0.00     0.198 A 
ATOM     81  F   UNL A   1      37.909  31.629  28.983  1.00  0.00    -0.203 F 
ATOM     82  F   UNL A   1      37.626  31.000  34.394  1.00  0.00    -0.200 F 
ATOM     83  C   UNL A   1      36.647  31.737  32.376  1.00  0.00     0.200 A 
ATOM     84  F   UNL A   1      35.706  32.443  30.329  1.00  0.00    -0.200 F 
ATOM     85  F   UNL A   1      35.538  32.108  33.031  1.00  0.00    -0.200 F 
ENDBRANCH  51  75
BRANCH  63  86
ATOM     86  C   UNL A   1      44.749  34.121  28.807  1.00  0.00     0.064 A 
ATOM     87  C   UNL A   1      44.389  35.056  27.826  1.00  0.00     0.173 A 
ATOM     88  C   UNL A   1      45.531  34.568  29.885  1.00  0.00     0.173 A 
ATOM     89  F   UNL A   1      43.655  34.675  26.769  1.00  0.00    -0.203 F 
ATOM     90  C   UNL A   1      44.821  36.377  27.902  1.00  0.00     0.198 A 
ATOM     91  C   UNL A   1      45.936  35.896  29.974  1.00  0.00     0.198 A 
ATOM     92  F   UNL A   1      45.894  33.715  30.855  1.00  0.00    -0.203 F 
ATOM     93  F   UNL A   1      44.510  37.240  26.926  1.00  0.00    -0.200 F 
ATOM     94  C   UNL A   1      45.589  36.797  28.979  1.00  0.00     0.200 A 
ATOM     95  F   UNL A   1      46.667  36.303  31.021  1.00  0.00    -0.200 F 
ATOM     96  F   UNL A   1      46.003  38.070  29.051  1.00  0.00    -0.200 F 
ENDBRANCH  63  86
ENDBRANCH  37  38
ENDBRANCH  30  32
ENDBRANCH  29  30
ENDBRANCH  28  29
ENDBRANCH  27  28
ENDBRANCH  26  27
ENDBRANCH   1  26
TORSDOF 18
ENDMDL
