MODEL 1
REMARK VINA RESULT:     -11.5      0.000      0.000
REMARK SMILES O=C(/C=C\c1ccc(OCc2ccc(Br)cc2)cc1)OCCOCCOC(=O)c1ccc(-c2c3nc(c(-c4c(F)c(F)c(F)c(F)c4F)c4ccc([nH]4)c(-c4c(F)c(F)c(F)c(F)c4F)c4nc(c(-c5c(F)c(F)c(F)c(F)c5F)c5ccc2[nH]5)C=C4)C=C3)cc1
REMARK SMILES IDX 22 1 21 2 20 3 2 4 1 5 3 6 4 7 5 8 6 9 19 10 7 11 18 12 8 13
REMARK SMILES IDX 9 14 10 15 11 16 12 17 17 18 13 19 16 20 14 21 15 22 23 23
REMARK SMILES IDX 24 24 25 25 26 26 27 27 28 28 29 29 30 30 91 31 31 32 90 33
REMARK SMILES IDX 32 34 33 35 34 36 84 37 35 38 89 39 83 40 85 41 36 42 88 43
REMARK SMILES IDX 82 44 81 45 37 47 69 48 49 49 68 50 50 51 53 52 67 53 86 54
REMARK SMILES IDX 51 55 52 56 66 58 87 59 54 60 38 61 39 62 47 63 40 64 41 65
REMARK SMILES IDX 45 66 48 67 42 68 43 69 46 70 44 71 70 72 71 73 79 74 72 75
REMARK SMILES IDX 73 76 77 77 80 78 74 79 75 80 78 81 76 82 55 83 56 84 64 85
REMARK SMILES IDX 57 86 58 87 62 88 65 89 59 90 60 91 63 92 61 93
REMARK H PARENT 85 46 53 57
REMARK Flexibility Score: inf
ROOT
ATOM      1  C   UNL A   1      34.676  33.223  29.428  1.00  0.00     0.202 C 
ENDROOT
BRANCH   1   2
ATOM      2  C   UNL A   1      34.773  32.173  28.321  1.00  0.00     0.261 C 
BRANCH   2   3
ATOM      3  O   UNL A   1      33.523  31.786  27.737  1.00  0.00    -0.460 OA
BRANCH   3   4
ATOM      4  C   UNL A   1      33.218  30.645  27.103  1.00  0.00     0.330 C 
ATOM      5  O   UNL A   1      32.138  30.567  26.514  1.00  0.00    -0.247 OA
BRANCH   4   6
ATOM      6  C   UNL A   1      34.064  29.427  27.097  1.00  0.00     0.094 C 
ATOM      7  C   UNL A   1      34.110  28.153  26.665  1.00  0.00     0.015 C 
BRANCH   7   8
ATOM      8  C   UNL A   1      33.200  27.293  25.907  1.00  0.00    -0.025 A 
ATOM      9  C   UNL A   1      32.027  26.845  26.525  1.00  0.00     0.012 A 
ATOM     10  C   UNL A   1      33.506  26.793  24.641  1.00  0.00     0.012 A 
ATOM     11  C   UNL A   1      31.075  26.136  25.798  1.00  0.00     0.047 A 
ATOM     12  C   UNL A   1      32.541  26.135  23.889  1.00  0.00     0.047 A 
ATOM     13  C   UNL A   1      31.286  25.930  24.443  1.00  0.00     0.119 A 
BRANCH  13  14
ATOM     14  O   UNL A   1      30.181  25.631  23.702  1.00  0.00    -0.489 OA
BRANCH  14  15
ATOM     15  C   UNL A   1      29.074  26.491  24.001  1.00  0.00     0.265 C 
BRANCH  15  16
ATOM     16  C   UNL A   1      28.894  27.762  23.163  1.00  0.00    -0.011 A 
ATOM     17  C   UNL A   1      29.977  28.420  22.579  1.00  0.00     0.008 A 
ATOM     18  C   UNL A   1      27.651  28.417  23.157  1.00  0.00     0.008 A 
ATOM     19  C   UNL A   1      29.850  29.754  22.166  1.00  0.00     0.016 A 
ATOM     20  C   UNL A   1      27.535  29.767  22.824  1.00  0.00     0.016 A 
ATOM     21  C   UNL A   1      28.652  30.439  22.360  1.00  0.00     0.017 A 
ATOM     22  Br  UNL A   1      28.562  32.305  22.077  1.00  0.00    -0.051 Br
ENDBRANCH  15  16
ENDBRANCH  14  15
ENDBRANCH  13  14
ENDBRANCH   7   8
ENDBRANCH   4   6
ENDBRANCH   3   4
ENDBRANCH   2   3
ENDBRANCH   1   2
BRANCH   1  23
ATOM     23  O   UNL A   1      34.560  34.569  28.999  1.00  0.00    -0.374 OA
BRANCH  23  24
ATOM     24  C   UNL A   1      33.240  35.087  28.881  1.00  0.00     0.202 C 
BRANCH  24  25
ATOM     25  C   UNL A   1      32.915  36.246  29.835  1.00  0.00     0.261 C 
BRANCH  25  26
ATOM     26  O   UNL A   1      32.127  35.811  30.973  1.00  0.00    -0.460 OA
BRANCH  26  27
ATOM     27  C   UNL A   1      32.637  36.071  32.208  1.00  0.00     0.338 C 
ATOM     28  O   UNL A   1      32.202  36.867  33.018  1.00  0.00    -0.246 OA
BRANCH  27  29
ATOM     29  C   UNL A   1      33.778  35.165  32.519  1.00  0.00     0.060 A 
ATOM     30  C   UNL A   1      33.508  33.877  33.009  1.00  0.00     0.016 A 
ATOM     31  C   UNL A   1      35.106  35.576  32.380  1.00  0.00     0.016 A 
ATOM     32  C   UNL A   1      34.556  32.989  33.319  1.00  0.00     0.010 A 
ATOM     33  C   UNL A   1      36.151  34.693  32.699  1.00  0.00     0.010 A 
ATOM     34  C   UNL A   1      35.893  33.384  33.152  1.00  0.00    -0.014 A 
BRANCH  34  35
ATOM     35  C   UNL A   1      37.044  32.546  33.604  1.00  0.00     0.031 A 
ATOM     36  C   UNL A   1      37.741  32.932  34.861  1.00  0.00     0.074 A 
ATOM     37  C   UNL A   1      37.533  31.506  32.899  1.00  0.00     0.049 A 
ATOM     38  N   UNL A   1      38.861  32.477  35.352  1.00  0.00    -0.248 NA
ATOM     39  C   UNL A   1      37.062  33.930  35.696  1.00  0.00     0.031 C 
ATOM     40  C   UNL A   1      36.845  30.859  31.807  1.00  0.00     0.029 A 
ATOM     41  N   UNL A   1      38.721  30.817  32.964  1.00  0.00    -0.354 N 
ATOM     42  C   UNL A   1      39.014  33.116  36.568  1.00  0.00     0.074 A 
ATOM     43  C   UNL A   1      37.888  34.013  36.724  1.00  0.00     0.031 C 
ATOM     44  C   UNL A   1      37.642  29.973  31.198  1.00  0.00     0.029 A 
ATOM     45  C   UNL A   1      38.922  29.980  31.884  1.00  0.00     0.049 A 
ATOM     46  H   UNL A   1      39.363  30.910  33.705  1.00  0.00     0.167 HD
ATOM     47  C   UNL A   1      40.009  32.961  37.469  1.00  0.00     0.037 A 
ATOM     48  C   UNL A   1      40.014  29.307  31.477  1.00  0.00     0.037 A 
ATOM     49  C   UNL A   1      41.159  32.124  37.258  1.00  0.00     0.049 A 
ATOM     50  C   UNL A   1      41.209  29.307  32.381  1.00  0.00     0.074 A 
ATOM     51  C   UNL A   1      42.259  31.949  38.074  1.00  0.00     0.029 A 
ATOM     52  N   UNL A   1      41.373  31.346  36.123  1.00  0.00    -0.354 N 
ATOM     53  N   UNL A   1      41.355  29.919  33.531  1.00  0.00    -0.248 NA
ATOM     54  C   UNL A   1      42.362  28.495  31.977  1.00  0.00     0.031 C 
ATOM     55  C   UNL A   1      43.172  31.129  37.401  1.00  0.00     0.029 A 
ATOM     56  C   UNL A   1      42.610  30.729  36.198  1.00  0.00     0.049 A 
ATOM     57  H   UNL A   1      40.737  31.250  35.378  1.00  0.00     0.167 HD
ATOM     58  C   UNL A   1      42.585  29.519  34.022  1.00  0.00     0.074 A 
ATOM     59  C   UNL A   1      43.158  28.627  33.031  1.00  0.00     0.031 C 
ATOM     60  C   UNL A   1      43.167  29.843  35.202  1.00  0.00     0.037 A 
BRANCH  47  61
ATOM     61  C   UNL A   1      39.912  33.819  38.692  1.00  0.00     0.064 A 
ATOM     62  C   UNL A   1      40.594  35.043  38.792  1.00  0.00     0.173 A 
ATOM     63  C   UNL A   1      39.241  33.343  39.826  1.00  0.00     0.173 A 
ATOM     64  F   UNL A   1      41.283  35.521  37.745  1.00  0.00    -0.203 F 
ATOM     65  C   UNL A   1      40.664  35.722  40.006  1.00  0.00     0.198 A 
ATOM     66  C   UNL A   1      39.284  34.042  41.026  1.00  0.00     0.198 A 
ATOM     67  F   UNL A   1      38.584  32.174  39.782  1.00  0.00    -0.203 F 
ATOM     68  F   UNL A   1      41.412  36.830  40.109  1.00  0.00    -0.200 F 
ATOM     69  C   UNL A   1      40.013  35.218  41.122  1.00  0.00     0.200 A 
ATOM     70  F   UNL A   1      38.656  33.554  42.105  1.00  0.00    -0.200 F 
ATOM     71  F   UNL A   1      40.114  35.851  42.299  1.00  0.00    -0.200 F 
ENDBRANCH  47  61
BRANCH  48  72
ATOM     72  C   UNL A   1      40.014  28.588  30.172  1.00  0.00     0.064 A 
ATOM     73  C   UNL A   1      39.451  27.312  30.035  1.00  0.00     0.173 A 
ATOM     74  C   UNL A   1      40.576  29.174  29.025  1.00  0.00     0.173 A 
ATOM     75  F   UNL A   1      38.915  26.700  31.101  1.00  0.00    -0.203 F 
ATOM     76  C   UNL A   1      39.467  26.643  28.810  1.00  0.00     0.198 A 
ATOM     77  C   UNL A   1      40.574  28.513  27.797  1.00  0.00     0.198 A 
ATOM     78  F   UNL A   1      41.130  30.393  29.099  1.00  0.00    -0.203 F 
ATOM     79  F   UNL A   1      38.954  25.408  28.717  1.00  0.00    -0.200 F 
ATOM     80  C   UNL A   1      40.024  27.245  27.692  1.00  0.00     0.200 A 
ATOM     81  F   UNL A   1      41.110  29.100  26.719  1.00  0.00    -0.200 F 
ATOM     82  F   UNL A   1      40.039  26.599  26.517  1.00  0.00    -0.200 F 
ENDBRANCH  48  72
BRANCH  60  83
ATOM     83  C   UNL A   1      44.483  29.200  35.517  1.00  0.00     0.064 A 
ATOM     84  C   UNL A   1      44.565  27.965  36.176  1.00  0.00     0.173 A 
ATOM     85  C   UNL A   1      45.675  29.793  35.073  1.00  0.00     0.173 A 
ATOM     86  F   UNL A   1      43.455  27.370  36.637  1.00  0.00    -0.203 F 
ATOM     87  C   UNL A   1      45.796  27.348  36.380  1.00  0.00     0.198 A 
ATOM     88  C   UNL A   1      46.899  29.157  35.250  1.00  0.00     0.198 A 
ATOM     89  F   UNL A   1      45.647  30.975  34.440  1.00  0.00    -0.203 F 
ATOM     90  F   UNL A   1      45.857  26.181  37.037  1.00  0.00    -0.200 F 
ATOM     91  C   UNL A   1      46.959  27.936  35.904  1.00  0.00     0.200 A 
ATOM     92  F   UNL A   1      48.018  29.721  34.775  1.00  0.00    -0.200 F 
ATOM     93  F   UNL A   1      48.139  27.327  36.077  1.00  0.00    -0.200 F 
ENDBRANCH  60  83
ENDBRANCH  34  35
ENDBRANCH  27  29
ENDBRANCH  26  27
ENDBRANCH  25  26
ENDBRANCH  24  25
ENDBRANCH  23  24
ENDBRANCH   1  23
TORSDOF 18
ENDMDL
MODEL 2
REMARK VINA RESULT:     -11.3      0.881      2.264
REMARK SMILES O=C(/C=C\c1ccc(OCc2ccc(Br)cc2)cc1)OCCOCCOC(=O)c1ccc(-c2c3nc(c(-c4c(F)c(F)c(F)c(F)c4F)c4ccc([nH]4)c(-c4c(F)c(F)c(F)c(F)c4F)c4nc(c(-c5c(F)c(F)c(F)c(F)c5F)c5ccc2[nH]5)C=C4)C=C3)cc1
REMARK SMILES IDX 22 1 21 2 20 3 2 4 1 5 3 6 4 7 5 8 6 9 19 10 7 11 18 12 8 13
REMARK SMILES IDX 9 14 10 15 11 16 12 17 17 18 13 19 16 20 14 21 15 22 23 23
REMARK SMILES IDX 24 24 25 25 26 26 27 27 28 28 29 29 30 30 91 31 31 32 90 33
REMARK SMILES IDX 32 34 33 35 34 36 84 37 35 38 89 39 83 40 85 41 36 42 88 43
REMARK SMILES IDX 82 44 81 45 37 47 69 48 49 49 68 50 50 51 53 52 67 53 86 54
REMARK SMILES IDX 51 55 52 56 66 58 87 59 54 60 38 61 39 62 47 63 40 64 41 65
REMARK SMILES IDX 45 66 48 67 42 68 43 69 46 70 44 71 70 72 71 73 79 74 72 75
REMARK SMILES IDX 73 76 77 77 80 78 74 79 75 80 78 81 76 82 55 83 56 84 64 85
REMARK SMILES IDX 57 86 58 87 62 88 65 89 59 90 60 91 63 92 61 93
REMARK H PARENT 85 46 53 57
REMARK Flexibility Score: inf
ROOT
ATOM      1  C   UNL A   1      35.253  34.274  29.241  1.00  0.00     0.202 C 
ENDROOT
BRANCH   1   2
ATOM      2  C   UNL A   1      36.313  33.370  28.611  1.00  0.00     0.261 C 
BRANCH   2   3
ATOM      3  O   UNL A   1      35.826  32.457  27.621  1.00  0.00    -0.460 OA
BRANCH   3   4
ATOM      4  C   UNL A   1      35.114  31.336  27.800  1.00  0.00     0.330 C 
ATOM      5  O   UNL A   1      35.701  30.313  28.158  1.00  0.00    -0.247 OA
BRANCH   4   6
ATOM      6  C   UNL A   1      33.658  31.209  27.548  1.00  0.00     0.094 C 
ATOM      7  C   UNL A   1      32.704  30.334  27.177  1.00  0.00     0.015 C 
BRANCH   7   8
ATOM      8  C   UNL A   1      32.699  28.920  26.798  1.00  0.00    -0.025 A 
ATOM      9  C   UNL A   1      31.584  28.141  27.123  1.00  0.00     0.012 A 
ATOM     10  C   UNL A   1      33.807  28.280  26.243  1.00  0.00     0.012 A 
ATOM     11  C   UNL A   1      31.484  26.829  26.667  1.00  0.00     0.047 A 
ATOM     12  C   UNL A   1      33.697  26.991  25.735  1.00  0.00     0.047 A 
ATOM     13  C   UNL A   1      32.483  26.330  25.844  1.00  0.00     0.119 A 
BRANCH  13  14
ATOM     14  O   UNL A   1      32.151  25.242  25.091  1.00  0.00    -0.489 OA
BRANCH  14  15
ATOM     15  C   UNL A   1      32.141  25.532  23.688  1.00  0.00     0.265 C 
BRANCH  15  16
ATOM     16  C   UNL A   1      31.241  26.667  23.186  1.00  0.00    -0.011 A 
ATOM     17  C   UNL A   1      31.765  27.875  22.725  1.00  0.00     0.008 A 
ATOM     18  C   UNL A   1      29.854  26.593  23.394  1.00  0.00     0.008 A 
ATOM     19  C   UNL A   1      30.949  29.012  22.648  1.00  0.00     0.016 A 
ATOM     20  C   UNL A   1      29.052  27.735  23.398  1.00  0.00     0.016 A 
ATOM     21  C   UNL A   1      29.617  28.951  23.055  1.00  0.00     0.017 A 
ATOM     22  Br  UNL A   1      28.597  30.531  23.229  1.00  0.00    -0.051 Br
ENDBRANCH  15  16
ENDBRANCH  14  15
ENDBRANCH  13  14
ENDBRANCH   7   8
ENDBRANCH   4   6
ENDBRANCH   3   4
ENDBRANCH   2   3
ENDBRANCH   1   2
BRANCH   1  23
ATOM     23  O   UNL A   1      34.368  34.915  28.338  1.00  0.00    -0.374 OA
BRANCH  23  24
ATOM     24  C   UNL A   1      33.712  36.085  28.814  1.00  0.00     0.202 C 
BRANCH  24  25
ATOM     25  C   UNL A   1      32.654  35.834  29.898  1.00  0.00     0.261 C 
BRANCH  25  26
ATOM     26  O   UNL A   1      32.719  36.817  30.963  1.00  0.00    -0.460 OA
BRANCH  26  27
ATOM     27  C   UNL A   1      32.624  36.348  32.237  1.00  0.00     0.338 C 
ATOM     28  O   UNL A   1      31.720  36.561  33.022  1.00  0.00    -0.246 OA
BRANCH  27  29
ATOM     29  C   UNL A   1      33.748  35.423  32.553  1.00  0.00     0.060 A 
ATOM     30  C   UNL A   1      33.453  34.111  32.960  1.00  0.00     0.016 A 
ATOM     31  C   UNL A   1      35.081  35.835  32.502  1.00  0.00     0.016 A 
ATOM     32  C   UNL A   1      34.484  33.204  33.271  1.00  0.00     0.010 A 
ATOM     33  C   UNL A   1      36.109  34.932  32.823  1.00  0.00     0.010 A 
ATOM     34  C   UNL A   1      35.827  33.602  33.191  1.00  0.00    -0.014 A 
BRANCH  34  35
ATOM     35  C   UNL A   1      36.955  32.736  33.651  1.00  0.00     0.031 A 
ATOM     36  C   UNL A   1      37.653  33.108  34.912  1.00  0.00     0.074 A 
ATOM     37  C   UNL A   1      37.421  31.683  32.953  1.00  0.00     0.049 A 
ATOM     38  N   UNL A   1      38.759  32.627  35.411  1.00  0.00    -0.248 NA
ATOM     39  C   UNL A   1      36.995  34.126  35.740  1.00  0.00     0.031 C 
ATOM     40  C   UNL A   1      36.724  31.050  31.858  1.00  0.00     0.029 A 
ATOM     41  N   UNL A   1      38.592  30.964  33.027  1.00  0.00    -0.354 N 
ATOM     42  C   UNL A   1      38.921  33.265  36.626  1.00  0.00     0.074 A 
ATOM     43  C   UNL A   1      37.817  34.191  36.773  1.00  0.00     0.031 C 
ATOM     44  C   UNL A   1      37.502  30.143  31.256  1.00  0.00     0.029 A 
ATOM     45  C   UNL A   1      38.777  30.119  31.950  1.00  0.00     0.049 A 
ATOM     46  H   UNL A   1      39.230  31.043  33.771  1.00  0.00     0.167 HD
ATOM     47  C   UNL A   1      39.906  33.087  37.533  1.00  0.00     0.037 A 
ATOM     48  C   UNL A   1      39.855  29.418  31.551  1.00  0.00     0.037 A 
ATOM     49  C   UNL A   1      41.035  32.221  37.332  1.00  0.00     0.049 A 
ATOM     50  C   UNL A   1      41.044  29.390  32.463  1.00  0.00     0.074 A 
ATOM     51  C   UNL A   1      42.126  32.020  38.155  1.00  0.00     0.029 A 
ATOM     52  N   UNL A   1      41.236  31.435  36.200  1.00  0.00    -0.354 N 
ATOM     53  N   UNL A   1      41.198  30.001  33.612  1.00  0.00    -0.248 NA
ATOM     54  C   UNL A   1      42.179  28.549  32.067  1.00  0.00     0.031 C 
ATOM     55  C   UNL A   1      43.022  31.176  37.489  1.00  0.00     0.029 A 
ATOM     56  C   UNL A   1      42.457  30.787  36.284  1.00  0.00     0.049 A 
ATOM     57  H   UNL A   1      40.603  31.353  35.451  1.00  0.00     0.167 HD
ATOM     58  C   UNL A   1      42.415  29.572  34.111  1.00  0.00     0.074 A 
ATOM     59  C   UNL A   1      42.971  28.664  33.126  1.00  0.00     0.031 C 
ATOM     60  C   UNL A   1      42.998  29.885  35.294  1.00  0.00     0.037 A 
BRANCH  47  61
ATOM     61  C   UNL A   1      39.824  33.951  38.754  1.00  0.00     0.064 A 
ATOM     62  C   UNL A   1      39.107  33.552  39.894  1.00  0.00     0.173 A 
ATOM     63  C   UNL A   1      40.351  35.249  38.726  1.00  0.00     0.173 A 
ATOM     64  F   UNL A   1      38.550  32.333  39.951  1.00  0.00    -0.203 F 
ATOM     65  C   UNL A   1      38.865  34.449  40.932  1.00  0.00     0.198 A 
ATOM     66  C   UNL A   1      40.137  36.129  39.780  1.00  0.00     0.198 A 
ATOM     67  F   UNL A   1      41.035  35.679  37.654  1.00  0.00    -0.203 F 
ATOM     68  F   UNL A   1      38.085  34.085  41.960  1.00  0.00    -0.200 F 
ATOM     69  C   UNL A   1      39.376  35.737  40.871  1.00  0.00     0.200 A 
ATOM     70  F   UNL A   1      40.630  37.374  39.720  1.00  0.00    -0.200 F 
ATOM     71  F   UNL A   1      39.108  36.611  41.851  1.00  0.00    -0.200 F 
ENDBRANCH  47  61
BRANCH  48  72
ATOM     72  C   UNL A   1      39.844  28.696  30.248  1.00  0.00     0.064 A 
ATOM     73  C   UNL A   1      40.316  29.293  29.072  1.00  0.00     0.173 A 
ATOM     74  C   UNL A   1      39.363  27.378  30.158  1.00  0.00     0.173 A 
ATOM     75  F   UNL A   1      40.772  30.553  29.098  1.00  0.00    -0.203 F 
ATOM     76  C   UNL A   1      40.289  28.611  27.855  1.00  0.00     0.198 A 
ATOM     77  C   UNL A   1      39.355  26.690  28.944  1.00  0.00     0.198 A 
ATOM     78  F   UNL A   1      38.898  26.758  31.252  1.00  0.00    -0.203 F 
ATOM     79  F   UNL A   1      40.713  29.220  26.738  1.00  0.00    -0.200 F 
ATOM     80  C   UNL A   1      39.813  27.309  27.792  1.00  0.00     0.200 A 
ATOM     81  F   UNL A   1      38.897  25.432  28.890  1.00  0.00    -0.200 F 
ATOM     82  F   UNL A   1      39.789  26.658  26.621  1.00  0.00    -0.200 F 
ENDBRANCH  48  72
BRANCH  60  83
ATOM     83  C   UNL A   1      44.295  29.210  35.619  1.00  0.00     0.064 A 
ATOM     84  C   UNL A   1      45.532  29.783  35.292  1.00  0.00     0.173 A 
ATOM     85  C   UNL A   1      44.296  28.010  36.348  1.00  0.00     0.173 A 
ATOM     86  F   UNL A   1      45.582  30.918  34.578  1.00  0.00    -0.203 F 
ATOM     87  C   UNL A   1      46.723  29.178  35.681  1.00  0.00     0.198 A 
ATOM     88  C   UNL A   1      45.487  27.426  36.763  1.00  0.00     0.198 A 
ATOM     89  F   UNL A   1      43.137  27.423  36.683  1.00  0.00    -0.203 F 
ATOM     90  F   UNL A   1      47.895  29.727  35.334  1.00  0.00    -0.200 F 
ATOM     91  C   UNL A   1      46.700  28.010  36.429  1.00  0.00     0.200 A 
ATOM     92  F   UNL A   1      45.460  26.307  37.499  1.00  0.00    -0.200 F 
ATOM     93  F   UNL A   1      47.847  27.444  36.827  1.00  0.00    -0.200 F 
ENDBRANCH  60  83
ENDBRANCH  34  35
ENDBRANCH  27  29
ENDBRANCH  26  27
ENDBRANCH  25  26
ENDBRANCH  24  25
ENDBRANCH  23  24
ENDBRANCH   1  23
TORSDOF 18
ENDMDL
MODEL 3
REMARK VINA RESULT:     -11.3      4.299      9.271
REMARK SMILES O=C(/C=C\c1ccc(OCc2ccc(Br)cc2)cc1)OCCOCCOC(=O)c1ccc(-c2c3nc(c(-c4c(F)c(F)c(F)c(F)c4F)c4ccc([nH]4)c(-c4c(F)c(F)c(F)c(F)c4F)c4nc(c(-c5c(F)c(F)c(F)c(F)c5F)c5ccc2[nH]5)C=C4)C=C3)cc1
REMARK SMILES IDX 22 1 21 2 20 3 2 4 1 5 3 6 4 7 5 8 6 9 19 10 7 11 18 12 8 13
REMARK SMILES IDX 9 14 10 15 11 16 12 17 17 18 13 19 16 20 14 21 15 22 23 23
REMARK SMILES IDX 24 24 25 25 26 26 27 27 28 28 29 29 30 30 91 31 31 32 90 33
REMARK SMILES IDX 32 34 33 35 34 36 84 37 35 38 89 39 83 40 85 41 36 42 88 43
REMARK SMILES IDX 82 44 81 45 37 47 69 48 49 49 68 50 50 51 53 52 67 53 86 54
REMARK SMILES IDX 51 55 52 56 66 58 87 59 54 60 38 61 39 62 47 63 40 64 41 65
REMARK SMILES IDX 45 66 48 67 42 68 43 69 46 70 44 71 70 72 71 73 79 74 72 75
REMARK SMILES IDX 73 76 77 77 80 78 74 79 75 80 78 81 76 82 55 83 56 84 64 85
REMARK SMILES IDX 57 86 58 87 62 88 65 89 59 90 60 91 63 92 61 93
REMARK H PARENT 85 46 53 57
REMARK Flexibility Score: inf
ROOT
ATOM      1  C   UNL A   1      40.785  20.934  27.417  1.00  0.00     0.202 C 
ENDROOT
BRANCH   1   2
ATOM      2  C   UNL A   1      39.806  20.950  26.242  1.00  0.00     0.261 C 
BRANCH   2   3
ATOM      3  O   UNL A   1      38.926  22.079  26.196  1.00  0.00    -0.460 OA
BRANCH   3   4
ATOM      4  C   UNL A   1      37.706  22.162  25.647  1.00  0.00     0.330 C 
ATOM      5  O   UNL A   1      37.151  23.261  25.606  1.00  0.00    -0.247 OA
BRANCH   4   6
ATOM      6  C   UNL A   1      36.934  21.010  25.122  1.00  0.00     0.094 C 
ATOM      7  C   UNL A   1      35.681  20.559  24.919  1.00  0.00     0.015 C 
BRANCH   7   8
ATOM      8  C   UNL A   1      34.344  21.094  25.179  1.00  0.00    -0.025 A 
ATOM      9  C   UNL A   1      34.027  21.512  26.476  1.00  0.00     0.012 A 
ATOM     10  C   UNL A   1      33.326  21.088  24.225  1.00  0.00     0.012 A 
ATOM     11  C   UNL A   1      32.815  22.145  26.735  1.00  0.00     0.047 A 
ATOM     12  C   UNL A   1      32.136  21.767  24.458  1.00  0.00     0.047 A 
ATOM     13  C   UNL A   1      31.954  22.400  25.678  1.00  0.00     0.119 A 
BRANCH  13  14
ATOM     14  O   UNL A   1      31.018  23.370  25.887  1.00  0.00    -0.489 OA
BRANCH  14  15
ATOM     15  C   UNL A   1      31.479  24.391  26.781  1.00  0.00     0.265 C 
BRANCH  15  16
ATOM     16  C   UNL A   1      31.924  25.731  26.186  1.00  0.00    -0.011 A 
ATOM     17  C   UNL A   1      31.022  26.605  25.577  1.00  0.00     0.008 A 
ATOM     18  C   UNL A   1      33.295  26.004  26.042  1.00  0.00     0.008 A 
ATOM     19  C   UNL A   1      31.486  27.606  24.713  1.00  0.00     0.016 A 
ATOM     20  C   UNL A   1      33.763  26.944  25.124  1.00  0.00     0.016 A 
ATOM     21  C   UNL A   1      32.848  27.721  24.436  1.00  0.00     0.017 A 
ATOM     22  Br  UNL A   1      33.449  28.868  23.061  1.00  0.00    -0.051 Br
ENDBRANCH  15  16
ENDBRANCH  14  15
ENDBRANCH  13  14
ENDBRANCH   7   8
ENDBRANCH   4   6
ENDBRANCH   3   4
ENDBRANCH   2   3
ENDBRANCH   1   2
BRANCH   1  23
ATOM     23  O   UNL A   1      41.884  20.046  27.298  1.00  0.00    -0.374 OA
BRANCH  23  24
ATOM     24  C   UNL A   1      42.523  19.993  26.028  1.00  0.00     0.202 C 
BRANCH  24  25
ATOM     25  C   UNL A   1      43.452  21.178  25.725  1.00  0.00     0.261 C 
BRANCH  25  26
ATOM     26  O   UNL A   1      42.716  22.353  25.298  1.00  0.00    -0.460 OA
BRANCH  26  27
ATOM     27  C   UNL A   1      43.435  23.494  25.116  1.00  0.00     0.338 C 
ATOM     28  O   UNL A   1      44.282  23.688  24.265  1.00  0.00    -0.246 OA
BRANCH  27  29
ATOM     29  C   UNL A   1      42.986  24.566  26.048  1.00  0.00     0.060 A 
ATOM     30  C   UNL A   1      43.529  25.855  25.912  1.00  0.00     0.016 A 
ATOM     31  C   UNL A   1      42.079  24.315  27.079  1.00  0.00     0.016 A 
ATOM     32  C   UNL A   1      43.136  26.897  26.774  1.00  0.00     0.010 A 
ATOM     33  C   UNL A   1      41.695  25.354  27.945  1.00  0.00     0.010 A 
ATOM     34  C   UNL A   1      42.200  26.660  27.793  1.00  0.00    -0.014 A 
BRANCH  34  35
ATOM     35  C   UNL A   1      41.858  27.681  28.828  1.00  0.00     0.031 A 
ATOM     36  C   UNL A   1      42.638  27.682  30.096  1.00  0.00     0.074 A 
ATOM     37  C   UNL A   1      40.837  28.553  28.709  1.00  0.00     0.049 A 
ATOM     38  N   UNL A   1      42.410  28.340  31.199  1.00  0.00    -0.248 NA
ATOM     39  C   UNL A   1      43.857  26.866  30.105  1.00  0.00     0.031 C 
ATOM     40  C   UNL A   1      40.148  28.846  27.474  1.00  0.00     0.029 A 
ATOM     41  N   UNL A   1      40.175  29.338  29.623  1.00  0.00    -0.354 N 
ATOM     42  C   UNL A   1      43.472  28.039  32.031  1.00  0.00     0.074 A 
ATOM     43  C   UNL A   1      44.326  27.113  31.316  1.00  0.00     0.031 C 
ATOM     44  C   UNL A   1      39.078  29.619  27.696  1.00  0.00     0.029 A 
ATOM     45  C   UNL A   1      39.015  29.896  29.120  1.00  0.00     0.049 A 
ATOM     46  H   UNL A   1      40.495  29.488  30.542  1.00  0.00     0.167 HD
ATOM     47  C   UNL A   1      43.706  28.499  33.279  1.00  0.00     0.037 A 
ATOM     48  C   UNL A   1      38.005  30.540  29.733  1.00  0.00     0.037 A 
ATOM     49  C   UNL A   1      42.805  29.355  34.001  1.00  0.00     0.049 A 
ATOM     50  C   UNL A   1      38.168  30.869  31.186  1.00  0.00     0.074 A 
ATOM     51  C   UNL A   1      42.911  29.823  35.296  1.00  0.00     0.029 A 
ATOM     52  N   UNL A   1      41.603  29.843  33.495  1.00  0.00    -0.354 N 
ATOM     53  N   UNL A   1      39.173  30.576  31.974  1.00  0.00    -0.248 NA
ATOM     54  C   UNL A   1      37.105  31.652  31.824  1.00  0.00     0.031 C 
ATOM     55  C   UNL A   1      41.740  30.527  35.600  1.00  0.00     0.029 A 
ATOM     56  C   UNL A   1      40.937  30.566  34.471  1.00  0.00     0.049 A 
ATOM     57  H   UNL A   1      41.276  29.695  32.579  1.00  0.00     0.167 HD
ATOM     58  C   UNL A   1      38.900  31.191  33.183  1.00  0.00     0.074 A 
ATOM     59  C   UNL A   1      37.619  31.856  33.031  1.00  0.00     0.031 C 
ATOM     60  C   UNL A   1      39.661  31.222  34.304  1.00  0.00     0.037 A 
BRANCH  47  61
ATOM     61  C   UNL A   1      44.938  27.966  33.943  1.00  0.00     0.064 A 
ATOM     62  C   UNL A   1      44.917  26.781  34.697  1.00  0.00     0.173 A 
ATOM     63  C   UNL A   1      46.116  28.724  33.938  1.00  0.00     0.173 A 
ATOM     64  F   UNL A   1      43.800  26.041  34.764  1.00  0.00    -0.203 F 
ATOM     65  C   UNL A   1      46.011  26.414  35.477  1.00  0.00     0.198 A 
ATOM     66  C   UNL A   1      47.218  28.335  34.690  1.00  0.00     0.198 A 
ATOM     67  F   UNL A   1      46.182  29.868  33.241  1.00  0.00    -0.203 F 
ATOM     68  F   UNL A   1      45.931  25.340  36.275  1.00  0.00    -0.200 F 
ATOM     69  C   UNL A   1      47.158  27.193  35.476  1.00  0.00     0.200 A 
ATOM     70  F   UNL A   1      48.326  29.089  34.690  1.00  0.00    -0.200 F 
ATOM     71  F   UNL A   1      48.195  26.861  36.257  1.00  0.00    -0.200 F 
ENDBRANCH  47  61
BRANCH  48  72
ATOM     72  C   UNL A   1      36.777  30.910  28.974  1.00  0.00     0.064 A 
ATOM     73  C   UNL A   1      35.802  29.959  28.643  1.00  0.00     0.173 A 
ATOM     74  C   UNL A   1      36.552  32.236  28.569  1.00  0.00     0.173 A 
ATOM     75  F   UNL A   1      35.974  28.676  28.991  1.00  0.00    -0.203 F 
ATOM     76  C   UNL A   1      34.662  30.316  27.922  1.00  0.00     0.198 A 
ATOM     77  C   UNL A   1      35.402  32.595  27.865  1.00  0.00     0.198 A 
ATOM     78  F   UNL A   1      37.453  33.187  28.858  1.00  0.00    -0.203 F 
ATOM     79  F   UNL A   1      33.764  29.379  27.587  1.00  0.00    -0.200 F 
ATOM     80  C   UNL A   1      34.460  31.633  27.536  1.00  0.00     0.200 A 
ATOM     81  F   UNL A   1      35.211  33.870  27.499  1.00  0.00    -0.200 F 
ATOM     82  F   UNL A   1      33.365  31.971  26.843  1.00  0.00    -0.200 F 
ENDBRANCH  48  72
BRANCH  60  83
ATOM     83  C   UNL A   1      39.154  32.036  35.455  1.00  0.00     0.064 A 
ATOM     84  C   UNL A   1      38.393  31.468  36.487  1.00  0.00     0.173 A 
ATOM     85  C   UNL A   1      39.514  33.389  35.566  1.00  0.00     0.173 A 
ATOM     86  F   UNL A   1      38.008  30.185  36.414  1.00  0.00    -0.203 F 
ATOM     87  C   UNL A   1      38.008  32.227  37.588  1.00  0.00     0.198 A 
ATOM     88  C   UNL A   1      39.155  34.134  36.684  1.00  0.00     0.198 A 
ATOM     89  F   UNL A   1      40.240  33.976  34.604  1.00  0.00    -0.203 F 
ATOM     90  F   UNL A   1      37.257  31.674  38.549  1.00  0.00    -0.200 F 
ATOM     91  C   UNL A   1      38.402  33.553  37.693  1.00  0.00     0.200 A 
ATOM     92  F   UNL A   1      39.551  35.410  36.790  1.00  0.00    -0.200 F 
ATOM     93  F   UNL A   1      38.054  34.274  38.768  1.00  0.00    -0.200 F 
ENDBRANCH  60  83
ENDBRANCH  34  35
ENDBRANCH  27  29
ENDBRANCH  26  27
ENDBRANCH  25  26
ENDBRANCH  24  25
ENDBRANCH  23  24
ENDBRANCH   1  23
TORSDOF 18
ENDMDL
