MODEL 1
REMARK VINA RESULT:     -10.0      0.000      0.000
REMARK SMILES N#Cc1cccc(NCCCC(=O)OCCOCCOC(=O)c2ccc(-c3c4nc(c(-c5c(F)c(F)c(F)c(F)c5F)c5ccc([nH]5)c(-c5c(F)c(F)c(F)c(F)c5F)c5nc(c(-c6c(F)c(F)c(F)c(F)c6F)c6ccc3[nH]6)C=C5)C=C4)cc2)c1
REMARK SMILES IDX 15 1 14 2 12 3 13 4 11 5 10 6 9 7 8 8 7 10 3 11 4 12 86 13
REMARK SMILES IDX 5 14 6 15 2 16 1 17 16 18 17 19 18 20 19 21 20 22 21 23
REMARK SMILES IDX 22 24 23 25 24 26 85 27 25 28 84 29 26 30 27 31 28 32 78 33
REMARK SMILES IDX 29 34 83 35 77 36 79 37 30 38 82 39 76 40 75 41 31 43 63 44
REMARK SMILES IDX 43 45 62 46 44 47 47 48 61 49 80 50 45 51 46 52 60 54 81 55
REMARK SMILES IDX 48 56 32 57 33 58 41 59 34 60 35 61 39 62 42 63 36 64 37 65
REMARK SMILES IDX 40 66 38 67 64 68 65 69 73 70 66 71 67 72 71 73 74 74 68 75
REMARK SMILES IDX 69 76 72 77 70 78 49 79 50 80 58 81 51 82 52 83 56 84 59 85
REMARK SMILES IDX 53 86 54 87 57 88 55 89
REMARK H PARENT 8 9 79 42 47 53
REMARK Flexibility Score: inf
ROOT
ATOM      1  C   UNL A   1      33.873  28.921  26.751  1.00  0.00     0.261 C 
ENDROOT
BRANCH   1   2
ATOM      2  O   UNL A   1      34.427  28.793  25.430  1.00  0.00    -0.463 OA
BRANCH   2   3
ATOM      3  C   UNL A   1      33.539  28.554  24.434  1.00  0.00     0.305 C 
ATOM      4  O   UNL A   1      33.136  29.396  23.642  1.00  0.00    -0.252 OA
BRANCH   3   5
ATOM      5  C   UNL A   1      33.053  27.120  24.411  1.00  0.00     0.124 C 
BRANCH   5   6
ATOM      6  C   UNL A   1      31.552  26.844  24.253  1.00  0.00     0.033 C 
BRANCH   6   7
ATOM      7  C   UNL A   1      31.003  26.752  22.827  1.00  0.00     0.113 C 
BRANCH   7   8
ATOM      8  N   UNL A   1      30.654  28.069  22.341  1.00  0.00    -0.385 N 
ATOM      9  H   UNL A   1      31.289  28.492  21.719  1.00  0.00     0.160 HD
BRANCH   8  10
ATOM     10  C   UNL A   1      29.525  28.793  22.656  1.00  0.00     0.035 A 
ATOM     11  C   UNL A   1      28.507  31.001  22.934  1.00  0.00     0.054 A 
ATOM     12  C   UNL A   1      27.276  30.413  23.218  1.00  0.00     0.019 A 
ATOM     13  C   UNL A   1      29.617  30.193  22.657  1.00  0.00     0.045 A 
ATOM     14  C   UNL A   1      27.160  29.026  23.210  1.00  0.00     0.003 A 
ATOM     15  C   UNL A   1      28.274  28.229  22.922  1.00  0.00     0.026 A 
BRANCH  11  16
ATOM     16  C   UNL A   1      28.644  32.428  22.915  1.00  0.00     0.099 C 
ATOM     17  N   UNL A   1      28.749  33.582  22.908  1.00  0.00    -0.192 NA
ENDBRANCH  11  16
ENDBRANCH   8  10
ENDBRANCH   7   8
ENDBRANCH   6   7
ENDBRANCH   5   6
ENDBRANCH   3   5
ENDBRANCH   2   3
ENDBRANCH   1   2
BRANCH   1  18
ATOM     18  C   UNL A   1      34.721  29.838  27.636  1.00  0.00     0.202 C 
BRANCH  18  19
ATOM     19  O   UNL A   1      34.114  31.013  28.163  1.00  0.00    -0.374 OA
BRANCH  19  20
ATOM     20  C   UNL A   1      33.014  31.571  27.449  1.00  0.00     0.202 C 
BRANCH  20  21
ATOM     21  C   UNL A   1      32.997  33.090  27.212  1.00  0.00     0.261 C 
BRANCH  21  22
ATOM     22  O   UNL A   1      32.310  33.822  28.245  1.00  0.00    -0.460 OA
BRANCH  22  23
ATOM     23  C   UNL A   1      32.994  34.892  28.728  1.00  0.00     0.338 C 
ATOM     24  O   UNL A   1      32.644  36.060  28.715  1.00  0.00    -0.246 OA
BRANCH  23  25
ATOM     25  C   UNL A   1      34.175  34.433  29.483  1.00  0.00     0.060 A 
ATOM     26  C   UNL A   1      35.436  34.612  28.896  1.00  0.00     0.016 A 
ATOM     27  C   UNL A   1      34.051  33.780  30.708  1.00  0.00     0.016 A 
ATOM     28  C   UNL A   1      36.579  34.126  29.528  1.00  0.00     0.010 A 
ATOM     29  C   UNL A   1      35.199  33.281  31.333  1.00  0.00     0.010 A 
ATOM     30  C   UNL A   1      36.466  33.435  30.740  1.00  0.00    -0.014 A 
BRANCH  30  31
ATOM     31  C   UNL A   1      37.661  32.808  31.359  1.00  0.00     0.031 A 
ATOM     32  C   UNL A   1      38.332  31.650  30.674  1.00  0.00     0.074 A 
ATOM     33  C   UNL A   1      38.134  33.261  32.534  1.00  0.00     0.049 A 
ATOM     34  N   UNL A   1      39.308  30.888  31.096  1.00  0.00    -0.248 NA
ATOM     35  C   UNL A   1      37.831  31.304  29.335  1.00  0.00     0.031 C 
ATOM     36  C   UNL A   1      37.598  34.403  33.272  1.00  0.00     0.029 A 
ATOM     37  N   UNL A   1      39.159  32.801  33.323  1.00  0.00    -0.354 N 
ATOM     38  C   UNL A   1      39.528  29.962  30.085  1.00  0.00     0.074 A 
ATOM     39  C   UNL A   1      38.568  30.242  29.039  1.00  0.00     0.031 C 
ATOM     40  C   UNL A   1      38.287  34.544  34.416  1.00  0.00     0.029 A 
ATOM     41  C   UNL A   1      39.274  33.471  34.517  1.00  0.00     0.049 A 
ATOM     42  H   UNL A   1      39.754  32.062  33.058  1.00  0.00     0.167 HD
ATOM     43  C   UNL A   1      40.451  28.970  30.037  1.00  0.00     0.037 A 
ATOM     44  C   UNL A   1      40.054  33.219  35.586  1.00  0.00     0.037 A 
ATOM     45  C   UNL A   1      41.403  28.699  31.084  1.00  0.00     0.049 A 
ATOM     46  C   UNL A   1      41.005  32.050  35.546  1.00  0.00     0.074 A 
ATOM     47  C   UNL A   1      42.399  27.739  31.115  1.00  0.00     0.029 A 
ATOM     48  N   UNL A   1      41.467  29.378  32.293  1.00  0.00    -0.354 N 
ATOM     49  N   UNL A   1      41.236  31.201  34.575  1.00  0.00    -0.248 NA
ATOM     50  C   UNL A   1      41.803  31.800  36.757  1.00  0.00     0.031 C 
ATOM     51  C   UNL A   1      43.012  27.784  32.371  1.00  0.00     0.029 A 
ATOM     52  C   UNL A   1      42.452  28.823  33.095  1.00  0.00     0.049 A 
ATOM     53  H   UNL A   1      40.896  30.140  32.543  1.00  0.00     0.167 HD
ATOM     54  C   UNL A   1      42.217  30.336  35.044  1.00  0.00     0.074 A 
ATOM     55  C   UNL A   1      42.555  30.777  36.381  1.00  0.00     0.031 C 
ATOM     56  C   UNL A   1      42.784  29.271  34.425  1.00  0.00     0.037 A 
BRANCH  43  57
ATOM     57  C   UNL A   1      40.457  28.074  28.831  1.00  0.00     0.064 A 
ATOM     58  C   UNL A   1      41.199  28.380  27.681  1.00  0.00     0.173 A 
ATOM     59  C   UNL A   1      39.750  26.861  28.849  1.00  0.00     0.173 A 
ATOM     60  F   UNL A   1      41.889  29.528  27.607  1.00  0.00    -0.203 F 
ATOM     61  C   UNL A   1      41.210  27.520  26.584  1.00  0.00     0.198 A 
ATOM     62  C   UNL A   1      39.792  25.987  27.766  1.00  0.00     0.198 A 
ATOM     63  F   UNL A   1      39.030  26.513  29.926  1.00  0.00    -0.203 F 
ATOM     64  F   UNL A   1      41.886  27.857  25.477  1.00  0.00    -0.200 F 
ATOM     65  C   UNL A   1      40.514  26.322  26.631  1.00  0.00     0.200 A 
ATOM     66  F   UNL A   1      39.134  24.821  27.822  1.00  0.00    -0.200 F 
ATOM     67  F   UNL A   1      40.535  25.490  25.580  1.00  0.00    -0.200 F 
ENDBRANCH  43  57
BRANCH  44  68
ATOM     68  C   UNL A   1      39.946  34.068  36.802  1.00  0.00     0.064 A 
ATOM     69  C   UNL A   1      39.086  33.723  37.853  1.00  0.00     0.173 A 
ATOM     70  C   UNL A   1      40.684  35.256  36.929  1.00  0.00     0.173 A 
ATOM     71  F   UNL A   1      38.342  32.610  37.770  1.00  0.00    -0.203 F 
ATOM     72  C   UNL A   1      38.949  34.543  38.971  1.00  0.00     0.198 A 
ATOM     73  C   UNL A   1      40.574  36.056  38.065  1.00  0.00     0.198 A 
ATOM     74  F   UNL A   1      41.521  35.636  35.953  1.00  0.00    -0.203 F 
ATOM     75  F   UNL A   1      38.076  34.217  39.934  1.00  0.00    -0.200 F 
ATOM     76  C   UNL A   1      39.698  35.705  39.080  1.00  0.00     0.200 A 
ATOM     77  F   UNL A   1      41.314  37.167  38.172  1.00  0.00    -0.200 F 
ATOM     78  F   UNL A   1      39.569  36.490  40.157  1.00  0.00    -0.200 F 
ENDBRANCH  44  68
BRANCH  56  79
ATOM     79  C   UNL A   1      43.847  28.515  35.170  1.00  0.00     0.064 A 
ATOM     80  C   UNL A   1      43.537  27.413  35.982  1.00  0.00     0.173 A 
ATOM     81  C   UNL A   1      45.201  28.855  35.019  1.00  0.00     0.173 A 
ATOM     82  F   UNL A   1      42.259  27.053  36.172  1.00  0.00    -0.203 F 
ATOM     83  C   UNL A   1      44.539  26.694  36.627  1.00  0.00     0.198 A 
ATOM     84  C   UNL A   1      46.202  28.111  35.636  1.00  0.00     0.198 A 
ATOM     85  F   UNL A   1      45.556  29.895  34.249  1.00  0.00    -0.203 F 
ATOM     86  F   UNL A   1      44.215  25.672  37.432  1.00  0.00    -0.200 F 
ATOM     87  C   UNL A   1      45.871  27.034  36.445  1.00  0.00     0.200 A 
ATOM     88  F   UNL A   1      47.490  28.430  35.442  1.00  0.00    -0.200 F 
ATOM     89  F   UNL A   1      46.835  26.328  37.052  1.00  0.00    -0.200 F 
ENDBRANCH  56  79
ENDBRANCH  30  31
ENDBRANCH  23  25
ENDBRANCH  22  23
ENDBRANCH  21  22
ENDBRANCH  20  21
ENDBRANCH  19  20
ENDBRANCH  18  19
ENDBRANCH   1  18
TORSDOF 19
ENDMDL
MODEL 2
REMARK VINA RESULT:     -10.0      3.898      5.843
REMARK SMILES N#Cc1cccc(NCCCC(=O)OCCOCCOC(=O)c2ccc(-c3c4nc(c(-c5c(F)c(F)c(F)c(F)c5F)c5ccc([nH]5)c(-c5c(F)c(F)c(F)c(F)c5F)c5nc(c(-c6c(F)c(F)c(F)c(F)c6F)c6ccc3[nH]6)C=C5)C=C4)cc2)c1
REMARK SMILES IDX 15 1 14 2 12 3 13 4 11 5 10 6 9 7 8 8 7 10 3 11 4 12 86 13
REMARK SMILES IDX 5 14 6 15 2 16 1 17 16 18 17 19 18 20 19 21 20 22 21 23
REMARK SMILES IDX 22 24 23 25 24 26 85 27 25 28 84 29 26 30 27 31 28 32 78 33
REMARK SMILES IDX 29 34 83 35 77 36 79 37 30 38 82 39 76 40 75 41 31 43 63 44
REMARK SMILES IDX 43 45 62 46 44 47 47 48 61 49 80 50 45 51 46 52 60 54 81 55
REMARK SMILES IDX 48 56 32 57 33 58 41 59 34 60 35 61 39 62 42 63 36 64 37 65
REMARK SMILES IDX 40 66 38 67 64 68 65 69 73 70 66 71 67 72 71 73 74 74 68 75
REMARK SMILES IDX 69 76 72 77 70 78 49 79 50 80 58 81 51 82 52 83 56 84 59 85
REMARK SMILES IDX 53 86 54 87 57 88 55 89
REMARK H PARENT 8 9 79 42 47 53
REMARK Flexibility Score: inf
ROOT
ATOM      1  C   UNL A   1      31.842  26.608  26.168  1.00  0.00     0.261 C 
ENDROOT
BRANCH   1   2
ATOM      2  O   UNL A   1      30.939  25.503  26.341  1.00  0.00    -0.463 OA
BRANCH   2   3
ATOM      3  C   UNL A   1      31.514  24.296  26.569  1.00  0.00     0.305 C 
ATOM      4  O   UNL A   1      31.425  23.668  27.616  1.00  0.00    -0.252 OA
BRANCH   3   5
ATOM      5  C   UNL A   1      32.325  23.800  25.391  1.00  0.00     0.124 C 
BRANCH   5   6
ATOM      6  C   UNL A   1      32.925  22.388  25.440  1.00  0.00     0.033 C 
BRANCH   6   7
ATOM      7  C   UNL A   1      32.093  21.253  24.840  1.00  0.00     0.113 C 
BRANCH   7   8
ATOM      8  N   UNL A   1      32.307  20.031  25.585  1.00  0.00    -0.385 N 
ATOM      9  H   UNL A   1      31.758  19.905  26.393  1.00  0.00     0.160 HD
BRANCH   8  10
ATOM     10  C   UNL A   1      33.198  19.024  25.283  1.00  0.00     0.035 A 
ATOM     11  C   UNL A   1      33.623  16.617  25.173  1.00  0.00     0.054 A 
ATOM     12  C   UNL A   1      34.893  16.851  24.647  1.00  0.00     0.019 A 
ATOM     13  C   UNL A   1      32.789  17.698  25.485  1.00  0.00     0.045 A 
ATOM     14  C   UNL A   1      35.313  18.160  24.428  1.00  0.00     0.003 A 
ATOM     15  C   UNL A   1      34.467  19.231  24.734  1.00  0.00     0.026 A 
BRANCH  11  16
ATOM     16  C   UNL A   1      33.162  15.277  25.387  1.00  0.00     0.099 C 
ATOM     17  N   UNL A   1      32.795  14.191  25.555  1.00  0.00    -0.192 NA
ENDBRANCH  11  16
ENDBRANCH   8  10
ENDBRANCH   7   8
ENDBRANCH   6   7
ENDBRANCH   5   6
ENDBRANCH   3   5
ENDBRANCH   2   3
ENDBRANCH   1   2
BRANCH   1  18
ATOM     18  C   UNL A   1      31.634  27.306  24.821  1.00  0.00     0.202 C 
BRANCH  18  19
ATOM     19  O   UNL A   1      30.776  28.440  24.778  1.00  0.00    -0.374 OA
BRANCH  19  20
ATOM     20  C   UNL A   1      31.375  29.723  24.615  1.00  0.00     0.202 C 
BRANCH  20  21
ATOM     21  C   UNL A   1      31.532  30.615  25.858  1.00  0.00     0.261 C 
BRANCH  21  22
ATOM     22  O   UNL A   1      32.778  30.417  26.552  1.00  0.00    -0.460 OA
BRANCH  22  23
ATOM     23  C   UNL A   1      33.292  31.539  27.120  1.00  0.00     0.338 C 
ATOM     24  O   UNL A   1      32.731  32.609  27.281  1.00  0.00    -0.246 OA
BRANCH  23  25
ATOM     25  C   UNL A   1      34.603  31.238  27.727  1.00  0.00     0.060 A 
ATOM     26  C   UNL A   1      34.850  29.917  28.127  1.00  0.00     0.016 A 
ATOM     27  C   UNL A   1      35.546  32.237  27.962  1.00  0.00     0.016 A 
ATOM     28  C   UNL A   1      36.038  29.592  28.778  1.00  0.00     0.010 A 
ATOM     29  C   UNL A   1      36.733  31.910  28.628  1.00  0.00     0.010 A 
ATOM     30  C   UNL A   1      36.978  30.591  29.056  1.00  0.00    -0.014 A 
BRANCH  30  31
ATOM     31  C   UNL A   1      38.190  30.280  29.854  1.00  0.00     0.031 A 
ATOM     32  C   UNL A   1      39.219  29.332  29.305  1.00  0.00     0.074 A 
ATOM     33  C   UNL A   1      38.362  30.830  31.070  1.00  0.00     0.049 A 
ATOM     34  N   UNL A   1      40.283  28.836  29.882  1.00  0.00    -0.248 NA
ATOM     35  C   UNL A   1      39.017  28.880  27.920  1.00  0.00     0.031 C 
ATOM     36  C   UNL A   1      37.459  31.797  31.691  1.00  0.00     0.029 A 
ATOM     37  N   UNL A   1      39.346  30.637  32.008  1.00  0.00    -0.354 N 
ATOM     38  C   UNL A   1      40.869  28.001  28.940  1.00  0.00     0.074 A 
ATOM     39  C   UNL A   1      40.029  28.038  27.762  1.00  0.00     0.031 C 
ATOM     40  C   UNL A   1      37.920  32.098  32.916  1.00  0.00     0.029 A 
ATOM     41  C   UNL A   1      39.118  31.307  33.185  1.00  0.00     0.049 A 
ATOM     42  H   UNL A   1      40.137  30.072  31.851  1.00  0.00     0.167 HD
ATOM     43  C   UNL A   1      42.007  27.273  29.052  1.00  0.00     0.037 A 
ATOM     44  C   UNL A   1      39.775  31.252  34.360  1.00  0.00     0.037 A 
ATOM     45  C   UNL A   1      42.837  27.242  30.230  1.00  0.00     0.049 A 
ATOM     46  C   UNL A   1      40.983  30.359  34.489  1.00  0.00     0.074 A 
ATOM     47  C   UNL A   1      44.025  26.563  30.428  1.00  0.00     0.029 A 
ATOM     48  N   UNL A   1      42.556  27.908  31.414  1.00  0.00    -0.354 N 
ATOM     49  N   UNL A   1      41.554  29.601  33.586  1.00  0.00    -0.248 NA
ATOM     50  C   UNL A   1      41.636  30.310  35.807  1.00  0.00     0.031 C 
ATOM     51  C   UNL A   1      44.422  26.752  31.755  1.00  0.00     0.029 A 
ATOM     52  C   UNL A   1      43.523  27.613  32.362  1.00  0.00     0.049 A 
ATOM     53  H   UNL A   1      41.784  28.502  31.559  1.00  0.00     0.167 HD
ATOM     54  C   UNL A   1      42.642  29.006  34.213  1.00  0.00     0.074 A 
ATOM     55  C   UNL A   1      42.665  29.510  35.571  1.00  0.00     0.031 C 
ATOM     56  C   UNL A   1      43.539  28.122  33.712  1.00  0.00     0.037 A 
BRANCH  43  57
ATOM     57  C   UNL A   1      42.408  26.415  27.886  1.00  0.00     0.064 A 
ATOM     58  C   UNL A   1      41.902  25.118  27.707  1.00  0.00     0.173 A 
ATOM     59  C   UNL A   1      43.273  26.920  26.901  1.00  0.00     0.173 A 
ATOM     60  F   UNL A   1      41.077  24.584  28.619  1.00  0.00    -0.203 F 
ATOM     61  C   UNL A   1      42.269  24.351  26.604  1.00  0.00     0.198 A 
ATOM     62  C   UNL A   1      43.609  26.164  25.781  1.00  0.00     0.198 A 
ATOM     63  F   UNL A   1      43.780  28.156  27.015  1.00  0.00    -0.203 F 
ATOM     64  F   UNL A   1      41.812  23.097  26.480  1.00  0.00    -0.200 F 
ATOM     65  C   UNL A   1      43.115  24.876  25.638  1.00  0.00     0.200 A 
ATOM     66  F   UNL A   1      44.410  26.682  24.840  1.00  0.00    -0.200 F 
ATOM     67  F   UNL A   1      43.457  24.141  24.571  1.00  0.00    -0.200 F 
ENDBRANCH  43  57
BRANCH  44  68
ATOM     68  C   UNL A   1      39.286  32.039  35.523  1.00  0.00     0.064 A 
ATOM     69  C   UNL A   1      39.664  33.377  35.703  1.00  0.00     0.173 A 
ATOM     70  C   UNL A   1      38.449  31.465  36.493  1.00  0.00     0.173 A 
ATOM     71  F   UNL A   1      40.481  33.966  34.818  1.00  0.00    -0.203 F 
ATOM     72  C   UNL A   1      39.244  34.101  36.818  1.00  0.00     0.198 A 
ATOM     73  C   UNL A   1      38.000  32.201  37.587  1.00  0.00     0.198 A 
ATOM     74  F   UNL A   1      38.058  30.188  36.372  1.00  0.00    -0.203 F 
ATOM     75  F   UNL A   1      39.668  35.360  36.993  1.00  0.00    -0.200 F 
ATOM     76  C   UNL A   1      38.407  33.515  37.755  1.00  0.00     0.200 A 
ATOM     77  F   UNL A   1      37.176  31.634  38.479  1.00  0.00    -0.200 F 
ATOM     78  F   UNL A   1      38.000  34.213  38.823  1.00  0.00    -0.200 F 
ENDBRANCH  44  68
BRANCH  56  79
ATOM     79  C   UNL A   1      44.639  27.652  34.621  1.00  0.00     0.064 A 
ATOM     80  C   UNL A   1      45.838  28.368  34.759  1.00  0.00     0.173 A 
ATOM     81  C   UNL A   1      44.468  26.505  35.413  1.00  0.00     0.173 A 
ATOM     82  F   UNL A   1      46.060  29.463  34.017  1.00  0.00    -0.203 F 
ATOM     83  C   UNL A   1      46.828  27.944  35.642  1.00  0.00     0.198 A 
ATOM     84  C   UNL A   1      45.445  26.105  36.320  1.00  0.00     0.198 A 
ATOM     85  F   UNL A   1      43.339  25.785  35.326  1.00  0.00    -0.203 F 
ATOM     86  F   UNL A   1      47.982  28.621  35.725  1.00  0.00    -0.200 F 
ATOM     87  C   UNL A   1      46.628  26.821  36.429  1.00  0.00     0.200 A 
ATOM     88  F   UNL A   1      45.239  25.030  37.095  1.00  0.00    -0.200 F 
ATOM     89  F   UNL A   1      47.574  26.427  37.292  1.00  0.00    -0.200 F 
ENDBRANCH  56  79
ENDBRANCH  30  31
ENDBRANCH  23  25
ENDBRANCH  22  23
ENDBRANCH  21  22
ENDBRANCH  20  21
ENDBRANCH  19  20
ENDBRANCH  18  19
ENDBRANCH   1  18
TORSDOF 19
ENDMDL
MODEL 3
REMARK VINA RESULT:      -9.9      2.937      4.667
REMARK SMILES N#Cc1cccc(NCCCC(=O)OCCOCCOC(=O)c2ccc(-c3c4nc(c(-c5c(F)c(F)c(F)c(F)c5F)c5ccc([nH]5)c(-c5c(F)c(F)c(F)c(F)c5F)c5nc(c(-c6c(F)c(F)c(F)c(F)c6F)c6ccc3[nH]6)C=C5)C=C4)cc2)c1
REMARK SMILES IDX 15 1 14 2 12 3 13 4 11 5 10 6 9 7 8 8 7 10 3 11 4 12 86 13
REMARK SMILES IDX 5 14 6 15 2 16 1 17 16 18 17 19 18 20 19 21 20 22 21 23
REMARK SMILES IDX 22 24 23 25 24 26 85 27 25 28 84 29 26 30 27 31 28 32 78 33
REMARK SMILES IDX 29 34 83 35 77 36 79 37 30 38 82 39 76 40 75 41 31 43 63 44
REMARK SMILES IDX 43 45 62 46 44 47 47 48 61 49 80 50 45 51 46 52 60 54 81 55
REMARK SMILES IDX 48 56 32 57 33 58 41 59 34 60 35 61 39 62 42 63 36 64 37 65
REMARK SMILES IDX 40 66 38 67 64 68 65 69 73 70 66 71 67 72 71 73 74 74 68 75
REMARK SMILES IDX 69 76 72 77 70 78 49 79 50 80 58 81 51 82 52 83 56 84 59 85
REMARK SMILES IDX 53 86 54 87 57 88 55 89
REMARK H PARENT 8 9 79 42 47 53
REMARK Flexibility Score: inf
ROOT
ATOM      1  C   UNL A   1      32.295  26.085  25.822  1.00  0.00     0.261 C 
ENDROOT
BRANCH   1   2
ATOM      2  O   UNL A   1      31.883  24.720  25.635  1.00  0.00    -0.463 OA
BRANCH   2   3
ATOM      3  C   UNL A   1      31.757  23.979  26.764  1.00  0.00     0.305 C 
ATOM      4  O   UNL A   1      30.691  23.655  27.271  1.00  0.00    -0.252 OA
BRANCH   3   5
ATOM      5  C   UNL A   1      33.092  23.608  27.375  1.00  0.00     0.124 C 
BRANCH   5   6
ATOM      6  C   UNL A   1      33.421  22.127  27.603  1.00  0.00     0.033 C 
BRANCH   6   7
ATOM      7  C   UNL A   1      34.552  21.523  26.768  1.00  0.00     0.113 C 
BRANCH   7   8
ATOM      8  N   UNL A   1      34.030  20.502  25.885  1.00  0.00    -0.385 N 
ATOM      9  H   UNL A   1      34.149  19.568  26.174  1.00  0.00     0.160 HD
BRANCH   8  10
ATOM     10  C   UNL A   1      33.383  20.699  24.685  1.00  0.00     0.035 A 
ATOM     11  C   UNL A   1      32.907  22.220  22.829  1.00  0.00     0.054 A 
ATOM     12  C   UNL A   1      32.166  21.228  22.188  1.00  0.00     0.019 A 
ATOM     13  C   UNL A   1      33.507  21.950  24.065  1.00  0.00     0.045 A 
ATOM     14  C   UNL A   1      32.040  19.975  22.781  1.00  0.00     0.003 A 
ATOM     15  C   UNL A   1      32.653  19.714  24.012  1.00  0.00     0.026 A 
BRANCH  11  16
ATOM     16  C   UNL A   1      33.067  23.511  22.226  1.00  0.00     0.099 C 
ATOM     17  N   UNL A   1      33.205  24.554  21.742  1.00  0.00    -0.192 NA
ENDBRANCH  11  16
ENDBRANCH   8  10
ENDBRANCH   7   8
ENDBRANCH   6   7
ENDBRANCH   5   6
ENDBRANCH   3   5
ENDBRANCH   2   3
ENDBRANCH   1   2
BRANCH   1  18
ATOM     18  C   UNL A   1      31.664  27.015  24.781  1.00  0.00     0.202 C 
BRANCH  18  19
ATOM     19  O   UNL A   1      32.137  28.356  24.705  1.00  0.00    -0.374 OA
BRANCH  19  20
ATOM     20  C   UNL A   1      31.191  29.406  24.891  1.00  0.00     0.202 C 
BRANCH  20  21
ATOM     21  C   UNL A   1      31.566  30.563  25.832  1.00  0.00     0.261 C 
BRANCH  21  22
ATOM     22  O   UNL A   1      32.821  30.365  26.510  1.00  0.00    -0.460 OA
BRANCH  22  23
ATOM     23  C   UNL A   1      33.343  31.488  27.068  1.00  0.00     0.338 C 
ATOM     24  O   UNL A   1      32.789  32.563  27.222  1.00  0.00    -0.246 OA
BRANCH  23  25
ATOM     25  C   UNL A   1      34.653  31.184  27.675  1.00  0.00     0.060 A 
ATOM     26  C   UNL A   1      34.892  29.864  28.085  1.00  0.00     0.016 A 
ATOM     27  C   UNL A   1      35.604  32.178  27.900  1.00  0.00     0.016 A 
ATOM     28  C   UNL A   1      36.080  29.536  28.736  1.00  0.00     0.010 A 
ATOM     29  C   UNL A   1      36.789  31.849  28.566  1.00  0.00     0.010 A 
ATOM     30  C   UNL A   1      37.027  30.532  29.004  1.00  0.00    -0.014 A 
BRANCH  30  31
ATOM     31  C   UNL A   1      38.239  30.219  29.802  1.00  0.00     0.031 A 
ATOM     32  C   UNL A   1      39.259  29.259  29.258  1.00  0.00     0.074 A 
ATOM     33  C   UNL A   1      38.418  30.778  31.012  1.00  0.00     0.049 A 
ATOM     34  N   UNL A   1      40.321  28.760  29.837  1.00  0.00    -0.248 NA
ATOM     35  C   UNL A   1      39.051  28.796  27.878  1.00  0.00     0.031 C 
ATOM     36  C   UNL A   1      37.523  31.757  31.627  1.00  0.00     0.029 A 
ATOM     37  N   UNL A   1      39.402  30.586  31.949  1.00  0.00    -0.354 N 
ATOM     38  C   UNL A   1      40.899  27.912  28.901  1.00  0.00     0.074 A 
ATOM     39  C   UNL A   1      40.056  27.945  27.725  1.00  0.00     0.031 C 
ATOM     40  C   UNL A   1      37.989  32.066  32.848  1.00  0.00     0.029 A 
ATOM     41  C   UNL A   1      39.182  31.268  33.122  1.00  0.00     0.049 A 
ATOM     42  H   UNL A   1      40.189  30.014  31.796  1.00  0.00     0.167 HD
ATOM     43  C   UNL A   1      42.032  27.177  29.016  1.00  0.00     0.037 A 
ATOM     44  C   UNL A   1      39.842  31.218  34.295  1.00  0.00     0.037 A 
ATOM     45  C   UNL A   1      42.864  27.151  30.192  1.00  0.00     0.049 A 
ATOM     46  C   UNL A   1      41.044  30.318  34.429  1.00  0.00     0.074 A 
ATOM     47  C   UNL A   1      44.049  26.464  30.394  1.00  0.00     0.029 A 
ATOM     48  N   UNL A   1      42.592  27.829  31.372  1.00  0.00    -0.354 N 
ATOM     49  N   UNL A   1      41.607  29.548  33.531  1.00  0.00    -0.248 NA
ATOM     50  C   UNL A   1      41.700  30.276  35.745  1.00  0.00     0.031 C 
ATOM     51  C   UNL A   1      44.450  26.663  31.719  1.00  0.00     0.029 A 
ATOM     52  C   UNL A   1      43.559  27.535  32.320  1.00  0.00     0.049 A 
ATOM     53  H   UNL A   1      41.824  28.429  31.514  1.00  0.00     0.167 HD
ATOM     54  C   UNL A   1      42.693  28.951  34.161  1.00  0.00     0.074 A 
ATOM     55  C   UNL A   1      42.723  29.466  35.514  1.00  0.00     0.031 C 
ATOM     56  C   UNL A   1      43.581  28.056  33.665  1.00  0.00     0.037 A 
BRANCH  43  57
ATOM     57  C   UNL A   1      42.424  26.306  27.857  1.00  0.00     0.064 A 
ATOM     58  C   UNL A   1      41.869  25.032  27.662  1.00  0.00     0.173 A 
ATOM     59  C   UNL A   1      43.332  26.777  26.894  1.00  0.00     0.173 A 
ATOM     60  F   UNL A   1      41.002  24.530  28.553  1.00  0.00    -0.203 F 
ATOM     61  C   UNL A   1      42.229  24.253  26.565  1.00  0.00     0.198 A 
ATOM     62  C   UNL A   1      43.662  26.010  25.780  1.00  0.00     0.198 A 
ATOM     63  F   UNL A   1      43.887  27.991  27.024  1.00  0.00    -0.203 F 
ATOM     64  F   UNL A   1      41.724  23.019  26.427  1.00  0.00    -0.200 F 
ATOM     65  C   UNL A   1      43.118  24.745  25.621  1.00  0.00     0.200 A 
ATOM     66  F   UNL A   1      44.505  26.497  24.859  1.00  0.00    -0.200 F 
ATOM     67  F   UNL A   1      43.453  23.998  24.560  1.00  0.00    -0.200 F 
ENDBRANCH  43  57
BRANCH  44  68
ATOM     68  C   UNL A   1      39.362  32.020  35.453  1.00  0.00     0.064 A 
ATOM     69  C   UNL A   1      39.807  33.333  35.660  1.00  0.00     0.173 A 
ATOM     70  C   UNL A   1      38.465  31.482  36.389  1.00  0.00     0.173 A 
ATOM     71  F   UNL A   1      40.682  33.885  34.807  1.00  0.00    -0.203 F 
ATOM     72  C   UNL A   1      39.394  34.067  36.771  1.00  0.00     0.198 A 
ATOM     73  C   UNL A   1      38.023  32.230  37.479  1.00  0.00     0.198 A 
ATOM     74  F   UNL A   1      38.008  30.230  36.241  1.00  0.00    -0.203 F 
ATOM     75  F   UNL A   1      39.880  35.298  36.974  1.00  0.00    -0.200 F 
ATOM     76  C   UNL A   1      38.497  33.518  37.675  1.00  0.00     0.200 A 
ATOM     77  F   UNL A   1      37.143  31.701  38.338  1.00  0.00    -0.200 F 
ATOM     78  F   UNL A   1      38.097  34.226  38.739  1.00  0.00    -0.200 F 
ENDBRANCH  44  68
BRANCH  56  79
ATOM     79  C   UNL A   1      44.681  27.585  34.575  1.00  0.00     0.064 A 
ATOM     80  C   UNL A   1      44.552  26.421  35.348  1.00  0.00     0.173 A 
ATOM     81  C   UNL A   1      45.905  28.272  34.627  1.00  0.00     0.173 A 
ATOM     82  F   UNL A   1      43.399  25.735  35.346  1.00  0.00    -0.203 F 
ATOM     83  C   UNL A   1      45.598  25.973  36.149  1.00  0.00     0.198 A 
ATOM     84  C   UNL A   1      46.961  27.800  35.402  1.00  0.00     0.198 A 
ATOM     85  F   UNL A   1      46.086  29.387  33.904  1.00  0.00    -0.203 F 
ATOM     86  F   UNL A   1      45.435  24.882  36.911  1.00  0.00    -0.200 F 
ATOM     87  C   UNL A   1      46.805  26.655  36.168  1.00  0.00     0.200 A 
ATOM     88  F   UNL A   1      48.133  28.450  35.401  1.00  0.00    -0.200 F 
ATOM     89  F   UNL A   1      47.817  26.210  36.925  1.00  0.00    -0.200 F 
ENDBRANCH  56  79
ENDBRANCH  30  31
ENDBRANCH  23  25
ENDBRANCH  22  23
ENDBRANCH  21  22
ENDBRANCH  20  21
ENDBRANCH  19  20
ENDBRANCH  18  19
ENDBRANCH   1  18
TORSDOF 19
ENDMDL
