MODEL 1
REMARK VINA RESULT:     -11.7      0.000      0.000
REMARK SMILES C[C@H]1[C@H](C(=O)OCCOCCOC(=O)c2ccc(-c3c4nc(c(-c5c(F)c(F)c(F)c(F)c5F)c5ccc([nH]5)c(-c5c(F)c(F)c(F)c(F)c5F)c5nc(c(-c6c(F)c(F)c(F)c(F)c6F)c6ccc3[nH]6)C=C5)C=C4)cc2)CCN1C(=O)Nc1ccc(F)c(Cl)c1
REMARK SMILES IDX 9 1 8 2 7 3 6 4 4 5 5 6 3 7 1 8 2 9 80 10 78 11 79 12 81 13
REMARK SMILES IDX 82 14 83 15 84 17 85 18 91 19 86 20 89 21 87 22 90 23 88 24
REMARK SMILES IDX 10 25 11 26 12 27 13 28 14 29 15 30 16 31 77 32 17 33 76 34
REMARK SMILES IDX 18 35 19 36 20 37 70 38 21 39 75 40 69 41 71 42 22 43 74 44
REMARK SMILES IDX 68 45 67 46 23 48 55 49 35 50 54 51 36 52 39 53 53 54 72 55
REMARK SMILES IDX 37 56 38 57 52 59 73 60 40 61 24 62 25 63 33 64 26 65 27 66
REMARK SMILES IDX 31 67 34 68 28 69 29 70 32 71 30 72 56 73 57 74 65 75 58 76
REMARK SMILES IDX 59 77 63 78 66 79 60 80 61 81 64 82 62 83 41 84 42 85 50 86
REMARK SMILES IDX 43 87 44 88 48 89 51 90 45 91 46 92 49 93 47 94
REMARK H PARENT 83 16 71 47 39 58
REMARK Flexibility Score: inf
ROOT
ATOM      1  O   UNL A   1      32.802  30.407  26.507  1.00  0.00    -0.374 OA
ENDROOT
BRANCH   1   2
ATOM      2  C   UNL A   1      32.733  29.164  27.192  1.00  0.00     0.202 C 
BRANCH   2   3
ATOM      3  C   UNL A   1      31.385  28.436  27.241  1.00  0.00     0.261 C 
BRANCH   3   4
ATOM      4  O   UNL A   1      31.477  27.001  27.258  1.00  0.00    -0.463 OA
BRANCH   4   5
ATOM      5  C   UNL A   1      30.868  26.384  26.211  1.00  0.00     0.311 C 
ATOM      6  O   UNL A   1      30.035  25.490  26.311  1.00  0.00    -0.252 OA
BRANCH   5   7
ATOM      7  C   UNL A   1      31.382  26.829  24.865  1.00  0.00     0.123 C 
ATOM      8  C   UNL A   1      33.808  27.188  24.401  1.00  0.00     0.032 C 
ATOM      9  C   UNL A   1      32.668  26.169  24.291  1.00  0.00     0.098 C 
ATOM     10  N   UNL A   1      32.324  25.844  22.893  1.00  0.00    -0.321 N 
ATOM     11  C   UNL A   1      30.291  26.583  23.835  1.00  0.00     0.039 C 
ATOM     12  C   UNL A   1      31.056  26.472  22.544  1.00  0.00     0.122 C 
BRANCH  10  13
ATOM     13  C   UNL A   1      32.947  25.162  21.896  1.00  0.00     0.322 C 
ATOM     14  O   UNL A   1      32.961  25.613  20.742  1.00  0.00    -0.248 OA
ATOM     15  N   UNL A   1      33.726  24.081  22.057  1.00  0.00    -0.308 N 
ATOM     16  H   UNL A   1      34.241  23.904  21.236  1.00  0.00     0.171 HD
BRANCH  15  17
ATOM     17  C   UNL A   1      34.026  23.136  23.030  1.00  0.00     0.044 A 
ATOM     18  C   UNL A   1      35.377  23.056  23.405  1.00  0.00     0.029 A 
ATOM     19  C   UNL A   1      33.128  22.163  23.464  1.00  0.00     0.049 A 
ATOM     20  C   UNL A   1      35.824  22.059  24.268  1.00  0.00     0.043 A 
ATOM     21  C   UNL A   1      33.607  21.108  24.258  1.00  0.00     0.078 A 
ATOM     22  C   UNL A   1      34.936  21.082  24.682  1.00  0.00     0.141 A 
ATOM     23  Cl  UNL A   1      32.606  19.760  24.636  1.00  0.00    -0.081 Cl
ATOM     24  F   UNL A   1      35.387  20.095  25.469  1.00  0.00    -0.205 F 
ENDBRANCH  15  17
ENDBRANCH  10  13
ENDBRANCH   5   7
ENDBRANCH   4   5
ENDBRANCH   3   4
ENDBRANCH   2   3
ENDBRANCH   1   2
BRANCH   1  25
ATOM     25  C   UNL A   1      31.642  31.228  26.456  1.00  0.00     0.202 C 
BRANCH  25  26
ATOM     26  C   UNL A   1      31.728  32.656  27.002  1.00  0.00     0.261 C 
BRANCH  26  27
ATOM     27  O   UNL A   1      33.045  33.242  26.934  1.00  0.00    -0.460 OA
BRANCH  27  28
ATOM     28  C   UNL A   1      33.566  33.556  28.147  1.00  0.00     0.338 C 
ATOM     29  O   UNL A   1      33.018  34.221  29.023  1.00  0.00    -0.246 OA
BRANCH  28  30
ATOM     30  C   UNL A   1      34.871  32.913  28.399  1.00  0.00     0.060 A 
ATOM     31  C   UNL A   1      34.837  31.632  28.962  1.00  0.00     0.016 A 
ATOM     32  C   UNL A   1      36.091  33.580  28.254  1.00  0.00     0.016 A 
ATOM     33  C   UNL A   1      36.003  31.053  29.454  1.00  0.00     0.010 A 
ATOM     34  C   UNL A   1      37.266  32.997  28.748  1.00  0.00     0.010 A 
ATOM     35  C   UNL A   1      37.217  31.752  29.393  1.00  0.00    -0.014 A 
BRANCH  35  36
ATOM     36  C   UNL A   1      38.393  31.186  30.095  1.00  0.00     0.031 A 
ATOM     37  C   UNL A   1      38.637  31.522  31.539  1.00  0.00     0.074 A 
ATOM     38  C   UNL A   1      39.182  30.302  29.462  1.00  0.00     0.049 A 
ATOM     39  N   UNL A   1      39.504  31.006  32.375  1.00  0.00    -0.248 NA
ATOM     40  C   UNL A   1      37.797  32.579  32.123  1.00  0.00     0.031 C 
ATOM     41  C   UNL A   1      39.046  29.908  28.061  1.00  0.00     0.029 A 
ATOM     42  N   UNL A   1      40.242  29.562  29.922  1.00  0.00    -0.354 N 
ATOM     43  C   UNL A   1      39.304  31.662  33.582  1.00  0.00     0.074 A 
ATOM     44  C   UNL A   1      38.265  32.644  33.362  1.00  0.00     0.031 C 
ATOM     45  C   UNL A   1      39.976  28.982  27.778  1.00  0.00     0.029 A 
ATOM     46  C   UNL A   1      40.772  28.722  28.976  1.00  0.00     0.049 A 
ATOM     47  H   UNL A   1      40.587  29.627  30.841  1.00  0.00     0.167 HD
ATOM     48  C   UNL A   1      39.921  31.449  34.770  1.00  0.00     0.037 A 
ATOM     49  C   UNL A   1      41.775  27.830  29.072  1.00  0.00     0.037 A 
ATOM     50  C   UNL A   1      40.956  30.471  34.985  1.00  0.00     0.049 A 
ATOM     51  C   UNL A   1      42.446  27.615  30.401  1.00  0.00     0.074 A 
ATOM     52  C   UNL A   1      41.623  30.158  36.157  1.00  0.00     0.029 A 
ATOM     53  N   UNL A   1      41.480  29.650  33.997  1.00  0.00    -0.354 N 
ATOM     54  N   UNL A   1      42.203  28.191  31.553  1.00  0.00    -0.248 NA
ATOM     55  C   UNL A   1      43.516  26.609  30.446  1.00  0.00     0.031 C 
ATOM     56  C   UNL A   1      42.576  29.175  35.871  1.00  0.00     0.029 A 
ATOM     57  C   UNL A   1      42.474  28.844  34.529  1.00  0.00     0.049 A 
ATOM     58  H   UNL A   1      41.187  29.640  33.057  1.00  0.00     0.167 HD
ATOM     59  C   UNL A   1      43.072  27.606  32.464  1.00  0.00     0.074 A 
ATOM     60  C   UNL A   1      43.836  26.615  31.733  1.00  0.00     0.031 C 
ATOM     61  C   UNL A   1      43.225  27.865  33.786  1.00  0.00     0.037 A 
BRANCH  48  62
ATOM     62  C   UNL A   1      39.495  32.296  35.934  1.00  0.00     0.064 A 
ATOM     63  C   UNL A   1      38.471  31.885  36.802  1.00  0.00     0.173 A 
ATOM     64  C   UNL A   1      40.147  33.506  36.213  1.00  0.00     0.173 A 
ATOM     65  F   UNL A   1      37.811  30.740  36.573  1.00  0.00    -0.203 F 
ATOM     66  C   UNL A   1      38.102  32.666  37.895  1.00  0.00     0.198 A 
ATOM     67  C   UNL A   1      39.790  34.273  37.320  1.00  0.00     0.198 A 
ATOM     68  F   UNL A   1      41.136  33.941  35.418  1.00  0.00    -0.203 F 
ATOM     69  F   UNL A   1      37.099  32.272  38.690  1.00  0.00    -0.200 F 
ATOM     70  C   UNL A   1      38.766  33.856  38.156  1.00  0.00     0.200 A 
ATOM     71  F   UNL A   1      40.440  35.417  37.577  1.00  0.00    -0.200 F 
ATOM     72  F   UNL A   1      38.415  34.603  39.212  1.00  0.00    -0.200 F 
ENDBRANCH  48  62
BRANCH  49  73
ATOM     73  C   UNL A   1      42.175  27.046  27.877  1.00  0.00     0.064 A 
ATOM     74  C   UNL A   1      43.138  27.531  26.983  1.00  0.00     0.173 A 
ATOM     75  C   UNL A   1      41.612  25.788  27.616  1.00  0.00     0.173 A 
ATOM     76  F   UNL A   1      43.690  28.737  27.182  1.00  0.00    -0.203 F 
ATOM     77  C   UNL A   1      43.513  26.793  25.863  1.00  0.00     0.198 A 
ATOM     78  C   UNL A   1      42.005  25.041  26.509  1.00  0.00     0.198 A 
ATOM     79  F   UNL A   1      40.690  25.281  28.447  1.00  0.00    -0.203 F 
ATOM     80  F   UNL A   1      44.412  27.294  25.004  1.00  0.00    -0.200 F 
ATOM     81  C   UNL A   1      42.952  25.546  25.630  1.00  0.00     0.200 A 
ATOM     82  F   UNL A   1      41.470  23.832  26.296  1.00  0.00    -0.200 F 
ATOM     83  F   UNL A   1      43.320  24.832  24.557  1.00  0.00    -0.200 F 
ENDBRANCH  49  73
BRANCH  61  84
ATOM     84  C   UNL A   1      44.244  27.051  34.526  1.00  0.00     0.064 A 
ATOM     85  C   UNL A   1      43.918  25.811  35.094  1.00  0.00     0.173 A 
ATOM     86  C   UNL A   1      45.565  27.507  34.652  1.00  0.00     0.173 A 
ATOM     87  F   UNL A   1      42.665  25.340  35.014  1.00  0.00    -0.203 F 
ATOM     88  C   UNL A   1      44.871  25.071  35.789  1.00  0.00     0.198 A 
ATOM     89  C   UNL A   1      46.521  26.752  35.325  1.00  0.00     0.198 A 
ATOM     90  F   UNL A   1      45.927  28.684  34.120  1.00  0.00    -0.203 F 
ATOM     91  F   UNL A   1      44.526  23.912  36.367  1.00  0.00    -0.200 F 
ATOM     92  C   UNL A   1      46.172  25.539  35.900  1.00  0.00     0.200 A 
ATOM     93  F   UNL A   1      47.780  27.202  35.423  1.00  0.00    -0.200 F 
ATOM     94  F   UNL A   1      47.087  24.826  36.571  1.00  0.00    -0.200 F 
ENDBRANCH  61  84
ENDBRANCH  35  36
ENDBRANCH  28  30
ENDBRANCH  27  28
ENDBRANCH  26  27
ENDBRANCH  25  26
ENDBRANCH   1  25
TORSDOF 16
ENDMDL
MODEL 2
REMARK VINA RESULT:     -11.7      4.676     10.124
REMARK SMILES C[C@H]1[C@H](C(=O)OCCOCCOC(=O)c2ccc(-c3c4nc(c(-c5c(F)c(F)c(F)c(F)c5F)c5ccc([nH]5)c(-c5c(F)c(F)c(F)c(F)c5F)c5nc(c(-c6c(F)c(F)c(F)c(F)c6F)c6ccc3[nH]6)C=C5)C=C4)cc2)CCN1C(=O)Nc1ccc(F)c(Cl)c1
REMARK SMILES IDX 9 1 8 2 7 3 6 4 4 5 5 6 3 7 1 8 2 9 80 10 78 11 79 12 81 13
REMARK SMILES IDX 82 14 83 15 84 17 85 18 91 19 86 20 89 21 87 22 90 23 88 24
REMARK SMILES IDX 10 25 11 26 12 27 13 28 14 29 15 30 16 31 77 32 17 33 76 34
REMARK SMILES IDX 18 35 19 36 20 37 70 38 21 39 75 40 69 41 71 42 22 43 74 44
REMARK SMILES IDX 68 45 67 46 23 48 55 49 35 50 54 51 36 52 39 53 53 54 72 55
REMARK SMILES IDX 37 56 38 57 52 59 73 60 40 61 24 62 25 63 33 64 26 65 27 66
REMARK SMILES IDX 31 67 34 68 28 69 29 70 32 71 30 72 56 73 57 74 65 75 58 76
REMARK SMILES IDX 59 77 63 78 66 79 60 80 61 81 64 82 62 83 41 84 42 85 50 86
REMARK SMILES IDX 43 87 44 88 48 89 51 90 45 91 46 92 49 93 47 94
REMARK H PARENT 83 16 71 47 39 58
REMARK Flexibility Score: inf
ROOT
ATOM      1  O   UNL A   1      35.281  21.905  25.360  1.00  0.00    -0.374 OA
ENDROOT
BRANCH   1   2
ATOM      2  C   UNL A   1      34.462  20.778  25.638  1.00  0.00     0.202 C 
BRANCH   2   3
ATOM      3  C   UNL A   1      33.462  20.326  24.569  1.00  0.00     0.261 C 
BRANCH   3   4
ATOM      4  O   UNL A   1      32.650  21.380  24.022  1.00  0.00    -0.463 OA
BRANCH   4   5
ATOM      5  C   UNL A   1      31.736  21.896  24.886  1.00  0.00     0.311 C 
ATOM      6  O   UNL A   1      31.028  21.233  25.637  1.00  0.00    -0.252 OA
BRANCH   5   7
ATOM      7  C   UNL A   1      31.584  23.393  24.782  1.00  0.00     0.123 C 
ATOM      8  C   UNL A   1      32.965  24.984  26.118  1.00  0.00     0.032 C 
ATOM      9  C   UNL A   1      32.859  24.282  24.760  1.00  0.00     0.098 C 
ATOM     10  N   UNL A   1      32.633  25.224  23.645  1.00  0.00    -0.321 N 
ATOM     11  C   UNL A   1      30.834  23.705  23.496  1.00  0.00     0.039 C 
ATOM     12  C   UNL A   1      31.253  25.116  23.188  1.00  0.00     0.122 C 
BRANCH  10  13
ATOM     13  C   UNL A   1      33.394  26.167  23.030  1.00  0.00     0.322 C 
ATOM     14  O   UNL A   1      34.027  25.889  22.001  1.00  0.00    -0.248 OA
ATOM     15  N   UNL A   1      33.415  27.474  23.333  1.00  0.00    -0.308 N 
ATOM     16  H   UNL A   1      33.859  27.985  22.617  1.00  0.00     0.171 HD
BRANCH  15  17
ATOM     17  C   UNL A   1      33.001  28.324  24.350  1.00  0.00     0.044 A 
ATOM     18  C   UNL A   1      31.791  29.002  24.123  1.00  0.00     0.029 A 
ATOM     19  C   UNL A   1      33.804  28.686  25.430  1.00  0.00     0.049 A 
ATOM     20  C   UNL A   1      31.341  29.981  25.004  1.00  0.00     0.043 A 
ATOM     21  C   UNL A   1      33.387  29.739  26.259  1.00  0.00     0.078 A 
ATOM     22  C   UNL A   1      32.149  30.352  26.064  1.00  0.00     0.141 A 
ATOM     23  Cl  UNL A   1      34.432  30.382  27.466  1.00  0.00    -0.081 Cl
ATOM     24  F   UNL A   1      31.733  31.335  26.876  1.00  0.00    -0.205 F 
ENDBRANCH  15  17
ENDBRANCH  10  13
ENDBRANCH   5   7
ENDBRANCH   4   5
ENDBRANCH   3   4
ENDBRANCH   2   3
ENDBRANCH   1   2
BRANCH   1  25
ATOM     25  C   UNL A   1      36.175  21.848  24.255  1.00  0.00     0.202 C 
BRANCH  25  26
ATOM     26  C   UNL A   1      37.640  21.487  24.514  1.00  0.00     0.261 C 
BRANCH  26  27
ATOM     27  O   UNL A   1      37.983  21.350  25.909  1.00  0.00    -0.460 OA
BRANCH  27  28
ATOM     28  C   UNL A   1      39.318  21.368  26.147  1.00  0.00     0.338 C 
ATOM     29  O   UNL A   1      40.140  20.551  25.739  1.00  0.00    -0.246 OA
BRANCH  28  30
ATOM     30  C   UNL A   1      39.757  22.569  26.885  1.00  0.00     0.060 A 
ATOM     31  C   UNL A   1      39.176  23.784  26.502  1.00  0.00     0.016 A 
ATOM     32  C   UNL A   1      40.812  22.559  27.803  1.00  0.00     0.016 A 
ATOM     33  C   UNL A   1      39.699  24.987  26.966  1.00  0.00     0.010 A 
ATOM     34  C   UNL A   1      41.337  23.770  28.272  1.00  0.00     0.010 A 
ATOM     35  C   UNL A   1      40.812  24.989  27.818  1.00  0.00    -0.014 A 
BRANCH  35  36
ATOM     36  C   UNL A   1      41.454  26.286  28.137  1.00  0.00     0.031 A 
ATOM     37  C   UNL A   1      42.835  26.585  27.627  1.00  0.00     0.074 A 
ATOM     38  C   UNL A   1      40.760  27.224  28.804  1.00  0.00     0.049 A 
ATOM     39  N   UNL A   1      43.502  27.713  27.651  1.00  0.00    -0.248 NA
ATOM     40  C   UNL A   1      43.566  25.470  27.006  1.00  0.00     0.031 C 
ATOM     41  C   UNL A   1      39.418  27.042  29.353  1.00  0.00     0.029 A 
ATOM     42  N   UNL A   1      41.081  28.521  29.112  1.00  0.00    -0.354 N 
ATOM     43  C   UNL A   1      44.720  27.447  27.039  1.00  0.00     0.074 A 
ATOM     44  C   UNL A   1      44.720  26.043  26.691  1.00  0.00     0.031 C 
ATOM     45  C   UNL A   1      39.021  28.195  29.918  1.00  0.00     0.029 A 
ATOM     46  C   UNL A   1      40.080  29.190  29.770  1.00  0.00     0.049 A 
ATOM     47  H   UNL A   1      41.946  28.933  28.883  1.00  0.00     0.167 HD
ATOM     48  C   UNL A   1      45.736  28.304  26.776  1.00  0.00     0.037 A 
ATOM     49  C   UNL A   1      40.019  30.467  30.189  1.00  0.00     0.037 A 
ATOM     50  C   UNL A   1      45.732  29.701  27.125  1.00  0.00     0.049 A 
ATOM     51  C   UNL A   1      41.163  31.397  29.887  1.00  0.00     0.074 A 
ATOM     52  C   UNL A   1      46.700  30.660  26.876  1.00  0.00     0.029 A 
ATOM     53  N   UNL A   1      44.706  30.340  27.807  1.00  0.00    -0.354 N 
ATOM     54  N   UNL A   1      42.280  31.154  29.247  1.00  0.00    -0.248 NA
ATOM     55  C   UNL A   1      41.024  32.785  30.349  1.00  0.00     0.031 C 
ATOM     56  C   UNL A   1      46.277  31.868  27.440  1.00  0.00     0.029 A 
ATOM     57  C   UNL A   1      45.026  31.673  28.004  1.00  0.00     0.049 A 
ATOM     58  H   UNL A   1      43.873  29.908  28.106  1.00  0.00     0.167 HD
ATOM     59  C   UNL A   1      42.969  32.358  29.209  1.00  0.00     0.074 A 
ATOM     60  C   UNL A   1      42.133  33.337  29.876  1.00  0.00     0.031 C 
ATOM     61  C   UNL A   1      44.183  32.631  28.672  1.00  0.00     0.037 A 
BRANCH  48  62
ATOM     62  C   UNL A   1      46.945  27.753  26.077  1.00  0.00     0.064 A 
ATOM     63  C   UNL A   1      47.045  27.753  24.678  1.00  0.00     0.173 A 
ATOM     64  C   UNL A   1      48.033  27.263  26.814  1.00  0.00     0.173 A 
ATOM     65  F   UNL A   1      46.028  28.203  23.928  1.00  0.00    -0.203 F 
ATOM     66  C   UNL A   1      48.184  27.263  24.041  1.00  0.00     0.198 A 
ATOM     67  C   UNL A   1      49.179  26.795  26.175  1.00  0.00     0.198 A 
ATOM     68  F   UNL A   1      47.989  27.245  28.155  1.00  0.00    -0.203 F 
ATOM     69  F   UNL A   1      48.243  27.241  22.703  1.00  0.00    -0.200 F 
ATOM     70  C   UNL A   1      49.251  26.791  24.790  1.00  0.00     0.200 A 
ATOM     71  F   UNL A   1      50.214  26.348  26.900  1.00  0.00    -0.200 F 
ATOM     72  F   UNL A   1      50.348  26.326  24.177  1.00  0.00    -0.200 F 
ENDBRANCH  48  62
BRANCH  49  73
ATOM     73  C   UNL A   1      38.811  30.947  30.905  1.00  0.00     0.064 A 
ATOM     74  C   UNL A   1      37.717  31.470  30.205  1.00  0.00     0.173 A 
ATOM     75  C   UNL A   1      38.722  30.875  32.302  1.00  0.00     0.173 A 
ATOM     76  F   UNL A   1      37.764  31.575  28.868  1.00  0.00    -0.203 F 
ATOM     77  C   UNL A   1      36.582  31.918  30.878  1.00  0.00     0.198 A 
ATOM     78  C   UNL A   1      37.579  31.301  32.972  1.00  0.00     0.198 A 
ATOM     79  F   UNL A   1      39.744  30.378  33.014  1.00  0.00    -0.203 F 
ATOM     80  F   UNL A   1      35.562  32.446  30.188  1.00  0.00    -0.200 F 
ATOM     81  C   UNL A   1      36.511  31.827  32.260  1.00  0.00     0.200 A 
ATOM     82  F   UNL A   1      37.509  31.200  34.306  1.00  0.00    -0.200 F 
ATOM     83  F   UNL A   1      35.416  32.250  32.906  1.00  0.00    -0.200 F 
ENDBRANCH  49  73
BRANCH  61  84
ATOM     84  C   UNL A   1      44.669  34.048  28.769  1.00  0.00     0.064 A 
ATOM     85  C   UNL A   1      44.357  34.997  27.785  1.00  0.00     0.173 A 
ATOM     86  C   UNL A   1      45.438  34.463  29.866  1.00  0.00     0.173 A 
ATOM     87  F   UNL A   1      43.639  34.644  26.710  1.00  0.00    -0.203 F 
ATOM     88  C   UNL A   1      44.824  36.305  27.882  1.00  0.00     0.198 A 
ATOM     89  C   UNL A   1      45.880  35.778  29.973  1.00  0.00     0.198 A 
ATOM     90  F   UNL A   1      45.756  33.593  30.837  1.00  0.00    -0.203 F 
ATOM     91  F   UNL A   1      44.556  37.184  26.905  1.00  0.00    -0.200 F 
ATOM     92  C   UNL A   1      45.581  36.696  28.976  1.00  0.00     0.200 A 
ATOM     93  F   UNL A   1      46.604  36.157  31.036  1.00  0.00    -0.200 F 
ATOM     94  F   UNL A   1      46.031  37.955  29.066  1.00  0.00    -0.200 F 
ENDBRANCH  61  84
ENDBRANCH  35  36
ENDBRANCH  28  30
ENDBRANCH  27  28
ENDBRANCH  26  27
ENDBRANCH  25  26
ENDBRANCH   1  25
TORSDOF 16
ENDMDL
MODEL 3
REMARK VINA RESULT:     -11.7      1.298      2.182
REMARK SMILES C[C@H]1[C@H](C(=O)OCCOCCOC(=O)c2ccc(-c3c4nc(c(-c5c(F)c(F)c(F)c(F)c5F)c5ccc([nH]5)c(-c5c(F)c(F)c(F)c(F)c5F)c5nc(c(-c6c(F)c(F)c(F)c(F)c6F)c6ccc3[nH]6)C=C5)C=C4)cc2)CCN1C(=O)Nc1ccc(F)c(Cl)c1
REMARK SMILES IDX 9 1 8 2 7 3 6 4 4 5 5 6 3 7 1 8 2 9 80 10 78 11 79 12 81 13
REMARK SMILES IDX 82 14 83 15 84 17 85 18 91 19 86 20 89 21 87 22 90 23 88 24
REMARK SMILES IDX 10 25 11 26 12 27 13 28 14 29 15 30 16 31 77 32 17 33 76 34
REMARK SMILES IDX 18 35 19 36 20 37 70 38 21 39 75 40 69 41 71 42 22 43 74 44
REMARK SMILES IDX 68 45 67 46 23 48 55 49 35 50 54 51 36 52 39 53 53 54 72 55
REMARK SMILES IDX 37 56 38 57 52 59 73 60 40 61 24 62 25 63 33 64 26 65 27 66
REMARK SMILES IDX 31 67 34 68 28 69 29 70 32 71 30 72 56 73 57 74 65 75 58 76
REMARK SMILES IDX 59 77 63 78 66 79 60 80 61 81 64 82 62 83 41 84 42 85 50 86
REMARK SMILES IDX 43 87 44 88 48 89 51 90 45 91 46 92 49 93 47 94
REMARK H PARENT 83 16 71 47 39 58
REMARK Flexibility Score: inf
ROOT
ATOM      1  O   UNL A   1      32.777  28.449  25.728  1.00  0.00    -0.374 OA
ENDROOT
BRANCH   1   2
ATOM      2  C   UNL A   1      33.554  28.660  24.557  1.00  0.00     0.202 C 
BRANCH   2   3
ATOM      3  C   UNL A   1      33.005  28.151  23.220  1.00  0.00     0.261 C 
BRANCH   3   4
ATOM      4  O   UNL A   1      31.731  27.490  23.306  1.00  0.00    -0.463 OA
BRANCH   4   5
ATOM      5  C   UNL A   1      31.571  26.456  22.438  1.00  0.00     0.311 C 
ATOM      6  O   UNL A   1      31.089  26.551  21.315  1.00  0.00    -0.252 OA
BRANCH   5   7
ATOM      7  C   UNL A   1      31.956  25.117  23.016  1.00  0.00     0.123 C 
ATOM      8  C   UNL A   1      34.167  24.702  24.096  1.00  0.00     0.032 C 
ATOM      9  C   UNL A   1      32.706  25.070  24.378  1.00  0.00     0.098 C 
ATOM     10  N   UNL A   1      31.996  24.036  25.155  1.00  0.00    -0.321 N 
ATOM     11  C   UNL A   1      30.688  24.301  23.210  1.00  0.00     0.039 C 
ATOM     12  C   UNL A   1      31.070  23.321  24.285  1.00  0.00     0.122 C 
BRANCH  10  13
ATOM     13  C   UNL A   1      32.069  23.596  26.439  1.00  0.00     0.322 C 
ATOM     14  O   UNL A   1      31.373  24.118  27.322  1.00  0.00    -0.248 OA
ATOM     15  N   UNL A   1      32.723  22.500  26.853  1.00  0.00    -0.308 N 
ATOM     16  H   UNL A   1      32.448  22.262  27.769  1.00  0.00     0.171 HD
BRANCH  15  17
ATOM     17  C   UNL A   1      33.669  21.599  26.382  1.00  0.00     0.044 A 
ATOM     18  C   UNL A   1      34.999  22.052  26.389  1.00  0.00     0.029 A 
ATOM     19  C   UNL A   1      33.346  20.412  25.727  1.00  0.00     0.049 A 
ATOM     20  C   UNL A   1      36.018  21.296  25.817  1.00  0.00     0.043 A 
ATOM     21  C   UNL A   1      34.366  19.704  25.071  1.00  0.00     0.078 A 
ATOM     22  C   UNL A   1      35.693  20.127  25.150  1.00  0.00     0.141 A 
ATOM     23  Cl  UNL A   1      34.000  18.361  24.059  1.00  0.00    -0.081 Cl
ATOM     24  F   UNL A   1      36.673  19.434  24.554  1.00  0.00    -0.205 F 
ENDBRANCH  15  17
ENDBRANCH  10  13
ENDBRANCH   5   7
ENDBRANCH   4   5
ENDBRANCH   3   4
ENDBRANCH   2   3
ENDBRANCH   1   2
BRANCH   1  25
ATOM     25  C   UNL A   1      31.785  29.408  26.074  1.00  0.00     0.202 C 
BRANCH  25  26
ATOM     26  C   UNL A   1      32.207  30.868  26.260  1.00  0.00     0.261 C 
BRANCH  26  27
ATOM     27  O   UNL A   1      32.562  31.219  27.614  1.00  0.00    -0.460 OA
BRANCH  27  28
ATOM     28  C   UNL A   1      33.437  32.251  27.698  1.00  0.00     0.338 C 
ATOM     29  O   UNL A   1      33.157  33.447  27.653  1.00  0.00    -0.246 OA
BRANCH  28  30
ATOM     30  C   UNL A   1      34.820  31.815  27.976  1.00  0.00     0.060 A 
ATOM     31  C   UNL A   1      34.989  30.478  28.353  1.00  0.00     0.016 A 
ATOM     32  C   UNL A   1      35.903  32.698  28.032  1.00  0.00     0.016 A 
ATOM     33  C   UNL A   1      36.209  30.044  28.864  1.00  0.00     0.010 A 
ATOM     34  C   UNL A   1      37.132  32.261  28.544  1.00  0.00     0.010 A 
ATOM     35  C   UNL A   1      37.273  30.944  29.006  1.00  0.00    -0.014 A 
BRANCH  35  36
ATOM     36  C   UNL A   1      38.487  30.493  29.727  1.00  0.00     0.031 A 
ATOM     37  C   UNL A   1      38.712  30.911  31.152  1.00  0.00     0.074 A 
ATOM     38  C   UNL A   1      39.334  29.636  29.129  1.00  0.00     0.049 A 
ATOM     39  N   UNL A   1      39.615  30.493  32.005  1.00  0.00    -0.248 NA
ATOM     40  C   UNL A   1      37.804  31.933  31.692  1.00  0.00     0.031 C 
ATOM     41  C   UNL A   1      39.220  29.170  27.749  1.00  0.00     0.029 A 
ATOM     42  N   UNL A   1      40.443  28.992  29.616  1.00  0.00    -0.354 N 
ATOM     43  C   UNL A   1      39.374  31.189  33.183  1.00  0.00     0.074 A 
ATOM     44  C   UNL A   1      38.269  32.087  32.924  1.00  0.00     0.031 C 
ATOM     45  C   UNL A   1      40.211  28.297  27.503  1.00  0.00     0.029 A 
ATOM     46  C   UNL A   1      41.026  28.147  28.706  1.00  0.00     0.049 A 
ATOM     47  H   UNL A   1      40.786  29.123  30.529  1.00  0.00     0.167 HD
ATOM     48  C   UNL A   1      40.007  31.074  34.375  1.00  0.00     0.037 A 
ATOM     49  C   UNL A   1      42.089  27.332  28.837  1.00  0.00     0.037 A 
ATOM     50  C   UNL A   1      41.107  30.180  34.628  1.00  0.00     0.049 A 
ATOM     51  C   UNL A   1      42.776  27.224  30.171  1.00  0.00     0.074 A 
ATOM     52  C   UNL A   1      41.798  29.967  35.810  1.00  0.00     0.029 A 
ATOM     53  N   UNL A   1      41.684  29.351  33.676  1.00  0.00    -0.354 N 
ATOM     54  N   UNL A   1      42.498  27.835  31.296  1.00  0.00    -0.248 NA
ATOM     55  C   UNL A   1      43.913  26.297  30.254  1.00  0.00     0.031 C 
ATOM     56  C   UNL A   1      42.815  29.038  35.562  1.00  0.00     0.029 A 
ATOM     57  C   UNL A   1      42.732  28.640  34.238  1.00  0.00     0.049 A 
ATOM     58  H   UNL A   1      41.389  29.278  32.738  1.00  0.00     0.167 HD
ATOM     59  C   UNL A   1      43.407  27.353  32.228  1.00  0.00     0.074 A 
ATOM     60  C   UNL A   1      44.235  26.384  31.538  1.00  0.00     0.031 C 
ATOM     61  C   UNL A   1      43.546  27.682  33.535  1.00  0.00     0.037 A 
BRANCH  48  62
ATOM     62  C   UNL A   1      39.528  31.941  35.502  1.00  0.00     0.064 A 
ATOM     63  C   UNL A   1      38.544  31.499  36.399  1.00  0.00     0.173 A 
ATOM     64  C   UNL A   1      40.089  33.209  35.715  1.00  0.00     0.173 A 
ATOM     65  F   UNL A   1      37.970  30.298  36.233  1.00  0.00    -0.203 F 
ATOM     66  C   UNL A   1      38.126  32.303  37.458  1.00  0.00     0.198 A 
ATOM     67  C   UNL A   1      39.685  34.000  36.788  1.00  0.00     0.198 A 
ATOM     68  F   UNL A   1      41.037  33.677  34.889  1.00  0.00    -0.203 F 
ATOM     69  F   UNL A   1      37.160  31.874  38.282  1.00  0.00    -0.200 F 
ATOM     70  C   UNL A   1      38.701  33.549  37.654  1.00  0.00     0.200 A 
ATOM     71  F   UNL A   1      40.249  35.200  36.984  1.00  0.00    -0.200 F 
ATOM     72  F   UNL A   1      38.303  34.319  38.677  1.00  0.00    -0.200 F 
ENDBRANCH  48  62
BRANCH  49  73
ATOM     73  C   UNL A   1      42.537  26.522  27.677  1.00  0.00     0.064 A 
ATOM     74  C   UNL A   1      43.529  26.994  26.808  1.00  0.00     0.173 A 
ATOM     75  C   UNL A   1      41.994  25.255  27.425  1.00  0.00     0.173 A 
ATOM     76  F   UNL A   1      44.066  28.208  26.998  1.00  0.00    -0.203 F 
ATOM     77  C   UNL A   1      43.951  26.232  25.720  1.00  0.00     0.198 A 
ATOM     78  C   UNL A   1      42.432  24.485  26.352  1.00  0.00     0.198 A 
ATOM     79  F   UNL A   1      41.044  24.761  28.233  1.00  0.00    -0.203 F 
ATOM     80  F   UNL A   1      44.877  26.719  24.883  1.00  0.00    -0.200 F 
ATOM     81  C   UNL A   1      43.408  24.976  25.496  1.00  0.00     0.200 A 
ATOM     82  F   UNL A   1      41.913  23.267  26.148  1.00  0.00    -0.200 F 
ATOM     83  F   UNL A   1      43.819  24.240  24.455  1.00  0.00    -0.200 F 
ENDBRANCH  49  73
BRANCH  61  84
ATOM     84  C   UNL A   1      44.621  26.974  34.306  1.00  0.00     0.064 A 
ATOM     85  C   UNL A   1      45.913  27.507  34.417  1.00  0.00     0.173 A 
ATOM     86  C   UNL A   1      44.350  25.760  34.954  1.00  0.00     0.173 A 
ATOM     87  F   UNL A   1      46.225  28.657  33.802  1.00  0.00    -0.203 F 
ATOM     88  C   UNL A   1      46.904  26.834  35.126  1.00  0.00     0.198 A 
ATOM     89  C   UNL A   1      45.336  25.103  35.684  1.00  0.00     0.198 A 
ATOM     90  F   UNL A   1      43.127  25.213  34.883  1.00  0.00    -0.203 F 
ATOM     91  F   UNL A   1      48.147  27.336  35.179  1.00  0.00    -0.200 F 
ATOM     92  C   UNL A   1      46.615  25.636  35.762  1.00  0.00     0.200 A 
ATOM     93  F   UNL A   1      45.053  23.950  36.306  1.00  0.00    -0.200 F 
ATOM     94  F   UNL A   1      47.572  24.989  36.442  1.00  0.00    -0.200 F 
ENDBRANCH  61  84
ENDBRANCH  35  36
ENDBRANCH  28  30
ENDBRANCH  27  28
ENDBRANCH  26  27
ENDBRANCH  25  26
ENDBRANCH   1  25
TORSDOF 16
ENDMDL
