MODEL 1
REMARK VINA RESULT:     -12.7      0.000      0.000
REMARK SMILES CC(C)[C@H](NC(=O)[C@H](Cc1ccccc1)n1c(=O)[nH]c2ccccc2c1=O)C(=O)OCCOCCOC(=O)c1ccc(-c2c3nc(c(-c4c(F)c(F)c(F)c(F)c4F)c4ccc([nH]4)c(-c4c(F)c(F)c(F)c(F)c4F)c4nc(c(-c5c(F)c(F)c(F)c(F)c5F)c5ccc2[nH]5)C=C4)C=C3)cc1
REMARK SMILES IDX 32 1 31 2 30 3 28 4 29 5 4 6 2 7 1 8 3 9 5 10 6 11 7 13 8 14
REMARK SMILES IDX 16 15 17 16 26 17 18 18 19 19 25 20 27 21 20 22 24 24 21 25
REMARK SMILES IDX 23 26 22 27 9 28 10 29 11 30 15 31 12 32 14 33 13 34 33 35
REMARK SMILES IDX 34 36 35 37 36 38 37 39 38 40 39 41 40 42 101 43 41 44
REMARK SMILES IDX 100 45 42 46 43 47 44 48 94 49 45 50 99 51 93 52 95 53 46 54
REMARK SMILES IDX 98 55 92 56 91 57 47 59 79 60 59 61 78 62 60 63 63 64 77 65
REMARK SMILES IDX 96 66 61 67 62 68 76 70 97 71 64 72 48 73 49 74 57 75 50 76
REMARK SMILES IDX 51 77 55 78 58 79 52 80 53 81 56 82 54 83 80 84 81 85 89 86
REMARK SMILES IDX 82 87 83 88 87 89 90 90 84 91 85 92 88 93 86 94 65 95 66 96
REMARK SMILES IDX 74 97 67 98 68 99 72 100 75 101 69 102 70 103 73 104 71 105
REMARK H PARENT 5 12 19 23 95 58 63 69
REMARK Flexibility Score: inf
ROOT
ATOM      1  C   UNL A   1      32.629  30.292  26.595  1.00  0.00     0.202 C 
ENDROOT
BRANCH   1   2
ATOM      2  C   UNL A   1      32.496  28.944  27.330  1.00  0.00     0.261 C 
BRANCH   2   3
ATOM      3  O   UNL A   1      33.238  27.949  26.624  1.00  0.00    -0.462 OA
BRANCH   3   4
ATOM      4  C   UNL A   1      32.543  26.815  26.320  1.00  0.00     0.328 C 
ATOM      5  O   UNL A   1      31.477  26.498  26.832  1.00  0.00    -0.250 OA
BRANCH   4   6
ATOM      6  C   UNL A   1      33.225  26.049  25.163  1.00  0.00     0.194 C 
BRANCH   6   7
ATOM      7  C   UNL A   1      34.356  25.139  25.697  1.00  0.00     0.017 C 
ATOM      8  C   UNL A   1      33.729  24.011  26.533  1.00  0.00     0.010 C 
ATOM      9  C   UNL A   1      35.246  24.507  24.622  1.00  0.00     0.010 C 
ENDBRANCH   6   7
BRANCH   6  10
ATOM     10  N   UNL A   1      33.633  27.024  24.156  1.00  0.00    -0.341 N 
ATOM     11  C   UNL A   1      32.910  27.541  23.120  1.00  0.00     0.244 C 
ATOM     12  H   UNL A   1      34.557  27.354  24.236  1.00  0.00     0.164 HD
ATOM     13  O   UNL A   1      33.486  28.444  22.492  1.00  0.00    -0.273 OA
BRANCH  11  14
ATOM     14  C   UNL A   1      31.528  26.978  22.611  1.00  0.00     0.189 C 
BRANCH  14  15
ATOM     15  N   UNL A   1      31.702  25.538  22.485  1.00  0.00    -0.247 N 
ATOM     16  C   UNL A   1      32.532  25.053  21.495  1.00  0.00     0.329 A 
ATOM     17  C   UNL A   1      30.982  24.724  23.350  1.00  0.00     0.264 A 
ATOM     18  O   UNL A   1      32.923  25.695  20.523  1.00  0.00    -0.248 OA
ATOM     19  N   UNL A   1      32.993  23.786  21.675  1.00  0.00    -0.307 N 
ATOM     20  C   UNL A   1      31.532  23.379  23.539  1.00  0.00     0.064 A 
ATOM     21  O   UNL A   1      30.012  25.068  24.019  1.00  0.00    -0.268 OA
ATOM     22  C   UNL A   1      32.613  22.997  22.753  1.00  0.00     0.055 A 
ATOM     23  H   UNL A   1      33.622  23.412  21.014  1.00  0.00     0.171 HD
ATOM     24  C   UNL A   1      31.080  22.574  24.583  1.00  0.00     0.016 A 
ATOM     25  C   UNL A   1      33.329  21.852  23.066  1.00  0.00     0.027 A 
ATOM     26  C   UNL A   1      31.796  21.425  24.899  1.00  0.00     0.001 A 
ATOM     27  C   UNL A   1      32.936  21.086  24.165  1.00  0.00     0.002 A 
ENDBRANCH  14  15
BRANCH  14  28
ATOM     28  C   UNL A   1      30.143  27.367  23.206  1.00  0.00     0.071 C 
BRANCH  28  29
ATOM     29  C   UNL A   1      29.547  28.788  23.110  1.00  0.00    -0.045 A 
ATOM     30  C   UNL A   1      30.097  29.896  23.781  1.00  0.00     0.004 A 
ATOM     31  C   UNL A   1      28.266  28.965  22.569  1.00  0.00     0.004 A 
ATOM     32  C   UNL A   1      29.387  31.089  23.974  1.00  0.00     0.000 A 
ATOM     33  C   UNL A   1      27.552  30.161  22.752  1.00  0.00     0.000 A 
ATOM     34  C   UNL A   1      28.102  31.216  23.474  1.00  0.00     0.000 A 
ENDBRANCH  28  29
ENDBRANCH  14  28
ENDBRANCH  11  14
ENDBRANCH   6  10
ENDBRANCH   4   6
ENDBRANCH   3   4
ENDBRANCH   2   3
ENDBRANCH   1   2
BRANCH   1  35
ATOM     35  O   UNL A   1      31.578  31.201  26.885  1.00  0.00    -0.374 OA
BRANCH  35  36
ATOM     36  C   UNL A   1      31.730  32.590  26.517  1.00  0.00     0.202 C 
BRANCH  36  37
ATOM     37  C   UNL A   1      32.113  33.537  27.654  1.00  0.00     0.261 C 
BRANCH  37  38
ATOM     38  O   UNL A   1      33.530  33.727  27.698  1.00  0.00    -0.460 OA
BRANCH  38  39
ATOM     39  C   UNL A   1      34.014  33.970  28.945  1.00  0.00     0.338 C 
ATOM     40  O   UNL A   1      33.438  34.480  29.875  1.00  0.00    -0.246 OA
BRANCH  39  41
ATOM     41  C   UNL A   1      35.241  33.153  29.065  1.00  0.00     0.060 A 
ATOM     42  C   UNL A   1      35.083  31.760  29.144  1.00  0.00     0.016 A 
ATOM     43  C   UNL A   1      36.511  33.727  28.903  1.00  0.00     0.016 A 
ATOM     44  C   UNL A   1      36.207  30.946  29.172  1.00  0.00     0.010 A 
ATOM     45  C   UNL A   1      37.637  32.916  28.928  1.00  0.00     0.010 A 
ATOM     46  C   UNL A   1      37.476  31.541  29.160  1.00  0.00    -0.014 A 
BRANCH  46  47
ATOM     47  C   UNL A   1      38.560  30.822  29.851  1.00  0.00     0.031 A 
ATOM     48  C   UNL A   1      38.735  31.148  31.312  1.00  0.00     0.074 A 
ATOM     49  C   UNL A   1      39.276  29.872  29.236  1.00  0.00     0.049 A 
ATOM     50  N   UNL A   1      39.607  30.700  32.171  1.00  0.00    -0.248 NA
ATOM     51  C   UNL A   1      37.783  32.120  31.885  1.00  0.00     0.031 C 
ATOM     52  C   UNL A   1      39.105  29.443  27.850  1.00  0.00     0.029 A 
ATOM     53  N   UNL A   1      40.291  29.090  29.715  1.00  0.00    -0.354 N 
ATOM     54  C   UNL A   1      39.310  31.340  33.368  1.00  0.00     0.074 A 
ATOM     55  C   UNL A   1      38.208  32.235  33.128  1.00  0.00     0.031 C 
ATOM     56  C   UNL A   1      39.991  28.465  27.589  1.00  0.00     0.029 A 
ATOM     57  C   UNL A   1      40.813  28.240  28.775  1.00  0.00     0.049 A 
ATOM     58  H   UNL A   1      40.614  29.133  30.645  1.00  0.00     0.167 HD
ATOM     59  C   UNL A   1      39.904  31.184  34.570  1.00  0.00     0.037 A 
ATOM     60  C   UNL A   1      41.860  27.399  28.879  1.00  0.00     0.037 A 
ATOM     61  C   UNL A   1      41.007  30.293  34.780  1.00  0.00     0.049 A 
ATOM     62  C   UNL A   1      42.573  27.314  30.206  1.00  0.00     0.074 A 
ATOM     63  C   UNL A   1      41.728  30.062  35.933  1.00  0.00     0.029 A 
ATOM     64  N   UNL A   1      41.551  29.485  33.788  1.00  0.00    -0.354 N 
ATOM     65  N   UNL A   1      42.306  27.933  31.334  1.00  0.00    -0.248 NA
ATOM     66  C   UNL A   1      43.732  26.418  30.276  1.00  0.00     0.031 C 
ATOM     67  C   UNL A   1      42.747  29.157  35.624  1.00  0.00     0.029 A 
ATOM     68  C   UNL A   1      42.618  28.772  34.297  1.00  0.00     0.049 A 
ATOM     69  H   UNL A   1      41.223  29.430  32.861  1.00  0.00     0.167 HD
ATOM     70  C   UNL A   1      43.243  27.481  32.253  1.00  0.00     0.074 A 
ATOM     71  C   UNL A   1      44.075  26.523  31.553  1.00  0.00     0.031 C 
ATOM     72  C   UNL A   1      43.410  27.821  33.558  1.00  0.00     0.037 A 
BRANCH  59  73
ATOM     73  C   UNL A   1      39.409  32.038  35.701  1.00  0.00     0.064 A 
ATOM     74  C   UNL A   1      39.902  33.333  35.931  1.00  0.00     0.173 A 
ATOM     75  C   UNL A   1      38.448  31.537  36.591  1.00  0.00     0.173 A 
ATOM     76  F   UNL A   1      40.850  33.847  35.131  1.00  0.00    -0.203 F 
ATOM     77  C   UNL A   1      39.473  34.081  37.025  1.00  0.00     0.198 A 
ATOM     78  C   UNL A   1      37.996  32.301  37.664  1.00  0.00     0.198 A 
ATOM     79  F   UNL A   1      37.956  30.300  36.428  1.00  0.00    -0.203 F 
ATOM     80  F   UNL A   1      40.004  35.288  37.260  1.00  0.00    -0.200 F 
ATOM     81  C   UNL A   1      38.514  33.568  37.885  1.00  0.00     0.200 A 
ATOM     82  F   UNL A   1      37.067  31.803  38.492  1.00  0.00    -0.200 F 
ATOM     83  F   UNL A   1      38.101  34.288  38.938  1.00  0.00    -0.200 F 
ENDBRANCH  59  73
BRANCH  60  84
ATOM     84  C   UNL A   1      42.306  26.609  27.701  1.00  0.00     0.064 A 
ATOM     85  C   UNL A   1      41.766  25.346  27.422  1.00  0.00     0.173 A 
ATOM     86  C   UNL A   1      43.297  27.096  26.835  1.00  0.00     0.173 A 
ATOM     87  F   UNL A   1      40.830  24.824  28.227  1.00  0.00    -0.203 F 
ATOM     88  C   UNL A   1      42.217  24.592  26.337  1.00  0.00     0.198 A 
ATOM     89  C   UNL A   1      43.724  26.357  25.733  1.00  0.00     0.198 A 
ATOM     90  F   UNL A   1      43.851  28.298  27.055  1.00  0.00    -0.203 F 
ATOM     91  F   UNL A   1      41.721  23.366  26.125  1.00  0.00    -0.200 F 
ATOM     92  C   UNL A   1      43.190  25.101  25.491  1.00  0.00     0.200 A 
ATOM     93  F   UNL A   1      44.655  26.860  24.912  1.00  0.00    -0.200 F 
ATOM     94  F   UNL A   1      43.622  24.378  24.449  1.00  0.00    -0.200 F 
ENDBRANCH  60  84
BRANCH  72  95
ATOM     95  C   UNL A   1      44.502  27.121  34.310  1.00  0.00     0.064 A 
ATOM     96  C   UNL A   1      45.782  27.678  34.441  1.00  0.00     0.173 A 
ATOM     97  C   UNL A   1      44.243  25.901  34.953  1.00  0.00     0.173 A 
ATOM     98  F   UNL A   1      46.080  28.838  33.836  1.00  0.00    -0.203 F 
ATOM     99  C   UNL A   1      46.774  27.021  35.163  1.00  0.00     0.198 A 
ATOM    100  C   UNL A   1      45.225  25.267  35.706  1.00  0.00     0.198 A 
ATOM    101  F   UNL A   1      43.028  25.336  34.868  1.00  0.00    -0.203 F 
ATOM    102  F   UNL A   1      48.007  27.542  35.229  1.00  0.00    -0.200 F 
ATOM    103  C   UNL A   1      46.491  25.822  35.801  1.00  0.00     0.200 A 
ATOM    104  F   UNL A   1      44.944  24.120  36.340  1.00  0.00    -0.200 F 
ATOM    105  F   UNL A   1      47.445  25.197  36.505  1.00  0.00    -0.200 F 
ENDBRANCH  72  95
ENDBRANCH  46  47
ENDBRANCH  39  41
ENDBRANCH  38  39
ENDBRANCH  37  38
ENDBRANCH  36  37
ENDBRANCH  35  36
ENDBRANCH   1  35
TORSDOF 20
ENDMDL
MODEL 2
REMARK VINA RESULT:     -12.4      4.270      9.909
REMARK SMILES CC(C)[C@H](NC(=O)[C@H](Cc1ccccc1)n1c(=O)[nH]c2ccccc2c1=O)C(=O)OCCOCCOC(=O)c1ccc(-c2c3nc(c(-c4c(F)c(F)c(F)c(F)c4F)c4ccc([nH]4)c(-c4c(F)c(F)c(F)c(F)c4F)c4nc(c(-c5c(F)c(F)c(F)c(F)c5F)c5ccc2[nH]5)C=C4)C=C3)cc1
REMARK SMILES IDX 32 1 31 2 30 3 28 4 29 5 4 6 2 7 1 8 3 9 5 10 6 11 7 13 8 14
REMARK SMILES IDX 16 15 17 16 26 17 18 18 19 19 25 20 27 21 20 22 24 24 21 25
REMARK SMILES IDX 23 26 22 27 9 28 10 29 11 30 15 31 12 32 14 33 13 34 33 35
REMARK SMILES IDX 34 36 35 37 36 38 37 39 38 40 39 41 40 42 101 43 41 44
REMARK SMILES IDX 100 45 42 46 43 47 44 48 94 49 45 50 99 51 93 52 95 53 46 54
REMARK SMILES IDX 98 55 92 56 91 57 47 59 79 60 59 61 78 62 60 63 63 64 77 65
REMARK SMILES IDX 96 66 61 67 62 68 76 70 97 71 64 72 48 73 49 74 57 75 50 76
REMARK SMILES IDX 51 77 55 78 58 79 52 80 53 81 56 82 54 83 80 84 81 85 89 86
REMARK SMILES IDX 82 87 83 88 87 89 90 90 84 91 85 92 88 93 86 94 65 95 66 96
REMARK SMILES IDX 74 97 67 98 68 99 72 100 75 101 69 102 70 103 73 104 71 105
REMARK H PARENT 5 12 19 23 95 58 63 69
REMARK Flexibility Score: inf
ROOT
ATOM      1  C   UNL A   1      37.024  21.370  24.714  1.00  0.00     0.202 C 
ENDROOT
BRANCH   1   2
ATOM      2  C   UNL A   1      37.026  22.857  24.310  1.00  0.00     0.261 C 
BRANCH   2   3
ATOM      3  O   UNL A   1      35.692  23.262  24.003  1.00  0.00    -0.462 OA
BRANCH   3   4
ATOM      4  C   UNL A   1      34.955  23.686  25.072  1.00  0.00     0.328 C 
ATOM      5  O   UNL A   1      35.432  24.070  26.132  1.00  0.00    -0.250 OA
BRANCH   4   6
ATOM      6  C   UNL A   1      33.451  23.721  24.718  1.00  0.00     0.194 C 
BRANCH   6   7
ATOM      7  C   UNL A   1      32.793  22.345  24.975  1.00  0.00     0.017 C 
ATOM      8  C   UNL A   1      31.439  22.567  25.671  1.00  0.00     0.010 C 
ATOM      9  C   UNL A   1      32.559  21.491  23.724  1.00  0.00     0.010 C 
ENDBRANCH   6   7
BRANCH   6  10
ATOM     10  N   UNL A   1      33.319  24.230  23.356  1.00  0.00    -0.341 N 
ATOM     11  C   UNL A   1      33.057  25.503  22.937  1.00  0.00     0.244 C 
ATOM     12  H   UNL A   1      33.436  23.563  22.641  1.00  0.00     0.164 HD
ATOM     13  O   UNL A   1      33.118  25.662  21.708  1.00  0.00    -0.273 OA
BRANCH  11  14
ATOM     14  C   UNL A   1      32.556  26.675  23.865  1.00  0.00     0.189 C 
BRANCH  14  15
ATOM     15  N   UNL A   1      31.243  27.053  23.364  1.00  0.00    -0.247 N 
ATOM     16  C   UNL A   1      30.197  26.163  23.503  1.00  0.00     0.329 A 
ATOM     17  C   UNL A   1      31.125  28.282  22.728  1.00  0.00     0.264 A 
ATOM     18  O   UNL A   1      30.316  24.966  23.754  1.00  0.00    -0.248 OA
ATOM     19  N   UNL A   1      28.949  26.697  23.421  1.00  0.00    -0.307 N 
ATOM     20  C   UNL A   1      29.770  28.834  22.691  1.00  0.00     0.064 A 
ATOM     21  O   UNL A   1      32.054  28.960  22.297  1.00  0.00    -0.268 OA
ATOM     22  C   UNL A   1      28.726  28.042  23.156  1.00  0.00     0.055 A 
ATOM     23  H   UNL A   1      28.172  26.107  23.556  1.00  0.00     0.171 HD
ATOM     24  C   UNL A   1      29.562  30.169  22.347  1.00  0.00     0.016 A 
ATOM     25  C   UNL A   1      27.479  28.601  23.386  1.00  0.00     0.027 A 
ATOM     26  C   UNL A   1      28.312  30.732  22.576  1.00  0.00     0.001 A 
ATOM     27  C   UNL A   1      27.286  29.960  23.127  1.00  0.00     0.002 A 
ENDBRANCH  14  15
BRANCH  14  28
ATOM     28  C   UNL A   1      32.627  26.662  25.421  1.00  0.00     0.071 C 
BRANCH  28  29
ATOM     29  C   UNL A   1      32.787  27.938  26.274  1.00  0.00    -0.045 A 
ATOM     30  C   UNL A   1      31.779  28.913  26.390  1.00  0.00     0.004 A 
ATOM     31  C   UNL A   1      34.058  28.302  26.741  1.00  0.00     0.004 A 
ATOM     32  C   UNL A   1      32.032  30.206  26.869  1.00  0.00     0.000 A 
ATOM     33  C   UNL A   1      34.317  29.594  27.229  1.00  0.00     0.000 A 
ATOM     34  C   UNL A   1      33.311  30.554  27.273  1.00  0.00     0.000 A 
ENDBRANCH  28  29
ENDBRANCH  14  28
ENDBRANCH  11  14
ENDBRANCH   6  10
ENDBRANCH   4   6
ENDBRANCH   3   4
ENDBRANCH   2   3
ENDBRANCH   1   2
BRANCH   1  35
ATOM     35  O   UNL A   1      38.226  20.952  25.343  1.00  0.00    -0.374 OA
BRANCH  35  36
ATOM     36  C   UNL A   1      38.558  19.547  25.358  1.00  0.00     0.202 C 
BRANCH  36  37
ATOM     37  C   UNL A   1      39.998  19.211  25.749  1.00  0.00     0.261 C 
BRANCH  37  38
ATOM     38  O   UNL A   1      40.473  20.115  26.752  1.00  0.00    -0.460 OA
BRANCH  38  39
ATOM     39  C   UNL A   1      41.687  20.658  26.473  1.00  0.00     0.338 C 
ATOM     40  O   UNL A   1      42.506  20.267  25.677  1.00  0.00    -0.246 OA
BRANCH  39  41
ATOM     41  C   UNL A   1      41.656  22.022  27.043  1.00  0.00     0.060 A 
ATOM     42  C   UNL A   1      40.796  22.954  26.440  1.00  0.00     0.016 A 
ATOM     43  C   UNL A   1      42.303  22.316  28.253  1.00  0.00     0.016 A 
ATOM     44  C   UNL A   1      40.667  24.221  26.992  1.00  0.00     0.010 A 
ATOM     45  C   UNL A   1      42.176  23.581  28.807  1.00  0.00     0.010 A 
ATOM     46  C   UNL A   1      41.435  24.552  28.117  1.00  0.00    -0.014 A 
BRANCH  46  47
ATOM     47  C   UNL A   1      41.827  25.964  28.268  1.00  0.00     0.031 A 
ATOM     48  C   UNL A   1      43.162  26.339  27.680  1.00  0.00     0.074 A 
ATOM     49  C   UNL A   1      41.002  26.868  28.812  1.00  0.00     0.049 A 
ATOM     50  N   UNL A   1      43.783  27.486  27.676  1.00  0.00    -0.248 NA
ATOM     51  C   UNL A   1      43.902  25.262  26.993  1.00  0.00     0.031 C 
ATOM     52  C   UNL A   1      39.661  26.594  29.324  1.00  0.00     0.029 A 
ATOM     53  N   UNL A   1      41.178  28.209  29.011  1.00  0.00    -0.354 N 
ATOM     54  C   UNL A   1      44.976  27.259  27.000  1.00  0.00     0.074 A 
ATOM     55  C   UNL A   1      45.020  25.866  26.639  1.00  0.00     0.031 C 
ATOM     56  C   UNL A   1      39.131  27.742  29.782  1.00  0.00     0.029 A 
ATOM     57  C   UNL A   1      40.115  28.812  29.632  1.00  0.00     0.049 A 
ATOM     58  H   UNL A   1      41.990  28.694  28.735  1.00  0.00     0.167 HD
ATOM     59  C   UNL A   1      45.948  28.145  26.697  1.00  0.00     0.037 A 
ATOM     60  C   UNL A   1      39.986  30.085  30.049  1.00  0.00     0.037 A 
ATOM     61  C   UNL A   1      45.883  29.526  27.077  1.00  0.00     0.049 A 
ATOM     62  C   UNL A   1      41.128  31.037  29.788  1.00  0.00     0.074 A 
ATOM     63  C   UNL A   1      46.810  30.527  26.869  1.00  0.00     0.029 A 
ATOM     64  N   UNL A   1      44.812  30.094  27.758  1.00  0.00    -0.354 N 
ATOM     65  N   UNL A   1      42.265  30.819  29.167  1.00  0.00    -0.248 NA
ATOM     66  C   UNL A   1      40.973  32.407  30.288  1.00  0.00     0.031 C 
ATOM     67  C   UNL A   1      46.327  31.688  27.479  1.00  0.00     0.029 A 
ATOM     68  C   UNL A   1      45.068  31.429  28.004  1.00  0.00     0.049 A 
ATOM     69  H   UNL A   1      43.995  29.615  28.026  1.00  0.00     0.167 HD
ATOM     70  C   UNL A   1      42.946  32.029  29.175  1.00  0.00     0.074 A 
ATOM     71  C   UNL A   1      42.085  32.980  29.850  1.00  0.00     0.031 C 
ATOM     72  C   UNL A   1      44.171  32.336  28.675  1.00  0.00     0.037 A 
BRANCH  59  73
ATOM     73  C   UNL A   1      47.163  27.622  25.989  1.00  0.00     0.064 A 
ATOM     74  C   UNL A   1      48.320  27.228  26.681  1.00  0.00     0.173 A 
ATOM     75  C   UNL A   1      47.182  27.546  24.589  1.00  0.00     0.173 A 
ATOM     76  F   UNL A   1      48.369  27.316  28.020  1.00  0.00    -0.203 F 
ATOM     77  C   UNL A   1      49.458  26.806  25.997  1.00  0.00     0.198 A 
ATOM     78  C   UNL A   1      48.309  27.092  23.909  1.00  0.00     0.198 A 
ATOM     79  F   UNL A   1      46.110  27.926  23.877  1.00  0.00    -0.203 F 
ATOM     80  F   UNL A   1      50.571  26.496  26.675  1.00  0.00    -0.200 F 
ATOM     81  C   UNL A   1      49.448  26.730  24.612  1.00  0.00     0.200 A 
ATOM     82  F   UNL A   1      48.296  27.017  22.571  1.00  0.00    -0.200 F 
ATOM     83  F   UNL A   1      50.543  26.324  23.954  1.00  0.00    -0.200 F 
ENDBRANCH  59  73
BRANCH  60  84
ATOM     84  C   UNL A   1      38.760  30.517  30.771  1.00  0.00     0.064 A 
ATOM     85  C   UNL A   1      37.631  30.981  30.081  1.00  0.00     0.173 A 
ATOM     86  C   UNL A   1      38.697  30.490  32.173  1.00  0.00     0.173 A 
ATOM     87  F   UNL A   1      37.643  31.046  28.742  1.00  0.00    -0.203 F 
ATOM     88  C   UNL A   1      36.497  31.421  30.765  1.00  0.00     0.198 A 
ATOM     89  C   UNL A   1      37.553  30.900  32.855  1.00  0.00     0.198 A 
ATOM     90  F   UNL A   1      39.749  30.059  32.885  1.00  0.00    -0.203 F 
ATOM     91  F   UNL A   1      35.453  31.908  30.082  1.00  0.00    -0.200 F 
ATOM     92  C   UNL A   1      36.457  31.374  32.151  1.00  0.00     0.200 A 
ATOM     93  F   UNL A   1      37.515  30.839  34.192  1.00  0.00    -0.200 F 
ATOM     94  F   UNL A   1      35.368  31.796  32.807  1.00  0.00    -0.200 F 
ENDBRANCH  60  84
BRANCH  72  95
ATOM     95  C   UNL A   1      44.623  33.760  28.804  1.00  0.00     0.064 A 
ATOM     96  C   UNL A   1      44.310  34.724  27.835  1.00  0.00     0.173 A 
ATOM     97  C   UNL A   1      45.329  34.174  29.943  1.00  0.00     0.173 A 
ATOM     98  F   UNL A   1      43.644  34.374  26.724  1.00  0.00    -0.203 F 
ATOM     99  C   UNL A   1      44.720  36.045  27.986  1.00  0.00     0.198 A 
ATOM    100  C   UNL A   1      45.703  35.503  30.110  1.00  0.00     0.198 A 
ATOM    101  F   UNL A   1      45.638  33.290  30.906  1.00  0.00    -0.203 F 
ATOM    102  F   UNL A   1      44.461  36.939  27.022  1.00  0.00    -0.200 F 
ATOM    103  C   UNL A   1      45.407  36.434  29.127  1.00  0.00     0.200 A 
ATOM    104  F   UNL A   1      46.347  35.881  31.222  1.00  0.00    -0.200 F 
ATOM    105  F   UNL A   1      45.791  37.710  29.276  1.00  0.00    -0.200 F 
ENDBRANCH  72  95
ENDBRANCH  46  47
ENDBRANCH  39  41
ENDBRANCH  38  39
ENDBRANCH  37  38
ENDBRANCH  36  37
ENDBRANCH  35  36
ENDBRANCH   1  35
TORSDOF 20
ENDMDL
MODEL 3
REMARK VINA RESULT:     -12.3      4.349      7.138
REMARK SMILES CC(C)[C@H](NC(=O)[C@H](Cc1ccccc1)n1c(=O)[nH]c2ccccc2c1=O)C(=O)OCCOCCOC(=O)c1ccc(-c2c3nc(c(-c4c(F)c(F)c(F)c(F)c4F)c4ccc([nH]4)c(-c4c(F)c(F)c(F)c(F)c4F)c4nc(c(-c5c(F)c(F)c(F)c(F)c5F)c5ccc2[nH]5)C=C4)C=C3)cc1
REMARK SMILES IDX 32 1 31 2 30 3 28 4 29 5 4 6 2 7 1 8 3 9 5 10 6 11 7 13 8 14
REMARK SMILES IDX 16 15 17 16 26 17 18 18 19 19 25 20 27 21 20 22 24 24 21 25
REMARK SMILES IDX 23 26 22 27 9 28 10 29 11 30 15 31 12 32 14 33 13 34 33 35
REMARK SMILES IDX 34 36 35 37 36 38 37 39 38 40 39 41 40 42 101 43 41 44
REMARK SMILES IDX 100 45 42 46 43 47 44 48 94 49 45 50 99 51 93 52 95 53 46 54
REMARK SMILES IDX 98 55 92 56 91 57 47 59 79 60 59 61 78 62 60 63 63 64 77 65
REMARK SMILES IDX 96 66 61 67 62 68 76 70 97 71 64 72 48 73 49 74 57 75 50 76
REMARK SMILES IDX 51 77 55 78 58 79 52 80 53 81 56 82 54 83 80 84 81 85 89 86
REMARK SMILES IDX 82 87 83 88 87 89 90 90 84 91 85 92 88 93 86 94 65 95 66 96
REMARK SMILES IDX 74 97 67 98 68 99 72 100 75 101 69 102 70 103 73 104 71 105
REMARK H PARENT 5 12 19 23 95 58 63 69
REMARK Flexibility Score: inf
ROOT
ATOM      1  C   UNL A   1      34.072  22.501  27.614  1.00  0.00     0.202 C 
ENDROOT
BRANCH   1   2
ATOM      2  C   UNL A   1      33.070  23.414  26.884  1.00  0.00     0.261 C 
BRANCH   2   3
ATOM      3  O   UNL A   1      31.883  23.533  27.669  1.00  0.00    -0.462 OA
BRANCH   3   4
ATOM      4  C   UNL A   1      30.746  23.803  26.964  1.00  0.00     0.328 C 
ATOM      5  O   UNL A   1      29.622  23.463  27.307  1.00  0.00    -0.250 OA
BRANCH   4   6
ATOM      6  C   UNL A   1      31.061  24.691  25.738  1.00  0.00     0.194 C 
BRANCH   6   7
ATOM      7  C   UNL A   1      30.670  26.163  26.010  1.00  0.00     0.017 C 
ATOM      8  C   UNL A   1      31.836  26.859  26.732  1.00  0.00     0.010 C 
ATOM      9  C   UNL A   1      30.313  26.982  24.766  1.00  0.00     0.010 C 
ENDBRANCH   6   7
BRANCH   6  10
ATOM     10  N   UNL A   1      30.433  24.086  24.568  1.00  0.00    -0.341 N 
ATOM     11  C   UNL A   1      30.883  23.061  23.786  1.00  0.00     0.244 C 
ATOM     12  H   UNL A   1      29.564  24.469  24.307  1.00  0.00     0.164 HD
ATOM     13  O   UNL A   1      30.075  22.680  22.924  1.00  0.00    -0.273 OA
BRANCH  11  14
ATOM     14  C   UNL A   1      32.347  22.475  23.817  1.00  0.00     0.189 C 
BRANCH  14  15
ATOM     15  N   UNL A   1      32.212  21.043  23.596  1.00  0.00    -0.247 N 
ATOM     16  C   UNL A   1      32.147  20.573  22.300  1.00  0.00     0.329 A 
ATOM     17  C   UNL A   1      32.111  20.225  24.714  1.00  0.00     0.264 A 
ATOM     18  O   UNL A   1      31.907  21.260  21.310  1.00  0.00    -0.248 OA
ATOM     19  N   UNL A   1      32.447  19.257  22.130  1.00  0.00    -0.307 N 
ATOM     20  C   UNL A   1      32.473  18.823  24.494  1.00  0.00     0.064 A 
ATOM     21  O   UNL A   1      31.845  20.597  25.854  1.00  0.00    -0.268 OA
ATOM     22  C   UNL A   1      32.744  18.413  23.193  1.00  0.00     0.055 A 
ATOM     23  H   UNL A   1      32.454  18.887  21.217  1.00  0.00     0.171 HD
ATOM     24  C   UNL A   1      32.692  17.974  25.576  1.00  0.00     0.016 A 
ATOM     25  C   UNL A   1      33.338  17.183  22.961  1.00  0.00     0.027 A 
ATOM     26  C   UNL A   1      33.288  16.738  25.347  1.00  0.00     0.001 A 
ATOM     27  C   UNL A   1      33.641  16.361  24.049  1.00  0.00     0.002 A 
ENDBRANCH  14  15
BRANCH  14  28
ATOM     28  C   UNL A   1      33.560  23.090  23.058  1.00  0.00     0.071 C 
BRANCH  28  29
ATOM     29  C   UNL A   1      33.768  24.609  22.883  1.00  0.00    -0.045 A 
ATOM     30  C   UNL A   1      34.204  25.448  23.925  1.00  0.00     0.004 A 
ATOM     31  C   UNL A   1      33.259  25.250  21.743  1.00  0.00     0.004 A 
ATOM     32  C   UNL A   1      34.071  26.843  23.876  1.00  0.00     0.000 A 
ATOM     33  C   UNL A   1      33.129  26.647  21.685  1.00  0.00     0.000 A 
ATOM     34  C   UNL A   1      33.514  27.444  22.759  1.00  0.00     0.000 A 
ENDBRANCH  28  29
ENDBRANCH  14  28
ENDBRANCH  11  14
ENDBRANCH   6  10
ENDBRANCH   4   6
ENDBRANCH   3   4
ENDBRANCH   2   3
ENDBRANCH   1   2
BRANCH   1  35
ATOM     35  O   UNL A   1      34.771  21.620  26.747  1.00  0.00    -0.374 OA
BRANCH  35  36
ATOM     36  C   UNL A   1      35.766  22.161  25.850  1.00  0.00     0.202 C 
BRANCH  36  37
ATOM     37  C   UNL A   1      36.896  21.207  25.462  1.00  0.00     0.261 C 
BRANCH  37  38
ATOM     38  O   UNL A   1      38.112  21.928  25.242  1.00  0.00    -0.460 OA
BRANCH  38  39
ATOM     39  C   UNL A   1      39.146  21.514  26.021  1.00  0.00     0.338 C 
ATOM     40  O   UNL A   1      39.732  20.459  25.973  1.00  0.00    -0.246 OA
BRANCH  39  41
ATOM     41  C   UNL A   1      39.667  22.733  26.676  1.00  0.00     0.060 A 
ATOM     42  C   UNL A   1      38.961  23.929  26.468  1.00  0.00     0.016 A 
ATOM     43  C   UNL A   1      40.700  22.661  27.623  1.00  0.00     0.016 A 
ATOM     44  C   UNL A   1      39.360  25.082  27.130  1.00  0.00     0.010 A 
ATOM     45  C   UNL A   1      41.102  23.812  28.287  1.00  0.00     0.010 A 
ATOM     46  C   UNL A   1      40.489  25.031  27.960  1.00  0.00    -0.014 A 
BRANCH  46  47
ATOM     47  C   UNL A   1      41.285  26.264  28.085  1.00  0.00     0.031 A 
ATOM     48  C   UNL A   1      40.633  27.390  28.845  1.00  0.00     0.074 A 
ATOM     49  C   UNL A   1      42.542  26.337  27.630  1.00  0.00     0.049 A 
ATOM     50  N   UNL A   1      41.071  28.592  29.098  1.00  0.00    -0.248 NA
ATOM     51  C   UNL A   1      39.294  27.116  29.402  1.00  0.00     0.031 C 
ATOM     52  C   UNL A   1      43.267  25.259  26.962  1.00  0.00     0.029 A 
ATOM     53  N   UNL A   1      43.433  27.373  27.676  1.00  0.00    -0.354 N 
ATOM     54  C   UNL A   1      40.061  29.207  29.829  1.00  0.00     0.074 A 
ATOM     55  C   UNL A   1      38.973  28.272  29.952  1.00  0.00     0.031 C 
ATOM     56  C   UNL A   1      44.504  25.694  26.659  1.00  0.00     0.029 A 
ATOM     57  C   UNL A   1      44.631  27.089  27.074  1.00  0.00     0.049 A 
ATOM     58  H   UNL A   1      43.234  28.239  28.102  1.00  0.00     0.167 HD
ATOM     59  C   UNL A   1      40.050  30.447  30.362  1.00  0.00     0.037 A 
ATOM     60  C   UNL A   1      45.691  27.894  26.868  1.00  0.00     0.037 A 
ATOM     61  C   UNL A   1      41.144  31.362  30.217  1.00  0.00     0.049 A 
ATOM     62  C   UNL A   1      45.617  29.309  27.387  1.00  0.00     0.074 A 
ATOM     63  C   UNL A   1      41.254  32.660  30.672  1.00  0.00     0.029 A 
ATOM     64  N   UNL A   1      42.325  31.060  29.549  1.00  0.00    -0.354 N 
ATOM     65  N   UNL A   1      44.656  29.898  28.062  1.00  0.00    -0.248 NA
ATOM     66  C   UNL A   1      46.772  30.173  27.114  1.00  0.00     0.031 C 
ATOM     67  C   UNL A   1      42.480  33.165  30.227  1.00  0.00     0.029 A 
ATOM     68  C   UNL A   1      43.161  32.160  29.556  1.00  0.00     0.049 A 
ATOM     69  H   UNL A   1      42.533  30.193  29.132  1.00  0.00     0.167 HD
ATOM     70  C   UNL A   1      45.100  31.188  28.319  1.00  0.00     0.074 A 
ATOM     71  C   UNL A   1      46.425  31.289  27.740  1.00  0.00     0.031 C 
ATOM     72  C   UNL A   1      44.478  32.204  28.971  1.00  0.00     0.037 A 
BRANCH  59  73
ATOM     73  C   UNL A   1      38.804  30.880  31.078  1.00  0.00     0.064 A 
ATOM     74  C   UNL A   1      37.716  31.457  30.402  1.00  0.00     0.173 A 
ATOM     75  C   UNL A   1      38.711  30.746  32.471  1.00  0.00     0.173 A 
ATOM     76  F   UNL A   1      37.768  31.642  29.073  1.00  0.00    -0.203 F 
ATOM     77  C   UNL A   1      36.597  31.909  31.097  1.00  0.00     0.198 A 
ATOM     78  C   UNL A   1      37.577  31.168  33.159  1.00  0.00     0.198 A 
ATOM     79  F   UNL A   1      39.727  30.217  33.168  1.00  0.00    -0.203 F 
ATOM     80  F   UNL A   1      35.600  32.514  30.438  1.00  0.00    -0.200 F 
ATOM     81  C   UNL A   1      36.525  31.757  32.473  1.00  0.00     0.200 A 
ATOM     82  F   UNL A   1      37.508  31.017  34.489  1.00  0.00    -0.200 F 
ATOM     83  F   UNL A   1      35.448  32.192  33.141  1.00  0.00    -0.200 F 
ENDBRANCH  59  73
BRANCH  60  84
ATOM     84  C   UNL A   1      46.877  27.396  26.123  1.00  0.00     0.064 A 
ATOM     85  C   UNL A   1      47.916  26.714  26.774  1.00  0.00     0.173 A 
ATOM     86  C   UNL A   1      47.006  27.606  24.742  1.00  0.00     0.173 A 
ATOM     87  F   UNL A   1      47.854  26.504  28.097  1.00  0.00    -0.203 F 
ATOM     88  C   UNL A   1      49.044  26.284  26.076  1.00  0.00     0.198 A 
ATOM     89  C   UNL A   1      48.119  27.146  24.039  1.00  0.00     0.198 A 
ATOM     90  F   UNL A   1      46.044  28.254  24.068  1.00  0.00    -0.203 F 
ATOM     91  F   UNL A   1      50.045  25.682  26.733  1.00  0.00    -0.200 F 
ATOM     92  C   UNL A   1      49.142  26.494  24.709  1.00  0.00     0.200 A 
ATOM     93  F   UNL A   1      48.201  27.341  22.716  1.00  0.00    -0.200 F 
ATOM     94  F   UNL A   1      50.226  26.080  24.040  1.00  0.00    -0.200 F 
ENDBRANCH  60  84
BRANCH  72  95
ATOM     95  C   UNL A   1      45.243  33.485  29.124  1.00  0.00     0.064 A 
ATOM     96  C   UNL A   1      45.113  34.536  28.205  1.00  0.00     0.173 A 
ATOM     97  C   UNL A   1      46.073  33.679  30.237  1.00  0.00     0.173 A 
ATOM     98  F   UNL A   1      44.337  34.394  27.120  1.00  0.00    -0.203 F 
ATOM     99  C   UNL A   1      45.815  35.725  28.380  1.00  0.00     0.198 A 
ATOM    100  C   UNL A   1      46.743  34.883  30.429  1.00  0.00     0.198 A 
ATOM    101  F   UNL A   1      46.218  32.707  31.152  1.00  0.00    -0.203 F 
ATOM    102  F   UNL A   1      45.721  36.696  27.462  1.00  0.00    -0.200 F 
ATOM    103  C   UNL A   1      46.621  35.899  29.496  1.00  0.00     0.200 A 
ATOM    104  F   UNL A   1      47.504  35.058  31.518  1.00  0.00    -0.200 F 
ATOM    105  F   UNL A   1      47.287  37.050  29.667  1.00  0.00    -0.200 F 
ENDBRANCH  72  95
ENDBRANCH  46  47
ENDBRANCH  39  41
ENDBRANCH  38  39
ENDBRANCH  37  38
ENDBRANCH  36  37
ENDBRANCH  35  36
ENDBRANCH   1  35
TORSDOF 20
ENDMDL
