MODEL 1
REMARK VINA RESULT:     -12.9      0.000      0.000
REMARK SMILES Cc1ccccc1C(=O)Nc1cc(NC(=O)c2ccccc2C)cc(C(=O)OCCOCCOC(=O)c2ccc(-c3c4nc(c(-c5c(F)c(F)c(F)c(F)c5F)c5ccc([nH]5)c(-c5c(F)c(F)c(F)c(F)c5F)c5nc(c(-c6c(F)c(F)c(F)c(F)c6F)c6ccc3[nH]6)C=C5)C=C4)cc2)c1
REMARK SMILES IDX 31 1 30 2 29 3 28 4 26 5 27 6 25 7 11 8 12 9 100 10 13 11
REMARK SMILES IDX 24 12 10 13 8 14 9 15 7 17 1 18 2 19 3 20 4 21 6 22 5 23
REMARK SMILES IDX 14 24 15 25 16 27 17 28 18 29 22 30 19 31 21 32 23 33 20 34
REMARK SMILES IDX 32 35 33 36 34 37 35 38 36 39 37 40 38 41 99 42 39 43 98 44
REMARK SMILES IDX 40 45 41 46 42 47 92 48 43 49 97 50 91 51 93 52 44 53 96 54
REMARK SMILES IDX 90 55 89 56 45 58 77 59 57 60 76 61 58 62 61 63 75 64 94 65
REMARK SMILES IDX 59 66 60 67 74 69 95 70 62 71 46 72 47 73 55 74 48 75 49 76
REMARK SMILES IDX 53 77 56 78 50 79 51 80 54 81 52 82 78 83 79 84 87 85 80 86
REMARK SMILES IDX 81 87 85 88 88 89 82 90 83 91 86 92 84 93 63 94 64 95 72 96
REMARK SMILES IDX 65 97 66 98 70 99 73 100 67 101 68 102 71 103 69 104
REMARK H PARENT 10 16 14 26 93 57 61 68
REMARK Flexibility Score: inf
ROOT
ATOM      1  O   UNL A   1      40.169  19.320  25.706  1.00  0.00    -0.374 OA
ENDROOT
BRANCH   1   2
ATOM      2  C   UNL A   1      39.245  20.392  25.725  1.00  0.00     0.202 C 
BRANCH   2   3
ATOM      3  C   UNL A   1      38.118  20.034  24.776  1.00  0.00     0.261 C 
BRANCH   3   4
ATOM      4  O   UNL A   1      36.797  20.260  25.301  1.00  0.00    -0.460 OA
BRANCH   4   5
ATOM      5  C   UNL A   1      36.311  21.520  25.438  1.00  0.00     0.338 C 
ATOM      6  O   UNL A   1      36.920  22.527  25.740  1.00  0.00    -0.246 OA
BRANCH   5   7
ATOM      7  C   UNL A   1      34.850  21.454  25.288  1.00  0.00     0.064 A 
ATOM      8  C   UNL A   1      32.940  20.606  24.126  1.00  0.00     0.044 A 
ATOM      9  C   UNL A   1      32.116  21.508  24.818  1.00  0.00     0.052 A 
ATOM     10  C   UNL A   1      34.293  20.503  24.440  1.00  0.00     0.042 A 
ATOM     11  C   UNL A   1      32.674  22.399  25.735  1.00  0.00     0.044 A 
ATOM     12  C   UNL A   1      34.044  22.401  25.922  1.00  0.00     0.042 A 
BRANCH   8  13
ATOM     13  N   UNL A   1      32.521  19.892  22.996  1.00  0.00    -0.322 N 
ATOM     14  C   UNL A   1      32.470  18.527  22.801  1.00  0.00     0.255 C 
ATOM     15  O   UNL A   1      32.104  18.097  21.707  1.00  0.00    -0.269 OA
ATOM     16  H   UNL A   1      32.222  20.441  22.235  1.00  0.00     0.170 HD
BRANCH  14  17
ATOM     17  C   UNL A   1      32.809  17.553  23.877  1.00  0.00     0.043 A 
ATOM     18  C   UNL A   1      34.834  16.438  22.712  1.00  0.00     0.045 C 
ATOM     19  C   UNL A   1      33.815  16.565  23.810  1.00  0.00    -0.038 A 
ATOM     20  C   UNL A   1      33.917  15.638  24.865  1.00  0.00     0.004 A 
ATOM     21  C   UNL A   1      33.130  15.761  26.009  1.00  0.00     0.000 A 
ATOM     22  C   UNL A   1      32.061  17.698  25.058  1.00  0.00     0.014 A 
ATOM     23  C   UNL A   1      32.231  16.814  26.123  1.00  0.00     0.001 A 
ENDBRANCH  14  17
ENDBRANCH   8  13
BRANCH  11  24
ATOM     24  N   UNL A   1      31.979  23.363  26.475  1.00  0.00    -0.322 N 
ATOM     25  C   UNL A   1      31.711  24.678  26.207  1.00  0.00     0.255 C 
ATOM     26  H   UNL A   1      31.623  23.040  27.334  1.00  0.00     0.170 HD
ATOM     27  O   UNL A   1      31.212  25.392  27.073  1.00  0.00    -0.269 OA
BRANCH  25  28
ATOM     28  C   UNL A   1      31.952  25.225  24.860  1.00  0.00     0.043 A 
ATOM     29  C   UNL A   1      30.888  25.092  23.959  1.00  0.00     0.014 A 
ATOM     30  C   UNL A   1      33.157  25.850  24.475  1.00  0.00    -0.038 A 
ATOM     31  C   UNL A   1      30.984  25.645  22.687  1.00  0.00     0.001 A 
ATOM     32  C   UNL A   1      33.218  26.425  23.198  1.00  0.00     0.004 A 
ATOM     33  C   UNL A   1      34.371  25.963  25.357  1.00  0.00     0.045 C 
ATOM     34  C   UNL A   1      32.140  26.328  22.315  1.00  0.00     0.000 A 
ENDBRANCH  25  28
ENDBRANCH  11  24
ENDBRANCH   5   7
ENDBRANCH   4   5
ENDBRANCH   3   4
ENDBRANCH   2   3
ENDBRANCH   1   2
BRANCH   1  35
ATOM     35  C   UNL A   1      41.282  19.439  26.576  1.00  0.00     0.202 C 
BRANCH  35  36
ATOM     36  C   UNL A   1      42.570  18.913  25.933  1.00  0.00     0.261 C 
BRANCH  36  37
ATOM     37  O   UNL A   1      43.035  19.859  24.947  1.00  0.00    -0.460 OA
BRANCH  37  38
ATOM     38  C   UNL A   1      43.955  20.759  25.391  1.00  0.00     0.338 C 
ATOM     39  O   UNL A   1      45.128  20.509  25.627  1.00  0.00    -0.246 OA
BRANCH  38  40
ATOM     40  C   UNL A   1      43.275  22.017  25.815  1.00  0.00     0.060 A 
ATOM     41  C   UNL A   1      43.079  23.060  24.889  1.00  0.00     0.016 A 
ATOM     42  C   UNL A   1      43.135  22.270  27.175  1.00  0.00     0.016 A 
ATOM     43  C   UNL A   1      42.896  24.382  25.335  1.00  0.00     0.010 A 
ATOM     44  C   UNL A   1      43.049  23.579  27.604  1.00  0.00     0.010 A 
ATOM     45  C   UNL A   1      42.954  24.652  26.701  1.00  0.00    -0.014 A 
BRANCH  45  46
ATOM     46  C   UNL A   1      43.048  25.981  27.325  1.00  0.00     0.031 A 
ATOM     47  C   UNL A   1      41.814  26.757  27.622  1.00  0.00     0.074 A 
ATOM     48  C   UNL A   1      44.191  26.376  27.937  1.00  0.00     0.049 A 
ATOM     49  N   UNL A   1      41.809  27.990  28.015  1.00  0.00    -0.248 NA
ATOM     50  C   UNL A   1      40.469  26.224  27.462  1.00  0.00     0.031 C 
ATOM     51  C   UNL A   1      44.281  27.235  29.121  1.00  0.00     0.029 A 
ATOM     52  N   UNL A   1      45.524  26.058  27.658  1.00  0.00    -0.354 N 
ATOM     53  C   UNL A   1      40.551  28.274  28.500  1.00  0.00     0.074 A 
ATOM     54  C   UNL A   1      39.732  27.196  28.004  1.00  0.00     0.031 C 
ATOM     55  C   UNL A   1      45.560  27.561  29.347  1.00  0.00     0.029 A 
ATOM     56  C   UNL A   1      46.337  27.054  28.237  1.00  0.00     0.049 A 
ATOM     57  H   UNL A   1      45.839  25.275  27.148  1.00  0.00     0.167 HD
ATOM     58  C   UNL A   1      40.404  29.310  29.381  1.00  0.00     0.037 A 
ATOM     59  C   UNL A   1      47.243  27.765  27.509  1.00  0.00     0.037 A 
ATOM     60  C   UNL A   1      41.688  29.999  29.601  1.00  0.00     0.049 A 
ATOM     61  C   UNL A   1      46.906  29.228  27.485  1.00  0.00     0.074 A 
ATOM     62  C   UNL A   1      42.562  30.042  30.677  1.00  0.00     0.029 A 
ATOM     63  N   UNL A   1      42.364  30.585  28.529  1.00  0.00    -0.354 N 
ATOM     64  N   UNL A   1      45.732  29.667  27.841  1.00  0.00    -0.248 NA
ATOM     65  C   UNL A   1      47.801  30.306  27.082  1.00  0.00     0.031 C 
ATOM     66  C   UNL A   1      43.766  30.654  30.246  1.00  0.00     0.029 A 
ATOM     67  C   UNL A   1      43.627  30.997  28.909  1.00  0.00     0.049 A 
ATOM     68  H   UNL A   1      41.991  30.691  27.624  1.00  0.00     0.167 HD
ATOM     69  C   UNL A   1      45.679  31.018  27.708  1.00  0.00     0.074 A 
ATOM     70  C   UNL A   1      47.000  31.380  27.229  1.00  0.00     0.031 C 
ATOM     71  C   UNL A   1      44.526  31.690  27.988  1.00  0.00     0.037 A 
BRANCH  58  72
ATOM     72  C   UNL A   1      39.184  29.587  30.265  1.00  0.00     0.064 A 
ATOM     73  C   UNL A   1      38.464  30.801  30.131  1.00  0.00     0.173 A 
ATOM     74  C   UNL A   1      38.686  28.752  31.285  1.00  0.00     0.173 A 
ATOM     75  F   UNL A   1      38.731  31.672  29.150  1.00  0.00    -0.203 F 
ATOM     76  C   UNL A   1      37.421  31.173  30.991  1.00  0.00     0.198 A 
ATOM     77  C   UNL A   1      37.653  29.128  32.155  1.00  0.00     0.198 A 
ATOM     78  F   UNL A   1      39.124  27.510  31.473  1.00  0.00    -0.203 F 
ATOM     79  F   UNL A   1      36.800  32.348  30.814  1.00  0.00    -0.200 F 
ATOM     80  C   UNL A   1      37.027  30.343  32.016  1.00  0.00     0.200 A 
ATOM     81  F   UNL A   1      37.267  28.282  33.124  1.00  0.00    -0.200 F 
ATOM     82  F   UNL A   1      36.037  30.697  32.846  1.00  0.00    -0.200 F 
ENDBRANCH  58  72
BRANCH  59  83
ATOM     83  C   UNL A   1      47.866  26.949  26.439  1.00  0.00     0.064 A 
ATOM     84  C   UNL A   1      47.475  27.256  25.120  1.00  0.00     0.173 A 
ATOM     85  C   UNL A   1      49.124  26.358  26.625  1.00  0.00     0.173 A 
ATOM     86  F   UNL A   1      46.288  27.843  24.893  1.00  0.00    -0.203 F 
ATOM     87  C   UNL A   1      48.362  27.123  24.056  1.00  0.00     0.198 A 
ATOM     88  C   UNL A   1      50.015  26.240  25.556  1.00  0.00     0.198 A 
ATOM     89  F   UNL A   1      49.552  26.057  27.859  1.00  0.00    -0.203 F 
ATOM     90  F   UNL A   1      48.017  27.569  22.840  1.00  0.00    -0.200 F 
ATOM     91  C   UNL A   1      49.646  26.656  24.284  1.00  0.00     0.200 A 
ATOM     92  F   UNL A   1      51.272  25.829  25.776  1.00  0.00    -0.200 F 
ATOM     93  F   UNL A   1      50.547  26.672  23.290  1.00  0.00    -0.200 F 
ENDBRANCH  59  83
BRANCH  71  94
ATOM     94  C   UNL A   1      44.191  33.079  27.516  1.00  0.00     0.064 A 
ATOM     95  C   UNL A   1      44.040  33.426  26.163  1.00  0.00     0.173 A 
ATOM     96  C   UNL A   1      43.840  34.088  28.445  1.00  0.00     0.173 A 
ATOM     97  F   UNL A   1      44.220  32.528  25.184  1.00  0.00    -0.203 F 
ATOM     98  C   UNL A   1      43.632  34.700  25.766  1.00  0.00     0.198 A 
ATOM     99  C   UNL A   1      43.376  35.339  28.046  1.00  0.00     0.198 A 
ATOM    100  F   UNL A   1      43.904  33.880  29.768  1.00  0.00    -0.203 F 
ATOM    101  F   UNL A   1      43.543  34.990  24.460  1.00  0.00    -0.200 F 
ATOM    102  C   UNL A   1      43.288  35.652  26.706  1.00  0.00     0.200 A 
ATOM    103  F   UNL A   1      42.989  36.230  28.971  1.00  0.00    -0.200 F 
ATOM    104  F   UNL A   1      42.850  36.858  26.322  1.00  0.00    -0.200 F 
ENDBRANCH  71  94
ENDBRANCH  45  46
ENDBRANCH  38  40
ENDBRANCH  37  38
ENDBRANCH  36  37
ENDBRANCH  35  36
ENDBRANCH   1  35
TORSDOF 18
ENDMDL
MODEL 2
REMARK VINA RESULT:     -12.8      1.904      4.547
REMARK SMILES Cc1ccccc1C(=O)Nc1cc(NC(=O)c2ccccc2C)cc(C(=O)OCCOCCOC(=O)c2ccc(-c3c4nc(c(-c5c(F)c(F)c(F)c(F)c5F)c5ccc([nH]5)c(-c5c(F)c(F)c(F)c(F)c5F)c5nc(c(-c6c(F)c(F)c(F)c(F)c6F)c6ccc3[nH]6)C=C5)C=C4)cc2)c1
REMARK SMILES IDX 31 1 30 2 29 3 28 4 26 5 27 6 25 7 11 8 12 9 100 10 13 11
REMARK SMILES IDX 24 12 10 13 8 14 9 15 7 17 1 18 2 19 3 20 4 21 6 22 5 23
REMARK SMILES IDX 14 24 15 25 16 27 17 28 18 29 22 30 19 31 21 32 23 33 20 34
REMARK SMILES IDX 32 35 33 36 34 37 35 38 36 39 37 40 38 41 99 42 39 43 98 44
REMARK SMILES IDX 40 45 41 46 42 47 92 48 43 49 97 50 91 51 93 52 44 53 96 54
REMARK SMILES IDX 90 55 89 56 45 58 77 59 57 60 76 61 58 62 61 63 75 64 94 65
REMARK SMILES IDX 59 66 60 67 74 69 95 70 62 71 46 72 47 73 55 74 48 75 49 76
REMARK SMILES IDX 53 77 56 78 50 79 51 80 54 81 52 82 78 83 79 84 87 85 80 86
REMARK SMILES IDX 81 87 85 88 88 89 82 90 83 91 86 92 84 93 63 94 64 95 72 96
REMARK SMILES IDX 65 97 66 98 70 99 73 100 67 101 68 102 71 103 69 104
REMARK H PARENT 10 16 14 26 93 57 61 68
REMARK Flexibility Score: inf
ROOT
ATOM      1  O   UNL A   1      37.075  21.789  24.379  1.00  0.00    -0.374 OA
ENDROOT
BRANCH   1   2
ATOM      2  C   UNL A   1      36.647  22.832  23.523  1.00  0.00     0.202 C 
BRANCH   2   3
ATOM      3  C   UNL A   1      35.633  23.659  24.290  1.00  0.00     0.261 C 
BRANCH   3   4
ATOM      4  O   UNL A   1      34.818  24.518  23.471  1.00  0.00    -0.460 OA
BRANCH   4   5
ATOM      5  C   UNL A   1      33.826  24.005  22.701  1.00  0.00     0.338 C 
ATOM      6  O   UNL A   1      33.931  23.275  21.735  1.00  0.00    -0.246 OA
BRANCH   5   7
ATOM      7  C   UNL A   1      32.558  24.597  23.152  1.00  0.00     0.064 A 
ATOM      8  C   UNL A   1      30.890  26.296  22.931  1.00  0.00     0.044 A 
ATOM      9  C   UNL A   1      30.306  25.883  24.139  1.00  0.00     0.052 A 
ATOM     10  C   UNL A   1      31.952  25.583  22.381  1.00  0.00     0.042 A 
ATOM     11  C   UNL A   1      30.870  24.830  24.862  1.00  0.00     0.044 A 
ATOM     12  C   UNL A   1      32.023  24.232  24.389  1.00  0.00     0.042 A 
BRANCH   8  13
ATOM     13  N   UNL A   1      30.578  27.507  22.300  1.00  0.00    -0.322 N 
ATOM     14  C   UNL A   1      30.929  28.792  22.663  1.00  0.00     0.255 C 
ATOM     15  O   UNL A   1      30.514  29.733  21.986  1.00  0.00    -0.269 OA
ATOM     16  H   UNL A   1      30.031  27.430  21.484  1.00  0.00     0.170 HD
BRANCH  14  17
ATOM     17  C   UNL A   1      31.820  29.079  23.822  1.00  0.00     0.043 A 
ATOM     18  C   UNL A   1      34.071  28.510  22.679  1.00  0.00     0.045 C 
ATOM     19  C   UNL A   1      33.217  28.880  23.859  1.00  0.00    -0.038 A 
ATOM     20  C   UNL A   1      33.891  29.077  25.080  1.00  0.00     0.004 A 
ATOM     21  C   UNL A   1      33.224  29.577  26.197  1.00  0.00     0.000 A 
ATOM     22  C   UNL A   1      31.172  29.633  24.939  1.00  0.00     0.014 A 
ATOM     23  C   UNL A   1      31.873  29.893  26.115  1.00  0.00     0.001 A 
ENDBRANCH  14  17
ENDBRANCH   8  13
BRANCH  11  24
ATOM     24  N   UNL A   1      30.409  24.331  26.085  1.00  0.00    -0.322 N 
ATOM     25  C   UNL A   1      30.623  23.128  26.701  1.00  0.00     0.255 C 
ATOM     26  H   UNL A   1      29.832  24.950  26.589  1.00  0.00     0.170 HD
ATOM     27  O   UNL A   1      29.990  22.833  27.712  1.00  0.00    -0.269 OA
BRANCH  25  28
ATOM     28  C   UNL A   1      31.661  22.211  26.197  1.00  0.00     0.043 A 
ATOM     29  C   UNL A   1      31.300  21.455  25.075  1.00  0.00     0.014 A 
ATOM     30  C   UNL A   1      32.940  22.084  26.778  1.00  0.00    -0.038 A 
ATOM     31  C   UNL A   1      32.234  20.618  24.473  1.00  0.00     0.001 A 
ATOM     32  C   UNL A   1      33.873  21.257  26.137  1.00  0.00     0.004 A 
ATOM     33  C   UNL A   1      33.377  22.802  28.027  1.00  0.00     0.045 C 
ATOM     34  C   UNL A   1      33.524  20.536  24.993  1.00  0.00     0.000 A 
ENDBRANCH  25  28
ENDBRANCH  11  24
ENDBRANCH   5   7
ENDBRANCH   4   5
ENDBRANCH   3   4
ENDBRANCH   2   3
ENDBRANCH   1   2
BRANCH   1  35
ATOM     35  C   UNL A   1      37.483  22.177  25.680  1.00  0.00     0.202 C 
BRANCH  35  36
ATOM     36  C   UNL A   1      38.988  22.456  25.748  1.00  0.00     0.261 C 
BRANCH  36  37
ATOM     37  O   UNL A   1      39.630  21.437  26.543  1.00  0.00    -0.460 OA
BRANCH  37  38
ATOM     38  C   UNL A   1      40.937  21.200  26.241  1.00  0.00     0.338 C 
ATOM     39  O   UNL A   1      41.369  20.170  25.742  1.00  0.00    -0.246 OA
BRANCH  38  40
ATOM     40  C   UNL A   1      41.802  22.248  26.856  1.00  0.00     0.060 A 
ATOM     41  C   UNL A   1      41.914  22.336  28.257  1.00  0.00     0.016 A 
ATOM     42  C   UNL A   1      42.222  23.311  26.064  1.00  0.00     0.016 A 
ATOM     43  C   UNL A   1      42.304  23.544  28.865  1.00  0.00     0.010 A 
ATOM     44  C   UNL A   1      42.512  24.517  26.668  1.00  0.00     0.010 A 
ATOM     45  C   UNL A   1      42.534  24.663  28.066  1.00  0.00    -0.014 A 
BRANCH  45  46
ATOM     46  C   UNL A   1      42.688  26.050  28.530  1.00  0.00     0.031 A 
ATOM     47  C   UNL A   1      41.491  26.910  28.732  1.00  0.00     0.074 A 
ATOM     48  C   UNL A   1      43.849  26.463  29.093  1.00  0.00     0.049 A 
ATOM     49  N   UNL A   1      41.541  28.178  28.977  1.00  0.00    -0.248 NA
ATOM     50  C   UNL A   1      40.123  26.421  28.633  1.00  0.00     0.031 C 
ATOM     51  C   UNL A   1      43.981  27.450  30.169  1.00  0.00     0.029 A 
ATOM     52  N   UNL A   1      45.166  26.056  28.856  1.00  0.00    -0.354 N 
ATOM     53  C   UNL A   1      40.298  28.573  29.424  1.00  0.00     0.074 A 
ATOM     54  C   UNL A   1      39.431  27.481  29.056  1.00  0.00     0.031 C 
ATOM     55  C   UNL A   1      45.274  27.744  30.357  1.00  0.00     0.029 A 
ATOM     56  C   UNL A   1      46.024  27.076  29.316  1.00  0.00     0.049 A 
ATOM     57  H   UNL A   1      45.445  25.206  28.442  1.00  0.00     0.167 HD
ATOM     58  C   UNL A   1      40.200  29.710  30.177  1.00  0.00     0.037 A 
ATOM     59  C   UNL A   1      46.958  27.657  28.511  1.00  0.00     0.037 A 
ATOM     60  C   UNL A   1      41.514  30.363  30.317  1.00  0.00     0.049 A 
ATOM     61  C   UNL A   1      46.685  29.120  28.315  1.00  0.00     0.074 A 
ATOM     62  C   UNL A   1      42.392  30.493  31.382  1.00  0.00     0.029 A 
ATOM     63  N   UNL A   1      42.211  30.789  29.185  1.00  0.00    -0.354 N 
ATOM     64  N   UNL A   1      45.534  29.649  28.615  1.00  0.00    -0.248 NA
ATOM     65  C   UNL A   1      47.626  30.103  27.790  1.00  0.00     0.031 C 
ATOM     66  C   UNL A   1      43.621  30.997  30.884  1.00  0.00     0.029 A 
ATOM     67  C   UNL A   1      43.493  31.186  29.516  1.00  0.00     0.049 A 
ATOM     68  H   UNL A   1      41.840  30.805  28.273  1.00  0.00     0.167 HD
ATOM     69  C   UNL A   1      45.540  30.977  28.325  1.00  0.00     0.074 A 
ATOM     70  C   UNL A   1      46.873  31.221  27.809  1.00  0.00     0.031 C 
ATOM     71  C   UNL A   1      44.418  31.727  28.522  1.00  0.00     0.037 A 
BRANCH  58  72
ATOM     72  C   UNL A   1      38.997  30.143  31.020  1.00  0.00     0.064 A 
ATOM     73  C   UNL A   1      37.913  30.832  30.421  1.00  0.00     0.173 A 
ATOM     74  C   UNL A   1      38.846  29.966  32.411  1.00  0.00     0.173 A 
ATOM     75  F   UNL A   1      37.836  31.004  29.095  1.00  0.00    -0.203 F 
ATOM     76  C   UNL A   1      36.844  31.368  31.154  1.00  0.00     0.198 A 
ATOM     77  C   UNL A   1      37.786  30.512  33.147  1.00  0.00     0.198 A 
ATOM     78  F   UNL A   1      39.674  29.216  33.132  1.00  0.00    -0.203 F 
ATOM     79  F   UNL A   1      35.866  32.026  30.518  1.00  0.00    -0.200 F 
ATOM     80  C   UNL A   1      36.791  31.223  32.522  1.00  0.00     0.200 A 
ATOM     81  F   UNL A   1      37.742  30.325  34.476  1.00  0.00    -0.200 F 
ATOM     82  F   UNL A   1      35.777  31.740  33.229  1.00  0.00    -0.200 F 
ENDBRANCH  58  72
BRANCH  59  83
ATOM     83  C   UNL A   1      47.541  26.695  27.545  1.00  0.00     0.064 A 
ATOM     84  C   UNL A   1      47.193  26.888  26.193  1.00  0.00     0.173 A 
ATOM     85  C   UNL A   1      48.752  26.044  27.820  1.00  0.00     0.173 A 
ATOM     86  F   UNL A   1      46.053  27.526  25.879  1.00  0.00    -0.203 F 
ATOM     87  C   UNL A   1      48.086  26.586  25.169  1.00  0.00     0.198 A 
ATOM     88  C   UNL A   1      49.650  25.756  26.789  1.00  0.00     0.198 A 
ATOM     89  F   UNL A   1      49.138  25.844  29.088  1.00  0.00    -0.203 F 
ATOM     90  F   UNL A   1      47.793  26.926  23.905  1.00  0.00    -0.200 F 
ATOM     91  C   UNL A   1      49.331  26.061  25.473  1.00  0.00     0.200 A 
ATOM     92  F   UNL A   1      50.872  25.287  27.079  1.00  0.00    -0.200 F 
ATOM     93  F   UNL A   1      50.247  25.914  24.504  1.00  0.00    -0.200 F 
ENDBRANCH  59  83
BRANCH  71  94
ATOM     94  C   UNL A   1      44.142  33.064  27.890  1.00  0.00     0.064 A 
ATOM     95  C   UNL A   1      43.906  33.242  26.516  1.00  0.00     0.173 A 
ATOM     96  C   UNL A   1      43.940  34.211  28.695  1.00  0.00     0.173 A 
ATOM     97  F   UNL A   1      43.943  32.213  25.659  1.00  0.00    -0.203 F 
ATOM     98  C   UNL A   1      43.557  34.482  25.979  1.00  0.00     0.198 A 
ATOM     99  C   UNL A   1      43.532  35.432  28.163  1.00  0.00     0.198 A 
ATOM    100  F   UNL A   1      44.097  34.174  30.026  1.00  0.00    -0.203 F 
ATOM    101  F   UNL A   1      43.382  34.604  24.655  1.00  0.00    -0.200 F 
ATOM    102  C   UNL A   1      43.357  35.573  26.803  1.00  0.00     0.200 A 
ATOM    103  F   UNL A   1      43.285  36.464  28.982  1.00  0.00    -0.200 F 
ATOM    104  F   UNL A   1      42.974  36.749  26.289  1.00  0.00    -0.200 F 
ENDBRANCH  71  94
ENDBRANCH  45  46
ENDBRANCH  38  40
ENDBRANCH  37  38
ENDBRANCH  36  37
ENDBRANCH  35  36
ENDBRANCH   1  35
TORSDOF 18
ENDMDL
MODEL 3
REMARK VINA RESULT:     -12.4      8.373     17.565
REMARK SMILES Cc1ccccc1C(=O)Nc1cc(NC(=O)c2ccccc2C)cc(C(=O)OCCOCCOC(=O)c2ccc(-c3c4nc(c(-c5c(F)c(F)c(F)c(F)c5F)c5ccc([nH]5)c(-c5c(F)c(F)c(F)c(F)c5F)c5nc(c(-c6c(F)c(F)c(F)c(F)c6F)c6ccc3[nH]6)C=C5)C=C4)cc2)c1
REMARK SMILES IDX 31 1 30 2 29 3 28 4 26 5 27 6 25 7 11 8 12 9 100 10 13 11
REMARK SMILES IDX 24 12 10 13 8 14 9 15 7 17 1 18 2 19 3 20 4 21 6 22 5 23
REMARK SMILES IDX 14 24 15 25 16 27 17 28 18 29 22 30 19 31 21 32 23 33 20 34
REMARK SMILES IDX 32 35 33 36 34 37 35 38 36 39 37 40 38 41 99 42 39 43 98 44
REMARK SMILES IDX 40 45 41 46 42 47 92 48 43 49 97 50 91 51 93 52 44 53 96 54
REMARK SMILES IDX 90 55 89 56 45 58 77 59 57 60 76 61 58 62 61 63 75 64 94 65
REMARK SMILES IDX 59 66 60 67 74 69 95 70 62 71 46 72 47 73 55 74 48 75 49 76
REMARK SMILES IDX 53 77 56 78 50 79 51 80 54 81 52 82 78 83 79 84 87 85 80 86
REMARK SMILES IDX 81 87 85 88 88 89 82 90 83 91 86 92 84 93 63 94 64 95 72 96
REMARK SMILES IDX 65 97 66 98 70 99 73 100 67 101 68 102 71 103 69 104
REMARK H PARENT 10 16 14 26 93 57 61 68
REMARK Flexibility Score: inf
ROOT
ATOM      1  O   UNL A   1      43.122  40.743  26.615  1.00  0.00    -0.374 OA
ENDROOT
BRANCH   1   2
ATOM      2  C   UNL A   1      43.190  41.775  25.648  1.00  0.00     0.202 C 
BRANCH   2   3
ATOM      3  C   UNL A   1      42.192  41.439  24.557  1.00  0.00     0.261 C 
BRANCH   3   4
ATOM      4  O   UNL A   1      42.604  41.816  23.230  1.00  0.00    -0.460 OA
BRANCH   4   5
ATOM      5  C   UNL A   1      41.992  42.835  22.577  1.00  0.00     0.338 C 
ATOM      6  O   UNL A   1      40.811  43.124  22.581  1.00  0.00    -0.246 OA
BRANCH   5   7
ATOM      7  C   UNL A   1      42.997  43.487  21.723  1.00  0.00     0.064 A 
ATOM      8  C   UNL A   1      43.919  43.850  19.547  1.00  0.00     0.044 A 
ATOM      9  C   UNL A   1      45.026  44.493  20.122  1.00  0.00     0.052 A 
ATOM     10  C   UNL A   1      42.849  43.443  20.341  1.00  0.00     0.042 A 
ATOM     11  C   UNL A   1      45.121  44.612  21.509  1.00  0.00     0.044 A 
ATOM     12  C   UNL A   1      44.131  44.059  22.301  1.00  0.00     0.042 A 
BRANCH   8  13
ATOM     13  N   UNL A   1      43.880  43.431  18.212  1.00  0.00    -0.322 N 
ATOM     14  C   UNL A   1      43.530  44.149  17.086  1.00  0.00     0.255 C 
ATOM     15  O   UNL A   1      43.524  43.577  15.995  1.00  0.00    -0.269 OA
ATOM     16  H   UNL A   1      44.137  42.493  18.054  1.00  0.00     0.170 HD
BRANCH  14  17
ATOM     17  C   UNL A   1      43.195  45.600  17.136  1.00  0.00     0.043 A 
ATOM     18  C   UNL A   1      40.791  45.369  18.068  1.00  0.00     0.045 C 
ATOM     19  C   UNL A   1      41.945  46.147  17.501  1.00  0.00    -0.038 A 
ATOM     20  C   UNL A   1      41.756  47.536  17.367  1.00  0.00     0.004 A 
ATOM     21  C   UNL A   1      42.808  48.373  17.005  1.00  0.00     0.000 A 
ATOM     22  C   UNL A   1      44.261  46.461  16.825  1.00  0.00     0.014 A 
ATOM     23  C   UNL A   1      44.071  47.841  16.773  1.00  0.00     0.001 A 
ENDBRANCH  14  17
ENDBRANCH   8  13
BRANCH  11  24
ATOM     24  N   UNL A   1      46.174  45.205  22.215  1.00  0.00    -0.322 N 
ATOM     25  C   UNL A   1      47.020  44.693  23.162  1.00  0.00     0.255 C 
ATOM     26  H   UNL A   1      46.334  46.151  21.993  1.00  0.00     0.170 HD
ATOM     27  O   UNL A   1      47.783  45.438  23.771  1.00  0.00    -0.269 OA
BRANCH  25  28
ATOM     28  C   UNL A   1      47.071  43.240  23.404  1.00  0.00     0.043 A 
ATOM     29  C   UNL A   1      46.657  42.830  24.677  1.00  0.00     0.014 A 
ATOM     30  C   UNL A   1      47.496  42.302  22.440  1.00  0.00    -0.038 A 
ATOM     31  C   UNL A   1      46.590  41.474  24.981  1.00  0.00     0.001 A 
ATOM     32  C   UNL A   1      47.392  40.941  22.760  1.00  0.00     0.004 A 
ATOM     33  C   UNL A   1      48.027  42.667  21.080  1.00  0.00     0.045 C 
ATOM     34  C   UNL A   1      46.939  40.532  24.017  1.00  0.00     0.000 A 
ENDBRANCH  25  28
ENDBRANCH  11  24
ENDBRANCH   5   7
ENDBRANCH   4   5
ENDBRANCH   3   4
ENDBRANCH   2   3
ENDBRANCH   1   2
BRANCH   1  35
ATOM     35  C   UNL A   1      41.825  40.391  27.062  1.00  0.00     0.202 C 
BRANCH  35  36
ATOM     36  C   UNL A   1      41.784  38.972  27.641  1.00  0.00     0.261 C 
BRANCH  36  37
ATOM     37  O   UNL A   1      42.990  38.270  27.275  1.00  0.00    -0.460 OA
BRANCH  37  38
ATOM     38  C   UNL A   1      43.647  37.664  28.303  1.00  0.00     0.338 C 
ATOM     39  O   UNL A   1      44.093  38.234  29.288  1.00  0.00    -0.246 OA
BRANCH  38  40
ATOM     40  C   UNL A   1      43.991  36.261  27.931  1.00  0.00     0.060 A 
ATOM     41  C   UNL A   1      43.178  35.552  27.024  1.00  0.00     0.016 A 
ATOM     42  C   UNL A   1      44.908  35.571  28.717  1.00  0.00     0.016 A 
ATOM     43  C   UNL A   1      43.180  34.145  27.019  1.00  0.00     0.010 A 
ATOM     44  C   UNL A   1      44.836  34.194  28.771  1.00  0.00     0.010 A 
ATOM     45  C   UNL A   1      43.961  33.462  27.950  1.00  0.00    -0.014 A 
BRANCH  45  46
ATOM     46  C   UNL A   1      43.891  32.027  28.264  1.00  0.00     0.031 A 
ATOM     47  C   UNL A   1      44.717  31.052  27.502  1.00  0.00     0.074 A 
ATOM     48  C   UNL A   1      43.356  31.603  29.434  1.00  0.00     0.049 A 
ATOM     49  N   UNL A   1      44.597  29.768  27.598  1.00  0.00    -0.248 NA
ATOM     50  C   UNL A   1      45.725  31.441  26.526  1.00  0.00     0.031 C 
ATOM     51  C   UNL A   1      43.789  30.436  30.207  1.00  0.00     0.029 A 
ATOM     52  N   UNL A   1      42.333  32.153  30.214  1.00  0.00    -0.354 N 
ATOM     53  C   UNL A   1      45.710  29.195  27.021  1.00  0.00     0.074 A 
ATOM     54  C   UNL A   1      46.298  30.265  26.254  1.00  0.00     0.031 C 
ATOM     55  C   UNL A   1      42.932  30.214  31.212  1.00  0.00     0.029 A 
ATOM     56  C   UNL A   1      41.826  31.133  31.046  1.00  0.00     0.049 A 
ATOM     57  H   UNL A   1      42.021  33.088  30.187  1.00  0.00     0.167 HD
ATOM     58  C   UNL A   1      46.063  27.926  27.390  1.00  0.00     0.037 A 
ATOM     59  C   UNL A   1      40.505  30.801  31.066  1.00  0.00     0.037 A 
ATOM     60  C   UNL A   1      45.088  27.365  28.342  1.00  0.00     0.049 A 
ATOM     61  C   UNL A   1      40.284  29.389  30.605  1.00  0.00     0.074 A 
ATOM     62  C   UNL A   1      45.146  27.095  29.700  1.00  0.00     0.029 A 
ATOM     63  N   UNL A   1      43.747  27.230  27.977  1.00  0.00    -0.354 N 
ATOM     64  N   UNL A   1      41.207  28.721  29.974  1.00  0.00    -0.248 NA
ATOM     65  C   UNL A   1      39.067  28.609  30.793  1.00  0.00     0.031 C 
ATOM     66  C   UNL A   1      43.834  26.800  30.150  1.00  0.00     0.029 A 
ATOM     67  C   UNL A   1      42.973  26.878  29.066  1.00  0.00     0.049 A 
ATOM     68  H   UNL A   1      43.399  27.367  27.066  1.00  0.00     0.167 HD
ATOM     69  C   UNL A   1      40.749  27.483  29.652  1.00  0.00     0.074 A 
ATOM     70  C   UNL A   1      39.401  27.453  30.185  1.00  0.00     0.031 C 
ATOM     71  C   UNL A   1      41.539  26.622  28.948  1.00  0.00     0.037 A 
BRANCH  58  72
ATOM     72  C   UNL A   1      47.405  27.240  27.120  1.00  0.00     0.064 A 
ATOM     73  C   UNL A   1      47.723  26.774  25.820  1.00  0.00     0.173 A 
ATOM     74  C   UNL A   1      48.406  26.960  28.073  1.00  0.00     0.173 A 
ATOM     75  F   UNL A   1      46.937  27.037  24.767  1.00  0.00    -0.203 F 
ATOM     76  C   UNL A   1      48.874  26.026  25.532  1.00  0.00     0.198 A 
ATOM     77  C   UNL A   1      49.550  26.201  27.791  1.00  0.00     0.198 A 
ATOM     78  F   UNL A   1      48.370  27.442  29.313  1.00  0.00    -0.203 F 
ATOM     79  F   UNL A   1      49.096  25.602  24.280  1.00  0.00    -0.200 F 
ATOM     80  C   UNL A   1      49.779  25.723  26.524  1.00  0.00     0.200 A 
ATOM     81  F   UNL A   1      50.432  25.951  28.771  1.00  0.00    -0.200 F 
ATOM     82  F   UNL A   1      50.876  25.002  26.257  1.00  0.00    -0.200 F 
ENDBRANCH  58  72
BRANCH  59  83
ATOM     83  C   UNL A   1      39.629  31.980  30.865  1.00  0.00     0.064 A 
ATOM     84  C   UNL A   1      38.754  31.919  29.762  1.00  0.00     0.173 A 
ATOM     85  C   UNL A   1      39.261  32.795  31.945  1.00  0.00     0.173 A 
ATOM     86  F   UNL A   1      39.052  31.136  28.712  1.00  0.00    -0.203 F 
ATOM     87  C   UNL A   1      37.499  32.520  29.804  1.00  0.00     0.198 A 
ATOM     88  C   UNL A   1      37.994  33.383  31.988  1.00  0.00     0.198 A 
ATOM     89  F   UNL A   1      40.049  32.880  33.026  1.00  0.00    -0.203 F 
ATOM     90  F   UNL A   1      36.626  32.314  28.806  1.00  0.00    -0.200 F 
ATOM     91  C   UNL A   1      37.104  33.215  30.935  1.00  0.00     0.200 A 
ATOM     92  F   UNL A   1      37.591  34.021  33.095  1.00  0.00    -0.200 F 
ATOM     93  F   UNL A   1      35.844  33.661  31.038  1.00  0.00    -0.200 F 
ENDBRANCH  59  83
BRANCH  71  94
ATOM     94  C   UNL A   1      41.052  25.420  28.184  1.00  0.00     0.064 A 
ATOM     95  C   UNL A   1      41.529  24.116  28.398  1.00  0.00     0.173 A 
ATOM     96  C   UNL A   1      39.945  25.526  27.308  1.00  0.00     0.173 A 
ATOM     97  F   UNL A   1      42.492  23.859  29.294  1.00  0.00    -0.203 F 
ATOM     98  C   UNL A   1      40.985  23.011  27.741  1.00  0.00     0.198 A 
ATOM     99  C   UNL A   1      39.365  24.414  26.701  1.00  0.00     0.198 A 
ATOM    100  F   UNL A   1      39.368  26.707  27.042  1.00  0.00    -0.203 F 
ATOM    101  F   UNL A   1      41.506  21.794  27.951  1.00  0.00    -0.200 F 
ATOM    102  C   UNL A   1      39.897  23.158  26.903  1.00  0.00     0.200 A 
ATOM    103  F   UNL A   1      38.273  24.567  25.939  1.00  0.00    -0.200 F 
ATOM    104  F   UNL A   1      39.347  22.089  26.312  1.00  0.00    -0.200 F 
ENDBRANCH  71  94
ENDBRANCH  45  46
ENDBRANCH  38  40
ENDBRANCH  37  38
ENDBRANCH  36  37
ENDBRANCH  35  36
ENDBRANCH   1  35
TORSDOF 18
ENDMDL
