MODEL 1
REMARK VINA RESULT:     -11.3      0.000      0.000
REMARK SMILES C[C@]1(CNC(=O)N2CCOC[C@H]2C(=O)OCCOCCOC(=O)c2ccc(-c3c4nc(c(-c5c(F)c(F)c(F)c(F)c5F)c5ccc([nH]5)c(-c5c(F)c(F)c(F)c(F)c5F)c5nc(c(-c6c(F)c(F)c(F)c(F)c6F)c6ccc3[nH]6)C=C5)C=C4)cc2)CCCO1
REMARK SMILES IDX 17 1 16 2 15 3 13 4 14 5 12 6 7 7 8 8 9 9 11 10 10 11 5 12
REMARK SMILES IDX 4 13 6 15 3 16 2 17 1 18 87 19 90 20 88 21 89 22 18 23 19 24
REMARK SMILES IDX 20 25 21 26 22 27 23 28 24 29 25 30 86 31 26 32 85 33 27 34
REMARK SMILES IDX 28 35 29 36 79 37 30 38 84 39 78 40 80 41 31 42 83 43 77 44
REMARK SMILES IDX 76 45 32 47 64 48 44 49 63 50 45 51 48 52 62 53 81 54 46 55
REMARK SMILES IDX 47 56 61 58 82 59 49 60 33 61 34 62 42 63 35 64 36 65 40 66
REMARK SMILES IDX 43 67 37 68 38 69 41 70 39 71 65 72 66 73 74 74 67 75 68 76
REMARK SMILES IDX 72 77 75 78 69 79 70 80 73 81 71 82 50 83 51 84 59 85 52 86
REMARK SMILES IDX 53 87 57 88 60 89 54 90 55 91 58 92 56 93
REMARK H PARENT 4 14 80 46 48 57
REMARK Flexibility Score: inf
ROOT
ATOM      1  C   UNL A   1      36.879  22.191  25.485  1.00  0.00     0.202 C 
ENDROOT
BRANCH   1   2
ATOM      2  C   UNL A   1      36.797  23.666  25.089  1.00  0.00     0.261 C 
BRANCH   2   3
ATOM      3  O   UNL A   1      35.426  24.104  25.104  1.00  0.00    -0.462 OA
BRANCH   3   4
ATOM      4  C   UNL A   1      34.809  24.186  23.896  1.00  0.00     0.331 C 
ATOM      5  O   UNL A   1      35.241  23.668  22.870  1.00  0.00    -0.250 OA
BRANCH   4   6
ATOM      6  C   UNL A   1      33.558  25.080  23.904  1.00  0.00     0.222 C 
ATOM      7  N   UNL A   1      32.519  24.935  22.860  1.00  0.00    -0.306 N 
ATOM      8  C   UNL A   1      31.694  23.735  22.968  1.00  0.00     0.151 C 
ATOM      9  C   UNL A   1      31.110  23.628  24.375  1.00  0.00     0.182 C 
ATOM     10  C   UNL A   1      32.894  24.912  25.280  1.00  0.00     0.197 C 
ATOM     11  O   UNL A   1      32.149  23.679  25.368  1.00  0.00    -0.377 OA
BRANCH   7  12
ATOM     12  C   UNL A   1      32.463  25.860  21.867  1.00  0.00     0.318 C 
ATOM     13  N   UNL A   1      31.431  26.729  21.782  1.00  0.00    -0.335 N 
ATOM     14  H   UNL A   1      31.289  27.089  20.876  1.00  0.00     0.165 HD
ATOM     15  O   UNL A   1      33.366  25.976  21.036  1.00  0.00    -0.249 OA
BRANCH  13  16
ATOM     16  C   UNL A   1      30.485  27.239  22.776  1.00  0.00     0.152 C 
BRANCH  16  17
ATOM     17  C   UNL A   1      30.955  28.485  23.574  1.00  0.00     0.083 C 
ATOM     18  C   UNL A   1      29.995  29.671  23.433  1.00  0.00     0.044 C 
ATOM     19  C   UNL A   1      31.165  28.111  25.048  1.00  0.00     0.039 C 
ATOM     20  O   UNL A   1      32.258  28.909  23.116  1.00  0.00    -0.373 OA
ATOM     21  C   UNL A   1      32.240  29.068  25.496  1.00  0.00     0.031 C 
ATOM     22  C   UNL A   1      33.091  29.201  24.251  1.00  0.00     0.161 C 
ENDBRANCH  16  17
ENDBRANCH  13  16
ENDBRANCH   7  12
ENDBRANCH   4   6
ENDBRANCH   3   4
ENDBRANCH   2   3
ENDBRANCH   1   2
BRANCH   1  23
ATOM     23  O   UNL A   1      37.694  21.378  24.640  1.00  0.00    -0.374 OA
BRANCH  23  24
ATOM     24  C   UNL A   1      37.762  19.984  24.948  1.00  0.00     0.202 C 
BRANCH  24  25
ATOM     25  C   UNL A   1      39.075  19.510  25.579  1.00  0.00     0.261 C 
BRANCH  25  26
ATOM     26  O   UNL A   1      40.028  20.578  25.752  1.00  0.00    -0.460 OA
BRANCH  26  27
ATOM     27  C   UNL A   1      40.679  20.572  26.939  1.00  0.00     0.338 C 
ATOM     28  O   UNL A   1      41.149  19.608  27.528  1.00  0.00    -0.246 OA
BRANCH  27  29
ATOM     29  C   UNL A   1      40.892  21.952  27.416  1.00  0.00     0.060 A 
ATOM     30  C   UNL A   1      40.233  22.982  26.733  1.00  0.00     0.016 A 
ATOM     31  C   UNL A   1      41.795  22.246  28.440  1.00  0.00     0.016 A 
ATOM     32  C   UNL A   1      40.513  24.313  27.035  1.00  0.00     0.010 A 
ATOM     33  C   UNL A   1      42.081  23.585  28.738  1.00  0.00     0.010 A 
ATOM     34  C   UNL A   1      41.469  24.623  28.013  1.00  0.00    -0.014 A 
BRANCH  34  35
ATOM     35  C   UNL A   1      41.927  26.026  28.165  1.00  0.00     0.031 A 
ATOM     36  C   UNL A   1      43.266  26.423  27.603  1.00  0.00     0.074 A 
ATOM     37  C   UNL A   1      41.148  26.946  28.758  1.00  0.00     0.049 A 
ATOM     38  N   UNL A   1      43.867  27.585  27.630  1.00  0.00    -0.248 NA
ATOM     39  C   UNL A   1      44.028  25.366  26.921  1.00  0.00     0.031 C 
ATOM     40  C   UNL A   1      39.818  26.695  29.309  1.00  0.00     0.029 A 
ATOM     41  N   UNL A   1      41.368  28.279  29.000  1.00  0.00    -0.354 N 
ATOM     42  C   UNL A   1      45.076  27.400  26.973  1.00  0.00     0.074 A 
ATOM     43  C   UNL A   1      45.138  26.007  26.584  1.00  0.00     0.031 C 
ATOM     44  C   UNL A   1      39.341  27.839  29.833  1.00  0.00     0.029 A 
ATOM     45  C   UNL A   1      40.343  28.892  29.676  1.00  0.00     0.049 A 
ATOM     46  H   UNL A   1      42.184  28.751  28.715  1.00  0.00     0.167 HD
ATOM     47  C   UNL A   1      46.043  28.311  26.707  1.00  0.00     0.037 A 
ATOM     48  C   UNL A   1      40.234  30.155  30.130  1.00  0.00     0.037 A 
ATOM     49  C   UNL A   1      45.981  29.698  27.088  1.00  0.00     0.049 A 
ATOM     50  C   UNL A   1      41.350  31.135  29.875  1.00  0.00     0.074 A 
ATOM     51  C   UNL A   1      46.902  30.702  26.845  1.00  0.00     0.029 A 
ATOM     52  N   UNL A   1      44.939  30.274  27.798  1.00  0.00    -0.354 N 
ATOM     53  N   UNL A   1      42.477  30.957  29.230  1.00  0.00    -0.248 NA
ATOM     54  C   UNL A   1      41.174  32.494  30.409  1.00  0.00     0.031 C 
ATOM     55  C   UNL A   1      46.437  31.877  27.447  1.00  0.00     0.029 A 
ATOM     56  C   UNL A   1      45.205  31.616  28.023  1.00  0.00     0.049 A 
ATOM     57  H   UNL A   1      44.129  29.801  28.097  1.00  0.00     0.167 HD
ATOM     58  C   UNL A   1      43.130  32.183  29.255  1.00  0.00     0.074 A 
ATOM     59  C   UNL A   1      42.269  33.101  29.972  1.00  0.00     0.031 C 
ATOM     60  C   UNL A   1      44.334  32.518  28.732  1.00  0.00     0.037 A 
BRANCH  47  61
ATOM     61  C   UNL A   1      47.266  27.831  25.985  1.00  0.00     0.064 A 
ATOM     62  C   UNL A   1      48.419  27.428  26.676  1.00  0.00     0.173 A 
ATOM     63  C   UNL A   1      47.274  27.742  24.585  1.00  0.00     0.173 A 
ATOM     64  F   UNL A   1      48.466  27.508  28.014  1.00  0.00    -0.203 F 
ATOM     65  C   UNL A   1      49.542  26.974  25.989  1.00  0.00     0.198 A 
ATOM     66  C   UNL A   1      48.390  27.262  23.904  1.00  0.00     0.198 A 
ATOM     67  F   UNL A   1      46.196  28.112  23.878  1.00  0.00    -0.203 F 
ATOM     68  F   UNL A   1      50.647  26.632  26.667  1.00  0.00    -0.200 F 
ATOM     69  C   UNL A   1      49.524  26.885  24.606  1.00  0.00     0.200 A 
ATOM     70  F   UNL A   1      48.367  27.169  22.567  1.00  0.00    -0.200 F 
ATOM     71  F   UNL A   1      50.604  26.442  23.947  1.00  0.00    -0.200 F 
ENDBRANCH  47  61
BRANCH  48  72
ATOM     72  C   UNL A   1      39.022  30.569  30.884  1.00  0.00     0.064 A 
ATOM     73  C   UNL A   1      37.894  31.072  30.222  1.00  0.00     0.173 A 
ATOM     74  C   UNL A   1      38.977  30.487  32.283  1.00  0.00     0.173 A 
ATOM     75  F   UNL A   1      37.901  31.197  28.886  1.00  0.00    -0.203 F 
ATOM     76  C   UNL A   1      36.771  31.491  30.932  1.00  0.00     0.198 A 
ATOM     77  C   UNL A   1      37.843  30.881  32.991  1.00  0.00     0.198 A 
ATOM     78  F   UNL A   1      40.032  30.017  32.964  1.00  0.00    -0.203 F 
ATOM     79  F   UNL A   1      35.722  32.011  30.278  1.00  0.00    -0.200 F 
ATOM     80  C   UNL A   1      36.744  31.390  32.316  1.00  0.00     0.200 A 
ATOM     81  F   UNL A   1      37.819  30.775  34.326  1.00  0.00    -0.200 F 
ATOM     82  F   UNL A   1      35.664  31.792  32.998  1.00  0.00    -0.200 F 
ENDBRANCH  48  72
BRANCH  60  83
ATOM     83  C   UNL A   1      44.781  33.943  28.884  1.00  0.00     0.064 A 
ATOM     84  C   UNL A   1      45.573  34.355  29.965  1.00  0.00     0.173 A 
ATOM     85  C   UNL A   1      44.448  34.900  27.912  1.00  0.00     0.173 A 
ATOM     86  F   UNL A   1      45.907  33.482  30.928  1.00  0.00    -0.203 F 
ATOM     87  C   UNL A   1      45.996  35.677  30.080  1.00  0.00     0.198 A 
ATOM     88  C   UNL A   1      44.895  36.213  28.015  1.00  0.00     0.198 A 
ATOM     89  F   UNL A   1      43.698  34.555  26.853  1.00  0.00    -0.203 F 
ATOM     90  F   UNL A   1      46.716  36.058  31.144  1.00  0.00    -0.200 F 
ATOM     91  C   UNL A   1      45.663  36.603  29.102  1.00  0.00     0.200 A 
ATOM     92  F   UNL A   1      44.582  37.103  27.064  1.00  0.00    -0.200 F 
ATOM     93  F   UNL A   1      46.076  37.873  29.212  1.00  0.00    -0.200 F 
ENDBRANCH  60  83
ENDBRANCH  34  35
ENDBRANCH  27  29
ENDBRANCH  26  27
ENDBRANCH  25  26
ENDBRANCH  24  25
ENDBRANCH  23  24
ENDBRANCH   1  23
TORSDOF 17
ENDMDL
MODEL 2
REMARK VINA RESULT:     -11.2      1.218      2.236
REMARK SMILES C[C@]1(CNC(=O)N2CCOC[C@H]2C(=O)OCCOCCOC(=O)c2ccc(-c3c4nc(c(-c5c(F)c(F)c(F)c(F)c5F)c5ccc([nH]5)c(-c5c(F)c(F)c(F)c(F)c5F)c5nc(c(-c6c(F)c(F)c(F)c(F)c6F)c6ccc3[nH]6)C=C5)C=C4)cc2)CCCO1
REMARK SMILES IDX 17 1 16 2 15 3 13 4 14 5 12 6 7 7 8 8 9 9 11 10 10 11 5 12
REMARK SMILES IDX 4 13 6 15 3 16 2 17 1 18 87 19 90 20 88 21 89 22 18 23 19 24
REMARK SMILES IDX 20 25 21 26 22 27 23 28 24 29 25 30 86 31 26 32 85 33 27 34
REMARK SMILES IDX 28 35 29 36 79 37 30 38 84 39 78 40 80 41 31 42 83 43 77 44
REMARK SMILES IDX 76 45 32 47 64 48 44 49 63 50 45 51 48 52 62 53 81 54 46 55
REMARK SMILES IDX 47 56 61 58 82 59 49 60 33 61 34 62 42 63 35 64 36 65 40 66
REMARK SMILES IDX 43 67 37 68 38 69 41 70 39 71 65 72 66 73 74 74 67 75 68 76
REMARK SMILES IDX 72 77 75 78 69 79 70 80 73 81 71 82 50 83 51 84 59 85 52 86
REMARK SMILES IDX 53 87 57 88 60 89 54 90 55 91 58 92 56 93
REMARK H PARENT 4 14 80 46 48 57
REMARK Flexibility Score: inf
ROOT
ATOM      1  C   UNL A   1      34.807  22.717  26.524  1.00  0.00     0.202 C 
ENDROOT
BRANCH   1   2
ATOM      2  C   UNL A   1      35.366  23.734  25.530  1.00  0.00     0.261 C 
BRANCH   2   3
ATOM      3  O   UNL A   1      34.459  24.844  25.399  1.00  0.00    -0.462 OA
BRANCH   3   4
ATOM      4  C   UNL A   1      33.703  24.871  24.270  1.00  0.00     0.331 C 
ATOM      5  O   UNL A   1      33.736  24.001  23.403  1.00  0.00    -0.250 OA
BRANCH   4   6
ATOM      6  C   UNL A   1      32.867  26.152  24.119  1.00  0.00     0.222 C 
ATOM      7  N   UNL A   1      31.530  26.112  23.485  1.00  0.00    -0.306 N 
ATOM      8  C   UNL A   1      30.481  25.490  24.287  1.00  0.00     0.151 C 
ATOM      9  C   UNL A   1      30.436  26.127  25.675  1.00  0.00     0.182 C 
ATOM     10  C   UNL A   1      32.722  26.762  25.523  1.00  0.00     0.197 C 
ATOM     11  O   UNL A   1      31.727  26.072  26.307  1.00  0.00    -0.377 OA
BRANCH   7  12
ATOM     12  C   UNL A   1      31.401  26.574  22.214  1.00  0.00     0.318 C 
ATOM     13  N   UNL A   1      30.806  27.761  21.961  1.00  0.00    -0.335 N 
ATOM     14  H   UNL A   1      30.441  27.835  21.050  1.00  0.00     0.165 HD
ATOM     15  O   UNL A   1      31.857  25.956  21.250  1.00  0.00    -0.249 OA
BRANCH  13  16
ATOM     16  C   UNL A   1      30.602  28.957  22.779  1.00  0.00     0.152 C 
BRANCH  16  17
ATOM     17  C   UNL A   1      29.183  29.584  22.711  1.00  0.00     0.083 C 
ATOM     18  C   UNL A   1      28.081  28.588  23.092  1.00  0.00     0.044 C 
ATOM     19  C   UNL A   1      29.124  30.839  23.592  1.00  0.00     0.039 C 
ATOM     20  O   UNL A   1      28.911  30.061  21.375  1.00  0.00    -0.373 OA
ATOM     21  C   UNL A   1      28.084  31.691  22.909  1.00  0.00     0.031 C 
ATOM     22  C   UNL A   1      28.313  31.367  21.448  1.00  0.00     0.161 C 
ENDBRANCH  16  17
ENDBRANCH  13  16
ENDBRANCH   7  12
ENDBRANCH   4   6
ENDBRANCH   3   4
ENDBRANCH   2   3
ENDBRANCH   1   2
BRANCH   1  23
ATOM     23  O   UNL A   1      35.202  21.363  26.298  1.00  0.00    -0.374 OA
BRANCH  23  24
ATOM     24  C   UNL A   1      35.751  21.050  25.016  1.00  0.00     0.202 C 
BRANCH  24  25
ATOM     25  C   UNL A   1      37.164  20.460  25.029  1.00  0.00     0.261 C 
BRANCH  25  26
ATOM     26  O   UNL A   1      38.190  21.472  25.076  1.00  0.00    -0.460 OA
BRANCH  26  27
ATOM     27  C   UNL A   1      39.189  21.229  25.956  1.00  0.00     0.338 C 
ATOM     28  O   UNL A   1      39.776  20.172  26.146  1.00  0.00    -0.246 OA
BRANCH  27  29
ATOM     29  C   UNL A   1      39.614  22.481  26.611  1.00  0.00     0.060 A 
ATOM     30  C   UNL A   1      38.990  23.667  26.207  1.00  0.00     0.016 A 
ATOM     31  C   UNL A   1      40.671  22.512  27.525  1.00  0.00     0.016 A 
ATOM     32  C   UNL A   1      39.453  24.896  26.674  1.00  0.00     0.010 A 
ATOM     33  C   UNL A   1      41.140  23.748  27.988  1.00  0.00     0.010 A 
ATOM     34  C   UNL A   1      40.557  24.946  27.537  1.00  0.00    -0.014 A 
BRANCH  34  35
ATOM     35  C   UNL A   1      41.184  26.257  27.842  1.00  0.00     0.031 A 
ATOM     36  C   UNL A   1      42.596  26.515  27.391  1.00  0.00     0.074 A 
ATOM     37  C   UNL A   1      40.494  27.220  28.477  1.00  0.00     0.049 A 
ATOM     38  N   UNL A   1      43.341  27.578  27.557  1.00  0.00    -0.248 NA
ATOM     39  C   UNL A   1      43.256  25.426  26.654  1.00  0.00     0.031 C 
ATOM     40  C   UNL A   1      39.110  27.105  28.931  1.00  0.00     0.029 A 
ATOM     41  N   UNL A   1      40.871  28.485  28.852  1.00  0.00    -0.354 N 
ATOM     42  C   UNL A   1      44.555  27.286  26.950  1.00  0.00     0.074 A 
ATOM     43  C   UNL A   1      44.460  25.936  26.438  1.00  0.00     0.031 C 
ATOM     44  C   UNL A   1      38.754  28.255  29.532  1.00  0.00     0.029 A 
ATOM     45  C   UNL A   1      39.892  29.172  29.527  1.00  0.00     0.049 A 
ATOM     46  H   UNL A   1      41.757  28.865  28.655  1.00  0.00     0.167 HD
ATOM     47  C   UNL A   1      45.647  28.077  26.821  1.00  0.00     0.037 A 
ATOM     48  C   UNL A   1      39.920  30.395  30.090  1.00  0.00     0.037 A 
ATOM     49  C   UNL A   1      45.742  29.422  27.325  1.00  0.00     0.049 A 
ATOM     50  C   UNL A   1      41.169  31.232  29.986  1.00  0.00     0.074 A 
ATOM     51  C   UNL A   1      46.800  30.309  27.225  1.00  0.00     0.029 A 
ATOM     52  N   UNL A   1      44.741  30.072  28.030  1.00  0.00    -0.354 N 
ATOM     53  N   UNL A   1      42.302  30.959  29.387  1.00  0.00    -0.248 NA
ATOM     54  C   UNL A   1      41.137  32.552  30.634  1.00  0.00     0.031 C 
ATOM     55  C   UNL A   1      46.455  31.481  27.908  1.00  0.00     0.029 A 
ATOM     56  C   UNL A   1      45.165  31.341  28.393  1.00  0.00     0.049 A 
ATOM     57  H   UNL A   1      43.859  29.690  28.241  1.00  0.00     0.167 HD
ATOM     58  C   UNL A   1      43.106  32.078  29.561  1.00  0.00     0.074 A 
ATOM     59  C   UNL A   1      42.328  33.040  30.313  1.00  0.00     0.031 C 
ATOM     60  C   UNL A   1      44.375  32.290  29.135  1.00  0.00     0.037 A 
BRANCH  47  61
ATOM     61  C   UNL A   1      46.842  27.499  26.123  1.00  0.00     0.064 A 
ATOM     62  C   UNL A   1      47.013  27.620  24.735  1.00  0.00     0.173 A 
ATOM     63  C   UNL A   1      47.844  26.846  26.854  1.00  0.00     0.173 A 
ATOM     64  F   UNL A   1      46.075  28.223  23.989  1.00  0.00    -0.203 F 
ATOM     65  C   UNL A   1      48.134  27.087  24.104  1.00  0.00     0.198 A 
ATOM     66  C   UNL A   1      48.977  26.338  26.223  1.00  0.00     0.198 A 
ATOM     67  F   UNL A   1      47.730  26.708  28.184  1.00  0.00    -0.203 F 
ATOM     68  F   UNL A   1      48.258  27.177  22.773  1.00  0.00    -0.200 F 
ATOM     69  C   UNL A   1      49.117  26.453  24.848  1.00  0.00     0.200 A 
ATOM     70  F   UNL A   1      49.931  25.734  26.946  1.00  0.00    -0.200 F 
ATOM     71  F   UNL A   1      50.199  25.947  24.240  1.00  0.00    -0.200 F 
ENDBRANCH  47  61
BRANCH  48  72
ATOM     72  C   UNL A   1      38.726  30.904  30.814  1.00  0.00     0.064 A 
ATOM     73  C   UNL A   1      37.692  31.561  30.134  1.00  0.00     0.173 A 
ATOM     74  C   UNL A   1      38.607  30.760  32.204  1.00  0.00     0.173 A 
ATOM     75  F   UNL A   1      37.776  31.748  28.809  1.00  0.00    -0.203 F 
ATOM     76  C   UNL A   1      36.589  32.067  30.819  1.00  0.00     0.198 A 
ATOM     77  C   UNL A   1      37.491  31.243  32.885  1.00  0.00     0.198 A 
ATOM     78  F   UNL A   1      39.572  30.143  32.902  1.00  0.00    -0.203 F 
ATOM     79  F   UNL A   1      35.635  32.731  30.151  1.00  0.00    -0.200 F 
ATOM     80  C   UNL A   1      36.487  31.903  32.193  1.00  0.00     0.200 A 
ATOM     81  F   UNL A   1      37.393  31.075  34.210  1.00  0.00    -0.200 F 
ATOM     82  F   UNL A   1      35.426  32.389  32.851  1.00  0.00    -0.200 F 
ENDBRANCH  48  72
BRANCH  60  83
ATOM     83  C   UNL A   1      44.994  33.623  29.442  1.00  0.00     0.064 A 
ATOM     84  C   UNL A   1      44.845  34.719  28.580  1.00  0.00     0.173 A 
ATOM     85  C   UNL A   1      45.710  33.817  30.634  1.00  0.00     0.173 A 
ATOM     86  F   UNL A   1      44.182  34.582  27.421  1.00  0.00    -0.203 F 
ATOM     87  C   UNL A   1      45.409  35.954  28.890  1.00  0.00     0.198 A 
ATOM     88  C   UNL A   1      46.248  35.059  30.953  1.00  0.00     0.198 A 
ATOM     89  F   UNL A   1      45.874  32.802  31.496  1.00  0.00    -0.203 F 
ATOM     90  F   UNL A   1      45.291  36.976  28.031  1.00  0.00    -0.200 F 
ATOM     91  C   UNL A   1      46.104  36.125  30.078  1.00  0.00     0.200 A 
ATOM     92  F   UNL A   1      46.909  35.226  32.107  1.00  0.00    -0.200 F 
ATOM     93  F   UNL A   1      46.640  37.317  30.376  1.00  0.00    -0.200 F 
ENDBRANCH  60  83
ENDBRANCH  34  35
ENDBRANCH  27  29
ENDBRANCH  26  27
ENDBRANCH  25  26
ENDBRANCH  24  25
ENDBRANCH  23  24
ENDBRANCH   1  23
TORSDOF 17
ENDMDL
MODEL 3
REMARK VINA RESULT:     -11.2      1.218      2.237
REMARK SMILES C[C@]1(CNC(=O)N2CCOC[C@H]2C(=O)OCCOCCOC(=O)c2ccc(-c3c4nc(c(-c5c(F)c(F)c(F)c(F)c5F)c5ccc([nH]5)c(-c5c(F)c(F)c(F)c(F)c5F)c5nc(c(-c6c(F)c(F)c(F)c(F)c6F)c6ccc3[nH]6)C=C5)C=C4)cc2)CCCO1
REMARK SMILES IDX 17 1 16 2 15 3 13 4 14 5 12 6 7 7 8 8 9 9 11 10 10 11 5 12
REMARK SMILES IDX 4 13 6 15 3 16 2 17 1 18 87 19 90 20 88 21 89 22 18 23 19 24
REMARK SMILES IDX 20 25 21 26 22 27 23 28 24 29 25 30 86 31 26 32 85 33 27 34
REMARK SMILES IDX 28 35 29 36 79 37 30 38 84 39 78 40 80 41 31 42 83 43 77 44
REMARK SMILES IDX 76 45 32 47 64 48 44 49 63 50 45 51 48 52 62 53 81 54 46 55
REMARK SMILES IDX 47 56 61 58 82 59 49 60 33 61 34 62 42 63 35 64 36 65 40 66
REMARK SMILES IDX 43 67 37 68 38 69 41 70 39 71 65 72 66 73 74 74 67 75 68 76
REMARK SMILES IDX 72 77 75 78 69 79 70 80 73 81 71 82 50 83 51 84 59 85 52 86
REMARK SMILES IDX 53 87 57 88 60 89 54 90 55 91 58 92 56 93
REMARK H PARENT 4 14 80 46 48 57
REMARK Flexibility Score: inf
ROOT
ATOM      1  C   UNL A   1      34.818  22.713  26.515  1.00  0.00     0.202 C 
ENDROOT
BRANCH   1   2
ATOM      2  C   UNL A   1      35.395  23.725  25.525  1.00  0.00     0.261 C 
BRANCH   2   3
ATOM      3  O   UNL A   1      34.500  24.843  25.386  1.00  0.00    -0.462 OA
BRANCH   3   4
ATOM      4  C   UNL A   1      33.780  24.897  24.235  1.00  0.00     0.331 C 
ATOM      5  O   UNL A   1      33.852  24.056  23.342  1.00  0.00    -0.250 OA
BRANCH   4   6
ATOM      6  C   UNL A   1      32.934  26.174  24.098  1.00  0.00     0.222 C 
ATOM      7  N   UNL A   1      31.577  26.121  23.509  1.00  0.00    -0.306 N 
ATOM      8  C   UNL A   1      30.558  25.504  24.352  1.00  0.00     0.151 C 
ATOM      9  C   UNL A   1      30.556  26.156  25.733  1.00  0.00     0.182 C 
ATOM     10  C   UNL A   1      32.833  26.799  25.498  1.00  0.00     0.197 C 
ATOM     11  O   UNL A   1      31.867  26.113  26.323  1.00  0.00    -0.377 OA
BRANCH   7  12
ATOM     12  C   UNL A   1      31.404  26.568  22.238  1.00  0.00     0.318 C 
ATOM     13  N   UNL A   1      30.767  27.733  21.989  1.00  0.00    -0.335 N 
ATOM     14  H   UNL A   1      30.378  27.788  21.087  1.00  0.00     0.165 HD
ATOM     15  O   UNL A   1      31.856  25.956  21.268  1.00  0.00    -0.249 OA
BRANCH  13  16
ATOM     16  C   UNL A   1      30.545  28.930  22.803  1.00  0.00     0.152 C 
BRANCH  16  17
ATOM     17  C   UNL A   1      29.151  29.596  22.652  1.00  0.00     0.083 C 
ATOM     18  C   UNL A   1      28.002  28.638  22.985  1.00  0.00     0.044 C 
ATOM     19  C   UNL A   1      29.083  30.865  23.513  1.00  0.00     0.039 C 
ATOM     20  O   UNL A   1      28.965  30.063  21.297  1.00  0.00    -0.373 OA
ATOM     21  C   UNL A   1      28.107  31.736  22.765  1.00  0.00     0.031 C 
ATOM     22  C   UNL A   1      28.403  31.386  21.322  1.00  0.00     0.161 C 
ENDBRANCH  16  17
ENDBRANCH  13  16
ENDBRANCH   7  12
ENDBRANCH   4   6
ENDBRANCH   3   4
ENDBRANCH   2   3
ENDBRANCH   1   2
BRANCH   1  23
ATOM     23  O   UNL A   1      35.210  21.357  26.299  1.00  0.00    -0.374 OA
BRANCH  23  24
ATOM     24  C   UNL A   1      35.777  21.037  25.026  1.00  0.00     0.202 C 
BRANCH  24  25
ATOM     25  C   UNL A   1      37.203  20.479  25.059  1.00  0.00     0.261 C 
BRANCH  25  26
ATOM     26  O   UNL A   1      38.206  21.513  25.116  1.00  0.00    -0.460 OA
BRANCH  26  27
ATOM     27  C   UNL A   1      39.224  21.272  25.976  1.00  0.00     0.338 C 
ATOM     28  O   UNL A   1      39.823  20.219  26.145  1.00  0.00    -0.246 OA
BRANCH  27  29
ATOM     29  C   UNL A   1      39.650  22.521  26.633  1.00  0.00     0.060 A 
ATOM     30  C   UNL A   1      39.044  23.713  26.214  1.00  0.00     0.016 A 
ATOM     31  C   UNL A   1      40.691  22.547  27.564  1.00  0.00     0.016 A 
ATOM     32  C   UNL A   1      39.510  24.939  26.685  1.00  0.00     0.010 A 
ATOM     33  C   UNL A   1      41.163  23.780  28.031  1.00  0.00     0.010 A 
ATOM     34  C   UNL A   1      40.600  24.982  27.566  1.00  0.00    -0.014 A 
BRANCH  34  35
ATOM     35  C   UNL A   1      41.234  26.287  27.877  1.00  0.00     0.031 A 
ATOM     36  C   UNL A   1      42.645  26.542  27.420  1.00  0.00     0.074 A 
ATOM     37  C   UNL A   1      40.552  27.248  28.523  1.00  0.00     0.049 A 
ATOM     38  N   UNL A   1      43.395  27.601  27.590  1.00  0.00    -0.248 NA
ATOM     39  C   UNL A   1      43.296  25.456  26.672  1.00  0.00     0.031 C 
ATOM     40  C   UNL A   1      39.170  27.136  28.984  1.00  0.00     0.029 A 
ATOM     41  N   UNL A   1      40.936  28.509  28.906  1.00  0.00    -0.354 N 
ATOM     42  C   UNL A   1      44.605  27.309  26.974  1.00  0.00     0.074 A 
ATOM     43  C   UNL A   1      44.501  25.963  26.452  1.00  0.00     0.031 C 
ATOM     44  C   UNL A   1      38.822  28.283  29.596  1.00  0.00     0.029 A 
ATOM     45  C   UNL A   1      39.965  29.195  29.591  1.00  0.00     0.049 A 
ATOM     46  H   UNL A   1      41.824  28.886  28.706  1.00  0.00     0.167 HD
ATOM     47  C   UNL A   1      45.700  28.096  26.844  1.00  0.00     0.037 A 
ATOM     48  C   UNL A   1      40.001  30.414  30.163  1.00  0.00     0.037 A 
ATOM     49  C   UNL A   1      45.803  29.437  27.358  1.00  0.00     0.049 A 
ATOM     50  C   UNL A   1      41.253  31.247  30.058  1.00  0.00     0.074 A 
ATOM     51  C   UNL A   1      46.864  30.320  27.258  1.00  0.00     0.029 A 
ATOM     52  N   UNL A   1      44.809  30.086  28.073  1.00  0.00    -0.354 N 
ATOM     53  N   UNL A   1      42.381  30.973  29.450  1.00  0.00    -0.248 NA
ATOM     54  C   UNL A   1      41.231  32.562  30.715  1.00  0.00     0.031 C 
ATOM     55  C   UNL A   1      46.528  31.488  27.952  1.00  0.00     0.029 A 
ATOM     56  C   UNL A   1      45.240  31.350  28.442  1.00  0.00     0.049 A 
ATOM     57  H   UNL A   1      43.926  29.706  28.286  1.00  0.00     0.167 HD
ATOM     58  C   UNL A   1      43.191  32.088  29.628  1.00  0.00     0.074 A 
ATOM     59  C   UNL A   1      42.421  33.047  30.391  1.00  0.00     0.031 C 
ATOM     60  C   UNL A   1      44.459  32.297  29.196  1.00  0.00     0.037 A 
BRANCH  47  61
ATOM     61  C   UNL A   1      46.888  27.518  26.134  1.00  0.00     0.064 A 
ATOM     62  C   UNL A   1      47.070  27.679  24.752  1.00  0.00     0.173 A 
ATOM     63  C   UNL A   1      47.873  26.823  26.851  1.00  0.00     0.173 A 
ATOM     64  F   UNL A   1      46.148  28.323  24.021  1.00  0.00    -0.203 F 
ATOM     65  C   UNL A   1      48.185  27.146  24.111  1.00  0.00     0.198 A 
ATOM     66  C   UNL A   1      49.000  26.315  26.210  1.00  0.00     0.198 A 
ATOM     67  F   UNL A   1      47.748  26.646  28.175  1.00  0.00    -0.203 F 
ATOM     68  F   UNL A   1      48.319  27.275  22.784  1.00  0.00    -0.200 F 
ATOM     69  C   UNL A   1      49.152  26.470  24.841  1.00  0.00     0.200 A 
ATOM     70  F   UNL A   1      49.938  25.671  26.919  1.00  0.00    -0.200 F 
ATOM     71  F   UNL A   1      50.228  25.964  24.223  1.00  0.00    -0.200 F 
ENDBRANCH  47  61
BRANCH  48  72
ATOM     72  C   UNL A   1      38.813  30.923  30.898  1.00  0.00     0.064 A 
ATOM     73  C   UNL A   1      38.689  30.750  32.283  1.00  0.00     0.173 A 
ATOM     74  C   UNL A   1      37.772  31.576  30.223  1.00  0.00     0.173 A 
ATOM     75  F   UNL A   1      39.647  30.105  32.965  1.00  0.00    -0.203 F 
ATOM     76  C   UNL A   1      37.559  31.198  32.964  1.00  0.00     0.198 A 
ATOM     77  C   UNL A   1      36.655  32.048  30.910  1.00  0.00     0.198 A 
ATOM     78  F   UNL A   1      37.841  31.763  28.897  1.00  0.00    -0.203 F 
ATOM     79  F   UNL A   1      37.444  30.979  34.282  1.00  0.00    -0.200 F 
ATOM     80  C   UNL A   1      36.546  31.851  32.279  1.00  0.00     0.200 A 
ATOM     81  F   UNL A   1      35.682  32.685  30.245  1.00  0.00    -0.200 F 
ATOM     82  F   UNL A   1      35.460  32.283  32.934  1.00  0.00    -0.200 F 
ENDBRANCH  48  72
BRANCH  60  83
ATOM     83  C   UNL A   1      45.085  33.625  29.509  1.00  0.00     0.064 A 
ATOM     84  C   UNL A   1      45.813  33.836  30.688  1.00  0.00     0.173 A 
ATOM     85  C   UNL A   1      44.990  34.688  28.596  1.00  0.00     0.173 A 
ATOM     86  F   UNL A   1      45.921  32.857  31.600  1.00  0.00    -0.203 F 
ATOM     87  C   UNL A   1      46.403  35.069  30.953  1.00  0.00     0.198 A 
ATOM     88  C   UNL A   1      45.605  35.909  28.852  1.00  0.00     0.198 A 
ATOM     89  F   UNL A   1      44.310  34.535  27.449  1.00  0.00    -0.203 F 
ATOM     90  F   UNL A   1      47.059  35.261  32.107  1.00  0.00    -0.200 F 
ATOM     91  C   UNL A   1      46.306  36.101  30.033  1.00  0.00     0.200 A 
ATOM     92  F   UNL A   1      45.519  36.902  27.956  1.00  0.00    -0.200 F 
ATOM     93  F   UNL A   1      46.881  37.285  30.288  1.00  0.00    -0.200 F 
ENDBRANCH  60  83
ENDBRANCH  34  35
ENDBRANCH  27  29
ENDBRANCH  26  27
ENDBRANCH  25  26
ENDBRANCH  24  25
ENDBRANCH  23  24
ENDBRANCH   1  23
TORSDOF 17
ENDMDL
