MODEL 1
REMARK VINA RESULT:     -12.2      0.000      0.000
REMARK SMILES CC(C)Cc1cc2c(cc1Cl)C=C(C(=O)OCCOCCOC(=O)c1ccc(-c3c4nc(c(-c5c(F)c(F)c(F)c(F)c5F)c5ccc([nH]5)c(-c5c(F)c(F)c(F)c(F)c5F)c5nc(c(-c6c(F)c(F)c(F)c(F)c6F)c6ccc3[nH]6)C=C5)C=C4)cc1)[C@H](C(F)(F)F)O2
REMARK SMILES IDX 19 1 18 2 17 3 16 4 14 5 15 6 13 7 5 8 6 9 10 10 7 11 9 12
REMARK SMILES IDX 11 13 8 14 93 15 12 16 88 17 4 18 2 19 1 20 3 21 89 22 90 23
REMARK SMILES IDX 91 24 92 25 20 26 21 27 22 28 23 29 24 30 25 31 26 32 87 33
REMARK SMILES IDX 27 34 86 35 28 36 29 37 30 38 80 39 31 40 85 41 79 42 81 43
REMARK SMILES IDX 32 44 84 45 78 46 77 47 33 49 65 50 45 51 64 52 46 53 49 54
REMARK SMILES IDX 63 55 82 56 47 57 48 58 62 60 83 61 50 62 34 63 35 64 43 65
REMARK SMILES IDX 36 66 37 67 41 68 44 69 38 70 39 71 42 72 40 73 66 74 67 75
REMARK SMILES IDX 75 76 68 77 69 78 73 79 76 80 70 81 71 82 74 83 72 84 51 85
REMARK SMILES IDX 52 86 60 87 53 88 54 89 58 90 61 91 55 92 56 93 59 94 57 95
REMARK H PARENT 81 48 49 59
REMARK Flexibility Score: inf
ROOT
ATOM      1  O   UNL A   1      31.117  28.762  24.228  1.00  0.00    -0.374 OA
ENDROOT
BRANCH   1   2
ATOM      2  C   UNL A   1      31.554  28.290  22.955  1.00  0.00     0.202 C 
BRANCH   2   3
ATOM      3  C   UNL A   1      33.068  28.202  22.749  1.00  0.00     0.261 C 
BRANCH   3   4
ATOM      4  O   UNL A   1      33.556  26.909  23.142  1.00  0.00    -0.460 OA
BRANCH   4   5
ATOM      5  C   UNL A   1      33.244  25.910  22.291  1.00  0.00     0.338 C 
ATOM      6  O   UNL A   1      33.289  25.963  21.073  1.00  0.00    -0.246 OA
BRANCH   5   7
ATOM      7  C   UNL A   1      32.941  24.675  23.037  1.00  0.00     0.087 C 
ATOM      8  C   UNL A   1      33.319  19.924  24.608  1.00  0.00    -0.025 A 
ATOM      9  C   UNL A   1      32.244  20.775  24.282  1.00  0.00     0.052 A 
ATOM     10  C   UNL A   1      34.621  20.448  24.592  1.00  0.00     0.045 A 
ATOM     11  C   UNL A   1      32.467  22.100  23.916  1.00  0.00     0.128 A 
ATOM     12  C   UNL A   1      34.845  21.774  24.219  1.00  0.00     0.032 A 
ATOM     13  Cl  UNL A   1      36.004  19.486  24.973  1.00  0.00    -0.084 Cl
ATOM     14  C   UNL A   1      33.770  22.592  23.862  1.00  0.00     0.019 A 
ATOM     15  O   UNL A   1      31.370  22.832  23.545  1.00  0.00    -0.475 OA
ATOM     16  C   UNL A   1      34.007  23.905  23.298  1.00  0.00     0.027 C 
ATOM     17  C   UNL A   1      31.537  24.277  23.411  1.00  0.00     0.316 C 
BRANCH   8  18
ATOM     18  C   UNL A   1      33.023  18.480  24.948  1.00  0.00     0.040 C 
BRANCH  18  19
ATOM     19  C   UNL A   1      32.854  17.570  23.719  1.00  0.00    -0.013 C 
ATOM     20  C   UNL A   1      32.467  18.360  22.464  1.00  0.00     0.008 C 
ATOM     21  C   UNL A   1      34.156  16.808  23.467  1.00  0.00     0.008 C 
ENDBRANCH  18  19
ENDBRANCH   8  18
BRANCH  17  22
ATOM     22  C   UNL A   1      30.991  24.963  24.682  1.00  0.00     0.430 C 
ATOM     23  F   UNL A   1      30.529  24.072  25.590  1.00  0.00    -0.167 F 
ATOM     24  F   UNL A   1      31.925  25.720  25.304  1.00  0.00    -0.167 F 
ATOM     25  F   UNL A   1      29.967  25.802  24.385  1.00  0.00    -0.167 F 
ENDBRANCH  17  22
ENDBRANCH   5   7
ENDBRANCH   4   5
ENDBRANCH   3   4
ENDBRANCH   2   3
ENDBRANCH   1   2
BRANCH   1  26
ATOM     26  C   UNL A   1      32.107  29.311  25.100  1.00  0.00     0.202 C 
BRANCH  26  27
ATOM     27  C   UNL A   1      31.762  30.632  25.801  1.00  0.00     0.261 C 
BRANCH  27  28
ATOM     28  O   UNL A   1      32.408  30.737  27.081  1.00  0.00    -0.460 OA
BRANCH  28  29
ATOM     29  C   UNL A   1      33.138  31.862  27.274  1.00  0.00     0.338 C 
ATOM     30  O   UNL A   1      32.755  33.017  27.179  1.00  0.00    -0.246 OA
BRANCH  29  31
ATOM     31  C   UNL A   1      34.452  31.496  27.844  1.00  0.00     0.060 A 
ATOM     32  C   UNL A   1      35.439  32.450  28.091  1.00  0.00     0.016 A 
ATOM     33  C   UNL A   1      34.682  30.145  28.141  1.00  0.00     0.016 A 
ATOM     34  C   UNL A   1      36.649  32.050  28.667  1.00  0.00     0.010 A 
ATOM     35  C   UNL A   1      35.887  29.748  28.718  1.00  0.00     0.010 A 
ATOM     36  C   UNL A   1      36.874  30.702  29.006  1.00  0.00    -0.014 A 
BRANCH  36  37
ATOM     37  C   UNL A   1      38.088  30.317  29.770  1.00  0.00     0.031 A 
ATOM     38  C   UNL A   1      38.329  30.806  31.166  1.00  0.00     0.074 A 
ATOM     39  C   UNL A   1      38.993  29.519  29.171  1.00  0.00     0.049 A 
ATOM     40  N   UNL A   1      39.306  30.502  31.986  1.00  0.00    -0.248 NA
ATOM     41  C   UNL A   1      37.358  31.763  31.714  1.00  0.00     0.031 C 
ATOM     42  C   UNL A   1      38.888  29.016  27.800  1.00  0.00     0.029 A 
ATOM     43  N   UNL A   1      40.167  28.982  29.635  1.00  0.00    -0.354 N 
ATOM     44  C   UNL A   1      39.056  31.210  33.152  1.00  0.00     0.074 A 
ATOM     45  C   UNL A   1      37.867  32.003  32.915  1.00  0.00     0.031 C 
ATOM     46  C   UNL A   1      39.931  28.213  27.548  1.00  0.00     0.029 A 
ATOM     47  C   UNL A   1      40.797  28.170  28.723  1.00  0.00     0.049 A 
ATOM     48  H   UNL A   1      40.525  29.161  30.535  1.00  0.00     0.167 HD
ATOM     49  C   UNL A   1      39.743  31.178  34.320  1.00  0.00     0.037 A 
ATOM     50  C   UNL A   1      41.939  27.463  28.823  1.00  0.00     0.037 A 
ATOM     51  C   UNL A   1      40.934  30.396  34.544  1.00  0.00     0.049 A 
ATOM     52  C   UNL A   1      42.710  27.488  30.115  1.00  0.00     0.074 A 
ATOM     53  C   UNL A   1      41.677  30.272  35.707  1.00  0.00     0.029 A 
ATOM     54  N   UNL A   1      41.567  29.617  33.585  1.00  0.00    -0.354 N 
ATOM     55  N   UNL A   1      42.419  28.094  31.240  1.00  0.00    -0.248 NA
ATOM     56  C   UNL A   1      43.967  26.727  30.151  1.00  0.00     0.031 C 
ATOM     57  C   UNL A   1      42.788  29.469  35.436  1.00  0.00     0.029 A 
ATOM     58  C   UNL A   1      42.707  29.039  34.122  1.00  0.00     0.049 A 
ATOM     59  H   UNL A   1      41.252  29.493  32.662  1.00  0.00     0.167 HD
ATOM     60  C   UNL A   1      43.440  27.772  32.122  1.00  0.00     0.074 A 
ATOM     61  C   UNL A   1      44.350  26.898  31.409  1.00  0.00     0.031 C 
ATOM     62  C   UNL A   1      43.609  28.170  33.407  1.00  0.00     0.037 A 
BRANCH  49  63
ATOM     63  C   UNL A   1      39.223  31.998  35.466  1.00  0.00     0.064 A 
ATOM     64  C   UNL A   1      38.375  31.440  36.435  1.00  0.00     0.173 A 
ATOM     65  C   UNL A   1      39.647  33.323  35.652  1.00  0.00     0.173 A 
ATOM     66  F   UNL A   1      37.938  30.178  36.303  1.00  0.00    -0.203 F 
ATOM     67  C   UNL A   1      37.960  32.181  37.538  1.00  0.00     0.198 A 
ATOM     68  C   UNL A   1      39.253  34.052  36.771  1.00  0.00     0.198 A 
ATOM     69  F   UNL A   1      40.466  33.903  34.762  1.00  0.00    -0.203 F 
ATOM     70  F   UNL A   1      37.125  31.636  38.433  1.00  0.00    -0.200 F 
ATOM     71  C   UNL A   1      38.407  33.482  37.711  1.00  0.00     0.200 A 
ATOM     72  F   UNL A   1      39.701  35.303  36.946  1.00  0.00    -0.200 F 
ATOM     73  F   UNL A   1      38.022  34.187  38.784  1.00  0.00    -0.200 F 
ENDBRANCH  49  63
BRANCH  50  74
ATOM     74  C   UNL A   1      42.397  26.642  27.673  1.00  0.00     0.064 A 
ATOM     75  C   UNL A   1      43.362  27.129  26.781  1.00  0.00     0.173 A 
ATOM     76  C   UNL A   1      41.899  25.348  27.453  1.00  0.00     0.173 A 
ATOM     77  F   UNL A   1      43.852  28.368  26.937  1.00  0.00    -0.203 F 
ATOM     78  C   UNL A   1      43.802  26.360  25.707  1.00  0.00     0.198 A 
ATOM     79  C   UNL A   1      42.365  24.568  26.398  1.00  0.00     0.198 A 
ATOM     80  F   UNL A   1      40.977  24.834  28.281  1.00  0.00    -0.203 F 
ATOM     81  F   UNL A   1      44.697  26.865  24.847  1.00  0.00    -0.200 F 
ATOM     82  C   UNL A   1      43.311  25.076  25.521  1.00  0.00     0.200 A 
ATOM     83  F   UNL A   1      41.899  23.322  26.233  1.00  0.00    -0.200 F 
ATOM     84  F   UNL A   1      43.746  24.332  24.496  1.00  0.00    -0.200 F 
ENDBRANCH  50  74
BRANCH  62  85
ATOM     85  C   UNL A   1      44.818  27.663  34.142  1.00  0.00     0.064 A 
ATOM     86  C   UNL A   1      46.019  28.388  34.168  1.00  0.00     0.173 A 
ATOM     87  C   UNL A   1      44.754  26.477  34.891  1.00  0.00     0.173 A 
ATOM     88  F   UNL A   1      46.138  29.521  33.459  1.00  0.00    -0.203 F 
ATOM     89  C   UNL A   1      47.112  27.939  34.905  1.00  0.00     0.198 A 
ATOM     90  C   UNL A   1      45.838  26.048  35.652  1.00  0.00     0.198 A 
ATOM     91  F   UNL A   1      43.627  25.748  34.908  1.00  0.00    -0.203 F 
ATOM     92  F   UNL A   1      48.260  28.630  34.884  1.00  0.00    -0.200 F 
ATOM     93  C   UNL A   1      47.018  26.776  35.655  1.00  0.00     0.200 A 
ATOM     94  F   UNL A   1      45.737  24.935  36.392  1.00  0.00    -0.200 F 
ATOM     95  F   UNL A   1      48.064  26.358  36.379  1.00  0.00    -0.200 F 
ENDBRANCH  62  85
ENDBRANCH  36  37
ENDBRANCH  29  31
ENDBRANCH  28  29
ENDBRANCH  27  28
ENDBRANCH  26  27
ENDBRANCH   1  26
TORSDOF 17
ENDMDL
MODEL 2
REMARK VINA RESULT:     -12.1      1.448      2.442
REMARK SMILES CC(C)Cc1cc2c(cc1Cl)C=C(C(=O)OCCOCCOC(=O)c1ccc(-c3c4nc(c(-c5c(F)c(F)c(F)c(F)c5F)c5ccc([nH]5)c(-c5c(F)c(F)c(F)c(F)c5F)c5nc(c(-c6c(F)c(F)c(F)c(F)c6F)c6ccc3[nH]6)C=C5)C=C4)cc1)[C@H](C(F)(F)F)O2
REMARK SMILES IDX 19 1 18 2 17 3 16 4 14 5 15 6 13 7 5 8 6 9 10 10 7 11 9 12
REMARK SMILES IDX 11 13 8 14 93 15 12 16 88 17 4 18 2 19 1 20 3 21 89 22 90 23
REMARK SMILES IDX 91 24 92 25 20 26 21 27 22 28 23 29 24 30 25 31 26 32 87 33
REMARK SMILES IDX 27 34 86 35 28 36 29 37 30 38 80 39 31 40 85 41 79 42 81 43
REMARK SMILES IDX 32 44 84 45 78 46 77 47 33 49 65 50 45 51 64 52 46 53 49 54
REMARK SMILES IDX 63 55 82 56 47 57 48 58 62 60 83 61 50 62 34 63 35 64 43 65
REMARK SMILES IDX 36 66 37 67 41 68 44 69 38 70 39 71 42 72 40 73 66 74 67 75
REMARK SMILES IDX 75 76 68 77 69 78 73 79 76 80 70 81 71 82 74 83 72 84 51 85
REMARK SMILES IDX 52 86 60 87 53 88 54 89 58 90 61 91 55 92 56 93 59 94 57 95
REMARK H PARENT 81 48 49 59
REMARK Flexibility Score: inf
ROOT
ATOM      1  O   UNL A   1      31.030  28.369  25.106  1.00  0.00    -0.374 OA
ENDROOT
BRANCH   1   2
ATOM      2  C   UNL A   1      31.968  27.294  25.128  1.00  0.00     0.202 C 
BRANCH   2   3
ATOM      3  C   UNL A   1      31.664  26.113  24.204  1.00  0.00     0.261 C 
BRANCH   3   4
ATOM      4  O   UNL A   1      30.871  25.129  24.888  1.00  0.00    -0.460 OA
BRANCH   4   5
ATOM      5  C   UNL A   1      31.466  24.580  25.966  1.00  0.00     0.338 C 
ATOM      6  O   UNL A   1      31.223  24.842  27.133  1.00  0.00    -0.246 OA
BRANCH   5   7
ATOM      7  C   UNL A   1      32.393  23.510  25.552  1.00  0.00     0.087 C 
ATOM      8  C   UNL A   1      33.996  18.968  24.145  1.00  0.00    -0.025 A 
ATOM      9  C   UNL A   1      34.488  19.966  25.010  1.00  0.00     0.052 A 
ATOM     10  C   UNL A   1      32.833  19.232  23.404  1.00  0.00     0.045 A 
ATOM     11  C   UNL A   1      33.820  21.179  25.155  1.00  0.00     0.128 A 
ATOM     12  C   UNL A   1      32.160  20.445  23.555  1.00  0.00     0.032 A 
ATOM     13  Cl  UNL A   1      32.150  18.074  22.320  1.00  0.00    -0.084 Cl
ATOM     14  C   UNL A   1      32.642  21.409  24.445  1.00  0.00     0.019 A 
ATOM     15  O   UNL A   1      34.329  22.060  26.071  1.00  0.00    -0.475 OA
ATOM     16  C   UNL A   1      31.853  22.586  24.745  1.00  0.00     0.027 C 
ATOM     17  C   UNL A   1      33.810  23.425  26.056  1.00  0.00     0.316 C 
BRANCH   8  18
ATOM     18  C   UNL A   1      34.733  17.650  24.065  1.00  0.00     0.040 C 
BRANCH  18  19
ATOM     19  C   UNL A   1      34.392  16.672  25.203  1.00  0.00    -0.013 C 
ATOM     20  C   UNL A   1      33.086  15.915  24.941  1.00  0.00     0.008 C 
ATOM     21  C   UNL A   1      35.538  15.674  25.377  1.00  0.00     0.008 C 
ENDBRANCH  18  19
ENDBRANCH   8  18
BRANCH  17  22
ATOM     22  C   UNL A   1      34.812  24.333  25.311  1.00  0.00     0.430 C 
ATOM     23  F   UNL A   1      34.588  24.362  23.977  1.00  0.00    -0.167 F 
ATOM     24  F   UNL A   1      34.777  25.613  25.750  1.00  0.00    -0.167 F 
ATOM     25  F   UNL A   1      36.088  23.910  25.495  1.00  0.00    -0.167 F 
ENDBRANCH  17  22
ENDBRANCH   5   7
ENDBRANCH   4   5
ENDBRANCH   3   4
ENDBRANCH   2   3
ENDBRANCH   1   2
BRANCH   1  26
ATOM     26  C   UNL A   1      31.537  29.679  24.843  1.00  0.00     0.202 C 
BRANCH  26  27
ATOM     27  C   UNL A   1      31.752  30.597  26.053  1.00  0.00     0.261 C 
BRANCH  27  28
ATOM     28  O   UNL A   1      33.035  30.377  26.665  1.00  0.00    -0.460 OA
BRANCH  28  29
ATOM     29  C   UNL A   1      33.592  31.462  27.253  1.00  0.00     0.338 C 
ATOM     30  O   UNL A   1      33.068  32.546  27.453  1.00  0.00    -0.246 OA
BRANCH  29  31
ATOM     31  C   UNL A   1      34.896  31.081  27.838  1.00  0.00     0.060 A 
ATOM     32  C   UNL A   1      35.912  32.014  28.045  1.00  0.00     0.016 A 
ATOM     33  C   UNL A   1      35.086  29.736  28.189  1.00  0.00     0.016 A 
ATOM     34  C   UNL A   1      37.110  31.603  28.637  1.00  0.00     0.010 A 
ATOM     35  C   UNL A   1      36.281  29.328  28.781  1.00  0.00     0.010 A 
ATOM     36  C   UNL A   1      37.296  30.263  29.029  1.00  0.00    -0.014 A 
BRANCH  36  37
ATOM     37  C   UNL A   1      38.499  29.874  29.807  1.00  0.00     0.031 A 
ATOM     38  C   UNL A   1      38.759  30.413  31.181  1.00  0.00     0.074 A 
ATOM     39  C   UNL A   1      39.377  29.023  29.241  1.00  0.00     0.049 A 
ATOM     40  N   UNL A   1      39.728  30.115  32.012  1.00  0.00    -0.248 NA
ATOM     41  C   UNL A   1      37.819  31.422  31.689  1.00  0.00     0.031 C 
ATOM     42  C   UNL A   1      39.254  28.466  27.894  1.00  0.00     0.029 A 
ATOM     43  N   UNL A   1      40.536  28.470  29.726  1.00  0.00    -0.354 N 
ATOM     44  C   UNL A   1      39.502  30.879  33.147  1.00  0.00     0.074 A 
ATOM     45  C   UNL A   1      38.338  31.698  32.879  1.00  0.00     0.031 C 
ATOM     46  C   UNL A   1      40.271  27.622  27.674  1.00  0.00     0.029 A 
ATOM     47  C   UNL A   1      41.138  27.601  28.849  1.00  0.00     0.049 A 
ATOM     48  H   UNL A   1      40.901  28.676  30.618  1.00  0.00     0.167 HD
ATOM     49  C   UNL A   1      40.192  30.875  34.314  1.00  0.00     0.037 A 
ATOM     50  C   UNL A   1      42.258  26.864  28.978  1.00  0.00     0.037 A 
ATOM     51  C   UNL A   1      41.359  30.067  34.571  1.00  0.00     0.049 A 
ATOM     52  C   UNL A   1      43.032  26.920  30.266  1.00  0.00     0.074 A 
ATOM     53  C   UNL A   1      42.100  29.970  35.736  1.00  0.00     0.029 A 
ATOM     54  N   UNL A   1      41.964  29.228  33.645  1.00  0.00    -0.354 N 
ATOM     55  N   UNL A   1      42.763  27.582  31.365  1.00  0.00    -0.248 NA
ATOM     56  C   UNL A   1      44.266  26.123  30.334  1.00  0.00     0.031 C 
ATOM     57  C   UNL A   1      43.185  29.122  35.499  1.00  0.00     0.029 A 
ATOM     58  C   UNL A   1      43.088  28.639  34.204  1.00  0.00     0.049 A 
ATOM     59  H   UNL A   1      41.643  29.075  32.728  1.00  0.00     0.167 HD
ATOM     60  C   UNL A   1      43.776  27.266  32.259  1.00  0.00     0.074 A 
ATOM     61  C   UNL A   1      44.656  26.335  31.582  1.00  0.00     0.031 C 
ATOM     62  C   UNL A   1      43.961  27.713  33.526  1.00  0.00     0.037 A 
BRANCH  49  63
ATOM     63  C   UNL A   1      39.700  31.759  35.425  1.00  0.00     0.064 A 
ATOM     64  C   UNL A   1      40.165  33.075  35.569  1.00  0.00     0.173 A 
ATOM     65  C   UNL A   1      38.688  31.323  36.296  1.00  0.00     0.173 A 
ATOM     66  F   UNL A   1      41.134  33.540  34.766  1.00  0.00    -0.203 F 
ATOM     67  C   UNL A   1      39.648  33.916  36.551  1.00  0.00     0.198 A 
ATOM     68  C   UNL A   1      38.153  32.176  37.257  1.00  0.00     0.198 A 
ATOM     69  F   UNL A   1      38.199  30.079  36.195  1.00  0.00    -0.203 F 
ATOM     70  F   UNL A   1      40.131  35.158  36.690  1.00  0.00    -0.200 F 
ATOM     71  C   UNL A   1      38.636  33.470  37.387  1.00  0.00     0.200 A 
ATOM     72  F   UNL A   1      37.162  31.750  38.052  1.00  0.00    -0.200 F 
ATOM     73  F   UNL A   1      38.126  34.288  38.319  1.00  0.00    -0.200 F 
ENDBRANCH  49  63
BRANCH  50  74
ATOM     74  C   UNL A   1      42.687  25.981  27.863  1.00  0.00     0.064 A 
ATOM     75  C   UNL A   1      42.178  24.681  27.739  1.00  0.00     0.173 A 
ATOM     76  C   UNL A   1      43.595  26.423  26.888  1.00  0.00     0.173 A 
ATOM     77  F   UNL A   1      41.323  24.206  28.658  1.00  0.00    -0.203 F 
ATOM     78  C   UNL A   1      42.569  23.853  26.690  1.00  0.00     0.198 A 
ATOM     79  C   UNL A   1      43.959  25.604  25.822  1.00  0.00     0.198 A 
ATOM     80  F   UNL A   1      44.108  27.660  26.959  1.00  0.00    -0.203 F 
ATOM     81  F   UNL A   1      42.096  22.601  26.617  1.00  0.00    -0.200 F 
ATOM     82  C   UNL A   1      43.452  24.318  25.727  1.00  0.00     0.200 A 
ATOM     83  F   UNL A   1      44.799  26.064  24.885  1.00  0.00    -0.200 F 
ATOM     84  F   UNL A   1      43.816  23.525  24.710  1.00  0.00    -0.200 F 
ENDBRANCH  50  74
BRANCH  62  85
ATOM     85  C   UNL A   1      45.156  27.201  34.281  1.00  0.00     0.064 A 
ATOM     86  C   UNL A   1      46.373  27.898  34.289  1.00  0.00     0.173 A 
ATOM     87  C   UNL A   1      45.060  26.040  35.065  1.00  0.00     0.173 A 
ATOM     88  F   UNL A   1      46.521  29.005  33.545  1.00  0.00    -0.203 F 
ATOM     89  C   UNL A   1      47.453  27.446  35.042  1.00  0.00     0.198 A 
ATOM     90  C   UNL A   1      46.132  25.609  35.843  1.00  0.00     0.198 A 
ATOM     91  F   UNL A   1      43.918  25.339  35.100  1.00  0.00    -0.203 F 
ATOM     92  F   UNL A   1      48.617  28.109  35.005  1.00  0.00    -0.200 F 
ATOM     93  C   UNL A   1      47.329  26.309  35.827  1.00  0.00     0.200 A 
ATOM     94  F   UNL A   1      46.003  24.522  36.616  1.00  0.00    -0.200 F 
ATOM     95  F   UNL A   1      48.363  25.889  36.568  1.00  0.00    -0.200 F 
ENDBRANCH  62  85
ENDBRANCH  36  37
ENDBRANCH  29  31
ENDBRANCH  28  29
ENDBRANCH  27  28
ENDBRANCH  26  27
ENDBRANCH   1  26
TORSDOF 17
ENDMDL
MODEL 3
REMARK VINA RESULT:     -12.1      3.334      8.444
REMARK SMILES CC(C)Cc1cc2c(cc1Cl)C=C(C(=O)OCCOCCOC(=O)c1ccc(-c3c4nc(c(-c5c(F)c(F)c(F)c(F)c5F)c5ccc([nH]5)c(-c5c(F)c(F)c(F)c(F)c5F)c5nc(c(-c6c(F)c(F)c(F)c(F)c6F)c6ccc3[nH]6)C=C5)C=C4)cc1)[C@H](C(F)(F)F)O2
REMARK SMILES IDX 19 1 18 2 17 3 16 4 14 5 15 6 13 7 5 8 6 9 10 10 7 11 9 12
REMARK SMILES IDX 11 13 8 14 93 15 12 16 88 17 4 18 2 19 1 20 3 21 89 22 90 23
REMARK SMILES IDX 91 24 92 25 20 26 21 27 22 28 23 29 24 30 25 31 26 32 87 33
REMARK SMILES IDX 27 34 86 35 28 36 29 37 30 38 80 39 31 40 85 41 79 42 81 43
REMARK SMILES IDX 32 44 84 45 78 46 77 47 33 49 65 50 45 51 64 52 46 53 49 54
REMARK SMILES IDX 63 55 82 56 47 57 48 58 62 60 83 61 50 62 34 63 35 64 43 65
REMARK SMILES IDX 36 66 37 67 41 68 44 69 38 70 39 71 42 72 40 73 66 74 67 75
REMARK SMILES IDX 75 76 68 77 69 78 73 79 76 80 70 81 71 82 74 83 72 84 51 85
REMARK SMILES IDX 52 86 60 87 53 88 54 89 58 90 61 91 55 92 56 93 59 94 57 95
REMARK H PARENT 81 48 49 59
REMARK Flexibility Score: inf
ROOT
ATOM      1  O   UNL A   1      41.434  22.045  27.062  1.00  0.00    -0.374 OA
ENDROOT
BRANCH   1   2
ATOM      2  C   UNL A   1      40.025  21.816  27.051  1.00  0.00     0.202 C 
BRANCH   2   3
ATOM      3  C   UNL A   1      39.443  21.244  25.756  1.00  0.00     0.261 C 
BRANCH   3   4
ATOM      4  O   UNL A   1      38.230  21.928  25.403  1.00  0.00    -0.460 OA
BRANCH   4   5
ATOM      5  C   UNL A   1      37.254  21.128  24.926  1.00  0.00     0.338 C 
ATOM      6  O   UNL A   1      37.377  19.957  24.606  1.00  0.00    -0.246 OA
BRANCH   5   7
ATOM      7  C   UNL A   1      35.958  21.831  24.947  1.00  0.00     0.087 C 
ATOM      8  C   UNL A   1      32.668  25.621  24.920  1.00  0.00    -0.025 A 
ATOM      9  C   UNL A   1      32.766  24.401  25.619  1.00  0.00     0.052 A 
ATOM     10  C   UNL A   1      33.621  25.907  23.929  1.00  0.00     0.045 A 
ATOM     11  C   UNL A   1      33.804  23.509  25.360  1.00  0.00     0.128 A 
ATOM     12  C   UNL A   1      34.665  25.016  23.674  1.00  0.00     0.032 A 
ATOM     13  Cl  UNL A   1      33.590  27.375  23.019  1.00  0.00    -0.084 Cl
ATOM     14  C   UNL A   1      34.767  23.828  24.404  1.00  0.00     0.019 A 
ATOM     15  O   UNL A   1      33.861  22.383  26.138  1.00  0.00    -0.475 OA
ATOM     16  C   UNL A   1      35.942  22.992  24.277  1.00  0.00     0.027 C 
ATOM     17  C   UNL A   1      34.770  21.320  25.720  1.00  0.00     0.316 C 
BRANCH   8  18
ATOM     18  C   UNL A   1      31.551  26.574  25.278  1.00  0.00     0.040 C 
BRANCH  18  19
ATOM     19  C   UNL A   1      32.024  27.853  25.992  1.00  0.00    -0.013 C 
ATOM     20  C   UNL A   1      31.516  29.122  25.301  1.00  0.00     0.008 C 
ATOM     21  C   UNL A   1      31.545  27.831  27.445  1.00  0.00     0.008 C 
ENDBRANCH  18  19
ENDBRANCH   8  18
BRANCH  17  22
ATOM     22  C   UNL A   1      33.958  20.222  24.999  1.00  0.00     0.430 C 
ATOM     23  F   UNL A   1      33.397  20.667  23.850  1.00  0.00    -0.167 F 
ATOM     24  F   UNL A   1      34.712  19.143  24.683  1.00  0.00    -0.167 F 
ATOM     25  F   UNL A   1      32.953  19.759  25.784  1.00  0.00    -0.167 F 
ENDBRANCH  17  22
ENDBRANCH   5   7
ENDBRANCH   4   5
ENDBRANCH   3   4
ENDBRANCH   2   3
ENDBRANCH   1   2
BRANCH   1  26
ATOM     26  C   UNL A   1      42.201  21.465  26.005  1.00  0.00     0.202 C 
BRANCH  26  27
ATOM     27  C   UNL A   1      43.201  22.382  25.287  1.00  0.00     0.261 C 
BRANCH  27  28
ATOM     28  O   UNL A   1      42.631  23.672  25.008  1.00  0.00    -0.460 OA
BRANCH  28  29
ATOM     29  C   UNL A   1      43.438  24.731  25.255  1.00  0.00     0.338 C 
ATOM     30  O   UNL A   1      44.429  25.067  24.628  1.00  0.00    -0.246 OA
BRANCH  29  31
ATOM     31  C   UNL A   1      42.818  25.581  26.294  1.00  0.00     0.060 A 
ATOM     32  C   UNL A   1      41.680  25.178  26.994  1.00  0.00     0.016 A 
ATOM     33  C   UNL A   1      43.415  26.821  26.565  1.00  0.00     0.016 A 
ATOM     34  C   UNL A   1      41.161  26.008  27.992  1.00  0.00     0.010 A 
ATOM     35  C   UNL A   1      42.896  27.646  27.562  1.00  0.00     0.010 A 
ATOM     36  C   UNL A   1      41.776  27.236  28.299  1.00  0.00    -0.014 A 
BRANCH  36  37
ATOM     37  C   UNL A   1      41.319  28.028  29.470  1.00  0.00     0.031 A 
ATOM     38  C   UNL A   1      40.144  28.954  29.385  1.00  0.00     0.074 A 
ATOM     39  C   UNL A   1      42.000  27.909  30.626  1.00  0.00     0.049 A 
ATOM     40  N   UNL A   1      39.583  29.660  30.336  1.00  0.00    -0.248 NA
ATOM     41  C   UNL A   1      39.520  29.120  28.065  1.00  0.00     0.031 C 
ATOM     42  C   UNL A   1      43.186  27.073  30.817  1.00  0.00     0.029 A 
ATOM     43  N   UNL A   1      41.791  28.479  31.857  1.00  0.00    -0.354 N 
ATOM     44  C   UNL A   1      38.528  30.332  29.738  1.00  0.00     0.074 A 
ATOM     45  C   UNL A   1      38.561  29.997  28.329  1.00  0.00     0.031 C 
ATOM     46  C   UNL A   1      43.575  27.152  32.097  1.00  0.00     0.029 A 
ATOM     47  C   UNL A   1      42.691  28.069  32.810  1.00  0.00     0.049 A 
ATOM     48  H   UNL A   1      41.065  29.120  32.039  1.00  0.00     0.167 HD
ATOM     49  C   UNL A   1      37.604  31.136  30.320  1.00  0.00     0.037 A 
ATOM     50  C   UNL A   1      42.789  28.389  34.115  1.00  0.00     0.037 A 
ATOM     51  C   UNL A   1      37.585  31.476  31.721  1.00  0.00     0.049 A 
ATOM     52  C   UNL A   1      41.780  29.325  34.722  1.00  0.00     0.074 A 
ATOM     53  C   UNL A   1      36.666  32.253  32.406  1.00  0.00     0.029 A 
ATOM     54  N   UNL A   1      38.536  31.076  32.650  1.00  0.00    -0.354 N 
ATOM     55  N   UNL A   1      40.736  29.889  34.166  1.00  0.00    -0.248 NA
ATOM     56  C   UNL A   1      41.961  29.666  36.141  1.00  0.00     0.031 C 
ATOM     57  C   UNL A   1      37.091  32.372  33.733  1.00  0.00     0.029 A 
ATOM     58  C   UNL A   1      38.242  31.618  33.892  1.00  0.00     0.049 A 
ATOM     59  H   UNL A   1      39.305  30.493  32.455  1.00  0.00     0.167 HD
ATOM     60  C   UNL A   1      40.124  30.631  35.167  1.00  0.00     0.074 A 
ATOM     61  C   UNL A   1      40.902  30.429  36.372  1.00  0.00     0.031 C 
ATOM     62  C   UNL A   1      39.020  31.413  35.089  1.00  0.00     0.037 A 
BRANCH  49  63
ATOM     63  C   UNL A   1      36.514  31.697  29.453  1.00  0.00     0.064 A 
ATOM     64  C   UNL A   1      35.498  30.877  28.938  1.00  0.00     0.173 A 
ATOM     65  C   UNL A   1      36.427  33.077  29.209  1.00  0.00     0.173 A 
ATOM     66  F   UNL A   1      35.534  29.551  29.138  1.00  0.00    -0.203 F 
ATOM     67  C   UNL A   1      34.445  31.415  28.201  1.00  0.00     0.198 A 
ATOM     68  C   UNL A   1      35.359  33.614  28.497  1.00  0.00     0.198 A 
ATOM     69  F   UNL A   1      37.365  33.908  29.687  1.00  0.00    -0.203 F 
ATOM     70  F   UNL A   1      33.504  30.607  27.693  1.00  0.00    -0.200 F 
ATOM     71  C   UNL A   1      34.371  32.783  27.990  1.00  0.00     0.200 A 
ATOM     72  F   UNL A   1      35.278  34.939  28.310  1.00  0.00    -0.200 F 
ATOM     73  F   UNL A   1      33.346  33.301  27.298  1.00  0.00    -0.200 F 
ENDBRANCH  49  63
BRANCH  50  74
ATOM     74  C   UNL A   1      43.866  27.783  34.940  1.00  0.00     0.064 A 
ATOM     75  C   UNL A   1      45.091  28.442  35.119  1.00  0.00     0.173 A 
ATOM     76  C   UNL A   1      43.689  26.549  35.583  1.00  0.00     0.173 A 
ATOM     77  F   UNL A   1      45.315  29.615  34.507  1.00  0.00    -0.203 F 
ATOM     78  C   UNL A   1      46.100  27.884  35.899  1.00  0.00     0.198 A 
ATOM     79  C   UNL A   1      44.688  26.008  36.389  1.00  0.00     0.198 A 
ATOM     80  F   UNL A   1      42.534  25.880  35.447  1.00  0.00    -0.203 F 
ATOM     81  F   UNL A   1      47.275  28.517  36.022  1.00  0.00    -0.200 F 
ATOM     82  C   UNL A   1      45.895  26.673  36.542  1.00  0.00     0.200 A 
ATOM     83  F   UNL A   1      44.478  24.846  37.022  1.00  0.00    -0.200 F 
ATOM     84  F   UNL A   1      46.862  26.144  37.304  1.00  0.00    -0.200 F 
ENDBRANCH  50  74
BRANCH  62  85
ATOM     85  C   UNL A   1      38.568  32.111  36.341  1.00  0.00     0.064 A 
ATOM     86  C   UNL A   1      37.814  31.447  37.320  1.00  0.00     0.173 A 
ATOM     87  C   UNL A   1      38.957  33.435  36.601  1.00  0.00     0.173 A 
ATOM     88  F   UNL A   1      37.404  30.186  37.116  1.00  0.00    -0.203 F 
ATOM     89  C   UNL A   1      37.454  32.087  38.504  1.00  0.00     0.198 A 
ATOM     90  C   UNL A   1      38.624  34.060  37.799  1.00  0.00     0.198 A 
ATOM     91  F   UNL A   1      39.686  34.115  35.702  1.00  0.00    -0.203 F 
ATOM     92  F   UNL A   1      36.702  31.444  39.408  1.00  0.00    -0.200 F 
ATOM     93  C   UNL A   1      37.869  33.387  38.748  1.00  0.00     0.200 A 
ATOM     94  F   UNL A   1      39.043  35.310  38.041  1.00  0.00    -0.200 F 
ATOM     95  F   UNL A   1      37.541  33.992  39.897  1.00  0.00    -0.200 F 
ENDBRANCH  62  85
ENDBRANCH  36  37
ENDBRANCH  29  31
ENDBRANCH  28  29
ENDBRANCH  27  28
ENDBRANCH  26  27
ENDBRANCH   1  26
TORSDOF 17
ENDMDL
