MODEL 1
REMARK VINA RESULT:     -12.1      0.000      0.000
REMARK SMILES CC(C)[C@H]1CC[C@@H](C)/C(=C/c2ccc(NC(=O)CCC(=O)OCCOCCOC(=O)c3ccc(-c4c5nc(c(-c6c(F)c(F)c(F)c(F)c6F)c6ccc([nH]6)c(-c6c(F)c(F)c(F)c(F)c6F)c6nc(c(-c7c(F)c(F)c(F)c(F)c7F)c7ccc4[nH]7)C=C6)C=C5)cc3)cc2)C1=O
REMARK SMILES IDX 23 1 22 2 20 3 21 4 19 5 18 6 16 7 15 8 17 10 14 11 11 12
REMARK SMILES IDX 12 13 95 14 13 15 94 16 10 17 4 18 5 19 96 20 6 21 9 22
REMARK SMILES IDX 97 23 7 24 8 25 2 26 1 27 3 28 24 29 25 30 26 31 27 32 28 33
REMARK SMILES IDX 29 34 30 35 31 36 32 37 93 38 33 39 92 40 34 41 35 42 36 43
REMARK SMILES IDX 86 44 37 45 91 46 85 47 87 48 38 49 90 50 84 51 83 52 39 54
REMARK SMILES IDX 71 55 51 56 70 57 52 58 55 59 69 60 88 61 53 62 54 63 68 65
REMARK SMILES IDX 89 66 56 67 40 68 41 69 49 70 42 71 43 72 47 73 50 74 44 75
REMARK SMILES IDX 45 76 48 77 46 78 72 79 73 80 81 81 74 82 75 83 79 84 82 85
REMARK SMILES IDX 76 86 77 87 80 88 78 89 57 90 58 91 66 92 59 93 60 94 64 95
REMARK SMILES IDX 67 96 61 97 62 98 65 99 63 100
REMARK H PARENT 15 9 87 53 55 64
REMARK Flexibility Score: inf
ROOT
ATOM      1  C   UNL A   1      40.945  20.893  27.107  1.00  0.00     0.261 C 
ENDROOT
BRANCH   1   2
ATOM      2  O   UNL A   1      39.905  20.938  26.120  1.00  0.00    -0.463 OA
BRANCH   2   3
ATOM      3  C   UNL A   1      39.047  21.975  26.174  1.00  0.00     0.306 C 
ATOM      4  O   UNL A   1      39.242  23.007  26.802  1.00  0.00    -0.252 OA
BRANCH   3   5
ATOM      5  C   UNL A   1      37.805  21.704  25.359  1.00  0.00     0.132 C 
BRANCH   5   6
ATOM      6  C   UNL A   1      37.755  20.324  24.690  1.00  0.00     0.112 C 
BRANCH   6   7
ATOM      7  C   UNL A   1      36.459  19.570  24.964  1.00  0.00     0.224 C 
ATOM      8  N   UNL A   1      35.216  20.098  25.184  1.00  0.00    -0.326 N 
ATOM      9  H   UNL A   1      34.525  19.398  25.227  1.00  0.00     0.169 HD
ATOM     10  O   UNL A   1      36.514  18.329  24.934  1.00  0.00    -0.275 OA
BRANCH   8  11
ATOM     11  C   UNL A   1      34.672  21.385  25.364  1.00  0.00     0.041 A 
ATOM     12  C   UNL A   1      33.808  24.093  25.683  1.00  0.00    -0.025 A 
ATOM     13  C   UNL A   1      34.025  23.272  26.767  1.00  0.00     0.010 A 
ATOM     14  C   UNL A   1      33.876  23.507  24.418  1.00  0.00     0.010 A 
ATOM     15  C   UNL A   1      34.511  21.973  26.591  1.00  0.00     0.027 A 
ATOM     16  C   UNL A   1      34.260  22.148  24.267  1.00  0.00     0.027 A 
BRANCH  12  17
ATOM     17  C   UNL A   1      33.818  25.540  25.959  1.00  0.00     0.015 C 
ATOM     18  C   UNL A   1      30.908  26.655  24.556  1.00  0.00     0.063 C 
ATOM     19  C   UNL A   1      30.995  28.174  24.813  1.00  0.00     0.013 C 
ATOM     20  C   UNL A   1      31.391  25.931  25.809  1.00  0.00     0.162 C 
ATOM     21  C   UNL A   1      32.368  28.613  25.365  1.00  0.00     0.009 C 
ATOM     22  C   UNL A   1      32.763  26.341  26.202  1.00  0.00    -0.001 C 
ATOM     23  O   UNL A   1      30.738  25.146  26.484  1.00  0.00    -0.294 OA
ATOM     24  C   UNL A   1      32.824  27.799  26.587  1.00  0.00     0.020 C 
ATOM     25  C   UNL A   1      31.978  28.137  27.827  1.00  0.00     0.013 C 
BRANCH  18  26
ATOM     26  C   UNL A   1      29.538  26.112  24.078  1.00  0.00    -0.007 C 
ATOM     27  C   UNL A   1      28.618  27.158  23.454  1.00  0.00     0.008 C 
ATOM     28  C   UNL A   1      29.787  24.988  23.063  1.00  0.00     0.008 C 
ENDBRANCH  18  26
ENDBRANCH  12  17
ENDBRANCH   8  11
ENDBRANCH   6   7
ENDBRANCH   5   6
ENDBRANCH   3   5
ENDBRANCH   2   3
ENDBRANCH   1   2
BRANCH   1  29
ATOM     29  C   UNL A   1      42.110  19.974  26.692  1.00  0.00     0.202 C 
BRANCH  29  30
ATOM     30  O   UNL A   1      42.592  20.224  25.361  1.00  0.00    -0.374 OA
BRANCH  30  31
ATOM     31  C   UNL A   1      44.004  20.070  25.154  1.00  0.00     0.202 C 
BRANCH  31  32
ATOM     32  C   UNL A   1      44.726  21.436  24.876  1.00  0.00     0.261 C 
BRANCH  32  33
ATOM     33  O   UNL A   1      43.814  22.563  24.640  1.00  0.00    -0.460 OA
BRANCH  33  34
ATOM     34  C   UNL A   1      44.325  23.823  24.808  1.00  0.00     0.338 C 
ATOM     35  O   UNL A   1      45.250  24.288  24.160  1.00  0.00    -0.246 OA
BRANCH  34  36
ATOM     36  C   UNL A   1      43.557  24.669  25.801  1.00  0.00     0.060 A 
ATOM     37  C   UNL A   1      44.018  25.969  26.061  1.00  0.00     0.016 A 
ATOM     38  C   UNL A   1      42.461  24.219  26.546  1.00  0.00     0.016 A 
ATOM     39  C   UNL A   1      43.398  26.807  27.017  1.00  0.00     0.010 A 
ATOM     40  C   UNL A   1      41.862  25.052  27.540  1.00  0.00     0.010 A 
ATOM     41  C   UNL A   1      42.327  26.357  27.800  1.00  0.00    -0.014 A 
BRANCH  41  42
ATOM     42  C   UNL A   1      41.832  27.213  28.946  1.00  0.00     0.031 A 
ATOM     43  C   UNL A   1      42.553  27.180  30.280  1.00  0.00     0.074 A 
ATOM     44  C   UNL A   1      40.813  28.095  28.841  1.00  0.00     0.049 A 
ATOM     45  N   UNL A   1      42.335  27.881  31.372  1.00  0.00    -0.248 NA
ATOM     46  C   UNL A   1      43.673  26.238  30.390  1.00  0.00     0.031 C 
ATOM     47  C   UNL A   1      40.023  28.346  27.642  1.00  0.00     0.029 A 
ATOM     48  N   UNL A   1      40.273  28.962  29.778  1.00  0.00    -0.354 N 
ATOM     49  C   UNL A   1      43.298  27.478  32.290  1.00  0.00     0.074 A 
ATOM     50  C   UNL A   1      44.085  26.451  31.632  1.00  0.00     0.031 C 
ATOM     51  C   UNL A   1      39.102  29.291  27.912  1.00  0.00     0.029 A 
ATOM     52  C   UNL A   1      39.215  29.709  29.314  1.00  0.00     0.049 A 
ATOM     53  H   UNL A   1      40.618  29.037  30.697  1.00  0.00     0.167 HD
ATOM     54  C   UNL A   1      43.527  27.910  33.557  1.00  0.00     0.037 A 
ATOM     55  C   UNL A   1      38.420  30.614  29.930  1.00  0.00     0.037 A 
ATOM     56  C   UNL A   1      42.769  28.905  34.276  1.00  0.00     0.049 A 
ATOM     57  C   UNL A   1      38.620  30.993  31.383  1.00  0.00     0.074 A 
ATOM     58  C   UNL A   1      42.970  29.375  35.566  1.00  0.00     0.029 A 
ATOM     59  N   UNL A   1      41.659  29.570  33.789  1.00  0.00    -0.354 N 
ATOM     60  N   UNL A   1      39.559  30.632  32.218  1.00  0.00    -0.248 NA
ATOM     61  C   UNL A   1      37.633  31.918  31.976  1.00  0.00     0.031 C 
ATOM     62  C   UNL A   1      41.954  30.286  35.876  1.00  0.00     0.029 A 
ATOM     63  C   UNL A   1      41.147  30.421  34.762  1.00  0.00     0.049 A 
ATOM     64  H   UNL A   1      41.285  29.458  32.884  1.00  0.00     0.167 HD
ATOM     65  C   UNL A   1      39.299  31.305  33.410  1.00  0.00     0.074 A 
ATOM     66  C   UNL A   1      38.121  32.113  33.193  1.00  0.00     0.031 C 
ATOM     67  C   UNL A   1      39.985  31.250  34.577  1.00  0.00     0.037 A 
BRANCH  54  68
ATOM     68  C   UNL A   1      44.670  27.275  34.291  1.00  0.00     0.064 A 
ATOM     69  C   UNL A   1      44.516  26.052  34.960  1.00  0.00     0.173 A 
ATOM     70  C   UNL A   1      45.943  27.866  34.277  1.00  0.00     0.173 A 
ATOM     71  F   UNL A   1      43.318  25.451  34.999  1.00  0.00    -0.203 F 
ATOM     72  C   UNL A   1      45.591  25.457  35.614  1.00  0.00     0.198 A 
ATOM     73  C   UNL A   1      47.020  27.257  34.911  1.00  0.00     0.198 A 
ATOM     74  F   UNL A   1      46.141  29.025  33.632  1.00  0.00    -0.203 F 
ATOM     75  F   UNL A   1      45.416  24.308  36.279  1.00  0.00    -0.200 F 
ATOM     76  C   UNL A   1      46.842  26.058  35.586  1.00  0.00     0.200 A 
ATOM     77  F   UNL A   1      48.231  27.828  34.868  1.00  0.00    -0.200 F 
ATOM     78  F   UNL A   1      47.877  25.481  36.212  1.00  0.00    -0.200 F 
ENDBRANCH  54  68
BRANCH  55  79
ATOM     79  C   UNL A   1      37.293  31.251  29.190  1.00  0.00     0.064 A 
ATOM     80  C   UNL A   1      37.315  32.618  28.873  1.00  0.00     0.173 A 
ATOM     81  C   UNL A   1      36.125  30.533  28.898  1.00  0.00     0.173 A 
ATOM     82  F   UNL A   1      38.389  33.359  29.182  1.00  0.00    -0.203 F 
ATOM     83  C   UNL A   1      36.204  33.245  28.313  1.00  0.00     0.198 A 
ATOM     84  C   UNL A   1      35.025  31.156  28.313  1.00  0.00     0.198 A 
ATOM     85  F   UNL A   1      36.043  29.231  29.209  1.00  0.00    -0.203 F 
ATOM     86  F   UNL A   1      36.225  34.566  28.084  1.00  0.00    -0.200 F 
ATOM     87  C   UNL A   1      35.060  32.513  28.031  1.00  0.00     0.200 A 
ATOM     88  F   UNL A   1      33.919  30.446  28.047  1.00  0.00    -0.200 F 
ATOM     89  F   UNL A   1      33.986  33.119  27.508  1.00  0.00    -0.200 F 
ENDBRANCH  55  79
BRANCH  67  90
ATOM     90  C   UNL A   1      39.519  32.114  35.722  1.00  0.00     0.064 A 
ATOM     91  C   UNL A   1      38.552  31.673  36.639  1.00  0.00     0.173 A 
ATOM     92  C   UNL A   1      40.068  33.391  35.924  1.00  0.00     0.173 A 
ATOM     93  F   UNL A   1      37.982  30.467  36.492  1.00  0.00    -0.203 F 
ATOM     94  C   UNL A   1      38.133  32.486  37.694  1.00  0.00     0.198 A 
ATOM     95  C   UNL A   1      39.666  34.190  36.995  1.00  0.00     0.198 A 
ATOM     96  F   UNL A   1      40.999  33.868  35.086  1.00  0.00    -0.203 F 
ATOM     97  F   UNL A   1      37.174  32.058  38.526  1.00  0.00    -0.200 F 
ATOM     98  C   UNL A   1      38.693  33.740  37.874  1.00  0.00     0.200 A 
ATOM     99  F   UNL A   1      40.218  35.399  37.173  1.00  0.00    -0.200 F 
ATOM    100  F   UNL A   1      38.292  34.519  38.889  1.00  0.00    -0.200 F 
ENDBRANCH  67  90
ENDBRANCH  41  42
ENDBRANCH  34  36
ENDBRANCH  33  34
ENDBRANCH  32  33
ENDBRANCH  31  32
ENDBRANCH  30  31
ENDBRANCH  29  30
ENDBRANCH   1  29
TORSDOF 19
ENDMDL
MODEL 2
REMARK VINA RESULT:     -11.2      4.858      7.005
REMARK SMILES CC(C)[C@H]1CC[C@@H](C)/C(=C/c2ccc(NC(=O)CCC(=O)OCCOCCOC(=O)c3ccc(-c4c5nc(c(-c6c(F)c(F)c(F)c(F)c6F)c6ccc([nH]6)c(-c6c(F)c(F)c(F)c(F)c6F)c6nc(c(-c7c(F)c(F)c(F)c(F)c7F)c7ccc4[nH]7)C=C6)C=C5)cc3)cc2)C1=O
REMARK SMILES IDX 23 1 22 2 20 3 21 4 19 5 18 6 16 7 15 8 17 10 14 11 11 12
REMARK SMILES IDX 12 13 95 14 13 15 94 16 10 17 4 18 5 19 96 20 6 21 9 22
REMARK SMILES IDX 97 23 7 24 8 25 2 26 1 27 3 28 24 29 25 30 26 31 27 32 28 33
REMARK SMILES IDX 29 34 30 35 31 36 32 37 93 38 33 39 92 40 34 41 35 42 36 43
REMARK SMILES IDX 86 44 37 45 91 46 85 47 87 48 38 49 90 50 84 51 83 52 39 54
REMARK SMILES IDX 71 55 51 56 70 57 52 58 55 59 69 60 88 61 53 62 54 63 68 65
REMARK SMILES IDX 89 66 56 67 40 68 41 69 49 70 42 71 43 72 47 73 50 74 44 75
REMARK SMILES IDX 45 76 48 77 46 78 72 79 73 80 81 81 74 82 75 83 79 84 82 85
REMARK SMILES IDX 76 86 77 87 80 88 78 89 57 90 58 91 66 92 59 93 60 94 64 95
REMARK SMILES IDX 67 96 61 97 62 98 65 99 63 100
REMARK H PARENT 15 9 87 53 55 64
REMARK Flexibility Score: inf
ROOT
ATOM      1  C   UNL A   1      39.014  22.144  25.899  1.00  0.00     0.261 C 
ENDROOT
BRANCH   1   2
ATOM      2  O   UNL A   1      37.952  21.205  25.680  1.00  0.00    -0.463 OA
BRANCH   2   3
ATOM      3  C   UNL A   1      36.861  21.647  25.026  1.00  0.00     0.306 C 
ATOM      4  O   UNL A   1      36.887  22.385  24.049  1.00  0.00    -0.252 OA
BRANCH   3   5
ATOM      5  C   UNL A   1      35.592  21.120  25.652  1.00  0.00     0.132 C 
BRANCH   5   6
ATOM      6  C   UNL A   1      34.828  20.095  24.805  1.00  0.00     0.112 C 
BRANCH   6   7
ATOM      7  C   UNL A   1      33.340  20.035  25.132  1.00  0.00     0.224 C 
ATOM      8  N   UNL A   1      32.346  20.839  24.648  1.00  0.00    -0.326 N 
ATOM      9  H   UNL A   1      31.455  20.528  24.927  1.00  0.00     0.169 HD
ATOM     10  O   UNL A   1      32.967  19.119  25.884  1.00  0.00    -0.275 OA
BRANCH   8  11
ATOM     11  C   UNL A   1      32.269  22.000  23.851  1.00  0.00     0.041 A 
ATOM     12  C   UNL A   1      32.272  24.470  22.409  1.00  0.00    -0.025 A 
ATOM     13  C   UNL A   1      31.201  24.088  23.187  1.00  0.00     0.010 A 
ATOM     14  C   UNL A   1      33.291  23.534  22.228  1.00  0.00     0.010 A 
ATOM     15  C   UNL A   1      31.248  22.909  23.935  1.00  0.00     0.027 A 
ATOM     16  C   UNL A   1      33.263  22.287  22.910  1.00  0.00     0.027 A 
BRANCH  12  17
ATOM     17  C   UNL A   1      32.363  25.907  22.099  1.00  0.00     0.015 C 
ATOM     18  C   UNL A   1      31.931  27.422  25.131  1.00  0.00     0.063 C 
ATOM     19  C   UNL A   1      31.970  28.916  24.746  1.00  0.00     0.013 C 
ATOM     20  C   UNL A   1      33.015  26.697  24.338  1.00  0.00     0.162 C 
ATOM     21  C   UNL A   1      31.962  29.144  23.220  1.00  0.00     0.009 C 
ATOM     22  C   UNL A   1      32.863  26.889  22.873  1.00  0.00    -0.001 C 
ATOM     23  O   UNL A   1      33.957  26.074  24.810  1.00  0.00    -0.294 OA
ATOM     24  C   UNL A   1      33.036  28.334  22.476  1.00  0.00     0.020 C 
ATOM     25  C   UNL A   1      34.445  28.880  22.766  1.00  0.00     0.013 C 
BRANCH  18  26
ATOM     26  C   UNL A   1      32.017  27.095  26.643  1.00  0.00    -0.007 C 
ATOM     27  C   UNL A   1      31.545  28.214  27.568  1.00  0.00     0.008 C 
ATOM     28  C   UNL A   1      31.191  25.832  26.916  1.00  0.00     0.008 C 
ENDBRANCH  18  26
ENDBRANCH  12  17
ENDBRANCH   8  11
ENDBRANCH   6   7
ENDBRANCH   5   6
ENDBRANCH   3   5
ENDBRANCH   2   3
ENDBRANCH   1   2
BRANCH   1  29
ATOM     29  C   UNL A   1      40.148  21.557  26.762  1.00  0.00     0.202 C 
BRANCH  29  30
ATOM     30  O   UNL A   1      41.206  20.963  25.992  1.00  0.00    -0.374 OA
BRANCH  30  31
ATOM     31  C   UNL A   1      41.293  19.531  26.024  1.00  0.00     0.202 C 
BRANCH  31  32
ATOM     32  C   UNL A   1      42.767  19.011  25.872  1.00  0.00     0.261 C 
BRANCH  32  33
ATOM     33  O   UNL A   1      43.275  19.035  24.493  1.00  0.00    -0.460 OA
BRANCH  33  34
ATOM     34  C   UNL A   1      44.582  19.409  24.319  1.00  0.00     0.338 C 
ATOM     35  O   UNL A   1      45.446  18.697  23.828  1.00  0.00    -0.246 OA
BRANCH  34  36
ATOM     36  C   UNL A   1      44.860  20.853  24.674  1.00  0.00     0.060 A 
ATOM     37  C   UNL A   1      45.291  21.145  25.977  1.00  0.00     0.016 A 
ATOM     38  C   UNL A   1      44.640  21.938  23.816  1.00  0.00     0.016 A 
ATOM     39  C   UNL A   1      45.517  22.471  26.413  1.00  0.00     0.010 A 
ATOM     40  C   UNL A   1      44.830  23.278  24.271  1.00  0.00     0.010 A 
ATOM     41  C   UNL A   1      45.262  23.569  25.581  1.00  0.00    -0.014 A 
BRANCH  41  42
ATOM     42  C   UNL A   1      45.322  24.968  26.155  1.00  0.00     0.031 A 
ATOM     43  C   UNL A   1      46.631  25.736  26.138  1.00  0.00     0.074 A 
ATOM     44  C   UNL A   1      44.245  25.638  26.620  1.00  0.00     0.049 A 
ATOM     45  N   UNL A   1      46.888  26.969  26.518  1.00  0.00    -0.248 NA
ATOM     46  C   UNL A   1      47.799  25.018  25.615  1.00  0.00     0.031 C 
ATOM     47  C   UNL A   1      42.880  25.128  26.668  1.00  0.00     0.029 A 
ATOM     48  N   UNL A   1      44.136  26.919  27.137  1.00  0.00    -0.354 N 
ATOM     49  C   UNL A   1      48.238  27.180  26.264  1.00  0.00     0.074 A 
ATOM     50  C   UNL A   1      48.751  25.935  25.721  1.00  0.00     0.031 C 
ATOM     51  C   UNL A   1      42.075  26.074  27.188  1.00  0.00     0.029 A 
ATOM     52  C   UNL A   1      42.863  27.262  27.532  1.00  0.00     0.049 A 
ATOM     53  H   UNL A   1      44.903  27.531  27.214  1.00  0.00     0.167 HD
ATOM     54  C   UNL A   1      48.995  28.291  26.450  1.00  0.00     0.037 A 
ATOM     55  C   UNL A   1      42.378  28.386  28.110  1.00  0.00     0.037 A 
ATOM     56  C   UNL A   1      48.556  29.547  27.007  1.00  0.00     0.049 A 
ATOM     57  C   UNL A   1      43.269  29.572  28.419  1.00  0.00     0.074 A 
ATOM     58  C   UNL A   1      49.294  30.704  27.212  1.00  0.00     0.029 A 
ATOM     59  N   UNL A   1      47.279  29.815  27.466  1.00  0.00    -0.354 N 
ATOM     60  N   UNL A   1      44.531  29.766  28.134  1.00  0.00    -0.248 NA
ATOM     61  C   UNL A   1      42.651  30.705  29.137  1.00  0.00     0.031 C 
ATOM     62  C   UNL A   1      48.478  31.653  27.840  1.00  0.00     0.029 A 
ATOM     63  C   UNL A   1      47.218  31.104  27.982  1.00  0.00     0.049 A 
ATOM     64  H   UNL A   1      46.523  29.184  27.433  1.00  0.00     0.167 HD
ATOM     65  C   UNL A   1      44.843  31.041  28.602  1.00  0.00     0.074 A 
ATOM     66  C   UNL A   1      43.638  31.589  29.178  1.00  0.00     0.031 C 
ATOM     67  C   UNL A   1      46.032  31.689  28.552  1.00  0.00     0.037 A 
BRANCH  54  68
ATOM     68  C   UNL A   1      50.440  28.198  26.057  1.00  0.00     0.064 A 
ATOM     69  C   UNL A   1      51.447  28.033  27.019  1.00  0.00     0.173 A 
ATOM     70  C   UNL A   1      50.813  28.219  24.704  1.00  0.00     0.173 A 
ATOM     71  F   UNL A   1      51.137  28.007  28.323  1.00  0.00    -0.203 F 
ATOM     72  C   UNL A   1      52.782  27.920  26.641  1.00  0.00     0.198 A 
ATOM     73  C   UNL A   1      52.145  28.080  24.329  1.00  0.00     0.198 A 
ATOM     74  F   UNL A   1      49.881  28.355  23.749  1.00  0.00    -0.203 F 
ATOM     75  F   UNL A   1      53.734  27.799  27.575  1.00  0.00    -0.200 F 
ATOM     76  C   UNL A   1      53.128  27.939  25.297  1.00  0.00     0.200 A 
ATOM     77  F   UNL A   1      52.477  28.082  23.031  1.00  0.00    -0.200 F 
ATOM     78  F   UNL A   1      54.413  27.825  24.934  1.00  0.00    -0.200 F 
ENDBRANCH  54  68
BRANCH  55  79
ATOM     79  C   UNL A   1      40.939  28.476  28.487  1.00  0.00     0.064 A 
ATOM     80  C   UNL A   1      39.989  29.006  27.599  1.00  0.00     0.173 A 
ATOM     81  C   UNL A   1      40.511  28.150  29.781  1.00  0.00     0.173 A 
ATOM     82  F   UNL A   1      40.362  29.383  26.368  1.00  0.00    -0.203 F 
ATOM     83  C   UNL A   1      38.673  29.225  28.001  1.00  0.00     0.198 A 
ATOM     84  C   UNL A   1      39.188  28.345  30.172  1.00  0.00     0.198 A 
ATOM     85  F   UNL A   1      41.386  27.668  30.676  1.00  0.00    -0.203 F 
ATOM     86  F   UNL A   1      37.802  29.797  27.156  1.00  0.00    -0.200 F 
ATOM     87  C   UNL A   1      38.272  28.892  29.285  1.00  0.00     0.200 A 
ATOM     88  F   UNL A   1      38.805  28.027  31.416  1.00  0.00    -0.200 F 
ATOM     89  F   UNL A   1      37.011  29.119  29.677  1.00  0.00    -0.200 F 
ENDBRANCH  55  79
BRANCH  67  90
ATOM     90  C   UNL A   1      46.104  33.093  29.097  1.00  0.00     0.064 A 
ATOM     91  C   UNL A   1      46.465  33.355  30.429  1.00  0.00     0.173 A 
ATOM     92  C   UNL A   1      45.836  34.197  28.271  1.00  0.00     0.173 A 
ATOM     93  F   UNL A   1      46.721  32.341  31.270  1.00  0.00    -0.203 F 
ATOM     94  C   UNL A   1      46.527  34.661  30.916  1.00  0.00     0.198 A 
ATOM     95  C   UNL A   1      45.925  35.502  28.755  1.00  0.00     0.198 A 
ATOM     96  F   UNL A   1      45.490  34.014  26.988  1.00  0.00    -0.203 F 
ATOM     97  F   UNL A   1      46.829  34.879  32.204  1.00  0.00    -0.200 F 
ATOM     98  C   UNL A   1      46.263  35.733  30.079  1.00  0.00     0.200 A 
ATOM     99  F   UNL A   1      45.679  36.537  27.939  1.00  0.00    -0.200 F 
ATOM    100  F   UNL A   1      46.326  36.987  30.549  1.00  0.00    -0.200 F 
ENDBRANCH  67  90
ENDBRANCH  41  42
ENDBRANCH  34  36
ENDBRANCH  33  34
ENDBRANCH  32  33
ENDBRANCH  31  32
ENDBRANCH  30  31
ENDBRANCH  29  30
ENDBRANCH   1  29
TORSDOF 19
ENDMDL
MODEL 3
REMARK VINA RESULT:     -11.1      5.369     10.929
REMARK SMILES CC(C)[C@H]1CC[C@@H](C)/C(=C/c2ccc(NC(=O)CCC(=O)OCCOCCOC(=O)c3ccc(-c4c5nc(c(-c6c(F)c(F)c(F)c(F)c6F)c6ccc([nH]6)c(-c6c(F)c(F)c(F)c(F)c6F)c6nc(c(-c7c(F)c(F)c(F)c(F)c7F)c7ccc4[nH]7)C=C6)C=C5)cc3)cc2)C1=O
REMARK SMILES IDX 23 1 22 2 20 3 21 4 19 5 18 6 16 7 15 8 17 10 14 11 11 12
REMARK SMILES IDX 12 13 95 14 13 15 94 16 10 17 4 18 5 19 96 20 6 21 9 22
REMARK SMILES IDX 97 23 7 24 8 25 2 26 1 27 3 28 24 29 25 30 26 31 27 32 28 33
REMARK SMILES IDX 29 34 30 35 31 36 32 37 93 38 33 39 92 40 34 41 35 42 36 43
REMARK SMILES IDX 86 44 37 45 91 46 85 47 87 48 38 49 90 50 84 51 83 52 39 54
REMARK SMILES IDX 71 55 51 56 70 57 52 58 55 59 69 60 88 61 53 62 54 63 68 65
REMARK SMILES IDX 89 66 56 67 40 68 41 69 49 70 42 71 43 72 47 73 50 74 44 75
REMARK SMILES IDX 45 76 48 77 46 78 72 79 73 80 81 81 74 82 75 83 79 84 82 85
REMARK SMILES IDX 76 86 77 87 80 88 78 89 57 90 58 91 66 92 59 93 60 94 64 95
REMARK SMILES IDX 67 96 61 97 62 98 65 99 63 100
REMARK H PARENT 15 9 87 53 55 64
REMARK Flexibility Score: inf
ROOT
ATOM      1  C   UNL A   1      34.509  34.565  29.611  1.00  0.00     0.261 C 
ENDROOT
BRANCH   1   2
ATOM      2  O   UNL A   1      33.549  33.940  28.748  1.00  0.00    -0.463 OA
BRANCH   2   3
ATOM      3  C   UNL A   1      33.831  32.700  28.303  1.00  0.00     0.306 C 
ATOM      4  O   UNL A   1      33.154  32.081  27.493  1.00  0.00    -0.252 OA
BRANCH   3   5
ATOM      5  C   UNL A   1      35.095  32.164  28.932  1.00  0.00     0.132 C 
BRANCH   5   6
ATOM      6  C   UNL A   1      35.245  30.638  28.890  1.00  0.00     0.112 C 
BRANCH   6   7
ATOM      7  C   UNL A   1      36.079  30.149  27.712  1.00  0.00     0.224 C 
ATOM      8  N   UNL A   1      35.659  29.408  26.641  1.00  0.00    -0.326 N 
ATOM      9  H   UNL A   1      36.365  29.315  25.962  1.00  0.00     0.169 HD
ATOM     10  O   UNL A   1      37.270  30.502  27.682  1.00  0.00    -0.275 OA
BRANCH   8  11
ATOM     11  C   UNL A   1      34.474  28.746  26.261  1.00  0.00     0.041 A 
ATOM     12  C   UNL A   1      32.185  27.177  25.567  1.00  0.00    -0.025 A 
ATOM     13  C   UNL A   1      33.059  27.644  24.610  1.00  0.00     0.010 A 
ATOM     14  C   UNL A   1      32.374  27.630  26.873  1.00  0.00     0.010 A 
ATOM     15  C   UNL A   1      34.207  28.351  24.977  1.00  0.00     0.027 A 
ATOM     16  C   UNL A   1      33.487  28.448  27.206  1.00  0.00     0.027 A 
BRANCH  12  17
ATOM     17  C   UNL A   1      31.340  26.039  25.167  1.00  0.00     0.015 C 
ATOM     18  C   UNL A   1      33.592  23.622  24.290  1.00  0.00     0.063 C 
ATOM     19  C   UNL A   1      32.664  22.482  23.822  1.00  0.00     0.013 C 
ATOM     20  C   UNL A   1      32.984  24.245  25.545  1.00  0.00     0.162 C 
ATOM     21  C   UNL A   1      31.186  22.912  23.719  1.00  0.00     0.009 C 
ATOM     22  C   UNL A   1      31.597  24.726  25.319  1.00  0.00    -0.001 C 
ATOM     23  O   UNL A   1      33.513  24.306  26.647  1.00  0.00    -0.294 OA
ATOM     24  C   UNL A   1      30.657  23.592  24.993  1.00  0.00     0.020 C 
ATOM     25  C   UNL A   1      30.505  22.579  26.141  1.00  0.00     0.013 C 
BRANCH  18  26
ATOM     26  C   UNL A   1      35.083  23.259  24.501  1.00  0.00    -0.007 C 
ATOM     27  C   UNL A   1      35.323  21.980  25.298  1.00  0.00     0.008 C 
ATOM     28  C   UNL A   1      35.752  23.131  23.126  1.00  0.00     0.008 C 
ENDBRANCH  18  26
ENDBRANCH  12  17
ENDBRANCH   8  11
ENDBRANCH   6   7
ENDBRANCH   5   6
ENDBRANCH   3   5
ENDBRANCH   2   3
ENDBRANCH   1   2
BRANCH   1  29
ATOM     29  C   UNL A   1      33.982  34.738  31.048  1.00  0.00     0.202 C 
BRANCH  29  30
ATOM     30  O   UNL A   1      34.046  33.536  31.832  1.00  0.00    -0.374 OA
BRANCH  30  31
ATOM     31  C   UNL A   1      33.881  33.688  33.250  1.00  0.00     0.202 C 
BRANCH  31  32
ATOM     32  C   UNL A   1      34.971  34.621  33.887  1.00  0.00     0.261 C 
BRANCH  32  33
ATOM     33  O   UNL A   1      36.346  34.313  33.472  1.00  0.00    -0.460 OA
BRANCH  33  34
ATOM     34  C   UNL A   1      36.890  33.145  33.939  1.00  0.00     0.338 C 
ATOM     35  O   UNL A   1      36.646  32.655  35.032  1.00  0.00    -0.246 OA
BRANCH  34  36
ATOM     36  C   UNL A   1      37.747  32.418  32.925  1.00  0.00     0.060 A 
ATOM     37  C   UNL A   1      38.828  31.658  33.393  1.00  0.00     0.016 A 
ATOM     38  C   UNL A   1      37.587  32.516  31.537  1.00  0.00     0.016 A 
ATOM     39  C   UNL A   1      39.715  30.995  32.513  1.00  0.00     0.010 A 
ATOM     40  C   UNL A   1      38.508  31.879  30.650  1.00  0.00     0.010 A 
ATOM     41  C   UNL A   1      39.594  31.115  31.123  1.00  0.00    -0.014 A 
BRANCH  41  42
ATOM     42  C   UNL A   1      40.682  30.559  30.230  1.00  0.00     0.031 A 
ATOM     43  C   UNL A   1      41.865  31.430  29.847  1.00  0.00     0.074 A 
ATOM     44  C   UNL A   1      40.723  29.278  29.801  1.00  0.00     0.049 A 
ATOM     45  N   UNL A   1      42.937  31.132  29.146  1.00  0.00    -0.248 NA
ATOM     46  C   UNL A   1      41.832  32.816  30.328  1.00  0.00     0.031 C 
ATOM     47  C   UNL A   1      39.737  28.248  30.101  1.00  0.00     0.029 A 
ATOM     48  N   UNL A   1      41.658  28.621  29.018  1.00  0.00    -0.354 N 
ATOM     49  C   UNL A   1      43.714  32.284  29.118  1.00  0.00     0.074 A 
ATOM     50  C   UNL A   1      42.973  33.295  29.850  1.00  0.00     0.031 C 
ATOM     51  C   UNL A   1      40.109  27.096  29.509  1.00  0.00     0.029 A 
ATOM     52  C   UNL A   1      41.358  27.302  28.767  1.00  0.00     0.049 A 
ATOM     53  H   UNL A   1      42.469  29.060  28.672  1.00  0.00     0.167 HD
ATOM     54  C   UNL A   1      44.928  32.501  28.549  1.00  0.00     0.037 A 
ATOM     55  C   UNL A   1      41.993  26.365  28.025  1.00  0.00     0.037 A 
ATOM     56  C   UNL A   1      45.702  31.551  27.788  1.00  0.00     0.049 A 
ATOM     57  C   UNL A   1      43.288  26.665  27.299  1.00  0.00     0.074 A 
ATOM     58  C   UNL A   1      46.944  31.731  27.194  1.00  0.00     0.029 A 
ATOM     59  N   UNL A   1      45.315  30.257  27.494  1.00  0.00    -0.354 N 
ATOM     60  N   UNL A   1      44.025  27.746  27.319  1.00  0.00    -0.248 NA
ATOM     61  C   UNL A   1      43.840  25.596  26.443  1.00  0.00     0.031 C 
ATOM     62  C   UNL A   1      47.284  30.564  26.500  1.00  0.00     0.029 A 
ATOM     63  C   UNL A   1      46.277  29.639  26.702  1.00  0.00     0.049 A 
ATOM     64  H   UNL A   1      44.480  29.834  27.801  1.00  0.00     0.167 HD
ATOM     65  C   UNL A   1      45.131  27.476  26.515  1.00  0.00     0.074 A 
ATOM     66  C   UNL A   1      44.984  26.124  26.031  1.00  0.00     0.031 C 
ATOM     67  C   UNL A   1      46.171  28.289  26.212  1.00  0.00     0.037 A 
BRANCH  54  68
ATOM     68  C   UNL A   1      45.514  33.872  28.710  1.00  0.00     0.064 A 
ATOM     69  C   UNL A   1      45.238  34.895  27.791  1.00  0.00     0.173 A 
ATOM     70  C   UNL A   1      46.312  34.179  29.823  1.00  0.00     0.173 A 
ATOM     71  F   UNL A   1      44.479  34.646  26.713  1.00  0.00    -0.203 F 
ATOM     72  C   UNL A   1      45.765  36.171  27.965  1.00  0.00     0.198 A 
ATOM     73  C   UNL A   1      46.817  35.463  30.006  1.00  0.00     0.198 A 
ATOM     74  F   UNL A   1      46.586  33.238  30.737  1.00  0.00    -0.203 F 
ATOM     75  F   UNL A   1      45.520  37.125  27.058  1.00  0.00    -0.200 F 
ATOM     76  C   UNL A   1      46.550  36.455  29.074  1.00  0.00     0.200 A 
ATOM     77  F   UNL A   1      47.560  35.740  31.086  1.00  0.00    -0.200 F 
ATOM     78  F   UNL A   1      47.051  37.685  29.244  1.00  0.00    -0.200 F 
ENDBRANCH  54  68
BRANCH  55  79
ATOM     79  C   UNL A   1      41.410  25.000  27.879  1.00  0.00     0.064 A 
ATOM     80  C   UNL A   1      42.044  23.878  28.437  1.00  0.00     0.173 A 
ATOM     81  C   UNL A   1      40.281  24.780  27.079  1.00  0.00     0.173 A 
ATOM     82  F   UNL A   1      43.159  24.033  29.165  1.00  0.00    -0.203 F 
ATOM     83  C   UNL A   1      41.582  22.589  28.179  1.00  0.00     0.198 A 
ATOM     84  C   UNL A   1      39.805  23.491  26.845  1.00  0.00     0.198 A 
ATOM     85  F   UNL A   1      39.657  25.816  26.500  1.00  0.00    -0.203 F 
ATOM     86  F   UNL A   1      42.247  21.531  28.667  1.00  0.00    -0.200 F 
ATOM     87  C   UNL A   1      40.462  22.396  27.387  1.00  0.00     0.200 A 
ATOM     88  F   UNL A   1      38.724  23.309  26.074  1.00  0.00    -0.200 F 
ATOM     89  F   UNL A   1      40.027  21.156  27.125  1.00  0.00    -0.200 F 
ENDBRANCH  55  79
BRANCH  67  90
ATOM     90  C   UNL A   1      47.276  27.744  25.343  1.00  0.00     0.064 A 
ATOM     91  C   UNL A   1      47.288  27.932  23.952  1.00  0.00     0.173 A 
ATOM     92  C   UNL A   1      48.355  27.046  25.910  1.00  0.00     0.173 A 
ATOM     93  F   UNL A   1      46.278  28.579  23.350  1.00  0.00    -0.203 F 
ATOM     94  C   UNL A   1      48.318  27.420  23.162  1.00  0.00     0.198 A 
ATOM     95  C   UNL A   1      49.397  26.559  25.121  1.00  0.00     0.198 A 
ATOM     96  F   UNL A   1      48.405  26.837  27.234  1.00  0.00    -0.203 F 
ATOM     97  F   UNL A   1      48.279  27.574  21.831  1.00  0.00    -0.200 F 
ATOM     98  C   UNL A   1      49.374  26.740  23.747  1.00  0.00     0.200 A 
ATOM     99  F   UNL A   1      50.423  25.910  25.691  1.00  0.00    -0.200 F 
ATOM    100  F   UNL A   1      50.365  26.251  22.987  1.00  0.00    -0.200 F 
ENDBRANCH  67  90
ENDBRANCH  41  42
ENDBRANCH  34  36
ENDBRANCH  33  34
ENDBRANCH  32  33
ENDBRANCH  31  32
ENDBRANCH  30  31
ENDBRANCH  29  30
ENDBRANCH   1  29
TORSDOF 19
ENDMDL
