MODEL 1
REMARK VINA RESULT:     -11.6      0.000      0.000
REMARK SMILES O=C(C[C@H]1C(=O)NCC[N@@H+]1Cc1ccc(Cl)c(F)c1)OCCOCCOC(=O)c1ccc(-c2c3nc(c(-c4c(F)c(F)c(F)c(F)c4F)c4ccc([nH]4)c(-c4c(F)c(F)c(F)c(F)c4F)c4nc(c(-c5c(F)c(F)c(F)c(F)c5F)c5ccc2[nH]5)C=C4)C=C3)cc1
REMARK SMILES IDX 22 1 21 2 20 3 2 4 1 5 3 6 4 7 5 8 10 9 6 10 7 11 9 12 8 14
REMARK SMILES IDX 11 16 12 17 13 18 19 19 14 20 17 21 15 22 18 23 16 24 23 25
REMARK SMILES IDX 24 26 25 27 26 28 27 29 28 30 29 31 30 32 91 33 31 34 90 35
REMARK SMILES IDX 32 36 33 37 34 38 84 39 35 40 89 41 83 42 85 43 36 44 88 45
REMARK SMILES IDX 82 46 81 47 37 49 69 50 49 51 68 52 50 53 53 54 67 55 86 56
REMARK SMILES IDX 51 57 52 58 66 60 87 61 54 62 38 63 39 64 47 65 40 66 41 67
REMARK SMILES IDX 45 68 48 69 42 70 43 71 46 72 44 73 70 74 71 75 79 76 72 77
REMARK SMILES IDX 73 78 77 79 80 80 74 81 75 82 78 83 76 84 55 85 56 86 64 87
REMARK SMILES IDX 57 88 58 89 62 90 65 91 59 92 60 93 63 94 61 95
REMARK H PARENT 10 13 7 15 85 48 53 59
REMARK Flexibility Score: inf
ROOT
ATOM      1  C   UNL A   1      29.281  31.279  24.237  1.00  0.00     0.202 C 
ENDROOT
BRANCH   1   2
ATOM      2  C   UNL A   1      29.105  30.584  22.886  1.00  0.00     0.261 C 
BRANCH   2   3
ATOM      3  O   UNL A   1      28.746  29.203  22.933  1.00  0.00    -0.463 OA
BRANCH   3   4
ATOM      4  C   UNL A   1      29.617  28.172  22.853  1.00  0.00     0.312 C 
ATOM      5  O   UNL A   1      30.472  28.180  21.966  1.00  0.00    -0.252 OA
BRANCH   4   6
ATOM      6  C   UNL A   1      29.466  26.966  23.747  1.00  0.00     0.198 C 
BRANCH   6   7
ATOM      7  C   UNL A   1      30.713  26.517  24.498  1.00  0.00     0.285 C 
ATOM      8  C   UNL A   1      30.288  25.388  25.438  1.00  0.00     0.279 C 
ATOM      9  N   UNL A   1      31.788  26.131  23.563  1.00  0.00    -0.319 N 
ATOM     10  O   UNL A   1      29.886  25.606  26.580  1.00  0.00    -0.268 OA
ATOM     11  N   UNL A   1      30.269  24.123  24.930  1.00  0.00    -0.345 N 
ATOM     12  C   UNL A   1      31.471  24.897  22.835  1.00  0.00     0.284 C 
ATOM     13  H   UNL A   1      31.805  26.855  22.845  1.00  0.00     0.349 HD
ATOM     14  C   UNL A   1      30.814  23.755  23.642  1.00  0.00     0.177 C 
ATOM     15  H   UNL A   1      29.857  23.415  25.475  1.00  0.00     0.163 HD
BRANCH   9  16
ATOM     16  C   UNL A   1      33.157  26.264  24.071  1.00  0.00     0.299 C 
BRANCH  16  17
ATOM     17  C   UNL A   1      33.835  24.965  24.418  1.00  0.00     0.009 A 
ATOM     18  C   UNL A   1      34.588  24.272  23.457  1.00  0.00     0.011 A 
ATOM     19  C   UNL A   1      33.834  24.514  25.742  1.00  0.00     0.050 A 
ATOM     20  C   UNL A   1      35.420  23.218  23.844  1.00  0.00     0.024 A 
ATOM     21  C   UNL A   1      34.687  23.488  26.124  1.00  0.00     0.142 A 
ATOM     22  C   UNL A   1      35.496  22.853  25.187  1.00  0.00     0.076 A 
ATOM     23  F   UNL A   1      34.756  23.171  27.425  1.00  0.00    -0.205 F 
ATOM     24  Cl  UNL A   1      36.622  21.648  25.676  1.00  0.00    -0.081 Cl
ENDBRANCH  16  17
ENDBRANCH   9  16
ENDBRANCH   6   7
ENDBRANCH   4   6
ENDBRANCH   3   4
ENDBRANCH   2   3
ENDBRANCH   1   2
BRANCH   1  25
ATOM     25  O   UNL A   1      30.556  31.308  24.859  1.00  0.00    -0.374 OA
BRANCH  25  26
ATOM     26  C   UNL A   1      31.182  30.071  25.214  1.00  0.00     0.202 C 
BRANCH  26  27
ATOM     27  C   UNL A   1      32.659  30.091  25.606  1.00  0.00     0.261 C 
BRANCH  27  28
ATOM     28  O   UNL A   1      32.823  30.298  27.014  1.00  0.00    -0.460 OA
BRANCH  28  29
ATOM     29  C   UNL A   1      33.453  31.446  27.349  1.00  0.00     0.338 C 
ATOM     30  O   UNL A   1      32.958  32.556  27.488  1.00  0.00    -0.246 OA
BRANCH  29  31
ATOM     31  C   UNL A   1      34.824  31.125  27.775  1.00  0.00     0.060 A 
ATOM     32  C   UNL A   1      35.136  29.778  28.012  1.00  0.00     0.016 A 
ATOM     33  C   UNL A   1      35.777  32.127  27.964  1.00  0.00     0.016 A 
ATOM     34  C   UNL A   1      36.385  29.432  28.512  1.00  0.00     0.010 A 
ATOM     35  C   UNL A   1      37.021  31.784  28.484  1.00  0.00     0.010 A 
ATOM     36  C   UNL A   1      37.305  30.445  28.806  1.00  0.00    -0.014 A 
BRANCH  36  37
ATOM     37  C   UNL A   1      38.458  30.134  29.673  1.00  0.00     0.031 A 
ATOM     38  C   UNL A   1      39.497  29.190  29.141  1.00  0.00     0.074 A 
ATOM     39  C   UNL A   1      38.578  30.694  30.886  1.00  0.00     0.049 A 
ATOM     40  N   UNL A   1      40.554  28.697  29.731  1.00  0.00    -0.248 NA
ATOM     41  C   UNL A   1      39.313  28.730  27.753  1.00  0.00     0.031 C 
ATOM     42  C   UNL A   1      37.648  31.659  31.466  1.00  0.00     0.029 A 
ATOM     43  N   UNL A   1      39.533  30.516  31.852  1.00  0.00    -0.354 N 
ATOM     44  C   UNL A   1      41.149  27.861  28.794  1.00  0.00     0.074 A 
ATOM     45  C   UNL A   1      40.322  27.887  27.609  1.00  0.00     0.031 C 
ATOM     46  C   UNL A   1      38.069  31.976  32.702  1.00  0.00     0.029 A 
ATOM     47  C   UNL A   1      39.273  31.207  33.008  1.00  0.00     0.049 A 
ATOM     48  H   UNL A   1      40.327  29.948  31.728  1.00  0.00     0.167 HD
ATOM     49  C   UNL A   1      42.289  27.143  28.916  1.00  0.00     0.037 A 
ATOM     50  C   UNL A   1      39.926  31.188  34.184  1.00  0.00     0.037 A 
ATOM     51  C   UNL A   1      43.097  27.132  30.105  1.00  0.00     0.049 A 
ATOM     52  C   UNL A   1      41.154  30.323  34.320  1.00  0.00     0.074 A 
ATOM     53  C   UNL A   1      44.281  26.457  30.338  1.00  0.00     0.029 A 
ATOM     54  N   UNL A   1      42.793  27.827  31.268  1.00  0.00    -0.354 N 
ATOM     55  N   UNL A   1      41.728  29.551  33.428  1.00  0.00    -0.248 NA
ATOM     56  C   UNL A   1      41.828  30.333  35.624  1.00  0.00     0.031 C 
ATOM     57  C   UNL A   1      44.663  26.695  31.662  1.00  0.00     0.029 A 
ATOM     58  C   UNL A   1      43.754  27.574  32.233  1.00  0.00     0.049 A 
ATOM     59  H   UNL A   1      42.013  28.413  31.388  1.00  0.00     0.167 HD
ATOM     60  C   UNL A   1      42.843  29.006  34.051  1.00  0.00     0.074 A 
ATOM     61  C   UNL A   1      42.873  29.551  35.393  1.00  0.00     0.031 C 
ATOM     62  C   UNL A   1      43.762  28.137  33.560  1.00  0.00     0.037 A 
BRANCH  49  63
ATOM     63  C   UNL A   1      42.703  26.293  27.750  1.00  0.00     0.064 A 
ATOM     64  C   UNL A   1      42.165  25.014  27.536  1.00  0.00     0.173 A 
ATOM     65  C   UNL A   1      43.640  26.772  26.824  1.00  0.00     0.173 A 
ATOM     66  F   UNL A   1      41.280  24.500  28.403  1.00  0.00    -0.203 F 
ATOM     67  C   UNL A   1      42.571  24.238  26.453  1.00  0.00     0.198 A 
ATOM     68  C   UNL A   1      44.019  26.007  25.724  1.00  0.00     0.198 A 
ATOM     69  F   UNL A   1      44.188  27.987  26.981  1.00  0.00    -0.203 F 
ATOM     70  F   UNL A   1      42.084  22.999  26.299  1.00  0.00    -0.200 F 
ATOM     71  C   UNL A   1      43.491  24.738  25.544  1.00  0.00     0.200 A 
ATOM     72  F   UNL A   1      44.900  26.497  24.840  1.00  0.00    -0.200 F 
ATOM     73  F   UNL A   1      43.875  23.993  24.498  1.00  0.00    -0.200 F 
ENDBRANCH  49  63
BRANCH  50  74
ATOM     74  C   UNL A   1      39.428  32.000  35.325  1.00  0.00     0.064 A 
ATOM     75  C   UNL A   1      39.827  33.332  35.492  1.00  0.00     0.173 A 
ATOM     76  C   UNL A   1      38.550  31.458  36.275  1.00  0.00     0.173 A 
ATOM     77  F   UNL A   1      40.681  33.890  34.622  1.00  0.00    -0.203 F 
ATOM     78  C   UNL A   1      39.383  34.085  36.578  1.00  0.00     0.198 A 
ATOM     79  C   UNL A   1      38.083  32.221  37.343  1.00  0.00     0.198 A 
ATOM     80  F   UNL A   1      38.135  30.188  36.161  1.00  0.00    -0.203 F 
ATOM     81  F   UNL A   1      39.817  35.342  36.740  1.00  0.00    -0.200 F 
ATOM     82  C   UNL A   1      38.506  33.532  37.499  1.00  0.00     0.200 A 
ATOM     83  F   UNL A   1      37.222  31.686  38.220  1.00  0.00    -0.200 F 
ATOM     84  F   UNL A   1      38.076  34.258  38.538  1.00  0.00    -0.200 F 
ENDBRANCH  50  74
BRANCH  62  85
ATOM     85  C   UNL A   1      44.898  27.755  34.466  1.00  0.00     0.064 A 
ATOM     86  C   UNL A   1      46.074  28.514  34.537  1.00  0.00     0.173 A 
ATOM     87  C   UNL A   1      44.785  26.636  35.306  1.00  0.00     0.173 A 
ATOM     88  F   UNL A   1      46.236  29.586  33.746  1.00  0.00    -0.203 F 
ATOM     89  C   UNL A   1      47.109  28.151  35.394  1.00  0.00     0.198 A 
ATOM     90  C   UNL A   1      45.806  26.297  36.187  1.00  0.00     0.198 A 
ATOM     91  F   UNL A   1      43.676  25.881  35.284  1.00  0.00    -0.203 F 
ATOM     92  F   UNL A   1      48.246  28.859  35.407  1.00  0.00    -0.200 F 
ATOM     93  C   UNL A   1      46.972  27.047  36.224  1.00  0.00     0.200 A 
ATOM     94  F   UNL A   1      45.664  25.242  37.002  1.00  0.00    -0.200 F 
ATOM     95  F   UNL A   1      47.965  26.705  37.056  1.00  0.00    -0.200 F 
ENDBRANCH  62  85
ENDBRANCH  36  37
ENDBRANCH  29  31
ENDBRANCH  28  29
ENDBRANCH  27  28
ENDBRANCH  26  27
ENDBRANCH  25  26
ENDBRANCH   1  25
TORSDOF 17
ENDMDL
MODEL 2
REMARK VINA RESULT:     -11.6      5.077      9.790
REMARK SMILES O=C(C[C@H]1C(=O)NCC[N@@H+]1Cc1ccc(Cl)c(F)c1)OCCOCCOC(=O)c1ccc(-c2c3nc(c(-c4c(F)c(F)c(F)c(F)c4F)c4ccc([nH]4)c(-c4c(F)c(F)c(F)c(F)c4F)c4nc(c(-c5c(F)c(F)c(F)c(F)c5F)c5ccc2[nH]5)C=C4)C=C3)cc1
REMARK SMILES IDX 22 1 21 2 20 3 2 4 1 5 3 6 4 7 5 8 10 9 6 10 7 11 9 12 8 14
REMARK SMILES IDX 11 16 12 17 13 18 19 19 14 20 17 21 15 22 18 23 16 24 23 25
REMARK SMILES IDX 24 26 25 27 26 28 27 29 28 30 29 31 30 32 91 33 31 34 90 35
REMARK SMILES IDX 32 36 33 37 34 38 84 39 35 40 89 41 83 42 85 43 36 44 88 45
REMARK SMILES IDX 82 46 81 47 37 49 69 50 49 51 68 52 50 53 53 54 67 55 86 56
REMARK SMILES IDX 51 57 52 58 66 60 87 61 54 62 38 63 39 64 47 65 40 66 41 67
REMARK SMILES IDX 45 68 48 69 42 70 43 71 46 72 44 73 70 74 71 75 79 76 72 77
REMARK SMILES IDX 73 78 77 79 80 80 74 81 75 82 78 83 76 84 55 85 56 86 64 87
REMARK SMILES IDX 57 88 58 89 62 90 65 91 59 92 60 93 63 94 61 95
REMARK H PARENT 10 13 7 15 85 48 53 59
REMARK Flexibility Score: inf
ROOT
ATOM      1  C   UNL A   1      37.415  22.716  25.668  1.00  0.00     0.202 C 
ENDROOT
BRANCH   1   2
ATOM      2  C   UNL A   1      36.591  23.957  25.320  1.00  0.00     0.261 C 
BRANCH   2   3
ATOM      3  O   UNL A   1      35.958  23.950  24.040  1.00  0.00    -0.463 OA
BRANCH   3   4
ATOM      4  C   UNL A   1      34.657  23.658  23.820  1.00  0.00     0.312 C 
ATOM      5  O   UNL A   1      33.906  24.544  23.407  1.00  0.00    -0.252 OA
BRANCH   4   6
ATOM      6  C   UNL A   1      34.097  22.308  24.197  1.00  0.00     0.198 C 
BRANCH   6   7
ATOM      7  C   UNL A   1      32.830  22.313  25.043  1.00  0.00     0.285 C 
ATOM      8  C   UNL A   1      32.624  20.883  25.546  1.00  0.00     0.279 C 
ATOM      9  N   UNL A   1      32.915  23.312  26.126  1.00  0.00    -0.319 N 
ATOM     10  O   UNL A   1      31.988  20.049  24.903  1.00  0.00    -0.268 OA
ATOM     11  N   UNL A   1      33.262  20.526  26.697  1.00  0.00    -0.345 N 
ATOM     12  C   UNL A   1      33.901  22.939  27.147  1.00  0.00     0.284 C 
ATOM     13  H   UNL A   1      33.296  24.155  25.697  1.00  0.00     0.349 HD
ATOM     14  C   UNL A   1      33.944  21.454  27.572  1.00  0.00     0.177 C 
ATOM     15  H   UNL A   1      33.259  19.575  26.948  1.00  0.00     0.163 HD
BRANCH   9  16
ATOM     16  C   UNL A   1      31.635  23.844  26.607  1.00  0.00     0.299 C 
BRANCH  16  17
ATOM     17  C   UNL A   1      31.281  25.211  26.085  1.00  0.00     0.009 A 
ATOM     18  C   UNL A   1      32.113  26.313  26.340  1.00  0.00     0.011 A 
ATOM     19  C   UNL A   1      30.192  25.362  25.220  1.00  0.00     0.050 A 
ATOM     20  C   UNL A   1      31.924  27.511  25.646  1.00  0.00     0.024 A 
ATOM     21  C   UNL A   1      30.030  26.545  24.510  1.00  0.00     0.142 A 
ATOM     22  C   UNL A   1      30.903  27.611  24.702  1.00  0.00     0.076 A 
ATOM     23  F   UNL A   1      29.054  26.606  23.593  1.00  0.00    -0.205 F 
ATOM     24  Cl  UNL A   1      30.762  29.039  23.754  1.00  0.00    -0.081 Cl
ENDBRANCH  16  17
ENDBRANCH   9  16
ENDBRANCH   6   7
ENDBRANCH   4   6
ENDBRANCH   3   4
ENDBRANCH   2   3
ENDBRANCH   1   2
BRANCH   1  25
ATOM     25  O   UNL A   1      37.751  21.781  24.655  1.00  0.00    -0.374 OA
BRANCH  25  26
ATOM     26  C   UNL A   1      37.617  20.383  24.931  1.00  0.00     0.202 C 
BRANCH  26  27
ATOM     27  C   UNL A   1      38.868  19.599  25.324  1.00  0.00     0.261 C 
BRANCH  27  28
ATOM     28  O   UNL A   1      39.768  20.402  26.097  1.00  0.00    -0.460 OA
BRANCH  28  29
ATOM     29  C   UNL A   1      41.043  19.955  26.129  1.00  0.00     0.338 C 
ATOM     30  O   UNL A   1      41.465  18.876  25.735  1.00  0.00    -0.246 OA
BRANCH  29  31
ATOM     31  C   UNL A   1      41.927  21.073  26.492  1.00  0.00     0.060 A 
ATOM     32  C   UNL A   1      42.115  21.340  27.857  1.00  0.00     0.016 A 
ATOM     33  C   UNL A   1      42.538  21.859  25.515  1.00  0.00     0.016 A 
ATOM     34  C   UNL A   1      42.859  22.444  28.252  1.00  0.00     0.010 A 
ATOM     35  C   UNL A   1      43.267  22.977  25.910  1.00  0.00     0.010 A 
ATOM     36  C   UNL A   1      43.382  23.297  27.274  1.00  0.00    -0.014 A 
BRANCH  36  37
ATOM     37  C   UNL A   1      43.833  24.646  27.669  1.00  0.00     0.031 A 
ATOM     38  C   UNL A   1      42.782  25.661  28.011  1.00  0.00     0.074 A 
ATOM     39  C   UNL A   1      45.139  24.943  27.737  1.00  0.00     0.049 A 
ATOM     40  N   UNL A   1      42.912  26.928  28.307  1.00  0.00    -0.248 NA
ATOM     41  C   UNL A   1      41.387  25.184  28.010  1.00  0.00     0.031 C 
ATOM     42  C   UNL A   1      46.232  24.011  27.473  1.00  0.00     0.029 A 
ATOM     43  N   UNL A   1      45.764  26.124  28.037  1.00  0.00    -0.354 N 
ATOM     44  C   UNL A   1      41.621  27.399  28.511  1.00  0.00     0.074 A 
ATOM     45  C   UNL A   1      40.719  26.294  28.276  1.00  0.00     0.031 C 
ATOM     46  C   UNL A   1      47.400  24.663  27.605  1.00  0.00     0.029 A 
ATOM     47  C   UNL A   1      47.129  26.063  27.924  1.00  0.00     0.049 A 
ATOM     48  H   UNL A   1      45.280  26.937  28.308  1.00  0.00     0.167 HD
ATOM     49  C   UNL A   1      41.230  28.643  28.870  1.00  0.00     0.037 A 
ATOM     50  C   UNL A   1      48.045  27.043  28.039  1.00  0.00     0.037 A 
ATOM     51  C   UNL A   1      42.144  29.728  29.099  1.00  0.00     0.049 A 
ATOM     52  C   UNL A   1      47.579  28.438  28.368  1.00  0.00     0.074 A 
ATOM     53  C   UNL A   1      41.866  31.027  29.483  1.00  0.00     0.029 A 
ATOM     54  N   UNL A   1      43.523  29.638  28.954  1.00  0.00    -0.354 N 
ATOM     55  N   UNL A   1      46.361  28.878  28.582  1.00  0.00    -0.248 NA
ATOM     56  C   UNL A   1      48.616  29.472  28.476  1.00  0.00     0.031 C 
ATOM     57  C   UNL A   1      43.070  31.739  29.512  1.00  0.00     0.029 A 
ATOM     58  C   UNL A   1      44.106  30.867  29.213  1.00  0.00     0.049 A 
ATOM     59  H   UNL A   1      44.012  28.822  28.705  1.00  0.00     0.167 HD
ATOM     60  C   UNL A   1      46.486  30.229  28.879  1.00  0.00     0.074 A 
ATOM     61  C   UNL A   1      47.902  30.531  28.832  1.00  0.00     0.031 C 
ATOM     62  C   UNL A   1      45.521  31.137  29.166  1.00  0.00     0.037 A 
BRANCH  49  63
ATOM     63  C   UNL A   1      39.757  28.897  29.001  1.00  0.00     0.064 A 
ATOM     64  C   UNL A   1      38.970  29.288  27.906  1.00  0.00     0.173 A 
ATOM     65  C   UNL A   1      39.119  28.732  30.239  1.00  0.00     0.173 A 
ATOM     66  F   UNL A   1      39.534  29.479  26.704  1.00  0.00    -0.203 F 
ATOM     67  C   UNL A   1      37.606  29.528  28.054  1.00  0.00     0.198 A 
ATOM     68  C   UNL A   1      37.749  28.942  30.375  1.00  0.00     0.198 A 
ATOM     69  F   UNL A   1      39.823  28.363  31.320  1.00  0.00    -0.203 F 
ATOM     70  F   UNL A   1      36.885  29.951  27.005  1.00  0.00    -0.200 F 
ATOM     71  C   UNL A   1      36.995  29.347  29.285  1.00  0.00     0.200 A 
ATOM     72  F   UNL A   1      37.159  28.755  31.565  1.00  0.00    -0.200 F 
ATOM     73  F   UNL A   1      35.681  29.572  29.423  1.00  0.00    -0.200 F 
ENDBRANCH  49  63
BRANCH  50  74
ATOM     74  C   UNL A   1      49.485  26.743  27.830  1.00  0.00     0.064 A 
ATOM     75  C   UNL A   1      50.336  26.489  28.913  1.00  0.00     0.173 A 
ATOM     76  C   UNL A   1      50.043  26.711  26.542  1.00  0.00     0.173 A 
ATOM     77  F   UNL A   1      49.855  26.527  30.165  1.00  0.00    -0.203 F 
ATOM     78  C   UNL A   1      51.693  26.237  28.720  1.00  0.00     0.198 A 
ATOM     79  C   UNL A   1      51.393  26.428  26.348  1.00  0.00     0.198 A 
ATOM     80  F   UNL A   1      49.272  26.944  25.470  1.00  0.00    -0.203 F 
ATOM     81  F   UNL A   1      52.493  26.044  29.778  1.00  0.00    -0.200 F 
ATOM     82  C   UNL A   1      52.219  26.199  27.437  1.00  0.00     0.200 A 
ATOM     83  F   UNL A   1      51.893  26.377  25.106  1.00  0.00    -0.200 F 
ATOM     84  F   UNL A   1      53.522  25.951  27.253  1.00  0.00    -0.200 F 
ENDBRANCH  50  74
BRANCH  62  85
ATOM     85  C   UNL A   1      45.968  32.534  29.494  1.00  0.00     0.064 A 
ATOM     86  C   UNL A   1      46.081  33.525  28.508  1.00  0.00     0.173 A 
ATOM     87  C   UNL A   1      46.244  32.894  30.823  1.00  0.00     0.173 A 
ATOM     88  F   UNL A   1      45.841  33.228  27.222  1.00  0.00    -0.203 F 
ATOM     89  C   UNL A   1      46.484  34.816  28.835  1.00  0.00     0.198 A 
ATOM     90  C   UNL A   1      46.611  34.194  31.151  1.00  0.00     0.198 A 
ATOM     91  F   UNL A   1      46.141  31.986  31.805  1.00  0.00    -0.203 F 
ATOM     92  F   UNL A   1      46.638  35.733  27.871  1.00  0.00    -0.200 F 
ATOM     93  C   UNL A   1      46.741  35.152  30.157  1.00  0.00     0.200 A 
ATOM     94  F   UNL A   1      46.840  34.521  32.430  1.00  0.00    -0.200 F 
ATOM     95  F   UNL A   1      47.118  36.399  30.472  1.00  0.00    -0.200 F 
ENDBRANCH  62  85
ENDBRANCH  36  37
ENDBRANCH  29  31
ENDBRANCH  28  29
ENDBRANCH  27  28
ENDBRANCH  26  27
ENDBRANCH  25  26
ENDBRANCH   1  25
TORSDOF 17
ENDMDL
MODEL 3
REMARK VINA RESULT:     -11.5      4.274      8.586
REMARK SMILES O=C(C[C@H]1C(=O)NCC[N@@H+]1Cc1ccc(Cl)c(F)c1)OCCOCCOC(=O)c1ccc(-c2c3nc(c(-c4c(F)c(F)c(F)c(F)c4F)c4ccc([nH]4)c(-c4c(F)c(F)c(F)c(F)c4F)c4nc(c(-c5c(F)c(F)c(F)c(F)c5F)c5ccc2[nH]5)C=C4)C=C3)cc1
REMARK SMILES IDX 22 1 21 2 20 3 2 4 1 5 3 6 4 7 5 8 10 9 6 10 7 11 9 12 8 14
REMARK SMILES IDX 11 16 12 17 13 18 19 19 14 20 17 21 15 22 18 23 16 24 23 25
REMARK SMILES IDX 24 26 25 27 26 28 27 29 28 30 29 31 30 32 91 33 31 34 90 35
REMARK SMILES IDX 32 36 33 37 34 38 84 39 35 40 89 41 83 42 85 43 36 44 88 45
REMARK SMILES IDX 82 46 81 47 37 49 69 50 49 51 68 52 50 53 53 54 67 55 86 56
REMARK SMILES IDX 51 57 52 58 66 60 87 61 54 62 38 63 39 64 47 65 40 66 41 67
REMARK SMILES IDX 45 68 48 69 42 70 43 71 46 72 44 73 70 74 71 75 79 76 72 77
REMARK SMILES IDX 73 78 77 79 80 80 74 81 75 82 78 83 76 84 55 85 56 86 64 87
REMARK SMILES IDX 57 88 58 89 62 90 65 91 59 92 60 93 63 94 61 95
REMARK H PARENT 10 13 7 15 85 48 53 59
REMARK Flexibility Score: inf
ROOT
ATOM      1  C   UNL A   1      33.987  32.965  28.066  1.00  0.00     0.202 C 
ENDROOT
BRANCH   1   2
ATOM      2  C   UNL A   1      33.000  31.888  27.614  1.00  0.00     0.261 C 
BRANCH   2   3
ATOM      3  O   UNL A   1      33.486  30.545  27.631  1.00  0.00    -0.463 OA
BRANCH   3   4
ATOM      4  C   UNL A   1      32.988  29.531  26.888  1.00  0.00     0.312 C 
ATOM      5  O   UNL A   1      33.179  28.371  27.255  1.00  0.00    -0.252 OA
BRANCH   4   6
ATOM      6  C   UNL A   1      32.324  29.805  25.560  1.00  0.00     0.198 C 
BRANCH   6   7
ATOM      7  C   UNL A   1      31.680  28.612  24.866  1.00  0.00     0.285 C 
ATOM      8  C   UNL A   1      31.013  29.140  23.595  1.00  0.00     0.279 C 
ATOM      9  N   UNL A   1      32.667  27.544  24.612  1.00  0.00    -0.319 N 
ATOM     10  O   UNL A   1      29.854  29.555  23.589  1.00  0.00    -0.268 OA
ATOM     11  N   UNL A   1      31.786  29.237  22.476  1.00  0.00    -0.345 N 
ATOM     12  C   UNL A   1      33.650  27.930  23.593  1.00  0.00     0.284 C 
ATOM     13  H   UNL A   1      33.208  27.457  25.472  1.00  0.00     0.349 HD
ATOM     14  C   UNL A   1      33.118  28.688  22.356  1.00  0.00     0.177 C 
ATOM     15  H   UNL A   1      31.412  29.713  21.700  1.00  0.00     0.163 HD
BRANCH   9  16
ATOM     16  C   UNL A   1      32.129  26.182  24.528  1.00  0.00     0.299 C 
BRANCH  16  17
ATOM     17  C   UNL A   1      33.162  25.104  24.338  1.00  0.00     0.009 A 
ATOM     18  C   UNL A   1      33.131  24.274  23.206  1.00  0.00     0.011 A 
ATOM     19  C   UNL A   1      34.244  25.017  25.219  1.00  0.00     0.050 A 
ATOM     20  C   UNL A   1      34.224  23.458  22.903  1.00  0.00     0.024 A 
ATOM     21  C   UNL A   1      35.341  24.228  24.895  1.00  0.00     0.142 A 
ATOM     22  C   UNL A   1      35.345  23.466  23.731  1.00  0.00     0.076 A 
ATOM     23  F   UNL A   1      36.414  24.272  25.697  1.00  0.00    -0.205 F 
ATOM     24  Cl  UNL A   1      36.740  22.566  23.280  1.00  0.00    -0.081 Cl
ENDBRANCH  16  17
ENDBRANCH   9  16
ENDBRANCH   6   7
ENDBRANCH   4   6
ENDBRANCH   3   4
ENDBRANCH   2   3
ENDBRANCH   1   2
BRANCH   1  25
ATOM     25  O   UNL A   1      34.505  32.942  29.386  1.00  0.00    -0.374 OA
BRANCH  25  26
ATOM     26  C   UNL A   1      34.352  34.102  30.211  1.00  0.00     0.202 C 
BRANCH  26  27
ATOM     27  C   UNL A   1      34.696  33.987  31.695  1.00  0.00     0.261 C 
BRANCH  27  28
ATOM     28  O   UNL A   1      36.087  33.702  31.889  1.00  0.00    -0.460 OA
BRANCH  28  29
ATOM     29  C   UNL A   1      36.342  32.617  32.653  1.00  0.00     0.338 C 
ATOM     30  O   UNL A   1      35.771  32.276  33.680  1.00  0.00    -0.246 OA
BRANCH  29  31
ATOM     31  C   UNL A   1      37.270  31.736  31.927  1.00  0.00     0.060 A 
ATOM     32  C   UNL A   1      38.245  31.058  32.673  1.00  0.00     0.016 A 
ATOM     33  C   UNL A   1      37.203  31.600  30.539  1.00  0.00     0.016 A 
ATOM     34  C   UNL A   1      39.207  30.294  32.026  1.00  0.00     0.010 A 
ATOM     35  C   UNL A   1      38.179  30.851  29.889  1.00  0.00     0.010 A 
ATOM     36  C   UNL A   1      39.210  30.243  30.628  1.00  0.00    -0.014 A 
BRANCH  36  37
ATOM     37  C   UNL A   1      40.419  29.765  29.931  1.00  0.00     0.031 A 
ATOM     38  C   UNL A   1      41.533  30.748  29.713  1.00  0.00     0.074 A 
ATOM     39  C   UNL A   1      40.523  28.491  29.526  1.00  0.00     0.049 A 
ATOM     40  N   UNL A   1      42.658  30.602  29.062  1.00  0.00    -0.248 NA
ATOM     41  C   UNL A   1      41.350  32.086  30.303  1.00  0.00     0.031 C 
ATOM     42  C   UNL A   1      39.517  27.453  29.737  1.00  0.00     0.029 A 
ATOM     43  N   UNL A   1      41.525  27.860  28.838  1.00  0.00    -0.354 N 
ATOM     44  C   UNL A   1      43.304  31.828  29.152  1.00  0.00     0.074 A 
ATOM     45  C   UNL A   1      42.437  32.717  29.892  1.00  0.00     0.031 C 
ATOM     46  C   UNL A   1      39.946  26.312  29.171  1.00  0.00     0.029 A 
ATOM     47  C   UNL A   1      41.235  26.555  28.527  1.00  0.00     0.049 A 
ATOM     48  H   UNL A   1      42.370  28.299  28.590  1.00  0.00     0.167 HD
ATOM     49  C   UNL A   1      44.517  32.173  28.665  1.00  0.00     0.037 A 
ATOM     50  C   UNL A   1      41.928  25.676  27.781  1.00  0.00     0.037 A 
ATOM     51  C   UNL A   1      45.364  31.273  27.931  1.00  0.00     0.049 A 
ATOM     52  C   UNL A   1      43.245  26.107  27.186  1.00  0.00     0.074 A 
ATOM     53  C   UNL A   1      46.621  31.505  27.402  1.00  0.00     0.029 A 
ATOM     54  N   UNL A   1      45.030  29.962  27.614  1.00  0.00    -0.354 N 
ATOM     55  N   UNL A   1      43.865  27.259  27.290  1.00  0.00    -0.248 NA
ATOM     56  C   UNL A   1      43.960  25.114  26.375  1.00  0.00     0.031 C 
ATOM     57  C   UNL A   1      47.022  30.355  26.715  1.00  0.00     0.029 A 
ATOM     58  C   UNL A   1      46.046  29.382  26.872  1.00  0.00     0.049 A 
ATOM     59  H   UNL A   1      44.196  29.513  27.878  1.00  0.00     0.167 HD
ATOM     60  C   UNL A   1      45.054  27.120  26.585  1.00  0.00     0.074 A 
ATOM     61  C   UNL A   1      45.073  25.766  26.072  1.00  0.00     0.031 C 
ATOM     62  C   UNL A   1      46.041  28.028  26.381  1.00  0.00     0.037 A 
BRANCH  49  63
ATOM     63  C   UNL A   1      44.977  33.586  28.881  1.00  0.00     0.064 A 
ATOM     64  C   UNL A   1      44.700  34.607  27.959  1.00  0.00     0.173 A 
ATOM     65  C   UNL A   1      45.692  33.926  30.039  1.00  0.00     0.173 A 
ATOM     66  F   UNL A   1      44.036  34.331  26.825  1.00  0.00    -0.203 F 
ATOM     67  C   UNL A   1      45.145  35.908  28.175  1.00  0.00     0.198 A 
ATOM     68  C   UNL A   1      46.107  35.235  30.267  1.00  0.00     0.198 A 
ATOM     69  F   UNL A   1      45.987  32.989  30.953  1.00  0.00    -0.203 F 
ATOM     70  F   UNL A   1      44.914  36.856  27.255  1.00  0.00    -0.200 F 
ATOM     71  C   UNL A   1      45.841  36.223  29.333  1.00  0.00     0.200 A 
ATOM     72  F   UNL A   1      46.770  35.539  31.393  1.00  0.00    -0.200 F 
ATOM     73  F   UNL A   1      46.262  37.478  29.543  1.00  0.00    -0.200 F 
ENDBRANCH  49  63
BRANCH  50  74
ATOM     74  C   UNL A   1      41.388  24.312  27.545  1.00  0.00     0.064 A 
ATOM     75  C   UNL A   1      41.979  23.188  28.135  1.00  0.00     0.173 A 
ATOM     76  C   UNL A   1      40.274  24.104  26.717  1.00  0.00     0.173 A 
ATOM     77  F   UNL A   1      43.058  23.332  28.918  1.00  0.00    -0.203 F 
ATOM     78  C   UNL A   1      41.491  21.906  27.890  1.00  0.00     0.198 A 
ATOM     79  C   UNL A   1      39.768  22.824  26.498  1.00  0.00     0.198 A 
ATOM     80  F   UNL A   1      39.668  25.146  26.130  1.00  0.00    -0.203 F 
ATOM     81  F   UNL A   1      42.105  20.844  28.430  1.00  0.00    -0.200 F 
ATOM     82  C   UNL A   1      40.381  21.725  27.078  1.00  0.00     0.200 A 
ATOM     83  F   UNL A   1      38.685  22.658  25.726  1.00  0.00    -0.200 F 
ATOM     84  F   UNL A   1      39.910  20.493  26.848  1.00  0.00    -0.200 F 
ENDBRANCH  50  74
BRANCH  62  85
ATOM     85  C   UNL A   1      47.244  27.571  25.604  1.00  0.00     0.064 A 
ATOM     86  C   UNL A   1      47.326  27.719  24.212  1.00  0.00     0.173 A 
ATOM     87  C   UNL A   1      48.347  27.017  26.273  1.00  0.00     0.173 A 
ATOM     88  F   UNL A   1      46.293  28.231  23.525  1.00  0.00    -0.203 F 
ATOM     89  C   UNL A   1      48.455  27.302  23.514  1.00  0.00     0.198 A 
ATOM     90  C   UNL A   1      49.489  26.635  25.576  1.00  0.00     0.198 A 
ATOM     91  F   UNL A   1      48.324  26.863  27.605  1.00  0.00    -0.203 F 
ATOM     92  F   UNL A   1      48.490  27.403  22.178  1.00  0.00    -0.200 F 
ATOM     93  C   UNL A   1      49.539  26.768  24.197  1.00  0.00     0.200 A 
ATOM     94  F   UNL A   1      50.541  26.138  26.239  1.00  0.00    -0.200 F 
ATOM     95  F   UNL A   1      50.629  26.376  23.524  1.00  0.00    -0.200 F 
ENDBRANCH  62  85
ENDBRANCH  36  37
ENDBRANCH  29  31
ENDBRANCH  28  29
ENDBRANCH  27  28
ENDBRANCH  26  27
ENDBRANCH  25  26
ENDBRANCH   1  25
TORSDOF 17
ENDMDL
