MODEL 1
REMARK VINA RESULT:     -11.5      0.000      0.000
REMARK SMILES O=C(CCS(=O)(=O)c1ccc2[nH]c(=O)oc2c1)OCCOCCOC(=O)c1ccc(-c2c3nc(c(-c4c(F)c(F)c(F)c(F)c4F)c4ccc([nH]4)c(-c4c(F)c(F)c(F)c(F)c4F)c4nc(c(-c5c(F)c(F)c(F)c(F)c5F)c5ccc2[nH]5)C=C4)C=C3)cc1
REMARK SMILES IDX 20 1 19 2 18 3 2 4 1 5 3 6 4 7 5 8 6 9 7 10 8 11 9 12 17 13
REMARK SMILES IDX 10 14 16 15 11 16 15 17 12 18 13 19 14 21 21 22 22 23 23 24
REMARK SMILES IDX 24 25 25 26 26 27 27 28 28 29 89 30 29 31 88 32 30 33 31 34
REMARK SMILES IDX 32 35 82 36 33 37 87 38 81 39 83 40 34 41 86 42 80 43 79 44
REMARK SMILES IDX 35 46 67 47 47 48 66 49 48 50 51 51 65 52 84 53 49 54 50 55
REMARK SMILES IDX 64 57 85 58 52 59 36 60 37 61 45 62 38 63 39 64 43 65 46 66
REMARK SMILES IDX 40 67 41 68 44 69 42 70 68 71 69 72 77 73 70 74 71 75 75 76
REMARK SMILES IDX 78 77 72 78 73 79 76 80 74 81 53 82 54 83 62 84 55 85 56 86
REMARK SMILES IDX 60 87 63 88 57 89 58 90 61 91 59 92
REMARK H PARENT 12 20 83 45 51 56
REMARK Flexibility Score: inf
ROOT
ATOM      1  C   UNL A   1      39.640  20.536  26.071  1.00  0.00     0.202 C 
ENDROOT
BRANCH   1   2
ATOM      2  C   UNL A   1      38.900  21.842  25.804  1.00  0.00     0.261 C 
BRANCH   2   3
ATOM      3  O   UNL A   1      37.476  21.759  25.925  1.00  0.00    -0.463 OA
BRANCH   3   4
ATOM      4  C   UNL A   1      36.585  21.660  24.926  1.00  0.00     0.306 C 
ATOM      5  O   UNL A   1      36.844  22.149  23.829  1.00  0.00    -0.252 OA
BRANCH   4   6
ATOM      6  C   UNL A   1      35.392  20.790  25.108  1.00  0.00     0.139 C 
BRANCH   6   7
ATOM      7  C   UNL A   1      34.194  21.419  24.418  1.00  0.00     0.154 C 
BRANCH   7   8
ATOM      8  S   UNL A   1      32.787  21.751  25.432  1.00  0.00     0.179 S 
ATOM      9  O   UNL A   1      31.794  20.725  25.180  1.00  0.00    -0.224 OA
ATOM     10  O   UNL A   1      33.313  21.923  26.776  1.00  0.00    -0.224 OA
BRANCH   8  11
ATOM     11  C   UNL A   1      31.991  23.305  25.058  1.00  0.00     0.071 A 
ATOM     12  C   UNL A   1      31.173  23.558  23.937  1.00  0.00     0.023 A 
ATOM     13  C   UNL A   1      32.261  24.338  25.966  1.00  0.00     0.069 A 
ATOM     14  C   UNL A   1      30.530  24.793  23.760  1.00  0.00     0.031 A 
ATOM     15  C   UNL A   1      31.722  25.573  25.700  1.00  0.00     0.157 A 
ATOM     16  C   UNL A   1      30.866  25.782  24.644  1.00  0.00     0.087 A 
ATOM     17  O   UNL A   1      32.032  26.734  26.377  1.00  0.00    -0.408 OA
ATOM     18  N   UNL A   1      30.594  27.115  24.632  1.00  0.00    -0.287 N 
ATOM     19  C   UNL A   1      31.367  27.694  25.610  1.00  0.00     0.417 A 
ATOM     20  H   UNL A   1      29.962  27.578  24.035  1.00  0.00     0.173 HD
ATOM     21  O   UNL A   1      31.462  28.889  25.821  1.00  0.00    -0.224 OA
ENDBRANCH   8  11
ENDBRANCH   7   8
ENDBRANCH   6   7
ENDBRANCH   4   6
ENDBRANCH   3   4
ENDBRANCH   2   3
ENDBRANCH   1   2
BRANCH   1  22
ATOM     22  O   UNL A   1      40.757  20.559  26.947  1.00  0.00    -0.374 OA
BRANCH  22  23
ATOM     23  C   UNL A   1      42.025  20.073  26.524  1.00  0.00     0.202 C 
BRANCH  23  24
ATOM     24  C   UNL A   1      43.006  21.039  25.854  1.00  0.00     0.261 C 
BRANCH  24  25
ATOM     25  O   UNL A   1      42.388  22.147  25.168  1.00  0.00    -0.460 OA
BRANCH  25  26
ATOM     26  C   UNL A   1      43.166  23.248  25.022  1.00  0.00     0.338 C 
ATOM     27  O   UNL A   1      44.112  23.389  24.266  1.00  0.00    -0.246 OA
BRANCH  26  28
ATOM     28  C   UNL A   1      42.662  24.350  25.863  1.00  0.00     0.060 A 
ATOM     29  C   UNL A   1      43.260  25.614  25.766  1.00  0.00     0.016 A 
ATOM     30  C   UNL A   1      41.697  24.100  26.837  1.00  0.00     0.016 A 
ATOM     31  C   UNL A   1      42.904  26.630  26.660  1.00  0.00     0.010 A 
ATOM     32  C   UNL A   1      41.352  25.115  27.738  1.00  0.00     0.010 A 
ATOM     33  C   UNL A   1      41.969  26.379  27.672  1.00  0.00    -0.014 A 
BRANCH  33  34
ATOM     34  C   UNL A   1      41.686  27.379  28.736  1.00  0.00     0.031 A 
ATOM     35  C   UNL A   1      42.449  27.321  30.030  1.00  0.00     0.074 A 
ATOM     36  C   UNL A   1      40.723  28.306  28.580  1.00  0.00     0.049 A 
ATOM     37  N   UNL A   1      42.235  27.966  31.148  1.00  0.00    -0.248 NA
ATOM     38  C   UNL A   1      43.613  26.421  30.068  1.00  0.00     0.031 C 
ATOM     39  C   UNL A   1      39.964  28.542  27.355  1.00  0.00     0.029 A 
ATOM     40  N   UNL A   1      40.201  29.208  29.480  1.00  0.00    -0.354 N 
ATOM     41  C   UNL A   1      43.224  27.544  32.026  1.00  0.00     0.074 A 
ATOM     42  C   UNL A   1      44.032  26.573  31.317  1.00  0.00     0.031 C 
ATOM     43  C   UNL A   1      39.047  29.492  27.600  1.00  0.00     0.029 A 
ATOM     44  C   UNL A   1      39.099  29.871  29.002  1.00  0.00     0.049 A 
ATOM     45  H   UNL A   1      40.579  29.361  30.375  1.00  0.00     0.167 HD
ATOM     46  C   UNL A   1      43.437  27.936  33.305  1.00  0.00     0.037 A 
ATOM     47  C   UNL A   1      38.195  30.653  29.625  1.00  0.00     0.037 A 
ATOM     48  C   UNL A   1      42.641  28.915  34.002  1.00  0.00     0.049 A 
ATOM     49  C   UNL A   1      38.384  30.981  31.075  1.00  0.00     0.074 A 
ATOM     50  C   UNL A   1      42.823  29.418  35.279  1.00  0.00     0.029 A 
ATOM     51  N   UNL A   1      41.508  29.525  33.491  1.00  0.00    -0.354 N 
ATOM     52  N   UNL A   1      39.336  30.602  31.889  1.00  0.00    -0.248 NA
ATOM     53  C   UNL A   1      37.380  31.863  31.690  1.00  0.00     0.031 C 
ATOM     54  C   UNL A   1      41.758  30.275  35.569  1.00  0.00     0.029 A 
ATOM     55  C   UNL A   1      40.950  30.359  34.449  1.00  0.00     0.049 A 
ATOM     56  H   UNL A   1      41.152  29.389  32.583  1.00  0.00     0.167 HD
ATOM     57  C   UNL A   1      39.063  31.217  33.102  1.00  0.00     0.074 A 
ATOM     58  C   UNL A   1      37.866  32.007  32.914  1.00  0.00     0.031 C 
ATOM     59  C   UNL A   1      39.750  31.133  34.264  1.00  0.00     0.037 A 
BRANCH  46  60
ATOM     60  C   UNL A   1      44.558  27.293  34.067  1.00  0.00     0.064 A 
ATOM     61  C   UNL A   1      45.830  27.875  34.145  1.00  0.00     0.173 A 
ATOM     62  C   UNL A   1      44.319  26.128  34.813  1.00  0.00     0.173 A 
ATOM     63  F   UNL A   1      46.111  28.983  33.443  1.00  0.00    -0.203 F 
ATOM     64  C   UNL A   1      46.826  27.311  34.940  1.00  0.00     0.198 A 
ATOM     65  C   UNL A   1      45.307  25.584  35.627  1.00  0.00     0.198 A 
ATOM     66  F   UNL A   1      43.116  25.536  34.775  1.00  0.00    -0.203 F 
ATOM     67  F   UNL A   1      48.043  27.871  34.984  1.00  0.00    -0.200 F 
ATOM     68  C   UNL A   1      46.560  26.175  35.689  1.00  0.00     0.200 A 
ATOM     69  F   UNL A   1      45.042  24.495  36.363  1.00  0.00    -0.200 F 
ATOM     70  F   UNL A   1      47.511  25.649  36.474  1.00  0.00    -0.200 F 
ENDBRANCH  46  60
BRANCH  47  71
ATOM     71  C   UNL A   1      36.973  31.122  28.919  1.00  0.00     0.064 A 
ATOM     72  C   UNL A   1      36.809  32.466  28.561  1.00  0.00     0.173 A 
ATOM     73  C   UNL A   1      35.901  30.247  28.686  1.00  0.00     0.173 A 
ATOM     74  F   UNL A   1      37.780  33.352  28.828  1.00  0.00    -0.203 F 
ATOM     75  C   UNL A   1      35.614  32.921  28.005  1.00  0.00     0.198 A 
ATOM     76  C   UNL A   1      34.710  30.701  28.118  1.00  0.00     0.198 A 
ATOM     77  F   UNL A   1      36.010  28.951  29.015  1.00  0.00    -0.203 F 
ATOM     78  F   UNL A   1      35.458  34.225  27.738  1.00  0.00    -0.200 F 
ATOM     79  C   UNL A   1      34.568  32.038  27.777  1.00  0.00     0.200 A 
ATOM     80  F   UNL A   1      33.700  29.845  27.904  1.00  0.00    -0.200 F 
ATOM     81  F   UNL A   1      33.415  32.483  27.257  1.00  0.00    -0.200 F 
ENDBRANCH  47  71
BRANCH  59  82
ATOM     82  C   UNL A   1      39.233  31.930  35.425  1.00  0.00     0.064 A 
ATOM     83  C   UNL A   1      38.395  31.356  36.393  1.00  0.00     0.173 A 
ATOM     84  C   UNL A   1      39.603  33.274  35.587  1.00  0.00     0.173 A 
ATOM     85  F   UNL A   1      37.996  30.081  36.270  1.00  0.00    -0.203 F 
ATOM     86  C   UNL A   1      37.930  32.105  37.469  1.00  0.00     0.198 A 
ATOM     87  C   UNL A   1      39.162  34.009  36.683  1.00  0.00     0.198 A 
ATOM     88  F   UNL A   1      40.402  33.869  34.690  1.00  0.00    -0.203 F 
ATOM     89  F   UNL A   1      37.089  31.552  38.354  1.00  0.00    -0.200 F 
ATOM     90  C   UNL A   1      38.320  33.428  37.618  1.00  0.00     0.200 A 
ATOM     91  F   UNL A   1      39.553  35.283  36.833  1.00  0.00    -0.200 F 
ATOM     92  F   UNL A   1      37.879  34.144  38.661  1.00  0.00    -0.200 F 
ENDBRANCH  59  82
ENDBRANCH  33  34
ENDBRANCH  26  28
ENDBRANCH  25  26
ENDBRANCH  24  25
ENDBRANCH  23  24
ENDBRANCH  22  23
ENDBRANCH   1  22
TORSDOF 17
ENDMDL
MODEL 2
REMARK VINA RESULT:     -11.3      3.699      8.868
REMARK SMILES O=C(CCS(=O)(=O)c1ccc2[nH]c(=O)oc2c1)OCCOCCOC(=O)c1ccc(-c2c3nc(c(-c4c(F)c(F)c(F)c(F)c4F)c4ccc([nH]4)c(-c4c(F)c(F)c(F)c(F)c4F)c4nc(c(-c5c(F)c(F)c(F)c(F)c5F)c5ccc2[nH]5)C=C4)C=C3)cc1
REMARK SMILES IDX 20 1 19 2 18 3 2 4 1 5 3 6 4 7 5 8 6 9 7 10 8 11 9 12 17 13
REMARK SMILES IDX 10 14 16 15 11 16 15 17 12 18 13 19 14 21 21 22 22 23 23 24
REMARK SMILES IDX 24 25 25 26 26 27 27 28 28 29 89 30 29 31 88 32 30 33 31 34
REMARK SMILES IDX 32 35 82 36 33 37 87 38 81 39 83 40 34 41 86 42 80 43 79 44
REMARK SMILES IDX 35 46 67 47 47 48 66 49 48 50 51 51 65 52 84 53 49 54 50 55
REMARK SMILES IDX 64 57 85 58 52 59 36 60 37 61 45 62 38 63 39 64 43 65 46 66
REMARK SMILES IDX 40 67 41 68 44 69 42 70 68 71 69 72 77 73 70 74 71 75 75 76
REMARK SMILES IDX 78 77 72 78 73 79 76 80 74 81 53 82 54 83 62 84 55 85 56 86
REMARK SMILES IDX 60 87 63 88 57 89 58 90 61 91 59 92
REMARK H PARENT 12 20 83 45 51 56
REMARK Flexibility Score: inf
ROOT
ATOM      1  C   UNL A   1      32.846  29.630  25.662  1.00  0.00     0.202 C 
ENDROOT
BRANCH   1   2
ATOM      2  C   UNL A   1      33.824  28.497  25.953  1.00  0.00     0.261 C 
BRANCH   2   3
ATOM      3  O   UNL A   1      33.245  27.355  26.592  1.00  0.00    -0.463 OA
BRANCH   3   4
ATOM      4  C   UNL A   1      31.963  27.198  26.960  1.00  0.00     0.306 C 
ATOM      5  O   UNL A   1      31.490  27.917  27.836  1.00  0.00    -0.252 OA
BRANCH   4   6
ATOM      6  C   UNL A   1      31.091  26.295  26.163  1.00  0.00     0.139 C 
BRANCH   6   7
ATOM      7  C   UNL A   1      31.925  25.574  25.118  1.00  0.00     0.154 C 
BRANCH   7   8
ATOM      8  S   UNL A   1      31.692  26.077  23.441  1.00  0.00     0.179 S 
ATOM      9  O   UNL A   1      32.844  26.860  23.039  1.00  0.00    -0.224 OA
ATOM     10  O   UNL A   1      31.366  24.860  22.717  1.00  0.00    -0.224 OA
BRANCH   8  11
ATOM     11  C   UNL A   1      30.274  27.135  23.206  1.00  0.00     0.071 A 
ATOM     12  C   UNL A   1      28.973  26.884  23.691  1.00  0.00     0.023 A 
ATOM     13  C   UNL A   1      30.518  28.283  22.439  1.00  0.00     0.069 A 
ATOM     14  C   UNL A   1      27.932  27.810  23.517  1.00  0.00     0.031 A 
ATOM     15  C   UNL A   1      29.452  29.108  22.176  1.00  0.00     0.157 A 
ATOM     16  C   UNL A   1      28.208  28.886  22.719  1.00  0.00     0.087 A 
ATOM     17  O   UNL A   1      29.470  30.169  21.294  1.00  0.00    -0.408 OA
ATOM     18  N   UNL A   1      27.387  29.834  22.192  1.00  0.00    -0.287 N 
ATOM     19  C   UNL A   1      28.123  30.539  21.269  1.00  0.00     0.417 A 
ATOM     20  H   UNL A   1      26.443  29.987  22.427  1.00  0.00     0.173 HD
ATOM     21  O   UNL A   1      27.689  31.399  20.526  1.00  0.00    -0.224 OA
ENDBRANCH   8  11
ENDBRANCH   7   8
ENDBRANCH   6   7
ENDBRANCH   4   6
ENDBRANCH   3   4
ENDBRANCH   2   3
ENDBRANCH   1   2
BRANCH   1  22
ATOM     22  O   UNL A   1      32.738  30.687  26.603  1.00  0.00    -0.374 OA
BRANCH  22  23
ATOM     23  C   UNL A   1      31.603  31.546  26.606  1.00  0.00     0.202 C 
BRANCH  23  24
ATOM     24  C   UNL A   1      31.770  32.997  27.065  1.00  0.00     0.261 C 
BRANCH  24  25
ATOM     25  O   UNL A   1      33.120  33.370  27.404  1.00  0.00    -0.460 OA
BRANCH  25  26
ATOM     26  C   UNL A   1      33.237  34.283  28.401  1.00  0.00     0.338 C 
ATOM     27  O   UNL A   1      32.461  35.181  28.675  1.00  0.00    -0.246 OA
BRANCH  26  28
ATOM     28  C   UNL A   1      34.431  34.000  29.221  1.00  0.00     0.060 A 
ATOM     29  C   UNL A   1      35.692  34.390  28.750  1.00  0.00     0.016 A 
ATOM     30  C   UNL A   1      34.317  33.234  30.380  1.00  0.00     0.016 A 
ATOM     31  C   UNL A   1      36.849  33.997  29.433  1.00  0.00     0.010 A 
ATOM     32  C   UNL A   1      35.477  32.832  31.054  1.00  0.00     0.010 A 
ATOM     33  C   UNL A   1      36.751  33.189  30.573  1.00  0.00    -0.014 A 
BRANCH  33  34
ATOM     34  C   UNL A   1      37.958  32.620  31.230  1.00  0.00     0.031 A 
ATOM     35  C   UNL A   1      38.638  31.425  30.621  1.00  0.00     0.074 A 
ATOM     36  C   UNL A   1      38.423  33.124  32.387  1.00  0.00     0.049 A 
ATOM     37  N   UNL A   1      39.577  30.662  31.121  1.00  0.00    -0.248 NA
ATOM     38  C   UNL A   1      38.208  31.041  29.267  1.00  0.00     0.031 C 
ATOM     39  C   UNL A   1      37.927  34.328  33.047  1.00  0.00     0.029 A 
ATOM     40  N   UNL A   1      39.410  32.661  33.228  1.00  0.00    -0.354 N 
ATOM     41  C   UNL A   1      39.843  29.703  30.153  1.00  0.00     0.074 A 
ATOM     42  C   UNL A   1      38.954  29.968  29.041  1.00  0.00     0.031 C 
ATOM     43  C   UNL A   1      38.583  34.478  34.210  1.00  0.00     0.029 A 
ATOM     44  C   UNL A   1      39.479  33.352  34.412  1.00  0.00     0.049 A 
ATOM     45  H   UNL A   1      40.005  31.911  33.003  1.00  0.00     0.167 HD
ATOM     46  C   UNL A   1      40.748  28.697  30.193  1.00  0.00     0.037 A 
ATOM     47  C   UNL A   1      40.140  33.087  35.556  1.00  0.00     0.037 A 
ATOM     48  C   UNL A   1      41.643  28.447  31.294  1.00  0.00     0.049 A 
ATOM     49  C   UNL A   1      41.052  31.898  35.619  1.00  0.00     0.074 A 
ATOM     50  C   UNL A   1      42.636  27.487  31.394  1.00  0.00     0.029 A 
ATOM     51  N   UNL A   1      41.644  29.145  32.491  1.00  0.00    -0.354 N 
ATOM     52  N   UNL A   1      41.319  31.014  34.691  1.00  0.00    -0.248 NA
ATOM     53  C   UNL A   1      41.768  31.680  36.884  1.00  0.00     0.031 C 
ATOM     54  C   UNL A   1      43.186  27.555  32.677  1.00  0.00     0.029 A 
ATOM     55  C   UNL A   1      42.583  28.600  33.354  1.00  0.00     0.049 A 
ATOM     56  H   UNL A   1      41.064  29.914  32.698  1.00  0.00     0.167 HD
ATOM     57  C   UNL A   1      42.251  30.152  35.249  1.00  0.00     0.074 A 
ATOM     58  C   UNL A   1      42.516  30.627  36.589  1.00  0.00     0.031 C 
ATOM     59  C   UNL A   1      42.835  29.066  34.693  1.00  0.00     0.037 A 
BRANCH  46  60
ATOM     60  C   UNL A   1      40.815  27.756  29.026  1.00  0.00     0.064 A 
ATOM     61  C   UNL A   1      41.785  27.886  28.023  1.00  0.00     0.173 A 
ATOM     62  C   UNL A   1      39.955  26.648  28.971  1.00  0.00     0.173 A 
ATOM     63  F   UNL A   1      42.625  28.932  28.026  1.00  0.00    -0.203 F 
ATOM     64  C   UNL A   1      41.889  26.942  27.004  1.00  0.00     0.198 A 
ATOM     65  C   UNL A   1      40.080  25.693  27.968  1.00  0.00     0.198 A 
ATOM     66  F   UNL A   1      39.013  26.476  29.911  1.00  0.00    -0.203 F 
ATOM     67  F   UNL A   1      42.810  27.096  26.042  1.00  0.00    -0.200 F 
ATOM     68  C   UNL A   1      41.046  25.841  26.984  1.00  0.00     0.200 A 
ATOM     69  F   UNL A   1      39.275  24.621  27.960  1.00  0.00    -0.200 F 
ATOM     70  F   UNL A   1      41.166  24.920  26.017  1.00  0.00    -0.200 F 
ENDBRANCH  46  60
BRANCH  47  71
ATOM     71  C   UNL A   1      39.915  33.905  36.778  1.00  0.00     0.064 A 
ATOM     72  C   UNL A   1      39.003  33.509  37.763  1.00  0.00     0.173 A 
ATOM     73  C   UNL A   1      40.537  35.154  36.925  1.00  0.00     0.173 A 
ATOM     74  F   UNL A   1      38.334  32.355  37.628  1.00  0.00    -0.203 F 
ATOM     75  C   UNL A   1      38.712  34.336  38.847  1.00  0.00     0.198 A 
ATOM     76  C   UNL A   1      40.254  35.976  38.017  1.00  0.00     0.198 A 
ATOM     77  F   UNL A   1      41.417  35.578  36.005  1.00  0.00    -0.203 F 
ATOM     78  F   UNL A   1      37.782  33.964  39.738  1.00  0.00    -0.200 F 
ATOM     79  C   UNL A   1      39.343  35.565  38.977  1.00  0.00     0.200 A 
ATOM     80  F   UNL A   1      40.863  37.165  38.136  1.00  0.00    -0.200 F 
ATOM     81  F   UNL A   1      39.047  36.364  40.013  1.00  0.00    -0.200 F 
ENDBRANCH  47  71
BRANCH  59  82
ATOM     82  C   UNL A   1      43.834  28.322  35.528  1.00  0.00     0.064 A 
ATOM     83  C   UNL A   1      45.203  28.620  35.472  1.00  0.00     0.173 A 
ATOM     84  C   UNL A   1      43.414  27.320  36.415  1.00  0.00     0.173 A 
ATOM     85  F   UNL A   1      45.657  29.554  34.623  1.00  0.00    -0.203 F 
ATOM     86  C   UNL A   1      46.118  27.926  36.258  1.00  0.00     0.198 A 
ATOM     87  C   UNL A   1      44.327  26.653  37.225  1.00  0.00     0.198 A 
ATOM     88  F   UNL A   1      42.115  26.998  36.507  1.00  0.00    -0.203 F 
ATOM     89  F   UNL A   1      47.427  28.191  36.151  1.00  0.00    -0.200 F 
ATOM     90  C   UNL A   1      45.679  26.950  37.140  1.00  0.00     0.200 A 
ATOM     91  F   UNL A   1      43.899  25.720  38.087  1.00  0.00    -0.200 F 
ATOM     92  F   UNL A   1      46.560  26.291  37.905  1.00  0.00    -0.200 F 
ENDBRANCH  59  82
ENDBRANCH  33  34
ENDBRANCH  26  28
ENDBRANCH  25  26
ENDBRANCH  24  25
ENDBRANCH  23  24
ENDBRANCH  22  23
ENDBRANCH   1  22
TORSDOF 17
ENDMDL
MODEL 3
REMARK VINA RESULT:     -11.3      3.214      8.989
REMARK SMILES O=C(CCS(=O)(=O)c1ccc2[nH]c(=O)oc2c1)OCCOCCOC(=O)c1ccc(-c2c3nc(c(-c4c(F)c(F)c(F)c(F)c4F)c4ccc([nH]4)c(-c4c(F)c(F)c(F)c(F)c4F)c4nc(c(-c5c(F)c(F)c(F)c(F)c5F)c5ccc2[nH]5)C=C4)C=C3)cc1
REMARK SMILES IDX 20 1 19 2 18 3 2 4 1 5 3 6 4 7 5 8 6 9 7 10 8 11 9 12 17 13
REMARK SMILES IDX 10 14 16 15 11 16 15 17 12 18 13 19 14 21 21 22 22 23 23 24
REMARK SMILES IDX 24 25 25 26 26 27 27 28 28 29 89 30 29 31 88 32 30 33 31 34
REMARK SMILES IDX 32 35 82 36 33 37 87 38 81 39 83 40 34 41 86 42 80 43 79 44
REMARK SMILES IDX 35 46 67 47 47 48 66 49 48 50 51 51 65 52 84 53 49 54 50 55
REMARK SMILES IDX 64 57 85 58 52 59 36 60 37 61 45 62 38 63 39 64 43 65 46 66
REMARK SMILES IDX 40 67 41 68 44 69 42 70 68 71 69 72 77 73 70 74 71 75 75 76
REMARK SMILES IDX 78 77 72 78 73 79 76 80 74 81 53 82 54 83 62 84 55 85 56 86
REMARK SMILES IDX 60 87 63 88 57 89 58 90 61 91 59 92
REMARK H PARENT 12 20 83 45 51 56
REMARK Flexibility Score: inf
ROOT
ATOM      1  C   UNL A   1      33.757  29.767  26.982  1.00  0.00     0.202 C 
ENDROOT
BRANCH   1   2
ATOM      2  C   UNL A   1      33.758  28.569  26.040  1.00  0.00     0.261 C 
BRANCH   2   3
ATOM      3  O   UNL A   1      32.473  27.979  25.819  1.00  0.00    -0.463 OA
BRANCH   3   4
ATOM      4  C   UNL A   1      31.881  27.030  26.562  1.00  0.00     0.306 C 
ATOM      5  O   UNL A   1      31.084  27.354  27.439  1.00  0.00    -0.252 OA
BRANCH   4   6
ATOM      6  C   UNL A   1      32.049  25.604  26.175  1.00  0.00     0.139 C 
BRANCH   6   7
ATOM      7  C   UNL A   1      31.653  25.422  24.720  1.00  0.00     0.154 C 
BRANCH   7   8
ATOM      8  S   UNL A   1      32.871  24.715  23.655  1.00  0.00     0.179 S 
ATOM      9  O   UNL A   1      32.275  24.528  22.346  1.00  0.00    -0.224 OA
ATOM     10  O   UNL A   1      34.042  25.565  23.793  1.00  0.00    -0.224 OA
BRANCH   8  11
ATOM     11  C   UNL A   1      33.422  23.099  24.178  1.00  0.00     0.071 A 
ATOM     12  C   UNL A   1      34.758  22.649  24.177  1.00  0.00     0.023 A 
ATOM     13  C   UNL A   1      32.398  22.231  24.581  1.00  0.00     0.069 A 
ATOM     14  C   UNL A   1      35.108  21.383  24.673  1.00  0.00     0.031 A 
ATOM     15  C   UNL A   1      32.755  20.954  24.941  1.00  0.00     0.157 A 
ATOM     16  C   UNL A   1      34.070  20.556  25.006  1.00  0.00     0.087 A 
ATOM     17  O   UNL A   1      31.870  19.924  25.183  1.00  0.00    -0.408 OA
ATOM     18  N   UNL A   1      34.052  19.231  25.312  1.00  0.00    -0.287 N 
ATOM     19  C   UNL A   1      32.736  18.836  25.324  1.00  0.00     0.417 A 
ATOM     20  H   UNL A   1      34.836  18.661  25.491  1.00  0.00     0.173 HD
ATOM     21  O   UNL A   1      32.342  17.693  25.461  1.00  0.00    -0.224 OA
ENDBRANCH   8  11
ENDBRANCH   7   8
ENDBRANCH   6   7
ENDBRANCH   4   6
ENDBRANCH   3   4
ENDBRANCH   2   3
ENDBRANCH   1   2
BRANCH   1  22
ATOM     22  O   UNL A   1      32.509  30.282  27.419  1.00  0.00    -0.374 OA
BRANCH  22  23
ATOM     23  C   UNL A   1      31.772  31.190  26.608  1.00  0.00     0.202 C 
BRANCH  23  24
ATOM     24  C   UNL A   1      31.757  32.675  26.980  1.00  0.00     0.261 C 
BRANCH  24  25
ATOM     25  O   UNL A   1      33.060  33.261  27.172  1.00  0.00    -0.460 OA
BRANCH  25  26
ATOM     26  C   UNL A   1      33.170  34.096  28.235  1.00  0.00     0.338 C 
ATOM     27  O   UNL A   1      32.403  34.987  28.557  1.00  0.00    -0.246 OA
BRANCH  26  28
ATOM     28  C   UNL A   1      34.340  33.732  29.058  1.00  0.00     0.060 A 
ATOM     29  C   UNL A   1      35.562  34.380  28.835  1.00  0.00     0.016 A 
ATOM     30  C   UNL A   1      34.261  32.662  29.949  1.00  0.00     0.016 A 
ATOM     31  C   UNL A   1      36.718  33.945  29.493  1.00  0.00     0.010 A 
ATOM     32  C   UNL A   1      35.421  32.221  30.596  1.00  0.00     0.010 A 
ATOM     33  C   UNL A   1      36.662  32.842  30.356  1.00  0.00    -0.014 A 
BRANCH  33  34
ATOM     34  C   UNL A   1      37.893  32.252  30.946  1.00  0.00     0.031 A 
ATOM     35  C   UNL A   1      38.617  31.160  30.209  1.00  0.00     0.074 A 
ATOM     36  C   UNL A   1      38.343  32.644  32.151  1.00  0.00     0.049 A 
ATOM     37  N   UNL A   1      39.587  30.384  30.622  1.00  0.00    -0.248 NA
ATOM     38  C   UNL A   1      38.197  30.911  28.821  1.00  0.00     0.031 C 
ATOM     39  C   UNL A   1      37.803  33.748  32.940  1.00  0.00     0.029 A 
ATOM     40  N   UNL A   1      39.351  32.131  32.937  1.00  0.00    -0.354 N 
ATOM     41  C   UNL A   1      39.886  29.548  29.554  1.00  0.00     0.074 A 
ATOM     42  C   UNL A   1      38.983  29.899  28.478  1.00  0.00     0.031 C 
ATOM     43  C   UNL A   1      38.458  33.794  34.112  1.00  0.00     0.029 A 
ATOM     44  C   UNL A   1      39.398  32.689  34.190  1.00  0.00     0.049 A 
ATOM     45  H   UNL A   1      39.975  31.434  32.630  1.00  0.00     0.167 HD
ATOM     46  C   UNL A   1      40.831  28.581  29.483  1.00  0.00     0.037 A 
ATOM     47  C   UNL A   1      40.074  32.326  35.297  1.00  0.00     0.037 A 
ATOM     48  C   UNL A   1      41.740  28.246  30.550  1.00  0.00     0.049 A 
ATOM     49  C   UNL A   1      41.032  31.174  35.229  1.00  0.00     0.074 A 
ATOM     50  C   UNL A   1      42.770  27.321  30.543  1.00  0.00     0.029 A 
ATOM     51  N   UNL A   1      41.718  28.808  31.816  1.00  0.00    -0.354 N 
ATOM     52  N   UNL A   1      41.329  30.409  34.209  1.00  0.00    -0.248 NA
ATOM     53  C   UNL A   1      41.761  30.847  36.462  1.00  0.00     0.031 C 
ATOM     54  C   UNL A   1      43.322  27.269  31.826  1.00  0.00     0.029 A 
ATOM     55  C   UNL A   1      42.682  28.209  32.614  1.00  0.00     0.049 A 
ATOM     56  H   UNL A   1      41.110  29.526  32.107  1.00  0.00     0.167 HD
ATOM     57  C   UNL A   1      42.297  29.529  34.669  1.00  0.00     0.074 A 
ATOM     58  C   UNL A   1      42.549  29.863  36.053  1.00  0.00     0.031 C 
ATOM     59  C   UNL A   1      42.921  28.534  33.996  1.00  0.00     0.037 A 
BRANCH  46  60
ATOM     60  C   UNL A   1      40.929  27.778  28.220  1.00  0.00     0.064 A 
ATOM     61  C   UNL A   1      41.725  28.186  27.141  1.00  0.00     0.173 A 
ATOM     62  C   UNL A   1      40.295  26.529  28.134  1.00  0.00     0.173 A 
ATOM     63  F   UNL A   1      42.345  29.376  27.171  1.00  0.00    -0.203 F 
ATOM     64  C   UNL A   1      41.879  27.374  26.019  1.00  0.00     0.198 A 
ATOM     65  C   UNL A   1      40.473  25.709  27.024  1.00  0.00     0.198 A 
ATOM     66  F   UNL A   1      39.526  26.090  29.142  1.00  0.00    -0.203 F 
ATOM     67  F   UNL A   1      42.627  27.794  24.989  1.00  0.00    -0.200 F 
ATOM     68  C   UNL A   1      41.264  26.133  25.967  1.00  0.00     0.200 A 
ATOM     69  F   UNL A   1      39.891  24.502  26.984  1.00  0.00    -0.200 F 
ATOM     70  F   UNL A   1      41.435  25.342  24.898  1.00  0.00    -0.200 F 
ENDBRANCH  46  60
BRANCH  47  71
ATOM     71  C   UNL A   1      39.823  32.995  36.601  1.00  0.00     0.064 A 
ATOM     72  C   UNL A   1      38.787  32.580  37.447  1.00  0.00     0.173 A 
ATOM     73  C   UNL A   1      40.554  34.134  36.973  1.00  0.00     0.173 A 
ATOM     74  F   UNL A   1      38.017  31.538  37.097  1.00  0.00    -0.203 F 
ATOM     75  C   UNL A   1      38.483  33.283  38.611  1.00  0.00     0.198 A 
ATOM     76  C   UNL A   1      40.257  34.831  38.145  1.00  0.00     0.198 A 
ATOM     77  F   UNL A   1      41.554  34.573  36.193  1.00  0.00    -0.203 F 
ATOM     78  F   UNL A   1      37.441  32.906  39.365  1.00  0.00    -0.200 F 
ATOM     79  C   UNL A   1      39.223  34.404  38.964  1.00  0.00     0.200 A 
ATOM     80  F   UNL A   1      40.971  35.915  38.479  1.00  0.00    -0.200 F 
ATOM     81  F   UNL A   1      38.917  35.086  40.076  1.00  0.00    -0.200 F 
ENDBRANCH  47  71
BRANCH  59  82
ATOM     82  C   UNL A   1      43.952  27.743  34.744  1.00  0.00     0.064 A 
ATOM     83  C   UNL A   1      45.276  28.189  34.860  1.00  0.00     0.173 A 
ATOM     84  C   UNL A   1      43.604  26.540  35.377  1.00  0.00     0.173 A 
ATOM     85  F   UNL A   1      45.663  29.321  34.254  1.00  0.00    -0.203 F 
ATOM     86  C   UNL A   1      46.220  27.447  35.564  1.00  0.00     0.198 A 
ATOM     87  C   UNL A   1      44.543  25.820  36.109  1.00  0.00     0.198 A 
ATOM     88  F   UNL A   1      42.350  26.071  35.298  1.00  0.00    -0.203 F 
ATOM     89  F   UNL A   1      47.493  27.866  35.618  1.00  0.00    -0.200 F 
ATOM     90  C   UNL A   1      45.852  26.269  36.194  1.00  0.00     0.200 A 
ATOM     91  F   UNL A   1      44.180  24.688  36.730  1.00  0.00    -0.200 F 
ATOM     92  F   UNL A   1      46.760  25.563  36.881  1.00  0.00    -0.200 F 
ENDBRANCH  59  82
ENDBRANCH  33  34
ENDBRANCH  26  28
ENDBRANCH  25  26
ENDBRANCH  24  25
ENDBRANCH  23  24
ENDBRANCH  22  23
ENDBRANCH   1  22
TORSDOF 17
ENDMDL
