MODEL 1
REMARK VINA RESULT:     -12.5      0.000      0.000
REMARK SMILES CC1(C)O[C@](C)([C@H](O)C2CCCCC2)CC[C@H]1C(=O)OCCOCCOC(=O)c1ccc(-c2c3nc(c(-c4c(F)c(F)c(F)c(F)c4F)c4ccc([nH]4)c(-c4c(F)c(F)c(F)c(F)c4F)c4nc(c(-c5c(F)c(F)c(F)c(F)c5F)c5ccc2[nH]5)C=C4)C=C3)cc1
REMARK SMILES IDX 23 1 22 2 21 3 20 4 18 5 19 6 17 7 1 8 2 9 3 10 4 11 5 12
REMARK SMILES IDX 16 13 6 14 15 15 7 16 9 17 10 18 14 19 11 20 13 21 12 22
REMARK SMILES IDX 8 23 24 25 25 26 26 27 27 28 28 29 29 30 30 31 91 32 31 33
REMARK SMILES IDX 90 34 32 35 33 36 34 37 84 38 35 39 89 40 83 41 85 42 36 43
REMARK SMILES IDX 88 44 82 45 81 46 37 48 69 49 49 50 68 51 50 52 53 53 67 54
REMARK SMILES IDX 86 55 51 56 52 57 66 59 87 60 54 61 38 62 39 63 47 64 40 65
REMARK SMILES IDX 41 66 45 67 48 68 42 69 43 70 46 71 44 72 70 73 71 74 79 75
REMARK SMILES IDX 72 76 73 77 77 78 80 79 74 80 75 81 78 82 76 83 55 84 56 85
REMARK SMILES IDX 64 86 57 87 58 88 62 89 65 90 59 91 60 92 63 93 61 94
REMARK H PARENT 8 24 85 47 53 58
REMARK Flexibility Score: inf
ROOT
ATOM      1  O   UNL A   1      32.727  28.981  25.093  1.00  0.00    -0.374 OA
ENDROOT
BRANCH   1   2
ATOM      2  C   UNL A   1      32.567  27.839  24.258  1.00  0.00     0.202 C 
BRANCH   2   3
ATOM      3  C   UNL A   1      33.552  26.687  24.470  1.00  0.00     0.261 C 
BRANCH   3   4
ATOM      4  O   UNL A   1      33.026  25.406  24.078  1.00  0.00    -0.463 OA
BRANCH   4   5
ATOM      5  C   UNL A   1      33.724  24.761  23.113  1.00  0.00     0.311 C 
ATOM      6  O   UNL A   1      34.028  25.256  22.032  1.00  0.00    -0.252 OA
BRANCH   5   7
ATOM      7  C   UNL A   1      34.015  23.306  23.425  1.00  0.00     0.131 C 
ATOM      8  C   UNL A   1      35.524  23.690  25.552  1.00  0.00     0.043 C 
ATOM      9  C   UNL A   1      35.265  22.907  24.257  1.00  0.00     0.077 C 
ATOM     10  C   UNL A   1      36.541  23.036  23.394  1.00  0.00     0.043 C 
ATOM     11  O   UNL A   1      35.243  21.493  24.569  1.00  0.00    -0.366 OA
ATOM     12  C   UNL A   1      34.056  20.879  25.087  1.00  0.00     0.092 C 
ATOM     13  C   UNL A   1      32.711  22.719  23.962  1.00  0.00     0.021 C 
ATOM     14  C   UNL A   1      33.721  21.327  26.523  1.00  0.00     0.045 C 
ATOM     15  C   UNL A   1      32.858  21.225  24.174  1.00  0.00     0.039 C 
BRANCH  12  16
ATOM     16  C   UNL A   1      34.279  19.321  25.001  1.00  0.00     0.149 C 
BRANCH  16  17
ATOM     17  C   UNL A   1      33.323  18.473  24.101  1.00  0.00     0.021 C 
ATOM     18  C   UNL A   1      33.933  17.330  23.281  1.00  0.00     0.006 C 
ATOM     19  C   UNL A   1      32.153  17.873  24.919  1.00  0.00     0.006 C 
ATOM     20  C   UNL A   1      34.451  16.191  24.146  1.00  0.00     0.000 C 
ATOM     21  C   UNL A   1      32.527  16.651  25.764  1.00  0.00     0.000 C 
ATOM     22  C   UNL A   1      33.334  15.601  25.000  1.00  0.00     0.000 C 
ENDBRANCH  16  17
BRANCH  16  23
ATOM     23  O   UNL A   1      35.651  19.046  24.714  1.00  0.00    -0.390 OA
ATOM     24  H   UNL A   1      35.741  18.784  23.785  1.00  0.00     0.211 HD
ENDBRANCH  16  23
ENDBRANCH  12  16
ENDBRANCH   5   7
ENDBRANCH   4   5
ENDBRANCH   3   4
ENDBRANCH   2   3
ENDBRANCH   1   2
BRANCH   1  25
ATOM     25  C   UNL A   1      31.590  29.818  25.299  1.00  0.00     0.202 C 
BRANCH  25  26
ATOM     26  C   UNL A   1      31.745  30.901  26.371  1.00  0.00     0.261 C 
BRANCH  26  27
ATOM     27  O   UNL A   1      32.854  30.606  27.246  1.00  0.00    -0.460 OA
BRANCH  27  28
ATOM     28  C   UNL A   1      33.623  31.676  27.547  1.00  0.00     0.338 C 
ATOM     29  O   UNL A   1      33.252  32.828  27.732  1.00  0.00    -0.246 OA
BRANCH  28  30
ATOM     30  C   UNL A   1      35.008  31.258  27.819  1.00  0.00     0.060 A 
ATOM     31  C   UNL A   1      35.228  29.894  28.041  1.00  0.00     0.016 A 
ATOM     32  C   UNL A   1      36.038  32.183  28.001  1.00  0.00     0.016 A 
ATOM     33  C   UNL A   1      36.458  29.456  28.524  1.00  0.00     0.010 A 
ATOM     34  C   UNL A   1      37.276  31.741  28.490  1.00  0.00     0.010 A 
ATOM     35  C   UNL A   1      37.472  30.382  28.804  1.00  0.00    -0.014 A 
BRANCH  35  36
ATOM     36  C   UNL A   1      38.651  29.928  29.587  1.00  0.00     0.031 A 
ATOM     37  C   UNL A   1      38.833  30.430  30.994  1.00  0.00     0.074 A 
ATOM     38  C   UNL A   1      39.498  29.010  29.090  1.00  0.00     0.049 A 
ATOM     39  N   UNL A   1      39.742  30.109  31.882  1.00  0.00    -0.248 NA
ATOM     40  C   UNL A   1      37.856  31.423  31.469  1.00  0.00     0.031 C 
ATOM     41  C   UNL A   1      39.411  28.415  27.758  1.00  0.00     0.029 A 
ATOM     42  N   UNL A   1      40.593  28.408  29.659  1.00  0.00    -0.354 N 
ATOM     43  C   UNL A   1      39.445  30.855  33.015  1.00  0.00     0.074 A 
ATOM     44  C   UNL A   1      38.296  31.673  32.695  1.00  0.00     0.031 C 
ATOM     45  C   UNL A   1      40.412  27.529  27.611  1.00  0.00     0.029 A 
ATOM     46  C   UNL A   1      41.219  27.510  28.831  1.00  0.00     0.049 A 
ATOM     47  H   UNL A   1      40.900  28.601  30.574  1.00  0.00     0.167 HD
ATOM     48  C   UNL A   1      40.065  30.849  34.220  1.00  0.00     0.037 A 
ATOM     49  C   UNL A   1      42.322  26.762  29.032  1.00  0.00     0.037 A 
ATOM     50  C   UNL A   1      41.205  30.035  34.548  1.00  0.00     0.049 A 
ATOM     51  C   UNL A   1      43.028  26.818  30.362  1.00  0.00     0.074 A 
ATOM     52  C   UNL A   1      41.885  29.945  35.751  1.00  0.00     0.029 A 
ATOM     53  N   UNL A   1      41.839  29.172  33.666  1.00  0.00    -0.354 N 
ATOM     54  N   UNL A   1      42.718  27.500  31.438  1.00  0.00    -0.248 NA
ATOM     55  C   UNL A   1      44.235  25.990  30.507  1.00  0.00     0.031 C 
ATOM     56  C   UNL A   1      42.959  29.065  35.582  1.00  0.00     0.029 A 
ATOM     57  C   UNL A   1      42.918  28.566  34.290  1.00  0.00     0.049 A 
ATOM     58  H   UNL A   1      41.562  29.013  32.735  1.00  0.00     0.167 HD
ATOM     59  C   UNL A   1      43.671  27.165  32.391  1.00  0.00     0.074 A 
ATOM     60  C   UNL A   1      44.563  26.207  31.773  1.00  0.00     0.031 C 
ATOM     61  C   UNL A   1      43.797  27.612  33.666  1.00  0.00     0.037 A 
BRANCH  48  62
ATOM     62  C   UNL A   1      39.532  31.774  35.275  1.00  0.00     0.064 A 
ATOM     63  C   UNL A   1      38.614  31.337  36.242  1.00  0.00     0.173 A 
ATOM     64  C   UNL A   1      39.976  33.103  35.342  1.00  0.00     0.173 A 
ATOM     65  F   UNL A   1      38.151  30.078  36.213  1.00  0.00    -0.203 F 
ATOM     66  C   UNL A   1      38.144  32.205  37.225  1.00  0.00     0.198 A 
ATOM     67  C   UNL A   1      39.523  33.960  36.342  1.00  0.00     0.198 A 
ATOM     68  F   UNL A   1      40.856  33.569  34.445  1.00  0.00    -0.203 F 
ATOM     69  F   UNL A   1      37.236  31.778  38.115  1.00  0.00    -0.200 F 
ATOM     70  C   UNL A   1      38.604  33.512  37.278  1.00  0.00     0.200 A 
ATOM     71  F   UNL A   1      39.977  35.219  36.399  1.00  0.00    -0.200 F 
ATOM     72  F   UNL A   1      38.155  34.344  38.229  1.00  0.00    -0.200 F 
ENDBRANCH  48  62
BRANCH  49  73
ATOM     73  C   UNL A   1      42.834  25.892  27.942  1.00  0.00     0.064 A 
ATOM     74  C   UNL A   1      43.726  26.383  26.979  1.00  0.00     0.173 A 
ATOM     75  C   UNL A   1      42.424  24.556  27.832  1.00  0.00     0.173 A 
ATOM     76  F   UNL A   1      44.127  27.662  27.027  1.00  0.00    -0.203 F 
ATOM     77  C   UNL A   1      44.173  25.575  25.936  1.00  0.00     0.198 A 
ATOM     78  C   UNL A   1      42.893  23.741  26.805  1.00  0.00     0.198 A 
ATOM     79  F   UNL A   1      41.568  24.040  28.727  1.00  0.00    -0.203 F 
ATOM     80  F   UNL A   1      44.990  26.081  25.001  1.00  0.00    -0.200 F 
ATOM     81  C   UNL A   1      43.761  24.252  25.853  1.00  0.00     0.200 A 
ATOM     82  F   UNL A   1      42.501  22.462  26.736  1.00  0.00    -0.200 F 
ATOM     83  F   UNL A   1      44.194  23.475  24.851  1.00  0.00    -0.200 F 
ENDBRANCH  49  73
BRANCH  61  84
ATOM     84  C   UNL A   1      44.922  27.049  34.487  1.00  0.00     0.064 A 
ATOM     85  C   UNL A   1      44.785  25.846  35.195  1.00  0.00     0.173 A 
ATOM     86  C   UNL A   1      46.161  27.706  34.542  1.00  0.00     0.173 A 
ATOM     87  F   UNL A   1      43.618  25.185  35.186  1.00  0.00    -0.203 F 
ATOM     88  C   UNL A   1      45.839  25.337  35.951  1.00  0.00     0.198 A 
ATOM     89  C   UNL A   1      47.220  27.178  35.275  1.00  0.00     0.198 A 
ATOM     90  F   UNL A   1      46.346  28.857  33.877  1.00  0.00    -0.203 F 
ATOM     91  F   UNL A   1      45.669  24.211  36.659  1.00  0.00    -0.200 F 
ATOM     92  C   UNL A   1      47.057  25.999  35.985  1.00  0.00     0.200 A 
ATOM     93  F   UNL A   1      48.400  27.814  35.297  1.00  0.00    -0.200 F 
ATOM     94  F   UNL A   1      48.069  25.506  36.711  1.00  0.00    -0.200 F 
ENDBRANCH  61  84
ENDBRANCH  35  36
ENDBRANCH  28  30
ENDBRANCH  27  28
ENDBRANCH  26  27
ENDBRANCH  25  26
ENDBRANCH   1  25
TORSDOF 17
ENDMDL
MODEL 2
REMARK VINA RESULT:     -12.3      4.261     10.331
REMARK SMILES CC1(C)O[C@](C)([C@H](O)C2CCCCC2)CC[C@H]1C(=O)OCCOCCOC(=O)c1ccc(-c2c3nc(c(-c4c(F)c(F)c(F)c(F)c4F)c4ccc([nH]4)c(-c4c(F)c(F)c(F)c(F)c4F)c4nc(c(-c5c(F)c(F)c(F)c(F)c5F)c5ccc2[nH]5)C=C4)C=C3)cc1
REMARK SMILES IDX 23 1 22 2 21 3 20 4 18 5 19 6 17 7 1 8 2 9 3 10 4 11 5 12
REMARK SMILES IDX 16 13 6 14 15 15 7 16 9 17 10 18 14 19 11 20 13 21 12 22
REMARK SMILES IDX 8 23 24 25 25 26 26 27 27 28 28 29 29 30 30 31 91 32 31 33
REMARK SMILES IDX 90 34 32 35 33 36 34 37 84 38 35 39 89 40 83 41 85 42 36 43
REMARK SMILES IDX 88 44 82 45 81 46 37 48 69 49 49 50 68 51 50 52 53 53 67 54
REMARK SMILES IDX 86 55 51 56 52 57 66 59 87 60 54 61 38 62 39 63 47 64 40 65
REMARK SMILES IDX 41 66 45 67 48 68 42 69 43 70 46 71 44 72 70 73 71 74 79 75
REMARK SMILES IDX 72 76 73 77 77 78 80 79 74 80 75 81 78 82 76 83 55 84 56 85
REMARK SMILES IDX 64 86 57 87 58 88 62 89 65 90 59 91 60 92 63 93 61 94
REMARK H PARENT 8 24 85 47 53 58
REMARK Flexibility Score: inf
ROOT
ATOM      1  O   UNL A   1      34.572  22.241  25.514  1.00  0.00    -0.374 OA
ENDROOT
BRANCH   1   2
ATOM      2  C   UNL A   1      33.541  23.049  24.959  1.00  0.00     0.202 C 
BRANCH   2   3
ATOM      3  C   UNL A   1      32.100  22.614  25.235  1.00  0.00     0.261 C 
BRANCH   3   4
ATOM      4  O   UNL A   1      31.142  23.678  25.087  1.00  0.00    -0.463 OA
BRANCH   4   5
ATOM      5  C   UNL A   1      31.170  24.625  26.055  1.00  0.00     0.311 C 
ATOM      6  O   UNL A   1      31.304  24.386  27.252  1.00  0.00    -0.252 OA
BRANCH   5   7
ATOM      7  C   UNL A   1      30.908  26.031  25.554  1.00  0.00     0.131 C 
ATOM      8  C   UNL A   1      33.200  26.402  24.306  1.00  0.00     0.043 C 
ATOM      9  C   UNL A   1      32.085  26.978  25.191  1.00  0.00     0.077 C 
ATOM     10  C   UNL A   1      32.763  27.501  26.478  1.00  0.00     0.043 C 
ATOM     11  O   UNL A   1      31.594  28.196  24.581  1.00  0.00    -0.366 OA
ATOM     12  C   UNL A   1      30.625  28.144  23.527  1.00  0.00     0.092 C 
ATOM     13  C   UNL A   1      29.866  25.898  24.445  1.00  0.00     0.021 C 
ATOM     14  C   UNL A   1      31.190  27.568  22.214  1.00  0.00     0.045 C 
ATOM     15  C   UNL A   1      29.430  27.271  23.971  1.00  0.00     0.039 C 
BRANCH  12  16
ATOM     16  C   UNL A   1      30.089  29.613  23.334  1.00  0.00     0.149 C 
BRANCH  16  17
ATOM     17  C   UNL A   1      28.550  29.837  23.175  1.00  0.00     0.021 C 
ATOM     18  C   UNL A   1      27.943  31.113  23.770  1.00  0.00     0.006 C 
ATOM     19  C   UNL A   1      28.115  29.775  21.689  1.00  0.00     0.006 C 
ATOM     20  C   UNL A   1      28.401  32.376  23.054  1.00  0.00     0.000 C 
ATOM     21  C   UNL A   1      28.436  31.035  20.879  1.00  0.00     0.000 C 
ATOM     22  C   UNL A   1      28.028  32.333  21.577  1.00  0.00     0.000 C 
ENDBRANCH  16  17
BRANCH  16  23
ATOM     23  O   UNL A   1      30.642  30.464  24.339  1.00  0.00    -0.390 OA
ATOM     24  H   UNL A   1      30.599  30.018  25.199  1.00  0.00     0.211 HD
ENDBRANCH  16  23
ENDBRANCH  12  16
ENDBRANCH   5   7
ENDBRANCH   4   5
ENDBRANCH   3   4
ENDBRANCH   2   3
ENDBRANCH   1   2
BRANCH   1  25
ATOM     25  C   UNL A   1      35.747  22.033  24.731  1.00  0.00     0.202 C 
BRANCH  25  26
ATOM     26  C   UNL A   1      36.837  21.174  25.380  1.00  0.00     0.261 C 
BRANCH  26  27
ATOM     27  O   UNL A   1      38.151  21.634  25.001  1.00  0.00    -0.460 OA
BRANCH  27  28
ATOM     28  C   UNL A   1      39.125  21.318  25.883  1.00  0.00     0.338 C 
ATOM     29  O   UNL A   1      39.749  20.268  25.956  1.00  0.00    -0.246 OA
BRANCH  28  30
ATOM     30  C   UNL A   1      39.504  22.497  26.680  1.00  0.00     0.060 A 
ATOM     31  C   UNL A   1      38.877  23.707  26.360  1.00  0.00     0.016 A 
ATOM     32  C   UNL A   1      40.545  22.460  27.608  1.00  0.00     0.016 A 
ATOM     33  C   UNL A   1      39.342  24.898  26.910  1.00  0.00     0.010 A 
ATOM     34  C   UNL A   1      41.015  23.661  28.158  1.00  0.00     0.010 A 
ATOM     35  C   UNL A   1      40.449  24.890  27.770  1.00  0.00    -0.014 A 
BRANCH  35  36
ATOM     36  C   UNL A   1      41.100  26.185  28.100  1.00  0.00     0.031 A 
ATOM     37  C   UNL A   1      42.502  26.444  27.617  1.00  0.00     0.074 A 
ATOM     38  C   UNL A   1      40.423  27.155  28.739  1.00  0.00     0.049 A 
ATOM     39  N   UNL A   1      43.233  27.526  27.724  1.00  0.00    -0.248 NA
ATOM     40  C   UNL A   1      43.170  25.337  26.914  1.00  0.00     0.031 C 
ATOM     41  C   UNL A   1      39.050  27.046  29.225  1.00  0.00     0.029 A 
ATOM     42  N   UNL A   1      40.802  28.431  29.077  1.00  0.00    -0.354 N 
ATOM     43  C   UNL A   1      44.439  27.232  27.101  1.00  0.00     0.074 A 
ATOM     44  C   UNL A   1      44.359  25.860  26.650  1.00  0.00     0.031 C 
ATOM     45  C   UNL A   1      38.698  28.210  29.798  1.00  0.00     0.029 A 
ATOM     46  C   UNL A   1      39.828  29.137  29.736  1.00  0.00     0.049 A 
ATOM     47  H   UNL A   1      41.688  28.804  28.867  1.00  0.00     0.167 HD
ATOM     48  C   UNL A   1      45.512  28.037  26.907  1.00  0.00     0.037 A 
ATOM     49  C   UNL A   1      39.847  30.387  30.239  1.00  0.00     0.037 A 
ATOM     50  C   UNL A   1      45.596  29.404  27.347  1.00  0.00     0.049 A 
ATOM     51  C   UNL A   1      41.075  31.242  30.063  1.00  0.00     0.074 A 
ATOM     52  C   UNL A   1      46.634  30.304  27.175  1.00  0.00     0.029 A 
ATOM     53  N   UNL A   1      44.605  30.069  28.053  1.00  0.00    -0.354 N 
ATOM     54  N   UNL A   1      42.196  30.967  29.441  1.00  0.00    -0.248 NA
ATOM     55  C   UNL A   1      41.034  32.589  30.651  1.00  0.00     0.031 C 
ATOM     56  C   UNL A   1      46.290  31.498  27.819  1.00  0.00     0.029 A 
ATOM     57  C   UNL A   1      45.017  31.359  28.348  1.00  0.00     0.049 A 
ATOM     58  H   UNL A   1      43.736  29.682  28.307  1.00  0.00     0.167 HD
ATOM     59  C   UNL A   1      42.980  32.109  29.541  1.00  0.00     0.074 A 
ATOM     60  C   UNL A   1      42.201  33.088  30.270  1.00  0.00     0.031 C 
ATOM     61  C   UNL A   1      44.234  32.326  29.071  1.00  0.00     0.037 A 
BRANCH  48  62
ATOM     62  C   UNL A   1      46.699  27.448  26.202  1.00  0.00     0.064 A 
ATOM     63  C   UNL A   1      46.874  27.583  24.817  1.00  0.00     0.173 A 
ATOM     64  C   UNL A   1      47.692  26.775  26.929  1.00  0.00     0.173 A 
ATOM     65  F   UNL A   1      45.945  28.209  24.077  1.00  0.00    -0.203 F 
ATOM     66  C   UNL A   1      47.990  27.046  24.182  1.00  0.00     0.198 A 
ATOM     67  C   UNL A   1      48.820  26.262  26.293  1.00  0.00     0.198 A 
ATOM     68  F   UNL A   1      47.574  26.623  28.255  1.00  0.00    -0.203 F 
ATOM     69  F   UNL A   1      48.119  27.151  22.852  1.00  0.00    -0.200 F 
ATOM     70  C   UNL A   1      48.965  26.392  24.921  1.00  0.00     0.200 A 
ATOM     71  F   UNL A   1      49.766  25.640  27.010  1.00  0.00    -0.200 F 
ATOM     72  F   UNL A   1      50.043  25.881  24.309  1.00  0.00    -0.200 F 
ENDBRANCH  48  62
BRANCH  49  73
ATOM     73  C   UNL A   1      38.661  30.911  30.965  1.00  0.00     0.064 A 
ATOM     74  C   UNL A   1      37.603  31.524  30.282  1.00  0.00     0.173 A 
ATOM     75  C   UNL A   1      38.574  30.826  32.362  1.00  0.00     0.173 A 
ATOM     76  F   UNL A   1      37.652  31.652  28.947  1.00  0.00    -0.203 F 
ATOM     77  C   UNL A   1      36.511  32.049  30.970  1.00  0.00     0.198 A 
ATOM     78  C   UNL A   1      37.470  31.326  33.046  1.00  0.00     0.198 A 
ATOM     79  F   UNL A   1      39.564  30.251  33.063  1.00  0.00    -0.203 F 
ATOM     80  F   UNL A   1      35.533  32.671  30.296  1.00  0.00    -0.200 F 
ATOM     81  C   UNL A   1      36.442  31.944  32.351  1.00  0.00     0.200 A 
ATOM     82  F   UNL A   1      37.403  31.213  34.380  1.00  0.00    -0.200 F 
ATOM     83  F   UNL A   1      35.391  32.446  33.012  1.00  0.00    -0.200 F 
ENDBRANCH  49  73
BRANCH  61  84
ATOM     84  C   UNL A   1      44.832  33.684  29.304  1.00  0.00     0.064 A 
ATOM     85  C   UNL A   1      45.620  33.957  30.432  1.00  0.00     0.173 A 
ATOM     86  C   UNL A   1      44.639  34.716  28.373  1.00  0.00     0.173 A 
ATOM     87  F   UNL A   1      45.825  33.010  31.359  1.00  0.00    -0.203 F 
ATOM     88  C   UNL A   1      46.169  35.222  30.632  1.00  0.00     0.198 A 
ATOM     89  C   UNL A   1      45.214  35.970  28.562  1.00  0.00     0.198 A 
ATOM     90  F   UNL A   1      43.899  34.505  27.273  1.00  0.00    -0.203 F 
ATOM     91  F   UNL A   1      46.878  35.474  31.742  1.00  0.00    -0.200 F 
ATOM     92  C   UNL A   1      45.971  36.225  29.694  1.00  0.00     0.200 A 
ATOM     93  F   UNL A   1      45.031  36.934  27.649  1.00  0.00    -0.200 F 
ATOM     94  F   UNL A   1      46.503  37.440  29.888  1.00  0.00    -0.200 F 
ENDBRANCH  61  84
ENDBRANCH  35  36
ENDBRANCH  28  30
ENDBRANCH  27  28
ENDBRANCH  26  27
ENDBRANCH  25  26
ENDBRANCH   1  25
TORSDOF 17
ENDMDL
MODEL 3
REMARK VINA RESULT:     -12.1      0.615      7.325
REMARK SMILES CC1(C)O[C@](C)([C@H](O)C2CCCCC2)CC[C@H]1C(=O)OCCOCCOC(=O)c1ccc(-c2c3nc(c(-c4c(F)c(F)c(F)c(F)c4F)c4ccc([nH]4)c(-c4c(F)c(F)c(F)c(F)c4F)c4nc(c(-c5c(F)c(F)c(F)c(F)c5F)c5ccc2[nH]5)C=C4)C=C3)cc1
REMARK SMILES IDX 23 1 22 2 21 3 20 4 18 5 19 6 17 7 1 8 2 9 3 10 4 11 5 12
REMARK SMILES IDX 16 13 6 14 15 15 7 16 9 17 10 18 14 19 11 20 13 21 12 22
REMARK SMILES IDX 8 23 24 25 25 26 26 27 27 28 28 29 29 30 30 31 91 32 31 33
REMARK SMILES IDX 90 34 32 35 33 36 34 37 84 38 35 39 89 40 83 41 85 42 36 43
REMARK SMILES IDX 88 44 82 45 81 46 37 48 69 49 49 50 68 51 50 52 53 53 67 54
REMARK SMILES IDX 86 55 51 56 52 57 66 59 87 60 54 61 38 62 39 63 47 64 40 65
REMARK SMILES IDX 41 66 45 67 48 68 42 69 43 70 46 71 44 72 70 73 71 74 79 75
REMARK SMILES IDX 72 76 73 77 77 78 80 79 74 80 75 81 78 82 76 83 55 84 56 85
REMARK SMILES IDX 64 86 57 87 58 88 62 89 65 90 59 91 60 92 63 93 61 94
REMARK H PARENT 8 24 85 47 53 58
REMARK Flexibility Score: inf
ROOT
ATOM      1  O   UNL A   1      32.515  29.229  24.919  1.00  0.00    -0.374 OA
ENDROOT
BRANCH   1   2
ATOM      2  C   UNL A   1      32.408  28.073  24.096  1.00  0.00     0.202 C 
BRANCH   2   3
ATOM      3  C   UNL A   1      33.436  26.963  24.330  1.00  0.00     0.261 C 
BRANCH   3   4
ATOM      4  O   UNL A   1      32.952  25.653  23.985  1.00  0.00    -0.463 OA
BRANCH   4   5
ATOM      5  C   UNL A   1      33.684  24.986  23.060  1.00  0.00     0.311 C 
ATOM      6  O   UNL A   1      34.038  25.462  21.985  1.00  0.00    -0.252 OA
BRANCH   5   7
ATOM      7  C   UNL A   1      33.950  23.535  23.408  1.00  0.00     0.131 C 
ATOM      8  C   UNL A   1      35.109  23.931  25.742  1.00  0.00     0.043 C 
ATOM      9  C   UNL A   1      35.064  23.152  24.420  1.00  0.00     0.077 C 
ATOM     10  C   UNL A   1      36.455  23.309  23.763  1.00  0.00     0.043 C 
ATOM     11  O   UNL A   1      35.020  21.736  24.720  1.00  0.00    -0.366 OA
ATOM     12  C   UNL A   1      33.779  21.099  25.047  1.00  0.00     0.092 C 
ATOM     13  C   UNL A   1      32.589  22.923  23.737  1.00  0.00     0.021 C 
ATOM     14  C   UNL A   1      33.221  21.531  26.417  1.00  0.00     0.045 C 
ATOM     15  C   UNL A   1      32.730  21.429  23.963  1.00  0.00     0.039 C 
BRANCH  12  16
ATOM     16  C   UNL A   1      34.041  19.546  24.992  1.00  0.00     0.149 C 
BRANCH  16  17
ATOM     17  C   UNL A   1      33.053  18.646  24.181  1.00  0.00     0.021 C 
ATOM     18  C   UNL A   1      33.645  17.650  23.176  1.00  0.00     0.006 C 
ATOM     19  C   UNL A   1      32.112  17.845  25.116  1.00  0.00     0.006 C 
ATOM     20  C   UNL A   1      34.429  16.530  23.845  1.00  0.00     0.000 C 
ATOM     21  C   UNL A   1      32.762  16.626  25.780  1.00  0.00     0.000 C 
ATOM     22  C   UNL A   1      33.546  15.744  24.808  1.00  0.00     0.000 C 
ENDBRANCH  16  17
BRANCH  16  23
ATOM     23  O   UNL A   1      35.399  19.298  24.623  1.00  0.00    -0.390 OA
ATOM     24  H   UNL A   1      35.858  18.858  25.354  1.00  0.00     0.211 HD
ENDBRANCH  16  23
ENDBRANCH  12  16
ENDBRANCH   5   7
ENDBRANCH   4   5
ENDBRANCH   3   4
ENDBRANCH   2   3
ENDBRANCH   1   2
BRANCH   1  25
ATOM     25  C   UNL A   1      31.354  30.045  25.073  1.00  0.00     0.202 C 
BRANCH  25  26
ATOM     26  C   UNL A   1      31.433  31.118  26.162  1.00  0.00     0.261 C 
BRANCH  26  27
ATOM     27  O   UNL A   1      32.525  30.854  27.069  1.00  0.00    -0.460 OA
BRANCH  27  28
ATOM     28  C   UNL A   1      33.297  31.931  27.336  1.00  0.00     0.338 C 
ATOM     29  O   UNL A   1      32.942  33.100  27.404  1.00  0.00    -0.246 OA
BRANCH  28  30
ATOM     30  C   UNL A   1      34.651  31.511  27.734  1.00  0.00     0.060 A 
ATOM     31  C   UNL A   1      34.845  30.147  27.983  1.00  0.00     0.016 A 
ATOM     32  C   UNL A   1      35.664  32.434  28.001  1.00  0.00     0.016 A 
ATOM     33  C   UNL A   1      36.025  29.709  28.577  1.00  0.00     0.010 A 
ATOM     34  C   UNL A   1      36.851  31.991  28.602  1.00  0.00     0.010 A 
ATOM     35  C   UNL A   1      37.014  30.634  28.941  1.00  0.00    -0.014 A 
BRANCH  35  36
ATOM     36  C   UNL A   1      38.116  30.182  29.829  1.00  0.00     0.031 A 
ATOM     37  C   UNL A   1      39.142  29.220  29.292  1.00  0.00     0.074 A 
ATOM     38  C   UNL A   1      38.259  30.688  31.066  1.00  0.00     0.049 A 
ATOM     39  N   UNL A   1      40.225  28.753  29.862  1.00  0.00    -0.248 NA
ATOM     40  C   UNL A   1      38.922  28.722  27.924  1.00  0.00     0.031 C 
ATOM     41  C   UNL A   1      37.358  31.654  31.691  1.00  0.00     0.029 A 
ATOM     42  N   UNL A   1      39.228  30.466  32.013  1.00  0.00    -0.354 N 
ATOM     43  C   UNL A   1      40.814  27.912  28.926  1.00  0.00     0.074 A 
ATOM     44  C   UNL A   1      39.952  27.903  27.764  1.00  0.00     0.031 C 
ATOM     45  C   UNL A   1      37.818  31.945  32.921  1.00  0.00     0.029 A 
ATOM     46  C   UNL A   1      39.034  31.171  33.174  1.00  0.00     0.049 A 
ATOM     47  H   UNL A   1      39.990  29.859  31.873  1.00  0.00     0.167 HD
ATOM     48  C   UNL A   1      41.976  27.222  29.019  1.00  0.00     0.037 A 
ATOM     49  C   UNL A   1      39.751  31.186  34.315  1.00  0.00     0.037 A 
ATOM     50  C   UNL A   1      42.841  27.231  30.169  1.00  0.00     0.049 A 
ATOM     51  C   UNL A   1      41.009  30.363  34.415  1.00  0.00     0.074 A 
ATOM     52  C   UNL A   1      44.051  26.581  30.344  1.00  0.00     0.029 A 
ATOM     53  N   UNL A   1      42.585  27.922  31.344  1.00  0.00    -0.354 N 
ATOM     54  N   UNL A   1      41.575  29.600  33.512  1.00  0.00    -0.248 NA
ATOM     55  C   UNL A   1      41.733  30.411  35.694  1.00  0.00     0.031 C 
ATOM     56  C   UNL A   1      44.503  26.839  31.643  1.00  0.00     0.029 A 
ATOM     57  C   UNL A   1      43.601  27.692  32.259  1.00  0.00     0.049 A 
ATOM     58  H   UNL A   1      41.799  28.492  31.504  1.00  0.00     0.167 HD
ATOM     59  C   UNL A   1      42.730  29.101  34.101  1.00  0.00     0.074 A 
ATOM     60  C   UNL A   1      42.793  29.659  35.436  1.00  0.00     0.031 C 
ATOM     61  C   UNL A   1      43.655  28.255  33.583  1.00  0.00     0.037 A 
BRANCH  48  62
ATOM     62  C   UNL A   1      42.372  26.375  27.845  1.00  0.00     0.064 A 
ATOM     63  C   UNL A   1      43.266  26.840  26.870  1.00  0.00     0.173 A 
ATOM     64  C   UNL A   1      41.881  25.067  27.717  1.00  0.00     0.173 A 
ATOM     65  F   UNL A   1      43.754  28.089  26.942  1.00  0.00    -0.203 F 
ATOM     66  C   UNL A   1      43.636  26.034  25.796  1.00  0.00     0.198 A 
ATOM     67  C   UNL A   1      42.275  24.255  26.657  1.00  0.00     0.198 A 
ATOM     68  F   UNL A   1      41.027  24.573  28.625  1.00  0.00    -0.203 F 
ATOM     69  F   UNL A   1      44.460  26.513  24.853  1.00  0.00    -0.200 F 
ATOM     70  C   UNL A   1      43.146  24.741  25.694  1.00  0.00     0.200 A 
ATOM     71  F   UNL A   1      41.809  23.002  26.566  1.00  0.00    -0.200 F 
ATOM     72  F   UNL A   1      43.509  23.964  24.664  1.00  0.00    -0.200 F 
ENDBRANCH  48  62
BRANCH  49  73
ATOM     73  C   UNL A   1      39.295  32.010  35.465  1.00  0.00     0.064 A 
ATOM     74  C   UNL A   1      39.683  33.350  35.597  1.00  0.00     0.173 A 
ATOM     75  C   UNL A   1      38.479  31.464  36.466  1.00  0.00     0.173 A 
ATOM     76  F   UNL A   1      40.485  33.909  34.679  1.00  0.00    -0.203 F 
ATOM     77  C   UNL A   1      39.285  34.107  36.697  1.00  0.00     0.198 A 
ATOM     78  C   UNL A   1      38.060  32.229  37.550  1.00  0.00     0.198 A 
ATOM     79  F   UNL A   1      38.084  30.184  36.386  1.00  0.00    -0.203 F 
ATOM     80  F   UNL A   1      39.707  35.374  36.824  1.00  0.00    -0.200 F 
ATOM     81  C   UNL A   1      38.469  33.548  37.670  1.00  0.00     0.200 A 
ATOM     82  F   UNL A   1      37.263  31.688  38.481  1.00  0.00    -0.200 F 
ATOM     83  F   UNL A   1      38.085  34.278  38.726  1.00  0.00    -0.200 F 
ENDBRANCH  49  73
BRANCH  61  84
ATOM     84  C   UNL A   1      44.831  27.904  34.449  1.00  0.00     0.064 A 
ATOM     85  C   UNL A   1      45.992  28.689  34.467  1.00  0.00     0.173 A 
ATOM     86  C   UNL A   1      44.783  26.784  35.294  1.00  0.00     0.173 A 
ATOM     87  F   UNL A   1      46.095  29.763  33.669  1.00  0.00    -0.203 F 
ATOM     88  C   UNL A   1      47.073  28.350  35.277  1.00  0.00     0.198 A 
ATOM     89  C   UNL A   1      45.854  26.465  36.124  1.00  0.00     0.198 A 
ATOM     90  F   UNL A   1      43.692  26.003  35.321  1.00  0.00    -0.203 F 
ATOM     91  F   UNL A   1      48.192  29.087  35.241  1.00  0.00    -0.200 F 
ATOM     92  C   UNL A   1      47.001  27.243  36.110  1.00  0.00     0.200 A 
ATOM     93  F   UNL A   1      45.777  25.402  36.936  1.00  0.00    -0.200 F 
ATOM     94  F   UNL A   1      48.041  26.920  36.890  1.00  0.00    -0.200 F 
ENDBRANCH  61  84
ENDBRANCH  35  36
ENDBRANCH  28  30
ENDBRANCH  27  28
ENDBRANCH  26  27
ENDBRANCH  25  26
ENDBRANCH   1  25
TORSDOF 17
ENDMDL
