MODEL 1
REMARK VINA RESULT:      -9.9      0.000      0.000
REMARK SMILES O=C(COCCNS(=O)(=O)c1ccccc1)OCCOCCOC(=O)c1ccc(-c2c3nc(c(-c4c(F)c(F)c(F)c(F)c4F)c4ccc([nH]4)c(-c4c(F)c(F)c(F)c(F)c4F)c4nc(c(-c5c(F)c(F)c(F)c(F)c5F)c5ccc2[nH]5)C=C4)C=C3)cc1
REMARK SMILES IDX 18 1 17 2 2 3 1 4 3 5 4 6 5 7 6 8 7 9 8 11 9 12 10 13 11 14
REMARK SMILES IDX 12 15 16 16 13 17 15 18 14 19 19 20 20 21 21 22 22 23 23 24
REMARK SMILES IDX 24 25 25 26 26 27 27 28 88 29 28 30 87 31 29 32 30 33 31 34
REMARK SMILES IDX 81 35 32 36 86 37 80 38 82 39 33 40 85 41 79 42 78 43 34 45
REMARK SMILES IDX 66 46 46 47 65 48 47 49 50 50 64 51 83 52 48 53 49 54 63 56
REMARK SMILES IDX 84 57 51 58 35 59 36 60 44 61 37 62 38 63 42 64 45 65 39 66
REMARK SMILES IDX 40 67 43 68 41 69 67 70 68 71 76 72 69 73 70 74 74 75 77 76
REMARK SMILES IDX 71 77 72 78 75 79 73 80 52 81 53 82 61 83 54 84 55 85 59 86
REMARK SMILES IDX 62 87 56 88 57 89 60 90 58 91
REMARK H PARENT 7 10 82 44 50 55
REMARK Flexibility Score: inf
ROOT
ATOM      1  C   UNL A   1      40.027  22.137  27.025  1.00  0.00     0.261 C 
ENDROOT
BRANCH   1   2
ATOM      2  O   UNL A   1      39.479  22.813  25.881  1.00  0.00    -0.462 OA
BRANCH   2   3
ATOM      3  C   UNL A   1      38.165  23.136  25.822  1.00  0.00     0.332 C 
ATOM      4  O   UNL A   1      37.753  24.143  26.405  1.00  0.00    -0.250 OA
BRANCH   3   5
ATOM      5  C   UNL A   1      37.255  22.326  24.894  1.00  0.00     0.282 C 
BRANCH   5   6
ATOM      6  O   UNL A   1      36.837  21.075  25.424  1.00  0.00    -0.368 OA
BRANCH   6   7
ATOM      7  C   UNL A   1      35.483  21.046  25.890  1.00  0.00     0.177 C 
BRANCH   7   8
ATOM      8  C   UNL A   1      34.474  21.732  24.958  1.00  0.00     0.127 C 
BRANCH   8   9
ATOM      9  N   UNL A   1      34.028  20.827  23.886  1.00  0.00    -0.209 NA
ATOM     10  H   UNL A   1      34.766  20.135  23.754  1.00  0.00     0.141 HD
BRANCH   9  11
ATOM     11  S   UNL A   1      32.592  19.982  24.070  1.00  0.00     0.240 S 
ATOM     12  O   UNL A   1      31.862  20.593  25.158  1.00  0.00    -0.207 OA
ATOM     13  O   UNL A   1      32.018  19.812  22.754  1.00  0.00    -0.207 OA
BRANCH  11  14
ATOM     14  C   UNL A   1      33.200  18.407  24.608  1.00  0.00     0.082 A 
ATOM     15  C   UNL A   1      34.484  17.993  24.247  1.00  0.00     0.022 A 
ATOM     16  C   UNL A   1      32.328  17.552  25.292  1.00  0.00     0.022 A 
ATOM     17  C   UNL A   1      34.887  16.694  24.552  1.00  0.00     0.001 A 
ATOM     18  C   UNL A   1      32.739  16.255  25.588  1.00  0.00     0.001 A 
ATOM     19  C   UNL A   1      34.013  15.826  25.211  1.00  0.00     0.000 A 
ENDBRANCH  11  14
ENDBRANCH   9  11
ENDBRANCH   8   9
ENDBRANCH   7   8
ENDBRANCH   6   7
ENDBRANCH   5   6
ENDBRANCH   3   5
ENDBRANCH   2   3
ENDBRANCH   1   2
BRANCH   1  20
ATOM     20  C   UNL A   1      41.070  21.114  26.575  1.00  0.00     0.202 C 
BRANCH  20  21
ATOM     21  O   UNL A   1      41.873  21.589  25.491  1.00  0.00    -0.374 OA
BRANCH  21  22
ATOM     22  C   UNL A   1      43.245  21.166  25.523  1.00  0.00     0.202 C 
BRANCH  22  23
ATOM     23  C   UNL A   1      44.215  22.159  24.872  1.00  0.00     0.261 C 
BRANCH  23  24
ATOM     24  O   UNL A   1      44.785  23.012  25.880  1.00  0.00    -0.460 OA
BRANCH  24  25
ATOM     25  C   UNL A   1      44.881  24.320  25.544  1.00  0.00     0.338 C 
ATOM     26  O   UNL A   1      45.391  24.793  24.544  1.00  0.00    -0.246 OA
BRANCH  25  27
ATOM     27  C   UNL A   1      44.052  25.113  26.478  1.00  0.00     0.060 A 
ATOM     28  C   UNL A   1      44.261  26.498  26.503  1.00  0.00     0.016 A 
ATOM     29  C   UNL A   1      43.072  24.532  27.291  1.00  0.00     0.016 A 
ATOM     30  C   UNL A   1      43.522  27.301  27.366  1.00  0.00     0.010 A 
ATOM     31  C   UNL A   1      42.341  25.335  28.169  1.00  0.00     0.010 A 
ATOM     32  C   UNL A   1      42.590  26.717  28.233  1.00  0.00    -0.014 A 
BRANCH  32  33
ATOM     33  C   UNL A   1      42.037  27.527  29.340  1.00  0.00     0.031 A 
ATOM     34  C   UNL A   1      42.742  27.483  30.666  1.00  0.00     0.074 A 
ATOM     35  C   UNL A   1      40.965  28.317  29.158  1.00  0.00     0.049 A 
ATOM     36  N   UNL A   1      42.462  28.109  31.778  1.00  0.00    -0.248 NA
ATOM     37  C   UNL A   1      43.930  26.615  30.745  1.00  0.00     0.031 C 
ATOM     38  C   UNL A   1      40.224  28.463  27.907  1.00  0.00     0.029 A 
ATOM     39  N   UNL A   1      40.314  29.146  30.036  1.00  0.00    -0.354 N 
ATOM     40  C   UNL A   1      43.439  27.718  32.684  1.00  0.00     0.074 A 
ATOM     41  C   UNL A   1      44.302  26.777  32.006  1.00  0.00     0.031 C 
ATOM     42  C   UNL A   1      39.208  29.323  28.102  1.00  0.00     0.029 A 
ATOM     43  C   UNL A   1      39.220  29.771  29.493  1.00  0.00     0.049 A 
ATOM     44  H   UNL A   1      40.605  29.278  30.968  1.00  0.00     0.167 HD
ATOM     45  C   UNL A   1      43.609  28.119  33.965  1.00  0.00     0.037 A 
ATOM     46  C   UNL A   1      38.326  30.600  30.068  1.00  0.00     0.037 A 
ATOM     47  C   UNL A   1      42.742  29.044  34.641  1.00  0.00     0.049 A 
ATOM     48  C   UNL A   1      38.502  30.979  31.517  1.00  0.00     0.074 A 
ATOM     49  C   UNL A   1      42.824  29.513  35.940  1.00  0.00     0.029 A 
ATOM     50  N   UNL A   1      41.628  29.636  34.068  1.00  0.00    -0.354 N 
ATOM     51  N   UNL A   1      39.442  30.625  32.358  1.00  0.00    -0.248 NA
ATOM     52  C   UNL A   1      37.489  31.876  32.093  1.00  0.00     0.031 C 
ATOM     53  C   UNL A   1      41.735  30.363  36.164  1.00  0.00     0.029 A 
ATOM     54  C   UNL A   1      41.000  30.453  34.993  1.00  0.00     0.049 A 
ATOM     55  H   UNL A   1      41.327  29.496  33.141  1.00  0.00     0.167 HD
ATOM     56  C   UNL A   1      39.151  31.272  33.552  1.00  0.00     0.074 A 
ATOM     57  C   UNL A   1      37.955  32.054  33.322  1.00  0.00     0.031 C 
ATOM     58  C   UNL A   1      39.813  31.225  34.735  1.00  0.00     0.037 A 
BRANCH  45  59
ATOM     59  C   UNL A   1      44.766  27.539  34.718  1.00  0.00     0.064 A 
ATOM     60  C   UNL A   1      46.013  28.182  34.752  1.00  0.00     0.173 A 
ATOM     61  C   UNL A   1      44.623  26.339  35.431  1.00  0.00     0.173 A 
ATOM     62  F   UNL A   1      46.204  29.320  34.067  1.00  0.00    -0.203 F 
ATOM     63  C   UNL A   1      47.080  27.634  35.459  1.00  0.00     0.198 A 
ATOM     64  C   UNL A   1      45.686  25.808  36.156  1.00  0.00     0.198 A 
ATOM     65  F   UNL A   1      43.452  25.686  35.425  1.00  0.00    -0.203 F 
ATOM     66  F   UNL A   1      48.273  28.245  35.447  1.00  0.00    -0.200 F 
ATOM     67  C   UNL A   1      46.914  26.452  36.166  1.00  0.00     0.200 A 
ATOM     68  F   UNL A   1      45.523  24.669  36.842  1.00  0.00    -0.200 F 
ATOM     69  F   UNL A   1      47.941  25.930  36.852  1.00  0.00    -0.200 F 
ENDBRANCH  45  59
BRANCH  46  70
ATOM     70  C   UNL A   1      37.179  31.123  29.282  1.00  0.00     0.064 A 
ATOM     71  C   UNL A   1      37.132  32.463  28.872  1.00  0.00     0.173 A 
ATOM     72  C   UNL A   1      36.093  30.300  28.952  1.00  0.00     0.173 A 
ATOM     73  F   UNL A   1      38.134  33.295  29.188  1.00  0.00    -0.203 F 
ATOM     74  C   UNL A   1      36.030  32.965  28.181  1.00  0.00     0.198 A 
ATOM     75  C   UNL A   1      35.004  30.797  28.238  1.00  0.00     0.198 A 
ATOM     76  F   UNL A   1      36.089  29.012  29.323  1.00  0.00    -0.203 F 
ATOM     77  F   UNL A   1      35.987  34.261  27.844  1.00  0.00    -0.200 F 
ATOM     78  C   UNL A   1      34.970  32.131  27.861  1.00  0.00     0.200 A 
ATOM     79  F   UNL A   1      33.985  29.986  27.924  1.00  0.00    -0.200 F 
ATOM     80  F   UNL A   1      33.910  32.614  27.198  1.00  0.00    -0.200 F 
ENDBRANCH  46  70
BRANCH  58  81
ATOM     81  C   UNL A   1      39.269  32.058  35.858  1.00  0.00     0.064 A 
ATOM     82  C   UNL A   1      38.380  31.526  36.801  1.00  0.00     0.173 A 
ATOM     83  C   UNL A   1      39.675  33.392  36.011  1.00  0.00     0.173 A 
ATOM     84  F   UNL A   1      37.954  30.259  36.687  1.00  0.00    -0.203 F 
ATOM     85  C   UNL A   1      37.898  32.306  37.847  1.00  0.00     0.198 A 
ATOM     86  C   UNL A   1      39.210  34.163  37.073  1.00  0.00     0.198 A 
ATOM     87  F   UNL A   1      40.531  33.944  35.137  1.00  0.00    -0.203 F 
ATOM     88  F   UNL A   1      37.015  31.792  38.714  1.00  0.00    -0.200 F 
ATOM     89  C   UNL A   1      38.318  33.622  37.986  1.00  0.00     0.200 A 
ATOM     90  F   UNL A   1      39.626  35.429  37.212  1.00  0.00    -0.200 F 
ATOM     91  F   UNL A   1      37.855  34.371  38.996  1.00  0.00    -0.200 F 
ENDBRANCH  58  81
ENDBRANCH  32  33
ENDBRANCH  25  27
ENDBRANCH  24  25
ENDBRANCH  23  24
ENDBRANCH  22  23
ENDBRANCH  21  22
ENDBRANCH  20  21
ENDBRANCH   1  20
TORSDOF 20
ENDMDL
MODEL 2
REMARK VINA RESULT:      -9.8      5.027     10.001
REMARK SMILES O=C(COCCNS(=O)(=O)c1ccccc1)OCCOCCOC(=O)c1ccc(-c2c3nc(c(-c4c(F)c(F)c(F)c(F)c4F)c4ccc([nH]4)c(-c4c(F)c(F)c(F)c(F)c4F)c4nc(c(-c5c(F)c(F)c(F)c(F)c5F)c5ccc2[nH]5)C=C4)C=C3)cc1
REMARK SMILES IDX 18 1 17 2 2 3 1 4 3 5 4 6 5 7 6 8 7 9 8 11 9 12 10 13 11 14
REMARK SMILES IDX 12 15 16 16 13 17 15 18 14 19 19 20 20 21 21 22 22 23 23 24
REMARK SMILES IDX 24 25 25 26 26 27 27 28 88 29 28 30 87 31 29 32 30 33 31 34
REMARK SMILES IDX 81 35 32 36 86 37 80 38 82 39 33 40 85 41 79 42 78 43 34 45
REMARK SMILES IDX 66 46 46 47 65 48 47 49 50 50 64 51 83 52 48 53 49 54 63 56
REMARK SMILES IDX 84 57 51 58 35 59 36 60 44 61 37 62 38 63 42 64 45 65 39 66
REMARK SMILES IDX 40 67 43 68 41 69 67 70 68 71 76 72 69 73 70 74 74 75 77 76
REMARK SMILES IDX 71 77 72 78 75 79 73 80 52 81 53 82 61 83 54 84 55 85 59 86
REMARK SMILES IDX 62 87 56 88 57 89 60 90 58 91
REMARK H PARENT 7 10 82 44 50 55
REMARK Flexibility Score: inf
ROOT
ATOM      1  C   UNL A   1      35.226  32.574  28.763  1.00  0.00     0.261 C 
ENDROOT
BRANCH   1   2
ATOM      2  O   UNL A   1      34.241  31.625  28.319  1.00  0.00    -0.462 OA
BRANCH   2   3
ATOM      3  C   UNL A   1      34.575  30.607  27.491  1.00  0.00     0.332 C 
ATOM      4  O   UNL A   1      35.672  30.054  27.607  1.00  0.00    -0.250 OA
BRANCH   3   5
ATOM      5  C   UNL A   1      33.507  30.062  26.536  1.00  0.00     0.282 C 
BRANCH   5   6
ATOM      6  O   UNL A   1      33.912  28.921  25.791  1.00  0.00    -0.368 OA
BRANCH   6   7
ATOM      7  C   UNL A   1      33.236  28.754  24.540  1.00  0.00     0.177 C 
BRANCH   7   8
ATOM      8  C   UNL A   1      32.489  27.420  24.392  1.00  0.00     0.127 C 
BRANCH   8   9
ATOM      9  N   UNL A   1      31.038  27.590  24.579  1.00  0.00    -0.209 NA
ATOM     10  H   UNL A   1      30.895  28.524  24.964  1.00  0.00     0.141 HD
BRANCH   9  11
ATOM     11  S   UNL A   1      30.019  27.444  23.257  1.00  0.00     0.240 S 
ATOM     12  O   UNL A   1      30.847  27.322  22.077  1.00  0.00    -0.207 OA
ATOM     13  O   UNL A   1      29.008  26.468  23.595  1.00  0.00    -0.207 OA
BRANCH  11  14
ATOM     14  C   UNL A   1      29.254  29.042  23.249  1.00  0.00     0.082 A 
ATOM     15  C   UNL A   1      29.917  30.137  23.805  1.00  0.00     0.022 A 
ATOM     16  C   UNL A   1      27.936  29.151  22.787  1.00  0.00     0.022 A 
ATOM     17  C   UNL A   1      29.241  31.350  23.925  1.00  0.00     0.001 A 
ATOM     18  C   UNL A   1      27.268  30.365  22.915  1.00  0.00     0.001 A 
ATOM     19  C   UNL A   1      27.918  31.459  23.490  1.00  0.00     0.000 A 
ENDBRANCH  11  14
ENDBRANCH   9  11
ENDBRANCH   8   9
ENDBRANCH   7   8
ENDBRANCH   6   7
ENDBRANCH   5   6
ENDBRANCH   3   5
ENDBRANCH   2   3
ENDBRANCH   1   2
BRANCH   1  20
ATOM     20  C   UNL A   1      35.065  33.888  27.999  1.00  0.00     0.202 C 
BRANCH  20  21
ATOM     21  O   UNL A   1      34.644  34.965  28.842  1.00  0.00    -0.374 OA
BRANCH  21  22
ATOM     22  C   UNL A   1      33.283  34.883  29.294  1.00  0.00     0.202 C 
BRANCH  22  23
ATOM     23  C   UNL A   1      32.734  36.202  29.849  1.00  0.00     0.261 C 
BRANCH  23  24
ATOM     24  O   UNL A   1      33.277  36.441  31.159  1.00  0.00    -0.460 OA
BRANCH  24  25
ATOM     25  C   UNL A   1      32.882  35.570  32.117  1.00  0.00     0.338 C 
ATOM     26  O   UNL A   1      31.743  35.242  32.396  1.00  0.00    -0.246 OA
BRANCH  25  27
ATOM     27  C   UNL A   1      34.075  34.872  32.645  1.00  0.00     0.060 A 
ATOM     28  C   UNL A   1      35.314  35.503  32.473  1.00  0.00     0.016 A 
ATOM     29  C   UNL A   1      33.992  33.649  33.319  1.00  0.00     0.016 A 
ATOM     30  C   UNL A   1      36.477  34.896  32.937  1.00  0.00     0.010 A 
ATOM     31  C   UNL A   1      35.161  33.032  33.771  1.00  0.00     0.010 A 
ATOM     32  C   UNL A   1      36.409  33.639  33.550  1.00  0.00    -0.014 A 
BRANCH  32  33
ATOM     33  C   UNL A   1      37.660  32.878  33.763  1.00  0.00     0.031 A 
ATOM     34  C   UNL A   1      38.441  33.143  35.017  1.00  0.00     0.074 A 
ATOM     35  C   UNL A   1      38.065  31.944  32.885  1.00  0.00     0.049 A 
ATOM     36  N   UNL A   1      39.554  32.600  35.435  1.00  0.00    -0.248 NA
ATOM     37  C   UNL A   1      37.887  34.160  35.929  1.00  0.00     0.031 C 
ATOM     38  C   UNL A   1      37.369  31.581  31.653  1.00  0.00     0.029 A 
ATOM     39  N   UNL A   1      39.168  31.130  32.903  1.00  0.00    -0.354 N 
ATOM     40  C   UNL A   1      39.827  33.200  36.657  1.00  0.00     0.074 A 
ATOM     41  C   UNL A   1      38.786  34.172  36.902  1.00  0.00     0.031 C 
ATOM     42  C   UNL A   1      38.070  30.621  31.024  1.00  0.00     0.029 A 
ATOM     43  C   UNL A   1      39.271  30.318  31.801  1.00  0.00     0.049 A 
ATOM     44  H   UNL A   1      39.825  31.128  33.637  1.00  0.00     0.167 HD
ATOM     45  C   UNL A   1      40.852  32.953  37.506  1.00  0.00     0.037 A 
ATOM     46  C   UNL A   1      40.236  29.443  31.460  1.00  0.00     0.037 A 
ATOM     47  C   UNL A   1      41.894  31.996  37.255  1.00  0.00     0.049 A 
ATOM     48  C   UNL A   1      41.402  29.235  32.394  1.00  0.00     0.074 A 
ATOM     49  C   UNL A   1      42.979  31.672  38.048  1.00  0.00     0.029 A 
ATOM     50  N   UNL A   1      41.979  31.212  36.114  1.00  0.00    -0.354 N 
ATOM     51  N   UNL A   1      41.640  29.787  33.559  1.00  0.00    -0.248 NA
ATOM     52  C   UNL A   1      42.432  28.277  31.965  1.00  0.00     0.031 C 
ATOM     53  C   UNL A   1      43.744  30.716  37.369  1.00  0.00     0.029 A 
ATOM     54  C   UNL A   1      43.111  30.417  36.173  1.00  0.00     0.049 A 
ATOM     55  H   UNL A   1      41.332  31.220  35.373  1.00  0.00     0.167 HD
ATOM     56  C   UNL A   1      42.829  29.229  34.011  1.00  0.00     0.074 A 
ATOM     57  C   UNL A   1      43.255  28.282  33.003  1.00  0.00     0.031 C 
ATOM     58  C   UNL A   1      43.510  29.478  35.157  1.00  0.00     0.037 A 
BRANCH  45  59
ATOM     59  C   UNL A   1      40.899  33.748  38.774  1.00  0.00     0.064 A 
ATOM     60  C   UNL A   1      41.713  34.885  38.894  1.00  0.00     0.173 A 
ATOM     61  C   UNL A   1      40.108  33.384  39.874  1.00  0.00     0.173 A 
ATOM     62  F   UNL A   1      42.503  35.260  37.877  1.00  0.00    -0.203 F 
ATOM     63  C   UNL A   1      41.745  35.619  40.078  1.00  0.00     0.198 A 
ATOM     64  C   UNL A   1      40.126  34.133  41.046  1.00  0.00     0.198 A 
ATOM     65  F   UNL A   1      39.319  32.302  39.808  1.00  0.00    -0.203 F 
ATOM     66  F   UNL A   1      42.558  36.679  40.184  1.00  0.00    -0.200 F 
ATOM     67  C   UNL A   1      40.947  35.246  41.149  1.00  0.00     0.200 A 
ATOM     68  F   UNL A   1      39.351  33.776  42.080  1.00  0.00    -0.200 F 
ATOM     69  F   UNL A   1      40.975  35.958  42.285  1.00  0.00    -0.200 F 
ENDBRANCH  45  59
BRANCH  46  70
ATOM     70  C   UNL A   1      40.154  28.702  30.175  1.00  0.00     0.064 A 
ATOM     71  C   UNL A   1      39.511  27.459  30.094  1.00  0.00     0.173 A 
ATOM     72  C   UNL A   1      40.746  29.209  29.009  1.00  0.00     0.173 A 
ATOM     73  F   UNL A   1      38.954  26.922  31.189  1.00  0.00    -0.203 F 
ATOM     74  C   UNL A   1      39.481  26.742  28.899  1.00  0.00     0.198 A 
ATOM     75  C   UNL A   1      40.693  28.502  27.809  1.00  0.00     0.198 A 
ATOM     76  F   UNL A   1      41.376  30.392  29.035  1.00  0.00    -0.203 F 
ATOM     77  F   UNL A   1      38.903  25.534  28.861  1.00  0.00    -0.200 F 
ATOM     78  C   UNL A   1      40.069  27.265  27.758  1.00  0.00     0.200 A 
ATOM     79  F   UNL A   1      41.255  29.015  26.706  1.00  0.00    -0.200 F 
ATOM     80  F   UNL A   1      40.041  26.574  26.610  1.00  0.00    -0.200 F 
ENDBRANCH  46  70
BRANCH  58  81
ATOM     81  C   UNL A   1      44.769  28.697  35.390  1.00  0.00     0.064 A 
ATOM     82  C   UNL A   1      46.018  29.184  34.981  1.00  0.00     0.173 A 
ATOM     83  C   UNL A   1      44.727  27.467  36.063  1.00  0.00     0.173 A 
ATOM     84  F   UNL A   1      46.106  30.349  34.322  1.00  0.00    -0.203 F 
ATOM     85  C   UNL A   1      47.180  28.456  35.219  1.00  0.00     0.198 A 
ATOM     86  C   UNL A   1      45.894  26.754  36.321  1.00  0.00     0.198 A 
ATOM     87  F   UNL A   1      43.555  26.964  36.480  1.00  0.00    -0.203 F 
ATOM     88  F   UNL A   1      48.360  28.918  34.782  1.00  0.00    -0.200 F 
ATOM     89  C   UNL A   1      47.118  27.244  35.894  1.00  0.00     0.200 A 
ATOM     90  F   UNL A   1      45.833  25.590  36.983  1.00  0.00    -0.200 F 
ATOM     91  F   UNL A   1      48.238  26.547  36.125  1.00  0.00    -0.200 F 
ENDBRANCH  58  81
ENDBRANCH  32  33
ENDBRANCH  25  27
ENDBRANCH  24  25
ENDBRANCH  23  24
ENDBRANCH  22  23
ENDBRANCH  21  22
ENDBRANCH  20  21
ENDBRANCH   1  20
TORSDOF 20
ENDMDL
MODEL 3
REMARK VINA RESULT:      -9.8      3.616      8.811
REMARK SMILES O=C(COCCNS(=O)(=O)c1ccccc1)OCCOCCOC(=O)c1ccc(-c2c3nc(c(-c4c(F)c(F)c(F)c(F)c4F)c4ccc([nH]4)c(-c4c(F)c(F)c(F)c(F)c4F)c4nc(c(-c5c(F)c(F)c(F)c(F)c5F)c5ccc2[nH]5)C=C4)C=C3)cc1
REMARK SMILES IDX 18 1 17 2 2 3 1 4 3 5 4 6 5 7 6 8 7 9 8 11 9 12 10 13 11 14
REMARK SMILES IDX 12 15 16 16 13 17 15 18 14 19 19 20 20 21 21 22 22 23 23 24
REMARK SMILES IDX 24 25 25 26 26 27 27 28 88 29 28 30 87 31 29 32 30 33 31 34
REMARK SMILES IDX 81 35 32 36 86 37 80 38 82 39 33 40 85 41 79 42 78 43 34 45
REMARK SMILES IDX 66 46 46 47 65 48 47 49 50 50 64 51 83 52 48 53 49 54 63 56
REMARK SMILES IDX 84 57 51 58 35 59 36 60 44 61 37 62 38 63 42 64 45 65 39 66
REMARK SMILES IDX 40 67 43 68 41 69 67 70 68 71 76 72 69 73 70 74 74 75 77 76
REMARK SMILES IDX 71 77 72 78 75 79 73 80 52 81 53 82 61 83 54 84 55 85 59 86
REMARK SMILES IDX 62 87 56 88 57 89 60 90 58 91
REMARK H PARENT 7 10 82 44 50 55
REMARK Flexibility Score: inf
ROOT
ATOM      1  C   UNL A   1      33.014  28.305  26.455  1.00  0.00     0.261 C 
ENDROOT
BRANCH   1   2
ATOM      2  O   UNL A   1      32.770  28.183  25.043  1.00  0.00    -0.462 OA
BRANCH   2   3
ATOM      3  C   UNL A   1      31.523  28.318  24.535  1.00  0.00     0.332 C 
ATOM      4  O   UNL A   1      31.224  29.332  23.898  1.00  0.00    -0.250 OA
BRANCH   3   5
ATOM      5  C   UNL A   1      30.565  27.125  24.626  1.00  0.00     0.282 C 
BRANCH   5   6
ATOM      6  O   UNL A   1      30.384  26.421  23.404  1.00  0.00    -0.368 OA
BRANCH   6   7
ATOM      7  C   UNL A   1      30.391  24.995  23.530  1.00  0.00     0.177 C 
BRANCH   7   8
ATOM      8  C   UNL A   1      31.504  24.441  24.433  1.00  0.00     0.127 C 
BRANCH   8   9
ATOM      9  N   UNL A   1      31.653  22.984  24.273  1.00  0.00    -0.209 NA
ATOM     10  H   UNL A   1      32.306  22.834  23.504  1.00  0.00     0.141 HD
BRANCH   9  11
ATOM     11  S   UNL A   1      32.201  22.070  25.566  1.00  0.00     0.240 S 
ATOM     12  O   UNL A   1      31.770  22.727  26.781  1.00  0.00    -0.207 OA
ATOM     13  O   UNL A   1      31.888  20.688  25.283  1.00  0.00    -0.207 OA
BRANCH  11  14
ATOM     14  C   UNL A   1      33.954  22.278  25.401  1.00  0.00     0.082 A 
ATOM     15  C   UNL A   1      34.697  21.367  24.647  1.00  0.00     0.022 A 
ATOM     16  C   UNL A   1      34.579  23.294  26.133  1.00  0.00     0.022 A 
ATOM     17  C   UNL A   1      36.087  21.460  24.652  1.00  0.00     0.001 A 
ATOM     18  C   UNL A   1      35.968  23.376  26.135  1.00  0.00     0.001 A 
ATOM     19  C   UNL A   1      36.720  22.455  25.402  1.00  0.00     0.000 A 
ENDBRANCH  11  14
ENDBRANCH   9  11
ENDBRANCH   8   9
ENDBRANCH   7   8
ENDBRANCH   6   7
ENDBRANCH   5   6
ENDBRANCH   3   5
ENDBRANCH   2   3
ENDBRANCH   1   2
BRANCH   1  20
ATOM     20  C   UNL A   1      32.075  29.349  27.058  1.00  0.00     0.202 C 
BRANCH  20  21
ATOM     21  O   UNL A   1      32.562  30.685  26.893  1.00  0.00    -0.374 OA
BRANCH  21  22
ATOM     22  C   UNL A   1      31.543  31.691  26.782  1.00  0.00     0.202 C 
BRANCH  22  23
ATOM     23  C   UNL A   1      32.069  33.123  26.925  1.00  0.00     0.261 C 
BRANCH  23  24
ATOM     24  O   UNL A   1      32.666  33.295  28.222  1.00  0.00    -0.460 OA
BRANCH  24  25
ATOM     25  C   UNL A   1      33.738  34.121  28.261  1.00  0.00     0.338 C 
ATOM     26  O   UNL A   1      33.737  35.338  28.199  1.00  0.00    -0.246 OA
BRANCH  25  27
ATOM     27  C   UNL A   1      34.934  33.333  28.629  1.00  0.00     0.060 A 
ATOM     28  C   UNL A   1      34.717  32.073  29.203  1.00  0.00     0.016 A 
ATOM     29  C   UNL A   1      36.235  33.790  28.398  1.00  0.00     0.016 A 
ATOM     30  C   UNL A   1      35.798  31.283  29.583  1.00  0.00     0.010 A 
ATOM     31  C   UNL A   1      37.321  33.005  28.793  1.00  0.00     0.010 A 
ATOM     32  C   UNL A   1      37.103  31.765  29.418  1.00  0.00    -0.014 A 
BRANCH  32  33
ATOM     33  C   UNL A   1      38.216  31.060  30.092  1.00  0.00     0.031 A 
ATOM     34  C   UNL A   1      38.479  31.376  31.536  1.00  0.00     0.074 A 
ATOM     35  C   UNL A   1      38.943  30.131  29.448  1.00  0.00     0.049 A 
ATOM     36  N   UNL A   1      39.381  30.886  32.344  1.00  0.00    -0.248 NA
ATOM     37  C   UNL A   1      37.598  32.382  32.155  1.00  0.00     0.031 C 
ATOM     38  C   UNL A   1      38.754  29.721  28.059  1.00  0.00     0.029 A 
ATOM     39  N   UNL A   1      39.991  29.363  29.889  1.00  0.00    -0.354 N 
ATOM     40  C   UNL A   1      39.172  31.515  33.565  1.00  0.00     0.074 A 
ATOM     41  C   UNL A   1      38.081  32.446  33.387  1.00  0.00     0.031 C 
ATOM     42  C   UNL A   1      39.668  28.782  27.754  1.00  0.00     0.029 A 
ATOM     43  C   UNL A   1      40.514  28.541  28.922  1.00  0.00     0.049 A 
ATOM     44  H   UNL A   1      40.336  29.400  30.810  1.00  0.00     0.167 HD
ATOM     45  C   UNL A   1      39.826  31.323  34.734  1.00  0.00     0.037 A 
ATOM     46  C   UNL A   1      41.566  27.702  28.980  1.00  0.00     0.037 A 
ATOM     47  C   UNL A   1      40.919  30.407  34.904  1.00  0.00     0.049 A 
ATOM     48  C   UNL A   1      42.319  27.556  30.278  1.00  0.00     0.074 A 
ATOM     49  C   UNL A   1      41.653  30.140  36.047  1.00  0.00     0.029 A 
ATOM     50  N   UNL A   1      41.439  29.610  33.896  1.00  0.00    -0.354 N 
ATOM     51  N   UNL A   1      42.100  28.135  31.433  1.00  0.00    -0.248 NA
ATOM     52  C   UNL A   1      43.466  26.635  30.279  1.00  0.00     0.031 C 
ATOM     53  C   UNL A   1      42.643  29.207  35.719  1.00  0.00     0.029 A 
ATOM     54  C   UNL A   1      42.499  28.864  34.384  1.00  0.00     0.049 A 
ATOM     55  H   UNL A   1      41.106  29.580  32.971  1.00  0.00     0.167 HD
ATOM     56  C   UNL A   1      43.061  27.634  32.301  1.00  0.00     0.074 A 
ATOM     57  C   UNL A   1      43.856  26.691  31.544  1.00  0.00     0.031 C 
ATOM     58  C   UNL A   1      43.270  27.928  33.609  1.00  0.00     0.037 A 
BRANCH  45  59
ATOM     59  C   UNL A   1      39.383  32.138  35.909  1.00  0.00     0.064 A 
ATOM     60  C   UNL A   1      39.932  33.403  36.171  1.00  0.00     0.173 A 
ATOM     61  C   UNL A   1      38.385  31.662  36.772  1.00  0.00     0.173 A 
ATOM     62  F   UNL A   1      40.905  33.891  35.387  1.00  0.00    -0.203 F 
ATOM     63  C   UNL A   1      39.509  34.153  37.265  1.00  0.00     0.198 A 
ATOM     64  C   UNL A   1      37.948  32.425  37.850  1.00  0.00     0.198 A 
ATOM     65  F   UNL A   1      37.833  30.457  36.565  1.00  0.00    -0.203 F 
ATOM     66  F   UNL A   1      40.074  35.342  37.518  1.00  0.00    -0.200 F 
ATOM     67  C   UNL A   1      38.513  33.667  38.099  1.00  0.00     0.200 A 
ATOM     68  F   UNL A   1      36.983  31.956  38.653  1.00  0.00    -0.200 F 
ATOM     69  F   UNL A   1      38.102  34.393  39.148  1.00  0.00    -0.200 F 
ENDBRANCH  45  59
BRANCH  46  70
ATOM     70  C   UNL A   1      41.981  26.939  27.774  1.00  0.00     0.064 A 
ATOM     71  C   UNL A   1      41.489  25.650  27.526  1.00  0.00     0.173 A 
ATOM     72  C   UNL A   1      42.903  27.473  26.862  1.00  0.00     0.173 A 
ATOM     73  F   UNL A   1      40.626  25.087  28.384  1.00  0.00    -0.203 F 
ATOM     74  C   UNL A   1      41.921  24.916  26.422  1.00  0.00     0.198 A 
ATOM     75  C   UNL A   1      43.314  26.748  25.745  1.00  0.00     0.198 A 
ATOM     76  F   UNL A   1      43.405  28.701  27.056  1.00  0.00    -0.203 F 
ATOM     77  F   UNL A   1      41.472  23.668  26.235  1.00  0.00    -0.200 F 
ATOM     78  C   UNL A   1      42.829  25.466  25.532  1.00  0.00     0.200 A 
ATOM     79  F   UNL A   1      44.186  27.287  24.883  1.00  0.00    -0.200 F 
ATOM     80  F   UNL A   1      43.244  24.760  24.472  1.00  0.00    -0.200 F 
ENDBRANCH  46  70
BRANCH  58  81
ATOM     81  C   UNL A   1      44.384  27.203  34.304  1.00  0.00     0.064 A 
ATOM     82  C   UNL A   1      45.671  27.752  34.394  1.00  0.00     0.173 A 
ATOM     83  C   UNL A   1      44.150  25.965  34.920  1.00  0.00     0.173 A 
ATOM     84  F   UNL A   1      45.945  28.928  33.808  1.00  0.00    -0.203 F 
ATOM     85  C   UNL A   1      46.690  27.076  35.057  1.00  0.00     0.198 A 
ATOM     86  C   UNL A   1      45.166  25.304  35.604  1.00  0.00     0.198 A 
ATOM     87  F   UNL A   1      42.932  25.403  34.868  1.00  0.00    -0.203 F 
ATOM     88  F   UNL A   1      47.924  27.597  35.094  1.00  0.00    -0.200 F 
ATOM     89  C   UNL A   1      46.436  25.856  35.667  1.00  0.00     0.200 A 
ATOM     90  F   UNL A   1      44.915  24.131  36.202  1.00  0.00    -0.200 F 
ATOM     91  F   UNL A   1      47.418  25.208  36.307  1.00  0.00    -0.200 F 
ENDBRANCH  58  81
ENDBRANCH  32  33
ENDBRANCH  25  27
ENDBRANCH  24  25
ENDBRANCH  23  24
ENDBRANCH  22  23
ENDBRANCH  21  22
ENDBRANCH  20  21
ENDBRANCH   1  20
TORSDOF 20
ENDMDL
