MODEL 1
REMARK VINA RESULT:     -11.8      0.000      0.000
REMARK SMILES COc1cc(OC(F)(F)F)cc2c1O[C@@H](C(F)(F)F)C(C(=O)OCCOCCOC(=O)c1ccc(-c3c4nc(c(-c5c(F)c(F)c(F)c(F)c5F)c5ccc([nH]5)c(-c5c(F)c(F)c(F)c(F)c5F)c5nc(c(-c6c(F)c(F)c(F)c(F)c6F)c6ccc3[nH]6)C=C5)C=C4)cc1)=C2
REMARK SMILES IDX 26 1 25 2 24 3 23 4 21 5 22 6 20 7 3 8 4 9 13 10 5 11 12 12
REMARK SMILES IDX 14 13 11 14 95 15 15 16 2 17 1 18 6 19 7 20 8 21 9 22 10 23
REMARK SMILES IDX 16 24 17 25 18 26 19 27 27 28 28 29 29 30 30 31 31 32 32 33
REMARK SMILES IDX 33 34 94 35 34 36 93 37 35 38 36 39 37 40 87 41 38 42 92 43
REMARK SMILES IDX 86 44 88 45 39 46 91 47 85 48 84 49 40 51 72 52 52 53 71 54
REMARK SMILES IDX 53 55 56 56 70 57 89 58 54 59 55 60 69 62 90 63 57 64 41 65
REMARK SMILES IDX 42 66 50 67 43 68 44 69 48 70 51 71 45 72 46 73 49 74 47 75
REMARK SMILES IDX 73 76 74 77 82 78 75 79 76 80 80 81 83 82 77 83 78 84 81 85
REMARK SMILES IDX 79 86 58 87 59 88 67 89 60 90 61 91 65 92 68 93 62 94 63 95
REMARK SMILES IDX 66 96 64 97
REMARK H PARENT 88 50 56 61
REMARK Flexibility Score: inf
ROOT
ATOM      1  O   UNL A   1      30.188  29.108  23.589  1.00  0.00    -0.374 OA
ENDROOT
BRANCH   1   2
ATOM      2  C   UNL A   1      29.911  27.815  23.057  1.00  0.00     0.202 C 
BRANCH   2   3
ATOM      3  C   UNL A   1      29.296  26.789  24.012  1.00  0.00     0.261 C 
BRANCH   3   4
ATOM      4  O   UNL A   1      30.124  25.622  24.142  1.00  0.00    -0.460 OA
BRANCH   4   5
ATOM      5  C   UNL A   1      30.376  25.249  25.418  1.00  0.00     0.338 C 
ATOM      6  O   UNL A   1      29.775  25.618  26.416  1.00  0.00    -0.246 OA
BRANCH   5   7
ATOM      7  C   UNL A   1      31.426  24.222  25.467  1.00  0.00     0.087 C 
ATOM      8  C   UNL A   1      34.680  21.733  24.688  1.00  0.00     0.165 A 
ATOM      9  C   UNL A   1      34.476  20.370  24.461  1.00  0.00     0.097 A 
ATOM     10  C   UNL A   1      33.591  22.564  24.960  1.00  0.00     0.170 A 
ATOM     11  C   UNL A   1      33.193  19.825  24.541  1.00  0.00     0.134 A 
ATOM     12  C   UNL A   1      32.293  22.033  25.027  1.00  0.00     0.025 A 
ATOM     13  O   UNL A   1      33.807  23.917  25.049  1.00  0.00    -0.471 OA
ATOM     14  C   UNL A   1      32.107  20.658  24.842  1.00  0.00     0.059 A 
ATOM     15  C   UNL A   1      31.152  22.947  25.142  1.00  0.00     0.027 C 
ATOM     16  C   UNL A   1      32.831  24.623  25.851  1.00  0.00     0.316 C 
BRANCH   8  17
ATOM     17  O   UNL A   1      35.964  22.181  24.519  1.00  0.00    -0.493 OA
ATOM     18  C   UNL A   1      36.806  21.913  25.639  1.00  0.00     0.278 C 
ENDBRANCH   8  17
BRANCH  11  19
ATOM     19  O   UNL A   1      32.863  18.514  24.334  1.00  0.00    -0.406 OA
BRANCH  19  20
ATOM     20  C   UNL A   1      32.797  17.667  25.473  1.00  0.00     0.573 C 
ATOM     21  F   UNL A   1      32.765  18.385  26.615  1.00  0.00    -0.132 F 
ATOM     22  F   UNL A   1      31.716  16.861  25.413  1.00  0.00    -0.132 F 
ATOM     23  F   UNL A   1      33.900  16.888  25.496  1.00  0.00    -0.132 F 
ENDBRANCH  19  20
ENDBRANCH  11  19
BRANCH  16  24
ATOM     24  C   UNL A   1      33.201  26.115  25.877  1.00  0.00     0.430 C 
ATOM     25  F   UNL A   1      34.535  26.284  26.025  1.00  0.00    -0.167 F 
ATOM     26  F   UNL A   1      32.885  26.685  24.681  1.00  0.00    -0.167 F 
ATOM     27  F   UNL A   1      32.557  26.814  26.830  1.00  0.00    -0.167 F 
ENDBRANCH  16  24
ENDBRANCH   5   7
ENDBRANCH   4   5
ENDBRANCH   3   4
ENDBRANCH   2   3
ENDBRANCH   1   2
BRANCH   1  28
ATOM     28  C   UNL A   1      31.517  29.386  24.025  1.00  0.00     0.202 C 
BRANCH  28  29
ATOM     29  C   UNL A   1      31.704  29.831  25.480  1.00  0.00     0.261 C 
BRANCH  29  30
ATOM     30  O   UNL A   1      33.084  30.074  25.805  1.00  0.00    -0.460 OA
BRANCH  30  31
ATOM     31  C   UNL A   1      33.285  30.877  26.876  1.00  0.00     0.338 C 
ATOM     32  O   UNL A   1      32.459  31.574  27.451  1.00  0.00    -0.246 OA
BRANCH  31  33
ATOM     33  C   UNL A   1      34.643  30.671  27.402  1.00  0.00     0.060 A 
ATOM     34  C   UNL A   1      35.076  29.353  27.609  1.00  0.00     0.016 A 
ATOM     35  C   UNL A   1      35.453  31.751  27.755  1.00  0.00     0.016 A 
ATOM     36  C   UNL A   1      36.310  29.111  28.209  1.00  0.00     0.010 A 
ATOM     37  C   UNL A   1      36.685  31.506  28.365  1.00  0.00     0.010 A 
ATOM     38  C   UNL A   1      37.103  30.188  28.623  1.00  0.00    -0.014 A 
BRANCH  38  39
ATOM     39  C   UNL A   1      38.306  29.951  29.453  1.00  0.00     0.031 A 
ATOM     40  C   UNL A   1      39.352  28.995  28.958  1.00  0.00     0.074 A 
ATOM     41  C   UNL A   1      38.452  30.563  30.640  1.00  0.00     0.049 A 
ATOM     42  N   UNL A   1      40.421  28.543  29.561  1.00  0.00    -0.248 NA
ATOM     43  C   UNL A   1      39.156  28.468  27.598  1.00  0.00     0.031 C 
ATOM     44  C   UNL A   1      37.521  31.536  31.206  1.00  0.00     0.029 A 
ATOM     45  N   UNL A   1      39.429  30.432  31.592  1.00  0.00    -0.354 N 
ATOM     46  C   UNL A   1      41.019  27.671  28.662  1.00  0.00     0.074 A 
ATOM     47  C   UNL A   1      40.177  27.633  27.484  1.00  0.00     0.031 C 
ATOM     48  C   UNL A   1      37.957  31.894  32.425  1.00  0.00     0.029 A 
ATOM     49  C   UNL A   1      39.175  31.146  32.736  1.00  0.00     0.049 A 
ATOM     50  H   UNL A   1      40.235  29.879  31.469  1.00  0.00     0.167 HD
ATOM     51  C   UNL A   1      42.169  26.969  28.806  1.00  0.00     0.037 A 
ATOM     52  C   UNL A   1      39.832  31.165  33.910  1.00  0.00     0.037 A 
ATOM     53  C   UNL A   1      42.994  27.007  29.983  1.00  0.00     0.049 A 
ATOM     54  C   UNL A   1      41.074  30.330  34.076  1.00  0.00     0.074 A 
ATOM     55  C   UNL A   1      44.187  26.349  30.226  1.00  0.00     0.029 A 
ATOM     56  N   UNL A   1      42.702  27.740  31.127  1.00  0.00    -0.354 N 
ATOM     57  N   UNL A   1      41.647  29.520  33.217  1.00  0.00    -0.248 NA
ATOM     58  C   UNL A   1      41.762  30.412  35.372  1.00  0.00     0.031 C 
ATOM     59  C   UNL A   1      44.589  26.642  31.534  1.00  0.00     0.029 A 
ATOM     60  C   UNL A   1      43.679  27.530  32.087  1.00  0.00     0.049 A 
ATOM     61  H   UNL A   1      41.917  28.323  31.238  1.00  0.00     0.167 HD
ATOM     62  C   UNL A   1      42.773  29.017  33.856  1.00  0.00     0.074 A 
ATOM     63  C   UNL A   1      42.807  29.622  35.173  1.00  0.00     0.031 C 
ATOM     64  C   UNL A   1      43.698  28.139  33.393  1.00  0.00     0.037 A 
BRANCH  51  65
ATOM     65  C   UNL A   1      42.573  26.074  27.669  1.00  0.00     0.064 A 
ATOM     66  C   UNL A   1      42.030  24.789  27.509  1.00  0.00     0.173 A 
ATOM     67  C   UNL A   1      43.520  26.506  26.729  1.00  0.00     0.173 A 
ATOM     68  F   UNL A   1      41.132  24.322  28.389  1.00  0.00    -0.203 F 
ATOM     69  C   UNL A   1      42.450  23.957  26.474  1.00  0.00     0.198 A 
ATOM     70  C   UNL A   1      43.914  25.683  25.676  1.00  0.00     0.198 A 
ATOM     71  F   UNL A   1      44.069  27.726  26.832  1.00  0.00    -0.203 F 
ATOM     72  F   UNL A   1      41.964  22.712  26.379  1.00  0.00    -0.200 F 
ATOM     73  C   UNL A   1      43.388  24.407  25.556  1.00  0.00     0.200 A 
ATOM     74  F   UNL A   1      44.812  26.123  24.784  1.00  0.00    -0.200 F 
ATOM     75  F   UNL A   1      43.794  23.603  24.564  1.00  0.00    -0.200 F 
ENDBRANCH  51  65
BRANCH  52  76
ATOM     76  C   UNL A   1      39.311  31.996  35.025  1.00  0.00     0.064 A 
ATOM     77  C   UNL A   1      39.559  33.374  35.079  1.00  0.00     0.173 A 
ATOM     78  C   UNL A   1      38.534  31.431  36.048  1.00  0.00     0.173 A 
ATOM     79  F   UNL A   1      40.315  33.955  34.136  1.00  0.00    -0.203 F 
ATOM     80  C   UNL A   1      39.053  34.156  36.117  1.00  0.00     0.198 A 
ATOM     81  C   UNL A   1      38.008  32.217  37.071  1.00  0.00     0.198 A 
ATOM     82  F   UNL A   1      38.267  30.117  36.040  1.00  0.00    -0.203 F 
ATOM     83  F   UNL A   1      39.330  35.466  36.162  1.00  0.00    -0.200 F 
ATOM     84  C   UNL A   1      38.272  33.578  37.106  1.00  0.00     0.200 A 
ATOM     85  F   UNL A   1      37.240  31.658  38.016  1.00  0.00    -0.200 F 
ATOM     86  F   UNL A   1      37.775  34.332  38.096  1.00  0.00    -0.200 F 
ENDBRANCH  52  76
BRANCH  64  87
ATOM     87  C   UNL A   1      44.846  27.804  34.301  1.00  0.00     0.064 A 
ATOM     88  C   UNL A   1      44.783  26.736  35.207  1.00  0.00     0.173 A 
ATOM     89  C   UNL A   1      46.043  28.533  34.227  1.00  0.00     0.173 A 
ATOM     90  F   UNL A   1      43.657  26.018  35.327  1.00  0.00    -0.203 F 
ATOM     91  C   UNL A   1      45.869  26.425  36.023  1.00  0.00     0.198 A 
ATOM     92  C   UNL A   1      47.137  28.200  35.022  1.00  0.00     0.198 A 
ATOM     93  F   UNL A   1      46.158  29.560  33.371  1.00  0.00    -0.203 F 
ATOM     94  F   UNL A   1      45.772  25.428  36.913  1.00  0.00    -0.200 F 
ATOM     95  C   UNL A   1      47.046  27.151  35.923  1.00  0.00     0.200 A 
ATOM     96  F   UNL A   1      48.278  28.895  34.913  1.00  0.00    -0.200 F 
ATOM     97  F   UNL A   1      48.093  26.844  36.702  1.00  0.00    -0.200 F 
ENDBRANCH  64  87
ENDBRANCH  38  39
ENDBRANCH  31  33
ENDBRANCH  30  31
ENDBRANCH  29  30
ENDBRANCH  28  29
ENDBRANCH   1  28
TORSDOF 18
ENDMDL
MODEL 2
REMARK VINA RESULT:     -11.7      2.511      8.308
REMARK SMILES COc1cc(OC(F)(F)F)cc2c1O[C@@H](C(F)(F)F)C(C(=O)OCCOCCOC(=O)c1ccc(-c3c4nc(c(-c5c(F)c(F)c(F)c(F)c5F)c5ccc([nH]5)c(-c5c(F)c(F)c(F)c(F)c5F)c5nc(c(-c6c(F)c(F)c(F)c(F)c6F)c6ccc3[nH]6)C=C5)C=C4)cc1)=C2
REMARK SMILES IDX 26 1 25 2 24 3 23 4 21 5 22 6 20 7 3 8 4 9 13 10 5 11 12 12
REMARK SMILES IDX 14 13 11 14 95 15 15 16 2 17 1 18 6 19 7 20 8 21 9 22 10 23
REMARK SMILES IDX 16 24 17 25 18 26 19 27 27 28 28 29 29 30 30 31 31 32 32 33
REMARK SMILES IDX 33 34 94 35 34 36 93 37 35 38 36 39 37 40 87 41 38 42 92 43
REMARK SMILES IDX 86 44 88 45 39 46 91 47 85 48 84 49 40 51 72 52 52 53 71 54
REMARK SMILES IDX 53 55 56 56 70 57 89 58 54 59 55 60 69 62 90 63 57 64 41 65
REMARK SMILES IDX 42 66 50 67 43 68 44 69 48 70 51 71 45 72 46 73 49 74 47 75
REMARK SMILES IDX 73 76 74 77 82 78 75 79 76 80 80 81 83 82 77 83 78 84 81 85
REMARK SMILES IDX 79 86 58 87 59 88 67 89 60 90 61 91 65 92 68 93 62 94 63 95
REMARK SMILES IDX 66 96 64 97
REMARK H PARENT 88 50 56 61
REMARK Flexibility Score: inf
ROOT
ATOM      1  O   UNL A   1      42.862  19.829  25.433  1.00  0.00    -0.374 OA
ENDROOT
BRANCH   1   2
ATOM      2  C   UNL A   1      42.190  19.603  26.669  1.00  0.00     0.202 C 
BRANCH   2   3
ATOM      3  C   UNL A   1      40.660  19.573  26.631  1.00  0.00     0.261 C 
BRANCH   3   4
ATOM      4  O   UNL A   1      40.094  20.815  27.079  1.00  0.00    -0.460 OA
BRANCH   4   5
ATOM      5  C   UNL A   1      39.985  21.763  26.121  1.00  0.00     0.338 C 
ATOM      6  O   UNL A   1      40.903  22.285  25.506  1.00  0.00    -0.246 OA
BRANCH   5   7
ATOM      7  C   UNL A   1      38.575  22.031  25.805  1.00  0.00     0.087 C 
ATOM      8  C   UNL A   1      34.469  22.744  25.953  1.00  0.00     0.165 A 
ATOM      9  C   UNL A   1      33.580  21.814  25.409  1.00  0.00     0.097 A 
ATOM     10  C   UNL A   1      35.845  22.511  25.893  1.00  0.00     0.170 A 
ATOM     11  C   UNL A   1      34.060  20.667  24.773  1.00  0.00     0.134 A 
ATOM     12  C   UNL A   1      36.341  21.353  25.271  1.00  0.00     0.025 A 
ATOM     13  O   UNL A   1      36.684  23.376  26.549  1.00  0.00    -0.471 OA
ATOM     14  C   UNL A   1      35.443  20.451  24.691  1.00  0.00     0.059 A 
ATOM     15  C   UNL A   1      37.771  21.046  25.371  1.00  0.00     0.027 C 
ATOM     16  C   UNL A   1      38.026  23.424  26.011  1.00  0.00     0.316 C 
BRANCH   8  17
ATOM     17  O   UNL A   1      33.898  23.800  26.614  1.00  0.00    -0.493 OA
ATOM     18  C   UNL A   1      32.635  23.482  27.197  1.00  0.00     0.278 C 
ENDBRANCH   8  17
BRANCH  11  19
ATOM     19  O   UNL A   1      33.296  19.682  24.210  1.00  0.00    -0.406 OA
BRANCH  19  20
ATOM     20  C   UNL A   1      33.117  18.486  24.955  1.00  0.00     0.573 C 
ATOM     21  F   UNL A   1      34.149  17.636  24.772  1.00  0.00    -0.132 F 
ATOM     22  F   UNL A   1      32.977  18.754  26.271  1.00  0.00    -0.132 F 
ATOM     23  F   UNL A   1      31.989  17.877  24.530  1.00  0.00    -0.132 F 
ENDBRANCH  19  20
ENDBRANCH  11  19
BRANCH  16  24
ATOM     24  C   UNL A   1      38.848  24.437  26.825  1.00  0.00     0.430 C 
ATOM     25  F   UNL A   1      39.817  25.000  26.067  1.00  0.00    -0.167 F 
ATOM     26  F   UNL A   1      38.044  25.462  27.222  1.00  0.00    -0.167 F 
ATOM     27  F   UNL A   1      39.401  23.915  27.936  1.00  0.00    -0.167 F 
ENDBRANCH  16  24
ENDBRANCH   5   7
ENDBRANCH   4   5
ENDBRANCH   3   4
ENDBRANCH   2   3
ENDBRANCH   1   2
BRANCH   1  28
ATOM     28  C   UNL A   1      44.230  20.234  25.474  1.00  0.00     0.202 C 
BRANCH  28  29
ATOM     29  C   UNL A   1      44.558  21.656  25.004  1.00  0.00     0.261 C 
BRANCH  29  30
ATOM     30  O   UNL A   1      44.044  22.660  25.897  1.00  0.00    -0.460 OA
BRANCH  30  31
ATOM     31  C   UNL A   1      44.293  23.937  25.525  1.00  0.00     0.338 C 
ATOM     32  O   UNL A   1      44.895  24.319  24.529  1.00  0.00    -0.246 OA
BRANCH  31  33
ATOM     33  C   UNL A   1      43.571  24.862  26.412  1.00  0.00     0.060 A 
ATOM     34  C   UNL A   1      43.784  26.238  26.240  1.00  0.00     0.016 A 
ATOM     35  C   UNL A   1      42.757  24.389  27.441  1.00  0.00     0.016 A 
ATOM     36  C   UNL A   1      43.210  27.147  27.126  1.00  0.00     0.010 A 
ATOM     37  C   UNL A   1      42.192  25.302  28.334  1.00  0.00     0.010 A 
ATOM     38  C   UNL A   1      42.441  26.680  28.198  1.00  0.00    -0.014 A 
BRANCH  38  39
ATOM     39  C   UNL A   1      42.011  27.609  29.267  1.00  0.00     0.031 A 
ATOM     40  C   UNL A   1      42.758  27.613  30.569  1.00  0.00     0.074 A 
ATOM     41  C   UNL A   1      40.956  28.421  29.086  1.00  0.00     0.049 A 
ATOM     42  N   UNL A   1      42.492  28.248  31.681  1.00  0.00    -0.248 NA
ATOM     43  C   UNL A   1      43.965  26.775  30.625  1.00  0.00     0.031 C 
ATOM     44  C   UNL A   1      40.178  28.529  27.855  1.00  0.00     0.029 A 
ATOM     45  N   UNL A   1      40.344  29.290  29.954  1.00  0.00    -0.354 N 
ATOM     46  C   UNL A   1      43.489  27.879  32.573  1.00  0.00     0.074 A 
ATOM     47  C   UNL A   1      44.349  26.939  31.882  1.00  0.00     0.031 C 
ATOM     48  C   UNL A   1      39.170  29.395  28.054  1.00  0.00     0.029 A 
ATOM     49  C   UNL A   1      39.213  29.869  29.437  1.00  0.00     0.049 A 
ATOM     50  H   UNL A   1      40.684  29.479  30.858  1.00  0.00     0.167 HD
ATOM     51  C   UNL A   1      43.673  28.290  33.850  1.00  0.00     0.037 A 
ATOM     52  C   UNL A   1      38.300  30.663  30.027  1.00  0.00     0.037 A 
ATOM     53  C   UNL A   1      42.809  29.217  34.530  1.00  0.00     0.049 A 
ATOM     54  C   UNL A   1      38.484  31.060  31.467  1.00  0.00     0.074 A 
ATOM     55  C   UNL A   1      42.913  29.714  35.818  1.00  0.00     0.029 A 
ATOM     56  N   UNL A   1      41.667  29.782  33.977  1.00  0.00    -0.354 N 
ATOM     57  N   UNL A   1      39.439  30.723  32.302  1.00  0.00    -0.248 NA
ATOM     58  C   UNL A   1      37.468  31.948  32.047  1.00  0.00     0.031 C 
ATOM     59  C   UNL A   1      41.808  30.536  36.060  1.00  0.00     0.029 A 
ATOM     60  C   UNL A   1      41.044  30.600  34.905  1.00  0.00     0.049 A 
ATOM     61  H   UNL A   1      41.347  29.623  33.059  1.00  0.00     0.167 HD
ATOM     62  C   UNL A   1      39.154  31.376  33.495  1.00  0.00     0.074 A 
ATOM     63  C   UNL A   1      37.941  32.137  33.271  1.00  0.00     0.031 C 
ATOM     64  C   UNL A   1      39.837  31.351  34.666  1.00  0.00     0.037 A 
BRANCH  51  65
ATOM     65  C   UNL A   1      44.836  27.704  34.599  1.00  0.00     0.064 A 
ATOM     66  C   UNL A   1      44.718  26.514  35.336  1.00  0.00     0.173 A 
ATOM     67  C   UNL A   1      46.084  28.343  34.584  1.00  0.00     0.173 A 
ATOM     68  F   UNL A   1      43.542  25.872  35.396  1.00  0.00    -0.203 F 
ATOM     69  C   UNL A   1      45.795  26.010  36.060  1.00  0.00     0.198 A 
ATOM     70  C   UNL A   1      47.168  27.818  35.283  1.00  0.00     0.198 A 
ATOM     71  F   UNL A   1      46.253  29.481  33.894  1.00  0.00    -0.203 F 
ATOM     72  F   UNL A   1      45.641  24.908  36.806  1.00  0.00    -0.200 F 
ATOM     73  C   UNL A   1      47.020  26.659  36.029  1.00  0.00     0.200 A 
ATOM     74  F   UNL A   1      48.354  28.442  35.243  1.00  0.00    -0.200 F 
ATOM     75  F   UNL A   1      48.055  26.175  36.730  1.00  0.00    -0.200 F 
ENDBRANCH  51  65
BRANCH  52  76
ATOM     76  C   UNL A   1      37.119  31.118  29.249  1.00  0.00     0.064 A 
ATOM     77  C   UNL A   1      36.043  30.259  28.995  1.00  0.00     0.173 A 
ATOM     78  C   UNL A   1      37.034  32.432  28.764  1.00  0.00     0.173 A 
ATOM     79  F   UNL A   1      36.089  28.986  29.419  1.00  0.00    -0.203 F 
ATOM     80  C   UNL A   1      34.928  30.693  28.280  1.00  0.00     0.198 A 
ATOM     81  C   UNL A   1      35.909  32.874  28.072  1.00  0.00     0.198 A 
ATOM     82  F   UNL A   1      38.038  33.295  28.984  1.00  0.00    -0.203 F 
ATOM     83  F   UNL A   1      33.926  29.842  28.024  1.00  0.00    -0.200 F 
ATOM     84  C   UNL A   1      34.859  32.002  27.828  1.00  0.00     0.200 A 
ATOM     85  F   UNL A   1      35.839  34.144  27.650  1.00  0.00    -0.200 F 
ATOM     86  F   UNL A   1      33.780  32.424  27.153  1.00  0.00    -0.200 F 
ENDBRANCH  52  76
BRANCH  64  87
ATOM     87  C   UNL A   1      39.311  32.199  35.789  1.00  0.00     0.064 A 
ATOM     88  C   UNL A   1      38.410  31.693  36.737  1.00  0.00     0.173 A 
ATOM     89  C   UNL A   1      39.754  33.522  35.945  1.00  0.00     0.173 A 
ATOM     90  F   UNL A   1      37.945  30.440  36.624  1.00  0.00    -0.203 F 
ATOM     91  C   UNL A   1      37.954  32.488  37.786  1.00  0.00     0.198 A 
ATOM     92  C   UNL A   1      39.320  34.304  37.012  1.00  0.00     0.198 A 
ATOM     93  F   UNL A   1      40.621  34.052  35.069  1.00  0.00    -0.203 F 
ATOM     94  F   UNL A   1      37.058  31.998  38.654  1.00  0.00    -0.200 F 
ATOM     95  C   UNL A   1      38.415  33.788  37.927  1.00  0.00     0.200 A 
ATOM     96  F   UNL A   1      39.778  35.555  37.154  1.00  0.00    -0.200 F 
ATOM     97  F   UNL A   1      37.983  34.548  38.942  1.00  0.00    -0.200 F 
ENDBRANCH  64  87
ENDBRANCH  38  39
ENDBRANCH  31  33
ENDBRANCH  30  31
ENDBRANCH  29  30
ENDBRANCH  28  29
ENDBRANCH   1  28
TORSDOF 18
ENDMDL
MODEL 3
REMARK VINA RESULT:     -11.6      4.535     10.346
REMARK SMILES COc1cc(OC(F)(F)F)cc2c1O[C@@H](C(F)(F)F)C(C(=O)OCCOCCOC(=O)c1ccc(-c3c4nc(c(-c5c(F)c(F)c(F)c(F)c5F)c5ccc([nH]5)c(-c5c(F)c(F)c(F)c(F)c5F)c5nc(c(-c6c(F)c(F)c(F)c(F)c6F)c6ccc3[nH]6)C=C5)C=C4)cc1)=C2
REMARK SMILES IDX 26 1 25 2 24 3 23 4 21 5 22 6 20 7 3 8 4 9 13 10 5 11 12 12
REMARK SMILES IDX 14 13 11 14 95 15 15 16 2 17 1 18 6 19 7 20 8 21 9 22 10 23
REMARK SMILES IDX 16 24 17 25 18 26 19 27 27 28 28 29 29 30 30 31 31 32 32 33
REMARK SMILES IDX 33 34 94 35 34 36 93 37 35 38 36 39 37 40 87 41 38 42 92 43
REMARK SMILES IDX 86 44 88 45 39 46 91 47 85 48 84 49 40 51 72 52 52 53 71 54
REMARK SMILES IDX 53 55 56 56 70 57 89 58 54 59 55 60 69 62 90 63 57 64 41 65
REMARK SMILES IDX 42 66 50 67 43 68 44 69 48 70 51 71 45 72 46 73 49 74 47 75
REMARK SMILES IDX 73 76 74 77 82 78 75 79 76 80 80 81 83 82 77 83 78 84 81 85
REMARK SMILES IDX 79 86 58 87 59 88 67 89 60 90 61 91 65 92 68 93 62 94 63 95
REMARK SMILES IDX 66 96 64 97
REMARK H PARENT 88 50 56 61
REMARK Flexibility Score: inf
ROOT
ATOM      1  O   UNL A   1      37.923  22.216  25.530  1.00  0.00    -0.374 OA
ENDROOT
BRANCH   1   2
ATOM      2  C   UNL A   1      37.229  21.448  24.551  1.00  0.00     0.202 C 
BRANCH   2   3
ATOM      3  C   UNL A   1      35.702  21.410  24.654  1.00  0.00     0.261 C 
BRANCH   3   4
ATOM      4  O   UNL A   1      35.159  22.703  24.967  1.00  0.00    -0.460 OA
BRANCH   4   5
ATOM      5  C   UNL A   1      34.906  23.483  23.891  1.00  0.00     0.338 C 
ATOM      6  O   UNL A   1      35.340  23.326  22.760  1.00  0.00    -0.246 OA
BRANCH   5   7
ATOM      7  C   UNL A   1      33.920  24.523  24.218  1.00  0.00     0.087 C 
ATOM      8  C   UNL A   1      31.079  27.574  24.103  1.00  0.00     0.165 A 
ATOM      9  C   UNL A   1      31.386  28.833  24.625  1.00  0.00     0.097 A 
ATOM     10  C   UNL A   1      32.026  26.549  24.152  1.00  0.00     0.170 A 
ATOM     11  C   UNL A   1      32.624  29.062  25.231  1.00  0.00     0.134 A 
ATOM     12  C   UNL A   1      33.281  26.771  24.742  1.00  0.00     0.025 A 
ATOM     13  O   UNL A   1      31.744  25.366  23.515  1.00  0.00    -0.471 OA
ATOM     14  C   UNL A   1      33.561  28.022  25.302  1.00  0.00     0.059 A 
ATOM     15  C   UNL A   1      34.316  25.739  24.629  1.00  0.00     0.027 C 
ATOM     16  C   UNL A   1      32.449  24.221  24.050  1.00  0.00     0.316 C 
BRANCH   8  17
ATOM     17  O   UNL A   1      29.868  27.470  23.470  1.00  0.00    -0.493 OA
ATOM     18  C   UNL A   1      29.503  28.648  22.754  1.00  0.00     0.278 C 
ENDBRANCH   8  17
BRANCH  11  19
ATOM     19  O   UNL A   1      33.045  30.246  25.771  1.00  0.00    -0.406 OA
BRANCH  19  20
ATOM     20  C   UNL A   1      32.522  30.610  27.040  1.00  0.00     0.573 C 
ATOM     21  F   UNL A   1      31.888  29.572  27.624  1.00  0.00    -0.132 F 
ATOM     22  F   UNL A   1      33.499  31.061  27.854  1.00  0.00    -0.132 F 
ATOM     23  F   UNL A   1      31.627  31.607  26.868  1.00  0.00    -0.132 F 
ENDBRANCH  19  20
ENDBRANCH  11  19
BRANCH  16  24
ATOM     24  C   UNL A   1      32.029  22.971  23.259  1.00  0.00     0.430 C 
ATOM     25  F   UNL A   1      32.346  21.840  23.930  1.00  0.00    -0.167 F 
ATOM     26  F   UNL A   1      30.675  22.952  23.119  1.00  0.00    -0.167 F 
ATOM     27  F   UNL A   1      32.554  22.914  22.021  1.00  0.00    -0.167 F 
ENDBRANCH  16  24
ENDBRANCH   5   7
ENDBRANCH   4   5
ENDBRANCH   3   4
ENDBRANCH   2   3
ENDBRANCH   1   2
BRANCH   1  28
ATOM     28  C   UNL A   1      39.091  21.653  26.123  1.00  0.00     0.202 C 
BRANCH  28  29
ATOM     29  C   UNL A   1      39.477  20.229  25.707  1.00  0.00     0.261 C 
BRANCH  29  30
ATOM     30  O   UNL A   1      40.427  19.634  26.609  1.00  0.00    -0.460 OA
BRANCH  30  31
ATOM     31  C   UNL A   1      41.688  19.535  26.127  1.00  0.00     0.338 C 
ATOM     32  O   UNL A   1      42.149  18.647  25.422  1.00  0.00    -0.246 OA
BRANCH  31  33
ATOM     33  C   UNL A   1      42.430  20.770  26.423  1.00  0.00     0.060 A 
ATOM     34  C   UNL A   1      42.525  21.176  27.762  1.00  0.00     0.016 A 
ATOM     35  C   UNL A   1      42.962  21.555  25.400  1.00  0.00     0.016 A 
ATOM     36  C   UNL A   1      43.121  22.394  28.080  1.00  0.00     0.010 A 
ATOM     37  C   UNL A   1      43.550  22.781  25.720  1.00  0.00     0.010 A 
ATOM     38  C   UNL A   1      43.603  23.218  27.056  1.00  0.00    -0.014 A 
BRANCH  38  39
ATOM     39  C   UNL A   1      44.036  24.602  27.356  1.00  0.00     0.031 A 
ATOM     40  C   UNL A   1      43.011  25.600  27.811  1.00  0.00     0.074 A 
ATOM     41  C   UNL A   1      45.320  24.968  27.203  1.00  0.00     0.049 A 
ATOM     42  N   UNL A   1      43.133  26.886  28.015  1.00  0.00    -0.248 NA
ATOM     43  C   UNL A   1      41.660  25.073  28.059  1.00  0.00     0.031 C 
ATOM     44  C   UNL A   1      46.407  24.079  26.802  1.00  0.00     0.029 A 
ATOM     45  N   UNL A   1      45.917  26.194  27.344  1.00  0.00    -0.354 N 
ATOM     46  C   UNL A   1      41.875  27.326  28.402  1.00  0.00     0.074 A 
ATOM     47  C   UNL A   1      40.996  26.175  28.375  1.00  0.00     0.031 C 
ATOM     48  C   UNL A   1      47.538  24.796  26.699  1.00  0.00     0.029 A 
ATOM     49  C   UNL A   1      47.242  26.198  26.990  1.00  0.00     0.049 A 
ATOM     50  H   UNL A   1      45.441  26.993  27.667  1.00  0.00     0.167 HD
ATOM     51  C   UNL A   1      41.489  28.577  28.753  1.00  0.00     0.037 A 
ATOM     52  C   UNL A   1      48.107  27.224  26.882  1.00  0.00     0.037 A 
ATOM     53  C   UNL A   1      42.368  29.716  28.768  1.00  0.00     0.049 A 
ATOM     54  C   UNL A   1      47.646  28.618  27.214  1.00  0.00     0.074 A 
ATOM     55  C   UNL A   1      42.084  31.023  29.124  1.00  0.00     0.029 A 
ATOM     56  N   UNL A   1      43.706  29.684  28.399  1.00  0.00    -0.354 N 
ATOM     57  N   UNL A   1      46.460  29.028  27.597  1.00  0.00    -0.248 NA
ATOM     58  C   UNL A   1      48.642  29.693  27.101  1.00  0.00     0.031 C 
ATOM     59  C   UNL A   1      43.236  31.790  28.920  1.00  0.00     0.029 A 
ATOM     60  C   UNL A   1      44.255  30.952  28.493  1.00  0.00     0.049 A 
ATOM     61  H   UNL A   1      44.194  28.878  28.113  1.00  0.00     0.167 HD
ATOM     62  C   UNL A   1      46.572  30.398  27.796  1.00  0.00     0.074 A 
ATOM     63  C   UNL A   1      47.947  30.749  27.499  1.00  0.00     0.031 C 
ATOM     64  C   UNL A   1      45.625  31.284  28.193  1.00  0.00     0.037 A 
BRANCH  51  65
ATOM     65  C   UNL A   1      40.044  28.774  29.110  1.00  0.00     0.064 A 
ATOM     66  C   UNL A   1      39.087  29.138  28.150  1.00  0.00     0.173 A 
ATOM     67  C   UNL A   1      39.611  28.601  30.433  1.00  0.00     0.173 A 
ATOM     68  F   UNL A   1      39.451  29.331  26.874  1.00  0.00    -0.203 F 
ATOM     69  C   UNL A   1      37.760  29.360  28.509  1.00  0.00     0.198 A 
ATOM     70  C   UNL A   1      38.276  28.792  30.782  1.00  0.00     0.198 A 
ATOM     71  F   UNL A   1      40.483  28.251  31.391  1.00  0.00    -0.203 F 
ATOM     72  F   UNL A   1      36.877  29.769  27.586  1.00  0.00    -0.200 F 
ATOM     73  C   UNL A   1      37.354  29.182  29.823  1.00  0.00     0.200 A 
ATOM     74  F   UNL A   1      37.885  28.610  32.051  1.00  0.00    -0.200 F 
ATOM     75  F   UNL A   1      36.078  29.400  30.167  1.00  0.00    -0.200 F 
ENDBRANCH  51  65
BRANCH  52  76
ATOM     76  C   UNL A   1      49.494  26.963  26.420  1.00  0.00     0.064 A 
ATOM     77  C   UNL A   1      49.820  26.978  25.058  1.00  0.00     0.173 A 
ATOM     78  C   UNL A   1      50.528  26.716  27.336  1.00  0.00     0.173 A 
ATOM     79  F   UNL A   1      48.861  27.187  24.143  1.00  0.00    -0.203 F 
ATOM     80  C   UNL A   1      51.126  26.750  24.628  1.00  0.00     0.198 A 
ATOM     81  C   UNL A   1      51.837  26.514  26.908  1.00  0.00     0.198 A 
ATOM     82  F   UNL A   1      50.267  26.694  28.652  1.00  0.00    -0.203 F 
ATOM     83  F   UNL A   1      51.405  26.739  23.318  1.00  0.00    -0.200 F 
ATOM     84  C   UNL A   1      52.134  26.527  25.554  1.00  0.00     0.200 A 
ATOM     85  F   UNL A   1      52.812  26.314  27.806  1.00  0.00    -0.200 F 
ATOM     86  F   UNL A   1      53.393  26.322  25.140  1.00  0.00    -0.200 F 
ENDBRANCH  52  76
BRANCH  64  87
ATOM     87  C   UNL A   1      46.048  32.715  28.365  1.00  0.00     0.064 A 
ATOM     88  C   UNL A   1      45.928  33.651  27.327  1.00  0.00     0.173 A 
ATOM     89  C   UNL A   1      46.536  33.166  29.602  1.00  0.00     0.173 A 
ATOM     90  F   UNL A   1      45.481  33.268  26.122  1.00  0.00    -0.203 F 
ATOM     91  C   UNL A   1      46.302  34.979  27.515  1.00  0.00     0.198 A 
ATOM     92  C   UNL A   1      46.880  34.501  29.795  1.00  0.00     0.198 A 
ATOM     93  F   UNL A   1      46.665  32.313  30.629  1.00  0.00    -0.203 F 
ATOM     94  F   UNL A   1      46.220  35.846  26.496  1.00  0.00    -0.200 F 
ATOM     95  C   UNL A   1      46.769  35.404  28.749  1.00  0.00     0.200 A 
ATOM     96  F   UNL A   1      47.318  34.912  30.993  1.00  0.00    -0.200 F 
ATOM     97  F   UNL A   1      47.120  36.685  28.931  1.00  0.00    -0.200 F 
ENDBRANCH  64  87
ENDBRANCH  38  39
ENDBRANCH  31  33
ENDBRANCH  30  31
ENDBRANCH  29  30
ENDBRANCH  28  29
ENDBRANCH   1  28
TORSDOF 18
ENDMDL
