MODEL 1
REMARK VINA RESULT:     -12.2      0.000      0.000
REMARK SMILES CC(C)CSc1cc2c(cc1Cl)C=C(C(=O)OCCOCCOC(=O)c1ccc(-c3c4nc(c(-c5c(F)c(F)c(F)c(F)c5F)c5ccc([nH]5)c(-c5c(F)c(F)c(F)c(F)c5F)c5nc(c(-c6c(F)c(F)c(F)c(F)c6F)c6ccc3[nH]6)C=C5)C=C4)cc1)[C@H](C(F)(F)F)O2
REMARK SMILES IDX 19 1 18 2 17 3 15 4 16 5 14 6 6 7 7 8 11 9 8 10 10 11 12 12
REMARK SMILES IDX 9 13 94 14 13 15 89 16 5 17 4 18 2 19 1 20 3 21 90 22 91 23
REMARK SMILES IDX 92 24 93 25 20 26 21 27 22 28 23 29 24 30 25 31 26 32 27 33
REMARK SMILES IDX 88 34 28 35 87 36 29 37 30 38 31 39 81 40 32 41 86 42 80 43
REMARK SMILES IDX 82 44 33 45 85 46 79 47 78 48 34 50 66 51 46 52 65 53 47 54
REMARK SMILES IDX 50 55 64 56 83 57 48 58 49 59 63 61 84 62 51 63 35 64 36 65
REMARK SMILES IDX 44 66 37 67 38 68 42 69 45 70 39 71 40 72 43 73 41 74 67 75
REMARK SMILES IDX 68 76 76 77 69 78 70 79 74 80 77 81 71 82 72 83 75 84 73 85
REMARK SMILES IDX 52 86 53 87 61 88 54 89 55 90 59 91 62 92 56 93 57 94 60 95
REMARK SMILES IDX 58 96
REMARK H PARENT 82 49 50 60
REMARK Flexibility Score: inf
ROOT
ATOM      1  C   UNL A   1      31.959  29.660  26.709  1.00  0.00     0.202 C 
ENDROOT
BRANCH   1   2
ATOM      2  C   UNL A   1      32.189  29.462  25.208  1.00  0.00     0.261 C 
BRANCH   2   3
ATOM      3  O   UNL A   1      33.450  28.821  24.960  1.00  0.00    -0.460 OA
BRANCH   3   4
ATOM      4  C   UNL A   1      33.620  28.371  23.700  1.00  0.00     0.338 C 
ATOM      5  O   UNL A   1      33.872  29.048  22.716  1.00  0.00    -0.246 OA
BRANCH   4   6
ATOM      6  C   UNL A   1      33.595  26.897  23.680  1.00  0.00     0.087 C 
ATOM      7  C   UNL A   1      34.553  22.153  25.015  1.00  0.00     0.030 A 
ATOM      8  C   UNL A   1      34.435  22.828  23.785  1.00  0.00     0.063 A 
ATOM      9  C   UNL A   1      34.187  22.832  26.188  1.00  0.00     0.055 A 
ATOM     10  C   UNL A   1      34.084  24.177  23.736  1.00  0.00     0.129 A 
ATOM     11  C   UNL A   1      33.859  24.192  26.140  1.00  0.00     0.033 A 
ATOM     12  Cl  UNL A   1      34.102  22.080  27.741  1.00  0.00    -0.083 Cl
ATOM     13  C   UNL A   1      33.845  24.871  24.920  1.00  0.00     0.019 A 
ATOM     14  O   UNL A   1      34.087  24.775  22.505  1.00  0.00    -0.475 OA
ATOM     15  C   UNL A   1      33.707  26.314  24.880  1.00  0.00     0.027 C 
ATOM     16  C   UNL A   1      33.510  26.114  22.396  1.00  0.00     0.316 C 
BRANCH   7  17
ATOM     17  S   UNL A   1      35.201  20.487  24.918  1.00  0.00    -0.124 SA
BRANCH  17  18
ATOM     18  C   UNL A   1      33.741  19.471  24.446  1.00  0.00     0.078 C 
BRANCH  18  19
ATOM     19  C   UNL A   1      33.830  17.941  24.613  1.00  0.00    -0.007 C 
ATOM     20  C   UNL A   1      32.838  17.351  25.616  1.00  0.00     0.008 C 
ATOM     21  C   UNL A   1      33.579  17.285  23.247  1.00  0.00     0.008 C 
ENDBRANCH  18  19
ENDBRANCH  17  18
ENDBRANCH   7  17
BRANCH  16  22
ATOM     22  C   UNL A   1      32.085  26.013  21.810  1.00  0.00     0.430 C 
ATOM     23  F   UNL A   1      31.346  25.055  22.416  1.00  0.00    -0.167 F 
ATOM     24  F   UNL A   1      31.404  27.178  21.917  1.00  0.00    -0.167 F 
ATOM     25  F   UNL A   1      32.114  25.716  20.486  1.00  0.00    -0.167 F 
ENDBRANCH  16  22
ENDBRANCH   4   6
ENDBRANCH   3   4
ENDBRANCH   2   3
ENDBRANCH   1   2
BRANCH   1  26
ATOM     26  O   UNL A   1      32.709  30.702  27.331  1.00  0.00    -0.374 OA
BRANCH  26  27
ATOM     27  C   UNL A   1      32.265  32.046  27.134  1.00  0.00     0.202 C 
BRANCH  27  28
ATOM     28  C   UNL A   1      33.150  33.163  27.698  1.00  0.00     0.261 C 
BRANCH  28  29
ATOM     29  O   UNL A   1      32.371  34.275  28.172  1.00  0.00    -0.460 OA
BRANCH  29  30
ATOM     30  C   UNL A   1      33.077  35.259  28.777  1.00  0.00     0.338 C 
ATOM     31  O   UNL A   1      32.809  36.450  28.807  1.00  0.00    -0.246 OA
BRANCH  30  32
ATOM     32  C   UNL A   1      34.152  34.661  29.598  1.00  0.00     0.060 A 
ATOM     33  C   UNL A   1      33.893  34.076  30.838  1.00  0.00     0.016 A 
ATOM     34  C   UNL A   1      35.455  34.678  29.082  1.00  0.00     0.016 A 
ATOM     35  C   UNL A   1      34.939  33.477  31.545  1.00  0.00     0.010 A 
ATOM     36  C   UNL A   1      36.496  34.073  29.785  1.00  0.00     0.010 A 
ATOM     37  C   UNL A   1      36.244  33.451  31.015  1.00  0.00    -0.014 A 
BRANCH  37  38
ATOM     38  C   UNL A   1      37.307  32.677  31.706  1.00  0.00     0.031 A 
ATOM     39  C   UNL A   1      37.979  31.507  31.050  1.00  0.00     0.074 A 
ATOM     40  C   UNL A   1      37.666  33.046  32.951  1.00  0.00     0.049 A 
ATOM     41  N   UNL A   1      38.995  30.799  31.475  1.00  0.00    -0.248 NA
ATOM     42  C   UNL A   1      37.437  31.068  29.757  1.00  0.00     0.031 C 
ATOM     43  C   UNL A   1      37.047  34.131  33.712  1.00  0.00     0.029 A 
ATOM     44  N   UNL A   1      38.643  32.565  33.786  1.00  0.00    -0.354 N 
ATOM     45  C   UNL A   1      39.233  29.849  30.493  1.00  0.00     0.074 A 
ATOM     46  C   UNL A   1      38.214  30.028  29.479  1.00  0.00     0.031 C 
ATOM     47  C   UNL A   1      37.689  34.265  34.883  1.00  0.00     0.029 A 
ATOM     48  C   UNL A   1      38.744  33.259  34.967  1.00  0.00     0.049 A 
ATOM     49  H   UNL A   1      39.216  31.796  33.561  1.00  0.00     0.167 HD
ATOM     50  C   UNL A   1      40.229  28.933  30.432  1.00  0.00     0.037 A 
ATOM     51  C   UNL A   1      39.599  33.113  35.998  1.00  0.00     0.037 A 
ATOM     52  C   UNL A   1      41.234  28.752  31.450  1.00  0.00     0.049 A 
ATOM     53  C   UNL A   1      40.666  32.054  35.925  1.00  0.00     0.074 A 
ATOM     54  C   UNL A   1      42.312  27.883  31.452  1.00  0.00     0.029 A 
ATOM     55  N   UNL A   1      41.278  29.443  32.652  1.00  0.00    -0.354 N 
ATOM     56  N   UNL A   1      40.946  31.231  34.945  1.00  0.00    -0.248 NA
ATOM     57  C   UNL A   1      41.537  31.907  37.100  1.00  0.00     0.031 C 
ATOM     58  C   UNL A   1      42.971  28.004  32.678  1.00  0.00     0.029 A 
ATOM     59  C   UNL A   1      42.340  28.989  33.421  1.00  0.00     0.049 A 
ATOM     60  H   UNL A   1      40.648  30.150  32.922  1.00  0.00     0.167 HD
ATOM     61  C   UNL A   1      42.030  30.479  35.377  1.00  0.00     0.074 A 
ATOM     62  C   UNL A   1      42.377  30.962  36.696  1.00  0.00     0.031 C 
ATOM     63  C   UNL A   1      42.674  29.472  34.737  1.00  0.00     0.037 A 
BRANCH  50  64
ATOM     64  C   UNL A   1      40.306  28.059  29.213  1.00  0.00     0.064 A 
ATOM     65  C   UNL A   1      39.576  26.863  29.129  1.00  0.00     0.173 A 
ATOM     66  C   UNL A   1      41.044  28.456  28.088  1.00  0.00     0.173 A 
ATOM     67  F   UNL A   1      38.859  26.434  30.178  1.00  0.00    -0.203 F 
ATOM     68  C   UNL A   1      39.597  26.089  27.972  1.00  0.00     0.198 A 
ATOM     69  C   UNL A   1      41.039  27.695  26.921  1.00  0.00     0.198 A 
ATOM     70  F   UNL A   1      41.751  29.596  28.110  1.00  0.00    -0.203 F 
ATOM     71  F   UNL A   1      38.920  24.934  27.928  1.00  0.00    -0.200 F 
ATOM     72  C   UNL A   1      40.320  26.511  26.865  1.00  0.00     0.200 A 
ATOM     73  F   UNL A   1      41.723  28.113  25.847  1.00  0.00    -0.200 F 
ATOM     74  F   UNL A   1      40.324  25.774  25.746  1.00  0.00    -0.200 F 
ENDBRANCH  50  64
BRANCH  51  75
ATOM     75  C   UNL A   1      39.501  34.020  37.170  1.00  0.00     0.064 A 
ATOM     76  C   UNL A   1      38.761  33.654  38.304  1.00  0.00     0.173 A 
ATOM     77  C   UNL A   1      40.160  35.259  37.193  1.00  0.00     0.173 A 
ATOM     78  F   UNL A   1      38.098  32.489  38.322  1.00  0.00    -0.203 F 
ATOM     79  C   UNL A   1      38.675  34.497  39.410  1.00  0.00     0.198 A 
ATOM     80  C   UNL A   1      40.098  36.087  38.312  1.00  0.00     0.198 A 
ATOM     81  F   UNL A   1      40.883  35.655  36.136  1.00  0.00    -0.203 F 
ATOM     82  F   UNL A   1      37.931  34.140  40.465  1.00  0.00    -0.200 F 
ATOM     83  C   UNL A   1      39.351  35.708  39.417  1.00  0.00     0.200 A 
ATOM     84  F   UNL A   1      40.765  37.248  38.321  1.00  0.00    -0.200 F 
ATOM     85  F   UNL A   1      39.277  36.512  40.486  1.00  0.00    -0.200 F 
ENDBRANCH  51  75
BRANCH  63  86
ATOM     86  C   UNL A   1      43.817  28.806  35.451  1.00  0.00     0.064 A 
ATOM     87  C   UNL A   1      45.134  29.267  35.307  1.00  0.00     0.173 A 
ATOM     88  C   UNL A   1      43.584  27.758  36.354  1.00  0.00     0.173 A 
ATOM     89  F   UNL A   1      45.412  30.257  34.444  1.00  0.00    -0.203 F 
ATOM     90  C   UNL A   1      46.176  28.697  36.033  1.00  0.00     0.198 A 
ATOM     91  C   UNL A   1      44.623  27.212  37.103  1.00  0.00     0.198 A 
ATOM     92  F   UNL A   1      42.342  27.284  36.536  1.00  0.00    -0.203 F 
ATOM     93  F   UNL A   1      47.430  29.134  35.856  1.00  0.00    -0.200 F 
ATOM     94  C   UNL A   1      45.919  27.680  36.940  1.00  0.00     0.200 A 
ATOM     95  F   UNL A   1      44.370  26.242  37.992  1.00  0.00    -0.200 F 
ATOM     96  F   UNL A   1      46.919  27.149  37.657  1.00  0.00    -0.200 F 
ENDBRANCH  63  86
ENDBRANCH  37  38
ENDBRANCH  30  32
ENDBRANCH  29  30
ENDBRANCH  28  29
ENDBRANCH  27  28
ENDBRANCH  26  27
ENDBRANCH   1  26
TORSDOF 18
ENDMDL
MODEL 2
REMARK VINA RESULT:     -12.1      2.208      7.731
REMARK SMILES CC(C)CSc1cc2c(cc1Cl)C=C(C(=O)OCCOCCOC(=O)c1ccc(-c3c4nc(c(-c5c(F)c(F)c(F)c(F)c5F)c5ccc([nH]5)c(-c5c(F)c(F)c(F)c(F)c5F)c5nc(c(-c6c(F)c(F)c(F)c(F)c6F)c6ccc3[nH]6)C=C5)C=C4)cc1)[C@H](C(F)(F)F)O2
REMARK SMILES IDX 19 1 18 2 17 3 15 4 16 5 14 6 6 7 7 8 11 9 8 10 10 11 12 12
REMARK SMILES IDX 9 13 94 14 13 15 89 16 5 17 4 18 2 19 1 20 3 21 90 22 91 23
REMARK SMILES IDX 92 24 93 25 20 26 21 27 22 28 23 29 24 30 25 31 26 32 27 33
REMARK SMILES IDX 88 34 28 35 87 36 29 37 30 38 31 39 81 40 32 41 86 42 80 43
REMARK SMILES IDX 82 44 33 45 85 46 79 47 78 48 34 50 66 51 46 52 65 53 47 54
REMARK SMILES IDX 50 55 64 56 83 57 48 58 49 59 63 61 84 62 51 63 35 64 36 65
REMARK SMILES IDX 44 66 37 67 38 68 42 69 45 70 39 71 40 72 43 73 41 74 67 75
REMARK SMILES IDX 68 76 76 77 69 78 70 79 74 80 77 81 71 82 72 83 75 84 73 85
REMARK SMILES IDX 52 86 53 87 61 88 54 89 55 90 59 91 62 92 56 93 57 94 60 95
REMARK SMILES IDX 58 96
REMARK H PARENT 82 49 50 60
REMARK Flexibility Score: inf
ROOT
ATOM      1  C   UNL A   1      30.134  29.064  23.704  1.00  0.00     0.202 C 
ENDROOT
BRANCH   1   2
ATOM      2  C   UNL A   1      30.514  28.326  22.417  1.00  0.00     0.261 C 
BRANCH   2   3
ATOM      3  O   UNL A   1      30.914  26.975  22.697  1.00  0.00    -0.460 OA
BRANCH   3   4
ATOM      4  C   UNL A   1      32.235  26.806  22.908  1.00  0.00     0.338 C 
ATOM      5  O   UNL A   1      33.116  27.617  22.670  1.00  0.00    -0.246 OA
BRANCH   4   6
ATOM      6  C   UNL A   1      32.480  25.532  23.608  1.00  0.00     0.087 C 
ATOM      7  C   UNL A   1      34.491  21.057  24.672  1.00  0.00     0.030 A 
ATOM      8  C   UNL A   1      33.188  21.591  24.720  1.00  0.00     0.063 A 
ATOM      9  C   UNL A   1      35.564  21.931  24.437  1.00  0.00     0.055 A 
ATOM     10  C   UNL A   1      32.950  22.931  24.417  1.00  0.00     0.129 A 
ATOM     11  C   UNL A   1      35.321  23.270  24.108  1.00  0.00     0.033 A 
ATOM     12  Cl  UNL A   1      37.222  21.456  24.533  1.00  0.00    -0.083 Cl
ATOM     13  C   UNL A   1      34.014  23.758  24.062  1.00  0.00     0.019 A 
ATOM     14  O   UNL A   1      31.644  23.340  24.395  1.00  0.00    -0.475 OA
ATOM     15  C   UNL A   1      33.738  25.078  23.530  1.00  0.00     0.027 C 
ATOM     16  C   UNL A   1      31.380  24.775  24.305  1.00  0.00     0.316 C 
BRANCH   7  17
ATOM     17  S   UNL A   1      34.602  19.284  24.894  1.00  0.00    -0.124 SA
BRANCH  17  18
ATOM     18  C   UNL A   1      32.903  18.684  24.522  1.00  0.00     0.078 C 
BRANCH  18  19
ATOM     19  C   UNL A   1      32.714  17.710  23.342  1.00  0.00    -0.007 C 
ATOM     20  C   UNL A   1      32.325  18.378  22.022  1.00  0.00     0.008 C 
ATOM     21  C   UNL A   1      34.029  16.946  23.124  1.00  0.00     0.008 C 
ENDBRANCH  18  19
ENDBRANCH  17  18
ENDBRANCH   7  17
BRANCH  16  22
ATOM     22  C   UNL A   1      31.025  25.321  25.704  1.00  0.00     0.430 C 
ATOM     23  F   UNL A   1      32.122  25.535  26.467  1.00  0.00    -0.167 F 
ATOM     24  F   UNL A   1      30.343  26.489  25.640  1.00  0.00    -0.167 F 
ATOM     25  F   UNL A   1      30.228  24.459  26.385  1.00  0.00    -0.167 F 
ENDBRANCH  16  22
ENDBRANCH   4   6
ENDBRANCH   3   4
ENDBRANCH   2   3
ENDBRANCH   1   2
BRANCH   1  26
ATOM     26  O   UNL A   1      31.172  29.816  24.330  1.00  0.00    -0.374 OA
BRANCH  26  27
ATOM     27  C   UNL A   1      31.432  29.564  25.712  1.00  0.00     0.202 C 
BRANCH  27  28
ATOM     28  C   UNL A   1      31.810  30.768  26.582  1.00  0.00     0.261 C 
BRANCH  28  29
ATOM     29  O   UNL A   1      33.210  31.079  26.487  1.00  0.00    -0.460 OA
BRANCH  29  30
ATOM     30  C   UNL A   1      33.658  32.001  27.371  1.00  0.00     0.338 C 
ATOM     31  O   UNL A   1      33.052  32.972  27.797  1.00  0.00    -0.246 OA
BRANCH  30  32
ATOM     32  C   UNL A   1      34.953  31.559  27.932  1.00  0.00     0.060 A 
ATOM     33  C   UNL A   1      36.002  32.452  28.157  1.00  0.00     0.016 A 
ATOM     34  C   UNL A   1      35.097  30.202  28.255  1.00  0.00     0.016 A 
ATOM     35  C   UNL A   1      37.183  31.987  28.740  1.00  0.00     0.010 A 
ATOM     36  C   UNL A   1      36.273  29.743  28.845  1.00  0.00     0.010 A 
ATOM     37  C   UNL A   1      37.322  30.635  29.109  1.00  0.00    -0.014 A 
BRANCH  37  38
ATOM     38  C   UNL A   1      38.520  30.193  29.867  1.00  0.00     0.031 A 
ATOM     39  C   UNL A   1      38.784  30.665  31.265  1.00  0.00     0.074 A 
ATOM     40  C   UNL A   1      39.383  29.347  29.270  1.00  0.00     0.049 A 
ATOM     41  N   UNL A   1      39.724  30.289  32.096  1.00  0.00    -0.248 NA
ATOM     42  C   UNL A   1      37.886  31.699  31.799  1.00  0.00     0.031 C 
ATOM     43  C   UNL A   1      39.262  28.863  27.894  1.00  0.00     0.029 A 
ATOM     44  N   UNL A   1      40.517  28.735  29.742  1.00  0.00    -0.354 N 
ATOM     45  C   UNL A   1      39.517  31.016  33.259  1.00  0.00     0.074 A 
ATOM     46  C   UNL A   1      38.402  31.906  33.005  1.00  0.00     0.031 C 
ATOM     47  C   UNL A   1      40.253  27.992  27.649  1.00  0.00     0.029 A 
ATOM     48  C   UNL A   1      41.094  27.878  28.837  1.00  0.00     0.049 A 
ATOM     49  H   UNL A   1      40.881  28.895  30.643  1.00  0.00     0.167 HD
ATOM     50  C   UNL A   1      40.179  30.927  34.437  1.00  0.00     0.037 A 
ATOM     51  C   UNL A   1      42.172  27.079  28.954  1.00  0.00     0.037 A 
ATOM     52  C   UNL A   1      41.295  30.048  34.680  1.00  0.00     0.049 A 
ATOM     53  C   UNL A   1      42.919  27.036  30.259  1.00  0.00     0.074 A 
ATOM     54  C   UNL A   1      41.998  29.853  35.856  1.00  0.00     0.029 A 
ATOM     55  N   UNL A   1      41.881  29.228  33.726  1.00  0.00    -0.354 N 
ATOM     56  N   UNL A   1      42.651  27.650  31.385  1.00  0.00    -0.248 NA
ATOM     57  C   UNL A   1      44.117  26.185  30.312  1.00  0.00     0.031 C 
ATOM     58  C   UNL A   1      43.045  28.963  35.601  1.00  0.00     0.029 A 
ATOM     59  C   UNL A   1      42.963  28.557  34.279  1.00  0.00     0.049 A 
ATOM     60  H   UNL A   1      41.576  29.136  32.795  1.00  0.00     0.167 HD
ATOM     61  C   UNL A   1      43.634  27.253  32.281  1.00  0.00     0.074 A 
ATOM     62  C   UNL A   1      44.490  26.321  31.578  1.00  0.00     0.031 C 
ATOM     63  C   UNL A   1      43.813  27.635  33.569  1.00  0.00     0.037 A 
BRANCH  50  64
ATOM     64  C   UNL A   1      39.707  31.786  35.575  1.00  0.00     0.064 A 
ATOM     65  C   UNL A   1      40.231  33.072  35.781  1.00  0.00     0.173 A 
ATOM     66  C   UNL A   1      38.667  31.361  36.414  1.00  0.00     0.173 A 
ATOM     67  F   UNL A   1      41.231  33.526  35.010  1.00  0.00    -0.203 F 
ATOM     68  C   UNL A   1      39.744  33.891  36.796  1.00  0.00     0.198 A 
ATOM     69  C   UNL A   1      38.161  32.194  37.409  1.00  0.00     0.198 A 
ATOM     70  F   UNL A   1      38.121  30.145  36.255  1.00  0.00    -0.203 F 
ATOM     71  F   UNL A   1      40.284  35.102  36.995  1.00  0.00    -0.200 F 
ATOM     72  C   UNL A   1      38.703  33.456  37.602  1.00  0.00     0.200 A 
ATOM     73  F   UNL A   1      37.143  31.780  38.176  1.00  0.00    -0.200 F 
ATOM     74  F   UNL A   1      38.223  34.254  38.567  1.00  0.00    -0.200 F 
ENDBRANCH  50  64
BRANCH  51  75
ATOM     75  C   UNL A   1      42.584  26.226  27.809  1.00  0.00     0.064 A 
ATOM     76  C   UNL A   1      43.577  26.651  26.915  1.00  0.00     0.173 A 
ATOM     77  C   UNL A   1      42.012  24.963  27.595  1.00  0.00     0.173 A 
ATOM     78  F   UNL A   1      44.139  27.859  27.066  1.00  0.00    -0.203 F 
ATOM     79  C   UNL A   1      43.974  25.851  25.846  1.00  0.00     0.198 A 
ATOM     80  C   UNL A   1      42.431  24.151  26.544  1.00  0.00     0.198 A 
ATOM     81  F   UNL A   1      41.060  24.508  28.422  1.00  0.00    -0.203 F 
ATOM     82  F   UNL A   1      44.899  26.297  24.985  1.00  0.00    -0.200 F 
ATOM     83  C   UNL A   1      43.408  24.598  25.666  1.00  0.00     0.200 A 
ATOM     84  F   UNL A   1      41.893  22.935  26.384  1.00  0.00    -0.200 F 
ATOM     85  F   UNL A   1      43.799  23.824  24.645  1.00  0.00    -0.200 F 
ENDBRANCH  51  75
BRANCH  63  86
ATOM     86  C   UNL A   1      44.986  27.060  34.312  1.00  0.00     0.064 A 
ATOM     87  C   UNL A   1      46.228  27.713  34.330  1.00  0.00     0.173 A 
ATOM     88  C   UNL A   1      44.845  25.897  35.084  1.00  0.00     0.173 A 
ATOM     89  F   UNL A   1      46.419  28.821  33.598  1.00  0.00    -0.203 F 
ATOM     90  C   UNL A   1      47.287  27.217  35.087  1.00  0.00     0.198 A 
ATOM     91  C   UNL A   1      45.897  25.422  35.865  1.00  0.00     0.198 A 
ATOM     92  F   UNL A   1      43.677  25.238  35.109  1.00  0.00    -0.203 F 
ATOM     93  F   UNL A   1      48.472  27.841  35.064  1.00  0.00    -0.200 F 
ATOM     94  C   UNL A   1      47.117  26.081  35.862  1.00  0.00     0.200 A 
ATOM     95  F   UNL A   1      45.725  24.335  36.628  1.00  0.00    -0.200 F 
ATOM     96  F   UNL A   1      48.130  25.619  36.609  1.00  0.00    -0.200 F 
ENDBRANCH  63  86
ENDBRANCH  37  38
ENDBRANCH  30  32
ENDBRANCH  29  30
ENDBRANCH  28  29
ENDBRANCH  27  28
ENDBRANCH  26  27
ENDBRANCH   1  26
TORSDOF 18
ENDMDL
MODEL 3
REMARK VINA RESULT:     -12.1      0.544      1.992
REMARK SMILES CC(C)CSc1cc2c(cc1Cl)C=C(C(=O)OCCOCCOC(=O)c1ccc(-c3c4nc(c(-c5c(F)c(F)c(F)c(F)c5F)c5ccc([nH]5)c(-c5c(F)c(F)c(F)c(F)c5F)c5nc(c(-c6c(F)c(F)c(F)c(F)c6F)c6ccc3[nH]6)C=C5)C=C4)cc1)[C@H](C(F)(F)F)O2
REMARK SMILES IDX 19 1 18 2 17 3 15 4 16 5 14 6 6 7 7 8 11 9 8 10 10 11 12 12
REMARK SMILES IDX 9 13 94 14 13 15 89 16 5 17 4 18 2 19 1 20 3 21 90 22 91 23
REMARK SMILES IDX 92 24 93 25 20 26 21 27 22 28 23 29 24 30 25 31 26 32 27 33
REMARK SMILES IDX 88 34 28 35 87 36 29 37 30 38 31 39 81 40 32 41 86 42 80 43
REMARK SMILES IDX 82 44 33 45 85 46 79 47 78 48 34 50 66 51 46 52 65 53 47 54
REMARK SMILES IDX 50 55 64 56 83 57 48 58 49 59 63 61 84 62 51 63 35 64 36 65
REMARK SMILES IDX 44 66 37 67 38 68 42 69 45 70 39 71 40 72 43 73 41 74 67 75
REMARK SMILES IDX 68 76 76 77 69 78 70 79 74 80 77 81 71 82 72 83 75 84 73 85
REMARK SMILES IDX 52 86 53 87 61 88 54 89 55 90 59 91 62 92 56 93 57 94 60 95
REMARK SMILES IDX 58 96
REMARK H PARENT 82 49 50 60
REMARK Flexibility Score: inf
ROOT
ATOM      1  C   UNL A   1      32.171  30.170  25.897  1.00  0.00     0.202 C 
ENDROOT
BRANCH   1   2
ATOM      2  C   UNL A   1      33.609  29.722  25.622  1.00  0.00     0.261 C 
BRANCH   2   3
ATOM      3  O   UNL A   1      33.672  28.306  25.389  1.00  0.00    -0.460 OA
BRANCH   3   4
ATOM      4  C   UNL A   1      33.743  27.947  24.091  1.00  0.00     0.338 C 
ATOM      5  O   UNL A   1      33.991  28.682  23.148  1.00  0.00    -0.246 OA
BRANCH   4   6
ATOM      6  C   UNL A   1      33.611  26.485  23.960  1.00  0.00     0.087 C 
ATOM      7  C   UNL A   1      34.212  21.597  24.938  1.00  0.00     0.030 A 
ATOM      8  C   UNL A   1      34.152  22.369  23.761  1.00  0.00     0.063 A 
ATOM      9  C   UNL A   1      33.889  22.212  26.158  1.00  0.00     0.055 A 
ATOM     10  C   UNL A   1      33.899  23.740  23.813  1.00  0.00     0.129 A 
ATOM     11  C   UNL A   1      33.661  23.592  26.211  1.00  0.00     0.033 A 
ATOM     12  Cl  UNL A   1      33.740  21.354  27.650  1.00  0.00    -0.083 Cl
ATOM     13  C   UNL A   1      33.705  24.359  25.046  1.00  0.00     0.019 A 
ATOM     14  O   UNL A   1      33.954  24.426  22.631  1.00  0.00    -0.475 OA
ATOM     15  C   UNL A   1      33.672  25.807  25.114  1.00  0.00     0.027 C 
ATOM     16  C   UNL A   1      33.477  25.808  22.621  1.00  0.00     0.316 C 
BRANCH   7  17
ATOM     17  S   UNL A   1      34.738  19.900  24.716  1.00  0.00    -0.124 SA
BRANCH  17  18
ATOM     18  C   UNL A   1      33.205  18.922  24.997  1.00  0.00     0.078 C 
BRANCH  18  19
ATOM     19  C   UNL A   1      32.691  18.025  23.853  1.00  0.00    -0.007 C 
ATOM     20  C   UNL A   1      32.336  18.774  22.567  1.00  0.00     0.008 C 
ATOM     21  C   UNL A   1      33.775  16.988  23.521  1.00  0.00     0.008 C 
ENDBRANCH  18  19
ENDBRANCH  17  18
ENDBRANCH   7  17
BRANCH  16  22
ATOM     22  C   UNL A   1      32.052  25.855  22.028  1.00  0.00     0.430 C 
ATOM     23  F   UNL A   1      31.273  24.845  22.479  1.00  0.00    -0.167 F 
ATOM     24  F   UNL A   1      31.416  27.015  22.316  1.00  0.00    -0.167 F 
ATOM     25  F   UNL A   1      32.076  25.767  20.674  1.00  0.00    -0.167 F 
ENDBRANCH  16  22
ENDBRANCH   4   6
ENDBRANCH   3   4
ENDBRANCH   2   3
ENDBRANCH   1   2
BRANCH   1  26
ATOM     26  O   UNL A   1      31.972  30.979  27.056  1.00  0.00    -0.374 OA
BRANCH  26  27
ATOM     27  C   UNL A   1      31.721  32.371  26.857  1.00  0.00     0.202 C 
BRANCH  27  28
ATOM     28  C   UNL A   1      32.783  33.352  27.367  1.00  0.00     0.261 C 
BRANCH  28  29
ATOM     29  O   UNL A   1      32.227  34.319  28.275  1.00  0.00    -0.460 OA
BRANCH  29  30
ATOM     30  C   UNL A   1      33.086  35.277  28.695  1.00  0.00     0.338 C 
ATOM     31  O   UNL A   1      32.947  36.487  28.601  1.00  0.00    -0.246 OA
BRANCH  30  32
ATOM     32  C   UNL A   1      34.165  34.656  29.492  1.00  0.00     0.060 A 
ATOM     33  C   UNL A   1      33.917  34.056  30.727  1.00  0.00     0.016 A 
ATOM     34  C   UNL A   1      35.462  34.668  28.959  1.00  0.00     0.016 A 
ATOM     35  C   UNL A   1      34.967  33.436  31.411  1.00  0.00     0.010 A 
ATOM     36  C   UNL A   1      36.506  34.041  29.638  1.00  0.00     0.010 A 
ATOM     37  C   UNL A   1      36.264  33.404  30.863  1.00  0.00    -0.014 A 
BRANCH  37  38
ATOM     38  C   UNL A   1      37.329  32.610  31.527  1.00  0.00     0.031 A 
ATOM     39  C   UNL A   1      37.963  31.429  30.854  1.00  0.00     0.074 A 
ATOM     40  C   UNL A   1      37.724  32.970  32.764  1.00  0.00     0.049 A 
ATOM     41  N   UNL A   1      38.975  30.701  31.255  1.00  0.00    -0.248 NA
ATOM     42  C   UNL A   1      37.383  31.001  29.574  1.00  0.00     0.031 C 
ATOM     43  C   UNL A   1      37.143  34.065  33.541  1.00  0.00     0.029 A 
ATOM     44  N   UNL A   1      38.710  32.469  33.576  1.00  0.00    -0.354 N 
ATOM     45  C   UNL A   1      39.173  29.748  30.267  1.00  0.00     0.074 A 
ATOM     46  C   UNL A   1      38.134  29.947  29.277  1.00  0.00     0.031 C 
ATOM     47  C   UNL A   1      37.815  34.185  34.696  1.00  0.00     0.029 A 
ATOM     48  C   UNL A   1      38.852  33.160  34.755  1.00  0.00     0.049 A 
ATOM     49  H   UNL A   1      39.263  31.690  33.336  1.00  0.00     0.167 HD
ATOM     50  C   UNL A   1      40.150  28.814  30.180  1.00  0.00     0.037 A 
ATOM     51  C   UNL A   1      39.728  32.995  35.765  1.00  0.00     0.037 A 
ATOM     52  C   UNL A   1      41.174  28.613  31.174  1.00  0.00     0.049 A 
ATOM     53  C   UNL A   1      40.773  31.917  35.665  1.00  0.00     0.074 A 
ATOM     54  C   UNL A   1      42.235  27.724  31.150  1.00  0.00     0.029 A 
ATOM     55  N   UNL A   1      41.259  29.300  32.377  1.00  0.00    -0.354 N 
ATOM     56  N   UNL A   1      41.015  31.091  34.678  1.00  0.00    -0.248 NA
ATOM     57  C   UNL A   1      41.669  31.752  36.819  1.00  0.00     0.031 C 
ATOM     58  C   UNL A   1      42.925  27.830  32.361  1.00  0.00     0.029 A 
ATOM     59  C   UNL A   1      42.331  28.825  33.119  1.00  0.00     0.049 A 
ATOM     60  H   UNL A   1      40.649  30.018  32.662  1.00  0.00     0.167 HD
ATOM     61  C   UNL A   1      42.095  30.318  35.084  1.00  0.00     0.074 A 
ATOM     62  C   UNL A   1      42.481  30.793  36.395  1.00  0.00     0.031 C 
ATOM     63  C   UNL A   1      42.705  29.300  34.427  1.00  0.00     0.037 A 
BRANCH  50  64
ATOM     64  C   UNL A   1      40.182  27.940  28.959  1.00  0.00     0.064 A 
ATOM     65  C   UNL A   1      40.903  28.317  27.815  1.00  0.00     0.173 A 
ATOM     66  C   UNL A   1      39.561  26.683  28.957  1.00  0.00     0.173 A 
ATOM     67  F   UNL A   1      41.511  29.511  27.762  1.00  0.00    -0.203 F 
ATOM     68  C   UNL A   1      40.986  27.474  26.710  1.00  0.00     0.198 A 
ATOM     69  C   UNL A   1      39.670  25.830  27.862  1.00  0.00     0.198 A 
ATOM     70  F   UNL A   1      38.868  26.268  30.029  1.00  0.00    -0.203 F 
ATOM     71  F   UNL A   1      41.651  27.871  25.616  1.00  0.00    -0.200 F 
ATOM     72  C   UNL A   1      40.378  26.228  26.738  1.00  0.00     0.200 A 
ATOM     73  F   UNL A   1      39.098  24.618  27.897  1.00  0.00    -0.200 F 
ATOM     74  F   UNL A   1      40.474  25.411  25.679  1.00  0.00    -0.200 F 
ENDBRANCH  50  64
BRANCH  51  75
ATOM     75  C   UNL A   1      39.675  33.903  36.940  1.00  0.00     0.064 A 
ATOM     76  C   UNL A   1      40.375  35.117  36.944  1.00  0.00     0.173 A 
ATOM     77  C   UNL A   1      38.908  33.589  38.073  1.00  0.00     0.173 A 
ATOM     78  F   UNL A   1      41.137  35.453  35.892  1.00  0.00    -0.203 F 
ATOM     79  C   UNL A   1      40.320  35.977  38.039  1.00  0.00     0.198 A 
ATOM     80  C   UNL A   1      38.830  34.463  39.154  1.00  0.00     0.198 A 
ATOM     81  F   UNL A   1      38.218  32.440  38.119  1.00  0.00    -0.203 F 
ATOM     82  F   UNL A   1      41.029  37.113  38.032  1.00  0.00    -0.200 F 
ATOM     83  C   UNL A   1      39.541  35.654  39.140  1.00  0.00     0.200 A 
ATOM     84  F   UNL A   1      38.064  34.154  40.209  1.00  0.00    -0.200 F 
ATOM     85  F   UNL A   1      39.479  36.487  40.187  1.00  0.00    -0.200 F 
ENDBRANCH  51  75
BRANCH  63  86
ATOM     86  C   UNL A   1      43.851  28.612  35.114  1.00  0.00     0.064 A 
ATOM     87  C   UNL A   1      43.661  27.422  35.833  1.00  0.00     0.173 A 
ATOM     88  C   UNL A   1      45.161  29.096  34.980  1.00  0.00     0.173 A 
ATOM     89  F   UNL A   1      42.426  26.926  36.003  1.00  0.00    -0.203 F 
ATOM     90  C   UNL A   1      44.740  26.747  36.399  1.00  0.00     0.198 A 
ATOM     91  C   UNL A   1      46.241  28.401  35.519  1.00  0.00     0.198 A 
ATOM     92  F   UNL A   1      45.399  30.225  34.297  1.00  0.00    -0.203 F 
ATOM     93  F   UNL A   1      44.530  25.629  37.106  1.00  0.00    -0.200 F 
ATOM     94  C   UNL A   1      46.029  27.229  36.231  1.00  0.00     0.200 A 
ATOM     95  F   UNL A   1      47.488  28.858  35.340  1.00  0.00    -0.200 F 
ATOM     96  F   UNL A   1      47.068  26.565  36.755  1.00  0.00    -0.200 F 
ENDBRANCH  63  86
ENDBRANCH  37  38
ENDBRANCH  30  32
ENDBRANCH  29  30
ENDBRANCH  28  29
ENDBRANCH  27  28
ENDBRANCH  26  27
ENDBRANCH   1  26
TORSDOF 18
ENDMDL
