MODEL 1
REMARK VINA RESULT:     -11.8      0.000      0.000
REMARK SMILES CCc1cc(OC(F)(F)F)cc2c1O[C@@H](C(F)(F)F)C(C(=O)OCCOCCOC(=O)c1ccc(-c3c4nc(c(-c5c(F)c(F)c(F)c(F)c5F)c5ccc([nH]5)c(-c5c(F)c(F)c(F)c(F)c5F)c5nc(c(-c6c(F)c(F)c(F)c(F)c6F)c6ccc3[nH]6)C=C5)C=C4)cc1)=C2
REMARK SMILES IDX 26 1 25 2 24 3 23 4 21 5 22 6 20 7 3 8 4 9 13 10 5 11 12 12
REMARK SMILES IDX 14 13 11 14 95 15 15 16 2 17 1 18 6 19 7 20 8 21 9 22 10 23
REMARK SMILES IDX 16 24 17 25 18 26 19 27 27 28 28 29 29 30 30 31 31 32 32 33
REMARK SMILES IDX 33 34 94 35 34 36 93 37 35 38 36 39 37 40 87 41 38 42 92 43
REMARK SMILES IDX 86 44 88 45 39 46 91 47 85 48 84 49 40 51 72 52 52 53 71 54
REMARK SMILES IDX 53 55 56 56 70 57 89 58 54 59 55 60 69 62 90 63 57 64 41 65
REMARK SMILES IDX 42 66 50 67 43 68 44 69 48 70 51 71 45 72 46 73 49 74 47 75
REMARK SMILES IDX 73 76 74 77 82 78 75 79 76 80 80 81 83 82 77 83 78 84 81 85
REMARK SMILES IDX 79 86 58 87 59 88 67 89 60 90 61 91 65 92 68 93 62 94 63 95
REMARK SMILES IDX 66 96 64 97
REMARK H PARENT 88 50 56 61
REMARK Flexibility Score: inf
ROOT
ATOM      1  O   UNL A   1      33.977  20.754  25.031  1.00  0.00    -0.374 OA
ENDROOT
BRANCH   1   2
ATOM      2  C   UNL A   1      32.942  20.936  24.069  1.00  0.00     0.202 C 
BRANCH   2   3
ATOM      3  C   UNL A   1      32.066  22.185  24.209  1.00  0.00     0.261 C 
BRANCH   3   4
ATOM      4  O   UNL A   1      31.976  22.914  22.975  1.00  0.00    -0.460 OA
BRANCH   4   5
ATOM      5  C   UNL A   1      33.050  23.690  22.696  1.00  0.00     0.338 C 
ATOM      6  O   UNL A   1      34.072  23.337  22.127  1.00  0.00    -0.246 OA
BRANCH   5   7
ATOM      7  C   UNL A   1      32.799  25.088  23.076  1.00  0.00     0.087 C 
ATOM      8  C   UNL A   1      31.568  28.604  24.952  1.00  0.00    -0.002 A 
ATOM      9  C   UNL A   1      30.690  29.470  24.280  1.00  0.00     0.054 A 
ATOM     10  C   UNL A   1      31.981  27.431  24.309  1.00  0.00     0.131 A 
ATOM     11  C   UNL A   1      30.231  29.170  22.995  1.00  0.00     0.130 A 
ATOM     12  C   UNL A   1      31.521  27.111  23.021  1.00  0.00     0.021 A 
ATOM     13  O   UNL A   1      32.783  26.570  25.017  1.00  0.00    -0.475 OA
ATOM     14  C   UNL A   1      30.663  27.996  22.364  1.00  0.00     0.058 A 
ATOM     15  C   UNL A   1      31.841  25.797  22.458  1.00  0.00     0.027 C 
ATOM     16  C   UNL A   1      33.606  25.707  24.194  1.00  0.00     0.316 C 
BRANCH   8  17
ATOM     17  C   UNL A   1      31.991  28.921  26.367  1.00  0.00     0.036 C 
ATOM     18  C   UNL A   1      32.205  30.415  26.561  1.00  0.00     0.009 C 
ENDBRANCH   8  17
BRANCH  11  19
ATOM     19  O   UNL A   1      29.357  29.923  22.261  1.00  0.00    -0.406 OA
BRANCH  19  20
ATOM     20  C   UNL A   1      28.012  29.989  22.713  1.00  0.00     0.573 C 
ATOM     21  F   UNL A   1      27.496  28.755  22.900  1.00  0.00    -0.132 F 
ATOM     22  F   UNL A   1      27.923  30.694  23.860  1.00  0.00    -0.132 F 
ATOM     23  F   UNL A   1      27.270  30.617  21.775  1.00  0.00    -0.132 F 
ENDBRANCH  19  20
ENDBRANCH  11  19
BRANCH  16  24
ATOM     24  C   UNL A   1      34.423  24.787  25.116  1.00  0.00     0.430 C 
ATOM     25  F   UNL A   1      35.455  24.218  24.449  1.00  0.00    -0.167 F 
ATOM     26  F   UNL A   1      34.986  25.517  26.117  1.00  0.00    -0.167 F 
ATOM     27  F   UNL A   1      33.687  23.821  25.699  1.00  0.00    -0.167 F 
ENDBRANCH  16  24
ENDBRANCH   5   7
ENDBRANCH   4   5
ENDBRANCH   3   4
ENDBRANCH   2   3
ENDBRANCH   1   2
BRANCH   1  28
ATOM     28  C   UNL A   1      35.324  20.990  24.625  1.00  0.00     0.202 C 
BRANCH  28  29
ATOM     29  C   UNL A   1      36.377  21.179  25.725  1.00  0.00     0.261 C 
BRANCH  29  30
ATOM     30  O   UNL A   1      37.582  21.796  25.242  1.00  0.00    -0.460 OA
BRANCH  30  31
ATOM     31  C   UNL A   1      38.703  21.461  25.924  1.00  0.00     0.338 C 
ATOM     32  O   UNL A   1      39.256  20.369  25.956  1.00  0.00    -0.246 OA
BRANCH  31  33
ATOM     33  C   UNL A   1      39.311  22.662  26.518  1.00  0.00     0.060 A 
ATOM     34  C   UNL A   1      38.810  23.909  26.122  1.00  0.00     0.016 A 
ATOM     35  C   UNL A   1      40.403  22.576  27.383  1.00  0.00     0.016 A 
ATOM     36  C   UNL A   1      39.424  25.079  26.561  1.00  0.00     0.010 A 
ATOM     37  C   UNL A   1      41.025  23.752  27.815  1.00  0.00     0.010 A 
ATOM     38  C   UNL A   1      40.558  25.007  27.382  1.00  0.00    -0.014 A 
BRANCH  38  39
ATOM     39  C   UNL A   1      41.326  26.239  27.683  1.00  0.00     0.031 A 
ATOM     40  C   UNL A   1      40.662  27.342  28.459  1.00  0.00     0.074 A 
ATOM     41  C   UNL A   1      42.604  26.361  27.287  1.00  0.00     0.049 A 
ATOM     42  N   UNL A   1      41.129  28.519  28.795  1.00  0.00    -0.248 NA
ATOM     43  C   UNL A   1      39.288  27.086  28.916  1.00  0.00     0.031 C 
ATOM     44  C   UNL A   1      43.363  25.344  26.564  1.00  0.00     0.029 A 
ATOM     45  N   UNL A   1      43.486  27.403  27.432  1.00  0.00    -0.354 N 
ATOM     46  C   UNL A   1      40.106  29.143  29.496  1.00  0.00     0.074 A 
ATOM     47  C   UNL A   1      38.984  28.230  29.512  1.00  0.00     0.031 C 
ATOM     48  C   UNL A   1      44.597  25.816  26.317  1.00  0.00     0.029 A 
ATOM     49  C   UNL A   1      44.701  27.179  26.835  1.00  0.00     0.049 A 
ATOM     50  H   UNL A   1      43.268  28.230  27.919  1.00  0.00     0.167 HD
ATOM     51  C   UNL A   1      40.108  30.365  30.079  1.00  0.00     0.037 A 
ATOM     52  C   UNL A   1      45.766  27.993  26.701  1.00  0.00     0.037 A 
ATOM     53  C   UNL A   1      41.228  31.269  30.062  1.00  0.00     0.049 A 
ATOM     54  C   UNL A   1      45.717  29.375  27.300  1.00  0.00     0.074 A 
ATOM     55  C   UNL A   1      41.337  32.521  30.644  1.00  0.00     0.029 A 
ATOM     56  N   UNL A   1      42.434  31.021  29.422  1.00  0.00    -0.354 N 
ATOM     57  N   UNL A   1      44.757  29.949  27.984  1.00  0.00    -0.248 NA
ATOM     58  C   UNL A   1      46.903  30.222  27.109  1.00  0.00     0.031 C 
ATOM     59  C   UNL A   1      42.588  33.051  30.309  1.00  0.00     0.029 A 
ATOM     60  C   UNL A   1      43.281  32.107  29.569  1.00  0.00     0.049 A 
ATOM     61  H   UNL A   1      42.654  30.194  28.934  1.00  0.00     0.167 HD
ATOM     62  C   UNL A   1      45.233  31.207  28.330  1.00  0.00     0.074 A 
ATOM     63  C   UNL A   1      46.573  31.310  27.792  1.00  0.00     0.031 C 
ATOM     64  C   UNL A   1      44.616  32.190  29.032  1.00  0.00     0.037 A 
BRANCH  51  65
ATOM     65  C   UNL A   1      38.850  30.809  30.767  1.00  0.00     0.064 A 
ATOM     66  C   UNL A   1      38.683  30.683  32.155  1.00  0.00     0.173 A 
ATOM     67  C   UNL A   1      37.812  31.403  30.033  1.00  0.00     0.173 A 
ATOM     68  F   UNL A   1      39.639  30.110  32.901  1.00  0.00    -0.203 F 
ATOM     69  C   UNL A   1      37.514  31.114  32.778  1.00  0.00     0.198 A 
ATOM     70  C   UNL A   1      36.658  31.859  30.663  1.00  0.00     0.198 A 
ATOM     71  F   UNL A   1      37.923  31.550  28.704  1.00  0.00    -0.203 F 
ATOM     72  F   UNL A   1      37.358  30.944  34.098  1.00  0.00    -0.200 F 
ATOM     73  C   UNL A   1      36.506  31.709  32.032  1.00  0.00     0.200 A 
ATOM     74  F   UNL A   1      35.691  32.444  29.943  1.00  0.00    -0.200 F 
ATOM     75  F   UNL A   1      35.385  32.131  32.634  1.00  0.00    -0.200 F 
ENDBRANCH  51  65
BRANCH  52  76
ATOM     76  C   UNL A   1      46.968  27.528  25.960  1.00  0.00     0.064 A 
ATOM     77  C   UNL A   1      47.053  27.654  24.567  1.00  0.00     0.173 A 
ATOM     78  C   UNL A   1      48.046  26.931  26.628  1.00  0.00     0.173 A 
ATOM     79  F   UNL A   1      46.035  28.195  23.880  1.00  0.00    -0.203 F 
ATOM     80  C   UNL A   1      48.163  27.184  23.869  1.00  0.00     0.198 A 
ATOM     81  C   UNL A   1      49.169  26.488  25.933  1.00  0.00     0.198 A 
ATOM     82  F   UNL A   1      48.015  26.785  27.961  1.00  0.00    -0.203 F 
ATOM     83  F   UNL A   1      48.198  27.273  22.532  1.00  0.00    -0.200 F 
ATOM     84  C   UNL A   1      49.223  26.607  24.552  1.00  0.00     0.200 A 
ATOM     85  F   UNL A   1      50.196  25.943  26.599  1.00  0.00    -0.200 F 
ATOM     86  F   UNL A   1      50.292  26.158  23.880  1.00  0.00    -0.200 F 
ENDBRANCH  52  76
BRANCH  64  87
ATOM     87  C   UNL A   1      45.396  33.447  29.293  1.00  0.00     0.064 A 
ATOM     88  C   UNL A   1      45.333  34.548  28.427  1.00  0.00     0.173 A 
ATOM     89  C   UNL A   1      46.187  33.563  30.448  1.00  0.00     0.173 A 
ATOM     90  F   UNL A   1      44.604  34.482  27.303  1.00  0.00    -0.203 F 
ATOM     91  C   UNL A   1      46.053  35.710  28.694  1.00  0.00     0.198 A 
ATOM     92  C   UNL A   1      46.879  34.738  30.727  1.00  0.00     0.198 A 
ATOM     93  F   UNL A   1      46.276  32.542  31.313  1.00  0.00    -0.203 F 
ATOM     94  F   UNL A   1      46.016  36.732  27.827  1.00  0.00    -0.200 F 
ATOM     95  C   UNL A   1      46.819  35.807  29.847  1.00  0.00     0.200 A 
ATOM     96  F   UNL A   1      47.607  34.834  31.848  1.00  0.00    -0.200 F 
ATOM     97  F   UNL A   1      47.504  36.930  30.104  1.00  0.00    -0.200 F 
ENDBRANCH  64  87
ENDBRANCH  38  39
ENDBRANCH  31  33
ENDBRANCH  30  31
ENDBRANCH  29  30
ENDBRANCH  28  29
ENDBRANCH   1  28
TORSDOF 18
ENDMDL
MODEL 2
REMARK VINA RESULT:     -11.6      1.743      7.422
REMARK SMILES CCc1cc(OC(F)(F)F)cc2c1O[C@@H](C(F)(F)F)C(C(=O)OCCOCCOC(=O)c1ccc(-c3c4nc(c(-c5c(F)c(F)c(F)c(F)c5F)c5ccc([nH]5)c(-c5c(F)c(F)c(F)c(F)c5F)c5nc(c(-c6c(F)c(F)c(F)c(F)c6F)c6ccc3[nH]6)C=C5)C=C4)cc1)=C2
REMARK SMILES IDX 26 1 25 2 24 3 23 4 21 5 22 6 20 7 3 8 4 9 13 10 5 11 12 12
REMARK SMILES IDX 14 13 11 14 95 15 15 16 2 17 1 18 6 19 7 20 8 21 9 22 10 23
REMARK SMILES IDX 16 24 17 25 18 26 19 27 27 28 28 29 29 30 30 31 31 32 32 33
REMARK SMILES IDX 33 34 94 35 34 36 93 37 35 38 36 39 37 40 87 41 38 42 92 43
REMARK SMILES IDX 86 44 88 45 39 46 91 47 85 48 84 49 40 51 72 52 52 53 71 54
REMARK SMILES IDX 53 55 56 56 70 57 89 58 54 59 55 60 69 62 90 63 57 64 41 65
REMARK SMILES IDX 42 66 50 67 43 68 44 69 48 70 51 71 45 72 46 73 49 74 47 75
REMARK SMILES IDX 73 76 74 77 82 78 75 79 76 80 80 81 83 82 77 83 78 84 81 85
REMARK SMILES IDX 79 86 58 87 59 88 67 89 60 90 61 91 65 92 68 93 62 94 63 95
REMARK SMILES IDX 66 96 64 97
REMARK H PARENT 88 50 56 61
REMARK Flexibility Score: inf
ROOT
ATOM      1  O   UNL A   1      37.710  21.425  24.928  1.00  0.00    -0.374 OA
ENDROOT
BRANCH   1   2
ATOM      2  C   UNL A   1      36.902  21.992  23.901  1.00  0.00     0.202 C 
BRANCH   2   3
ATOM      3  C   UNL A   1      36.197  23.315  24.215  1.00  0.00     0.261 C 
BRANCH   3   4
ATOM      4  O   UNL A   1      35.885  23.435  25.612  1.00  0.00    -0.460 OA
BRANCH   4   5
ATOM      5  C   UNL A   1      34.598  23.167  25.930  1.00  0.00     0.338 C 
ATOM      6  O   UNL A   1      34.179  22.155  26.473  1.00  0.00    -0.246 OA
BRANCH   5   7
ATOM      7  C   UNL A   1      33.733  24.318  25.631  1.00  0.00     0.087 C 
ATOM      8  C   UNL A   1      31.689  27.471  23.820  1.00  0.00    -0.002 A 
ATOM      9  C   UNL A   1      31.929  28.785  24.254  1.00  0.00     0.054 A 
ATOM     10  C   UNL A   1      32.375  26.420  24.441  1.00  0.00     0.131 A 
ATOM     11  C   UNL A   1      32.838  29.045  25.283  1.00  0.00     0.130 A 
ATOM     12  C   UNL A   1      33.298  26.666  25.471  1.00  0.00     0.021 A 
ATOM     13  O   UNL A   1      32.172  25.154  23.949  1.00  0.00    -0.475 OA
ATOM     14  C   UNL A   1      33.508  27.980  25.899  1.00  0.00     0.058 A 
ATOM     15  C   UNL A   1      34.116  25.559  25.973  1.00  0.00     0.027 C 
ATOM     16  C   UNL A   1      32.427  24.094  24.904  1.00  0.00     0.316 C 
BRANCH   8  17
ATOM     17  C   UNL A   1      30.755  27.228  22.658  1.00  0.00     0.036 C 
ATOM     18  C   UNL A   1      29.367  27.788  22.936  1.00  0.00     0.009 C 
ENDBRANCH   8  17
BRANCH  11  19
ATOM     19  O   UNL A   1      33.169  30.281  25.765  1.00  0.00    -0.406 OA
BRANCH  19  20
ATOM     20  C   UNL A   1      32.636  30.655  27.027  1.00  0.00     0.573 C 
ATOM     21  F   UNL A   1      31.574  29.888  27.358  1.00  0.00    -0.132 F 
ATOM     22  F   UNL A   1      33.575  30.566  27.993  1.00  0.00    -0.132 F 
ATOM     23  F   UNL A   1      32.222  31.938  26.960  1.00  0.00    -0.132 F 
ENDBRANCH  19  20
ENDBRANCH  11  19
BRANCH  16  24
ATOM     24  C   UNL A   1      32.187  22.743  24.210  1.00  0.00     0.430 C 
ATOM     25  F   UNL A   1      31.766  21.807  25.093  1.00  0.00    -0.167 F 
ATOM     26  F   UNL A   1      31.187  22.865  23.294  1.00  0.00    -0.167 F 
ATOM     27  F   UNL A   1      33.267  22.278  23.553  1.00  0.00    -0.167 F 
ENDBRANCH  16  24
ENDBRANCH   5   7
ENDBRANCH   4   5
ENDBRANCH   3   4
ENDBRANCH   2   3
ENDBRANCH   1   2
BRANCH   1  28
ATOM     28  C   UNL A   1      37.892  20.010  24.939  1.00  0.00     0.202 C 
BRANCH  28  29
ATOM     29  C   UNL A   1      39.137  19.456  25.644  1.00  0.00     0.261 C 
BRANCH  29  30
ATOM     30  O   UNL A   1      40.179  20.438  25.788  1.00  0.00    -0.460 OA
BRANCH  30  31
ATOM     31  C   UNL A   1      40.737  20.495  27.020  1.00  0.00     0.338 C 
ATOM     32  O   UNL A   1      41.149  19.559  27.695  1.00  0.00    -0.246 OA
BRANCH  31  33
ATOM     33  C   UNL A   1      40.962  21.896  27.408  1.00  0.00     0.060 A 
ATOM     34  C   UNL A   1      40.352  22.893  26.633  1.00  0.00     0.016 A 
ATOM     35  C   UNL A   1      41.815  22.235  28.459  1.00  0.00     0.016 A 
ATOM     36  C   UNL A   1      40.625  24.235  26.883  1.00  0.00     0.010 A 
ATOM     37  C   UNL A   1      42.096  23.584  28.702  1.00  0.00     0.010 A 
ATOM     38  C   UNL A   1      41.527  24.587  27.896  1.00  0.00    -0.014 A 
BRANCH  38  39
ATOM     39  C   UNL A   1      41.967  25.997  28.029  1.00  0.00     0.031 A 
ATOM     40  C   UNL A   1      43.302  26.401  27.468  1.00  0.00     0.074 A 
ATOM     41  C   UNL A   1      41.177  26.906  28.623  1.00  0.00     0.049 A 
ATOM     42  N   UNL A   1      43.903  27.564  27.509  1.00  0.00    -0.248 NA
ATOM     43  C   UNL A   1      44.062  25.355  26.767  1.00  0.00     0.031 C 
ATOM     44  C   UNL A   1      39.848  26.640  29.169  1.00  0.00     0.029 A 
ATOM     45  N   UNL A   1      41.385  28.240  28.874  1.00  0.00    -0.354 N 
ATOM     46  C   UNL A   1      45.110  27.388  26.848  1.00  0.00     0.074 A 
ATOM     47  C   UNL A   1      45.172  26.000  26.440  1.00  0.00     0.031 C 
ATOM     48  C   UNL A   1      39.363  27.773  29.703  1.00  0.00     0.029 A 
ATOM     49  C   UNL A   1      40.359  28.834  29.565  1.00  0.00     0.049 A 
ATOM     50  H   UNL A   1      42.192  28.723  28.585  1.00  0.00     0.167 HD
ATOM     51  C   UNL A   1      46.076  28.304  26.597  1.00  0.00     0.037 A 
ATOM     52  C   UNL A   1      40.250  30.085  30.051  1.00  0.00     0.037 A 
ATOM     53  C   UNL A   1      46.009  29.683  27.003  1.00  0.00     0.049 A 
ATOM     54  C   UNL A   1      41.370  31.066  29.819  1.00  0.00     0.074 A 
ATOM     55  C   UNL A   1      46.926  30.696  26.777  1.00  0.00     0.029 A 
ATOM     56  N   UNL A   1      44.967  30.243  27.727  1.00  0.00    -0.354 N 
ATOM     57  N   UNL A   1      42.496  30.901  29.170  1.00  0.00    -0.248 NA
ATOM     58  C   UNL A   1      41.200  32.412  30.386  1.00  0.00     0.031 C 
ATOM     59  C   UNL A   1      46.464  31.854  27.411  1.00  0.00     0.029 A 
ATOM     60  C   UNL A   1      45.231  31.579  27.983  1.00  0.00     0.049 A 
ATOM     61  H   UNL A   1      44.158  29.761  28.018  1.00  0.00     0.167 HD
ATOM     62  C   UNL A   1      43.153  32.123  29.224  1.00  0.00     0.074 A 
ATOM     63  C   UNL A   1      42.294  33.027  29.959  1.00  0.00     0.031 C 
ATOM     64  C   UNL A   1      44.360  32.468  28.710  1.00  0.00     0.037 A 
BRANCH  51  65
ATOM     65  C   UNL A   1      47.303  27.838  25.868  1.00  0.00     0.064 A 
ATOM     66  C   UNL A   1      48.465  27.447  26.551  1.00  0.00     0.173 A 
ATOM     67  C   UNL A   1      47.303  27.746  24.468  1.00  0.00     0.173 A 
ATOM     68  F   UNL A   1      48.521  27.527  27.889  1.00  0.00    -0.203 F 
ATOM     69  C   UNL A   1      49.588  27.003  25.858  1.00  0.00     0.198 A 
ATOM     70  C   UNL A   1      48.418  27.275  23.780  1.00  0.00     0.198 A 
ATOM     71  F   UNL A   1      46.218  28.105  23.766  1.00  0.00    -0.203 F 
ATOM     72  F   UNL A   1      50.701  26.676  26.529  1.00  0.00    -0.200 F 
ATOM     73  C   UNL A   1      49.561  26.910  24.474  1.00  0.00     0.200 A 
ATOM     74  F   UNL A   1      48.386  27.175  22.444  1.00  0.00    -0.200 F 
ATOM     75  F   UNL A   1      50.641  26.475  23.809  1.00  0.00    -0.200 F 
ENDBRANCH  51  65
BRANCH  52  76
ATOM     76  C   UNL A   1      39.039  30.481  30.818  1.00  0.00     0.064 A 
ATOM     77  C   UNL A   1      37.926  31.039  30.176  1.00  0.00     0.173 A 
ATOM     78  C   UNL A   1      38.980  30.327  32.211  1.00  0.00     0.173 A 
ATOM     79  F   UNL A   1      37.944  31.229  28.848  1.00  0.00    -0.203 F 
ATOM     80  C   UNL A   1      36.806  31.444  30.900  1.00  0.00     0.198 A 
ATOM     81  C   UNL A   1      37.849  30.705  32.930  1.00  0.00     0.198 A 
ATOM     82  F   UNL A   1      40.020  29.800  32.874  1.00  0.00    -0.203 F 
ATOM     83  F   UNL A   1      35.774  32.018  30.267  1.00  0.00    -0.200 F 
ATOM     84  C   UNL A   1      36.766  31.272  32.275  1.00  0.00     0.200 A 
ATOM     85  F   UNL A   1      37.810  30.524  34.257  1.00  0.00    -0.200 F 
ATOM     86  F   UNL A   1      35.687  31.658  32.970  1.00  0.00    -0.200 F 
ENDBRANCH  52  76
BRANCH  64  87
ATOM     87  C   UNL A   1      44.807  33.890  28.889  1.00  0.00     0.064 A 
ATOM     88  C   UNL A   1      44.460  34.894  27.973  1.00  0.00     0.173 A 
ATOM     89  C   UNL A   1      45.560  34.260  30.015  1.00  0.00     0.173 A 
ATOM     90  F   UNL A   1      43.754  34.590  26.874  1.00  0.00    -0.203 F 
ATOM     91  C   UNL A   1      44.872  36.211  28.164  1.00  0.00     0.198 A 
ATOM     92  C   UNL A   1      45.944  35.583  30.218  1.00  0.00     0.198 A 
ATOM     93  F   UNL A   1      45.913  33.340  30.925  1.00  0.00    -0.203 F 
ATOM     94  F   UNL A   1      44.570  37.144  27.251  1.00  0.00    -0.200 F 
ATOM     95  C   UNL A   1      45.607  36.555  29.290  1.00  0.00     0.200 A 
ATOM     96  F   UNL A   1      46.641  35.916  31.313  1.00  0.00    -0.200 F 
ATOM     97  F   UNL A   1      45.995  37.825  29.474  1.00  0.00    -0.200 F 
ENDBRANCH  64  87
ENDBRANCH  38  39
ENDBRANCH  31  33
ENDBRANCH  30  31
ENDBRANCH  29  30
ENDBRANCH  28  29
ENDBRANCH   1  28
TORSDOF 18
ENDMDL
MODEL 3
REMARK VINA RESULT:     -11.6      4.152      8.086
REMARK SMILES CCc1cc(OC(F)(F)F)cc2c1O[C@@H](C(F)(F)F)C(C(=O)OCCOCCOC(=O)c1ccc(-c3c4nc(c(-c5c(F)c(F)c(F)c(F)c5F)c5ccc([nH]5)c(-c5c(F)c(F)c(F)c(F)c5F)c5nc(c(-c6c(F)c(F)c(F)c(F)c6F)c6ccc3[nH]6)C=C5)C=C4)cc1)=C2
REMARK SMILES IDX 26 1 25 2 24 3 23 4 21 5 22 6 20 7 3 8 4 9 13 10 5 11 12 12
REMARK SMILES IDX 14 13 11 14 95 15 15 16 2 17 1 18 6 19 7 20 8 21 9 22 10 23
REMARK SMILES IDX 16 24 17 25 18 26 19 27 27 28 28 29 29 30 30 31 31 32 32 33
REMARK SMILES IDX 33 34 94 35 34 36 93 37 35 38 36 39 37 40 87 41 38 42 92 43
REMARK SMILES IDX 86 44 88 45 39 46 91 47 85 48 84 49 40 51 72 52 52 53 71 54
REMARK SMILES IDX 53 55 56 56 70 57 89 58 54 59 55 60 69 62 90 63 57 64 41 65
REMARK SMILES IDX 42 66 50 67 43 68 44 69 48 70 51 71 45 72 46 73 49 74 47 75
REMARK SMILES IDX 73 76 74 77 82 78 75 79 76 80 80 81 83 82 77 83 78 84 81 85
REMARK SMILES IDX 79 86 58 87 59 88 67 89 60 90 61 91 65 92 68 93 62 94 63 95
REMARK SMILES IDX 66 96 64 97
REMARK H PARENT 88 50 56 61
REMARK Flexibility Score: inf
ROOT
ATOM      1  O   UNL A   1      31.804  30.454  27.019  1.00  0.00    -0.374 OA
ENDROOT
BRANCH   1   2
ATOM      2  C   UNL A   1      32.921  29.760  26.470  1.00  0.00     0.202 C 
BRANCH   2   3
ATOM      3  C   UNL A   1      33.132  28.310  26.915  1.00  0.00     0.261 C 
BRANCH   3   4
ATOM      4  O   UNL A   1      32.276  27.403  26.203  1.00  0.00    -0.460 OA
BRANCH   4   5
ATOM      5  C   UNL A   1      32.627  27.190  24.913  1.00  0.00     0.338 C 
ATOM      6  O   UNL A   1      32.709  28.035  24.034  1.00  0.00    -0.246 OA
BRANCH   5   7
ATOM      7  C   UNL A   1      33.014  25.787  24.700  1.00  0.00     0.087 C 
ATOM      8  C   UNL A   1      33.394  21.636  24.845  1.00  0.00    -0.002 A 
ATOM      9  C   UNL A   1      34.613  21.072  25.257  1.00  0.00     0.054 A 
ATOM     10  C   UNL A   1      33.281  23.030  24.792  1.00  0.00     0.131 A 
ATOM     11  C   UNL A   1      35.694  21.882  25.612  1.00  0.00     0.130 A 
ATOM     12  C   UNL A   1      34.356  23.859  25.155  1.00  0.00     0.021 A 
ATOM     13  O   UNL A   1      32.058  23.554  24.453  1.00  0.00    -0.475 OA
ATOM     14  C   UNL A   1      35.565  23.275  25.544  1.00  0.00     0.058 A 
ATOM     15  C   UNL A   1      34.140  25.304  25.249  1.00  0.00     0.027 C 
ATOM     16  C   UNL A   1      32.114  24.886  23.886  1.00  0.00     0.316 C 
BRANCH   8  17
ATOM     17  C   UNL A   1      32.222  20.736  24.535  1.00  0.00     0.036 C 
ATOM     18  C   UNL A   1      32.568  19.272  24.772  1.00  0.00     0.009 C 
ENDBRANCH   8  17
BRANCH  11  19
ATOM     19  O   UNL A   1      36.912  21.444  26.053  1.00  0.00    -0.406 OA
BRANCH  19  20
ATOM     20  C   UNL A   1      37.901  21.167  25.071  1.00  0.00     0.573 C 
ATOM     21  F   UNL A   1      37.503  21.573  23.846  1.00  0.00    -0.132 F 
ATOM     22  F   UNL A   1      39.072  21.760  25.386  1.00  0.00    -0.132 F 
ATOM     23  F   UNL A   1      38.104  19.832  25.026  1.00  0.00    -0.132 F 
ENDBRANCH  19  20
ENDBRANCH  11  19
BRANCH  16  24
ATOM     24  C   UNL A   1      30.679  25.349  23.584  1.00  0.00     0.430 C 
ATOM     25  F   UNL A   1      29.933  24.335  23.085  1.00  0.00    -0.167 F 
ATOM     26  F   UNL A   1      30.063  25.729  24.737  1.00  0.00    -0.167 F 
ATOM     27  F   UNL A   1      30.619  26.398  22.742  1.00  0.00    -0.167 F 
ENDBRANCH  16  24
ENDBRANCH   5   7
ENDBRANCH   4   5
ENDBRANCH   3   4
ENDBRANCH   2   3
ENDBRANCH   1   2
BRANCH   1  28
ATOM     28  C   UNL A   1      31.341  31.623  26.347  1.00  0.00     0.202 C 
BRANCH  28  29
ATOM     29  C   UNL A   1      31.707  32.986  26.950  1.00  0.00     0.261 C 
BRANCH  29  30
ATOM     30  O   UNL A   1      33.117  33.262  26.888  1.00  0.00    -0.460 OA
BRANCH  30  31
ATOM     31  C   UNL A   1      33.637  33.805  28.014  1.00  0.00     0.338 C 
ATOM     32  O   UNL A   1      33.144  34.678  28.716  1.00  0.00    -0.246 OA
BRANCH  31  33
ATOM     33  C   UNL A   1      34.847  33.070  28.417  1.00  0.00     0.060 A 
ATOM     34  C   UNL A   1      34.702  31.723  28.775  1.00  0.00     0.016 A 
ATOM     35  C   UNL A   1      36.086  33.703  28.520  1.00  0.00     0.016 A 
ATOM     36  C   UNL A   1      35.789  31.012  29.275  1.00  0.00     0.010 A 
ATOM     37  C   UNL A   1      37.175  32.991  29.032  1.00  0.00     0.010 A 
ATOM     38  C   UNL A   1      37.025  31.653  29.441  1.00  0.00    -0.014 A 
BRANCH  38  39
ATOM     39  C   UNL A   1      38.122  30.958  30.156  1.00  0.00     0.031 A 
ATOM     40  C   UNL A   1      38.380  31.290  31.599  1.00  0.00     0.074 A 
ATOM     41  C   UNL A   1      38.863  30.028  29.531  1.00  0.00     0.049 A 
ATOM     42  N   UNL A   1      39.310  30.839  32.402  1.00  0.00    -0.248 NA
ATOM     43  C   UNL A   1      37.469  32.264  32.219  1.00  0.00     0.031 C 
ATOM     44  C   UNL A   1      38.680  29.594  28.147  1.00  0.00     0.029 A 
ATOM     45  N   UNL A   1      39.926  29.285  29.980  1.00  0.00    -0.354 N 
ATOM     46  C   UNL A   1      39.100  31.476  33.618  1.00  0.00     0.074 A 
ATOM     47  C   UNL A   1      37.974  32.368  33.440  1.00  0.00     0.031 C 
ATOM     48  C   UNL A   1      39.610  28.669  27.856  1.00  0.00     0.029 A 
ATOM     49  C   UNL A   1      40.471  28.470  29.020  1.00  0.00     0.049 A 
ATOM     50  H   UNL A   1      40.265  29.333  30.903  1.00  0.00     0.167 HD
ATOM     51  C   UNL A   1      39.781  31.323  34.778  1.00  0.00     0.037 A 
ATOM     52  C   UNL A   1      41.556  27.674  29.071  1.00  0.00     0.037 A 
ATOM     53  C   UNL A   1      40.899  30.433  34.950  1.00  0.00     0.049 A 
ATOM     54  C   UNL A   1      42.339  27.575  30.354  1.00  0.00     0.074 A 
ATOM     55  C   UNL A   1      41.642  30.191  36.093  1.00  0.00     0.029 A 
ATOM     56  N   UNL A   1      41.442  29.644  33.947  1.00  0.00    -0.354 N 
ATOM     57  N   UNL A   1      42.119  28.159  31.507  1.00  0.00    -0.248 NA
ATOM     58  C   UNL A   1      43.521  26.702  30.344  1.00  0.00     0.031 C 
ATOM     59  C   UNL A   1      42.667  29.296  35.767  1.00  0.00     0.029 A 
ATOM     60  C   UNL A   1      42.528  28.936  34.436  1.00  0.00     0.049 A 
ATOM     61  H   UNL A   1      41.105  29.595  33.022  1.00  0.00     0.167 HD
ATOM     62  C   UNL A   1      43.112  27.703  32.364  1.00  0.00     0.074 A 
ATOM     63  C   UNL A   1      43.930  26.783  31.602  1.00  0.00     0.031 C 
ATOM     64  C   UNL A   1      43.328  28.017  33.666  1.00  0.00     0.037 A 
BRANCH  51  65
ATOM     65  C   UNL A   1      39.351  32.156  35.951  1.00  0.00     0.064 A 
ATOM     66  C   UNL A   1      38.376  31.710  36.857  1.00  0.00     0.173 A 
ATOM     67  C   UNL A   1      39.950  33.401  36.194  1.00  0.00     0.173 A 
ATOM     68  F   UNL A   1      37.764  30.532  36.663  1.00  0.00    -0.203 F 
ATOM     69  C   UNL A   1      38.001  32.490  37.947  1.00  0.00     0.198 A 
ATOM     70  C   UNL A   1      39.594  34.166  37.301  1.00  0.00     0.198 A 
ATOM     71  F   UNL A   1      40.890  33.874  35.360  1.00  0.00    -0.203 F 
ATOM     72  F   UNL A   1      37.036  32.063  38.774  1.00  0.00    -0.200 F 
ATOM     73  C   UNL A   1      38.615  33.713  38.173  1.00  0.00     0.200 A 
ATOM     74  F   UNL A   1      40.196  35.342  37.524  1.00  0.00    -0.200 F 
ATOM     75  F   UNL A   1      38.259  34.460  39.228  1.00  0.00    -0.200 F 
ENDBRANCH  51  65
BRANCH  52  76
ATOM     76  C   UNL A   1      41.976  26.914  27.864  1.00  0.00     0.064 A 
ATOM     77  C   UNL A   1      42.845  27.476  26.919  1.00  0.00     0.173 A 
ATOM     78  C   UNL A   1      41.500  25.617  27.622  1.00  0.00     0.173 A 
ATOM     79  F   UNL A   1      43.307  28.724  27.094  1.00  0.00    -0.203 F 
ATOM     80  C   UNL A   1      43.208  26.777  25.770  1.00  0.00     0.198 A 
ATOM     81  C   UNL A   1      41.887  24.907  26.487  1.00  0.00     0.198 A 
ATOM     82  F   UNL A   1      40.665  25.033  28.494  1.00  0.00    -0.203 F 
ATOM     83  F   UNL A   1      44.002  27.357  24.860  1.00  0.00    -0.200 F 
ATOM     84  C   UNL A   1      42.734  25.492  25.557  1.00  0.00     0.200 A 
ATOM     85  F   UNL A   1      41.437  23.660  26.293  1.00  0.00    -0.200 F 
ATOM     86  F   UNL A   1      43.087  24.819  24.453  1.00  0.00    -0.200 F 
ENDBRANCH  52  76
BRANCH  64  87
ATOM     87  C   UNL A   1      44.468  27.332  34.362  1.00  0.00     0.064 A 
ATOM     88  C   UNL A   1      45.738  27.922  34.454  1.00  0.00     0.173 A 
ATOM     89  C   UNL A   1      44.276  26.086  34.980  1.00  0.00     0.173 A 
ATOM     90  F   UNL A   1      45.977  29.104  33.868  1.00  0.00    -0.203 F 
ATOM     91  C   UNL A   1      46.780  27.277  35.116  1.00  0.00     0.198 A 
ATOM     92  C   UNL A   1      45.312  25.460  35.668  1.00  0.00     0.198 A 
ATOM     93  F   UNL A   1      43.080  25.482  34.927  1.00  0.00    -0.203 F 
ATOM     94  F   UNL A   1      47.997  27.837  35.150  1.00  0.00    -0.200 F 
ATOM     95  C   UNL A   1      46.564  26.051  35.729  1.00  0.00     0.200 A 
ATOM     96  F   UNL A   1      45.097  24.282  36.271  1.00  0.00    -0.200 F 
ATOM     97  F   UNL A   1      47.567  25.437  36.372  1.00  0.00    -0.200 F 
ENDBRANCH  64  87
ENDBRANCH  38  39
ENDBRANCH  31  33
ENDBRANCH  30  31
ENDBRANCH  29  30
ENDBRANCH  28  29
ENDBRANCH   1  28
TORSDOF 18
ENDMDL
