MODEL 1
REMARK VINA RESULT:     -12.4      0.000      0.000
REMARK SMILES Cc1ccc(N2C(=O)N[C@@H]3CCN(C(=O)CC4(CC(=O)OCCOCCOC(=O)c5ccc(-c6c7nc(c(-c8c(F)c(F)c(F)c(F)c8F)c8ccc([nH]8)c(-c8c(F)c(F)c(F)c(F)c8F)c8nc(c(-c9c(F)c(F)c(F)c(F)c9F)c9ccc6[nH]9)C=C8)C=C7)cc5)CCCC4)[C@@H]3C2=O)cc1
REMARK SMILES IDX 22 1 21 2 19 3 20 4 18 5 17 6 93 7 96 8 94 9 95 10 16 11
REMARK SMILES IDX 14 12 15 13 13 14 6 15 7 16 98 17 8 18 9 19 97 20 99 21
REMARK SMILES IDX 10 22 11 24 12 25 5 26 1 27 2 28 3 29 101 30 4 31 100 32
REMARK SMILES IDX 23 33 24 34 25 35 26 36 27 37 28 38 29 39 30 40 31 41 92 42
REMARK SMILES IDX 32 43 91 44 33 45 34 46 35 47 85 48 36 49 90 50 84 51 86 52
REMARK SMILES IDX 37 53 89 54 83 55 82 56 38 58 70 59 50 60 69 61 51 62 54 63
REMARK SMILES IDX 68 64 87 65 52 66 53 67 67 69 88 70 55 71 39 72 40 73 48 74
REMARK SMILES IDX 41 75 42 76 46 77 49 78 43 79 44 80 47 81 45 82 71 83 72 84
REMARK SMILES IDX 80 85 73 86 74 87 78 88 81 89 75 90 76 91 79 92 77 93 56 94
REMARK SMILES IDX 57 95 65 96 58 97 59 98 63 99 66 100 60 101 61 102 64 103
REMARK SMILES IDX 62 104
REMARK H PARENT 9 23 86 57 54 68
REMARK Flexibility Score: inf
ROOT
ATOM      1  C   UNL A   1      32.464  31.021  26.846  1.00  0.00     0.261 C 
ENDROOT
BRANCH   1   2
ATOM      2  O   UNL A   1      32.608  29.627  27.076  1.00  0.00    -0.463 OA
BRANCH   2   3
ATOM      3  C   UNL A   1      33.263  28.820  26.185  1.00  0.00     0.306 C 
ATOM      4  O   UNL A   1      33.910  27.835  26.450  1.00  0.00    -0.252 OA
BRANCH   3   5
ATOM      5  C   UNL A   1      33.018  29.376  24.782  1.00  0.00     0.130 C 
BRANCH   5   6
ATOM      6  C   UNL A   1      32.366  28.297  23.846  1.00  0.00    -0.011 C 
ATOM      7  C   UNL A   1      31.646  28.971  22.665  1.00  0.00     0.008 C 
ATOM      8  C   UNL A   1      31.170  27.627  24.632  1.00  0.00     0.008 C 
ATOM      9  C   UNL A   1      30.249  29.289  23.185  1.00  0.00     0.001 C 
ATOM     10  C   UNL A   1      29.872  28.043  23.959  1.00  0.00     0.001 C 
BRANCH   6  11
ATOM     11  C   UNL A   1      33.513  27.301  23.456  1.00  0.00     0.107 C 
BRANCH  11  12
ATOM     12  C   UNL A   1      33.271  25.986  22.760  1.00  0.00     0.223 C 
ATOM     13  O   UNL A   1      33.655  25.802  21.605  1.00  0.00    -0.275 OA
BRANCH  12  14
ATOM     14  N   UNL A   1      32.691  24.988  23.497  1.00  0.00    -0.328 N 
ATOM     15  N   UNL A   1      34.885  23.052  25.636  1.00  0.00    -0.230 N 
ATOM     16  C   UNL A   1      33.954  22.288  26.321  1.00  0.00     0.329 C 
ATOM     17  C   UNL A   1      34.569  24.054  24.726  1.00  0.00     0.260 C 
ATOM     18  O   UNL A   1      34.190  21.292  27.002  1.00  0.00    -0.248 OA
ATOM     19  N   UNL A   1      32.657  22.702  26.265  1.00  0.00    -0.332 N 
ATOM     20  C   UNL A   1      33.176  24.678  24.838  1.00  0.00     0.197 C 
ATOM     21  O   UNL A   1      35.376  24.441  23.872  1.00  0.00    -0.271 OA
ATOM     22  C   UNL A   1      32.140  23.708  25.389  1.00  0.00     0.118 C 
ATOM     23  H   UNL A   1      32.021  22.273  26.882  1.00  0.00     0.165 HD
ATOM     24  C   UNL A   1      31.518  23.074  24.147  1.00  0.00     0.049 C 
ATOM     25  C   UNL A   1      31.531  24.201  23.145  1.00  0.00     0.122 C 
BRANCH  15  26
ATOM     26  C   UNL A   1      36.274  22.773  25.803  1.00  0.00     0.054 A 
ATOM     27  C   UNL A   1      40.473  21.867  26.077  1.00  0.00     0.044 C 
ATOM     28  C   UNL A   1      39.007  22.168  26.002  1.00  0.00    -0.051 A 
ATOM     29  C   UNL A   1      38.507  23.379  26.499  1.00  0.00     0.005 A 
ATOM     30  C   UNL A   1      38.123  21.240  25.446  1.00  0.00     0.005 A 
ATOM     31  C   UNL A   1      37.151  23.691  26.383  1.00  0.00     0.027 A 
ATOM     32  C   UNL A   1      36.766  21.534  25.363  1.00  0.00     0.027 A 
ENDBRANCH  15  26
ENDBRANCH  12  14
ENDBRANCH  11  12
ENDBRANCH   6  11
ENDBRANCH   5   6
ENDBRANCH   3   5
ENDBRANCH   2   3
ENDBRANCH   1   2
BRANCH   1  33
ATOM     33  C   UNL A   1      33.448  31.850  27.603  1.00  0.00     0.202 C 
BRANCH  33  34
ATOM     34  O   UNL A   1      32.784  33.068  27.881  1.00  0.00    -0.374 OA
BRANCH  34  35
ATOM     35  C   UNL A   1      33.612  34.214  27.966  1.00  0.00     0.202 C 
BRANCH  35  36
ATOM     36  C   UNL A   1      33.393  35.064  29.230  1.00  0.00     0.261 C 
BRANCH  36  37
ATOM     37  O   UNL A   1      33.353  34.204  30.392  1.00  0.00    -0.460 OA
BRANCH  37  38
ATOM     38  C   UNL A   1      34.437  34.230  31.221  1.00  0.00     0.338 C 
ATOM     39  O   UNL A   1      34.796  35.188  31.886  1.00  0.00    -0.246 OA
BRANCH  38  40
ATOM     40  C   UNL A   1      35.321  33.057  30.913  1.00  0.00     0.060 A 
ATOM     41  C   UNL A   1      35.345  31.942  31.777  1.00  0.00     0.016 A 
ATOM     42  C   UNL A   1      36.366  33.246  30.014  1.00  0.00     0.016 A 
ATOM     43  C   UNL A   1      36.484  31.114  31.850  1.00  0.00     0.010 A 
ATOM     44  C   UNL A   1      37.517  32.498  30.168  1.00  0.00     0.010 A 
ATOM     45  C   UNL A   1      37.612  31.447  31.107  1.00  0.00    -0.014 A 
BRANCH  45  46
ATOM     46  C   UNL A   1      38.978  30.904  31.274  1.00  0.00     0.031 A 
ATOM     47  C   UNL A   1      39.308  29.662  30.534  1.00  0.00     0.074 A 
ATOM     48  C   UNL A   1      40.009  31.621  31.798  1.00  0.00     0.049 A 
ATOM     49  N   UNL A   1      40.414  29.016  30.649  1.00  0.00    -0.248 NA
ATOM     50  C   UNL A   1      38.390  29.030  29.596  1.00  0.00     0.031 C 
ATOM     51  C   UNL A   1      41.442  31.472  31.509  1.00  0.00     0.029 A 
ATOM     52  N   UNL A   1      40.007  32.680  32.722  1.00  0.00    -0.354 N 
ATOM     53  C   UNL A   1      40.504  28.133  29.599  1.00  0.00     0.074 A 
ATOM     54  C   UNL A   1      39.185  28.130  29.018  1.00  0.00     0.031 C 
ATOM     55  C   UNL A   1      42.161  32.152  32.417  1.00  0.00     0.029 A 
ATOM     56  C   UNL A   1      41.235  32.641  33.414  1.00  0.00     0.049 A 
ATOM     57  H   UNL A   1      39.280  33.330  32.860  1.00  0.00     0.167 HD
ATOM     58  C   UNL A   1      41.729  27.605  29.301  1.00  0.00     0.037 A 
ATOM     59  C   UNL A   1      41.256  32.457  34.762  1.00  0.00     0.037 A 
ATOM     60  C   UNL A   1      42.735  28.027  30.302  1.00  0.00     0.049 A 
ATOM     61  C   UNL A   1      41.878  31.124  35.086  1.00  0.00     0.074 A 
ATOM     62  C   UNL A   1      43.800  28.913  30.326  1.00  0.00     0.029 A 
ATOM     63  N   UNL A   1      42.496  27.721  31.636  1.00  0.00    -0.354 N 
ATOM     64  N   UNL A   1      42.510  30.392  34.209  1.00  0.00    -0.248 NA
ATOM     65  C   UNL A   1      41.743  30.452  36.372  1.00  0.00     0.031 C 
ATOM     66  C   UNL A   1      44.180  29.128  31.694  1.00  0.00     0.029 A 
ATOM     67  C   UNL A   1      43.370  28.352  32.505  1.00  0.00     0.049 A 
ATOM     68  H   UNL A   1      41.777  27.119  31.934  1.00  0.00     0.167 HD
ATOM     69  C   UNL A   1      42.721  29.146  34.708  1.00  0.00     0.074 A 
ATOM     70  C   UNL A   1      42.247  29.239  36.083  1.00  0.00     0.031 C 
ATOM     71  C   UNL A   1      43.210  28.121  33.943  1.00  0.00     0.037 A 
BRANCH  58  72
ATOM     72  C   UNL A   1      42.066  26.854  28.019  1.00  0.00     0.064 A 
ATOM     73  C   UNL A   1      42.423  25.488  28.060  1.00  0.00     0.173 A 
ATOM     74  C   UNL A   1      42.090  27.403  26.716  1.00  0.00     0.173 A 
ATOM     75  F   UNL A   1      42.364  24.788  29.200  1.00  0.00    -0.203 F 
ATOM     76  C   UNL A   1      42.843  24.776  26.927  1.00  0.00     0.198 A 
ATOM     77  C   UNL A   1      42.558  26.710  25.594  1.00  0.00     0.198 A 
ATOM     78  F   UNL A   1      41.585  28.604  26.437  1.00  0.00    -0.203 F 
ATOM     79  F   UNL A   1      43.154  23.477  27.038  1.00  0.00    -0.200 F 
ATOM     80  C   UNL A   1      42.938  25.395  25.699  1.00  0.00     0.200 A 
ATOM     81  F   UNL A   1      42.609  27.333  24.407  1.00  0.00    -0.200 F 
ATOM     82  F   UNL A   1      43.356  24.723  24.619  1.00  0.00    -0.200 F 
ENDBRANCH  58  72
BRANCH  59  83
ATOM     83  C   UNL A   1      40.064  33.116  35.389  1.00  0.00     0.064 A 
ATOM     84  C   UNL A   1      38.988  32.267  35.743  1.00  0.00     0.173 A 
ATOM     85  C   UNL A   1      40.198  34.313  36.108  1.00  0.00     0.173 A 
ATOM     86  F   UNL A   1      38.814  31.101  35.100  1.00  0.00    -0.203 F 
ATOM     87  C   UNL A   1      38.211  32.514  36.874  1.00  0.00     0.198 A 
ATOM     88  C   UNL A   1      39.398  34.564  37.227  1.00  0.00     0.198 A 
ATOM     89  F   UNL A   1      41.204  35.155  35.838  1.00  0.00    -0.203 F 
ATOM     90  F   UNL A   1      37.327  31.596  37.294  1.00  0.00    -0.200 F 
ATOM     91  C   UNL A   1      38.446  33.643  37.639  1.00  0.00     0.200 A 
ATOM     92  F   UNL A   1      39.633  35.647  37.983  1.00  0.00    -0.200 F 
ATOM     93  F   UNL A   1      37.806  33.807  38.806  1.00  0.00    -0.200 F 
ENDBRANCH  59  83
BRANCH  71  94
ATOM     94  C   UNL A   1      43.505  26.769  34.536  1.00  0.00     0.064 A 
ATOM     95  C   UNL A   1      42.478  25.868  34.865  1.00  0.00     0.173 A 
ATOM     96  C   UNL A   1      44.812  26.346  34.859  1.00  0.00     0.173 A 
ATOM     97  F   UNL A   1      41.188  26.223  34.761  1.00  0.00    -0.203 F 
ATOM     98  C   UNL A   1      42.749  24.581  35.326  1.00  0.00     0.198 A 
ATOM     99  C   UNL A   1      45.076  25.085  35.386  1.00  0.00     0.198 A 
ATOM    100  F   UNL A   1      45.885  27.120  34.660  1.00  0.00    -0.203 F 
ATOM    101  F   UNL A   1      41.739  23.721  35.517  1.00  0.00    -0.200 F 
ATOM    102  C   UNL A   1      44.048  24.188  35.580  1.00  0.00     0.200 A 
ATOM    103  F   UNL A   1      46.337  24.745  35.683  1.00  0.00    -0.200 F 
ATOM    104  F   UNL A   1      44.310  22.951  36.020  1.00  0.00    -0.200 F 
ENDBRANCH  71  94
ENDBRANCH  45  46
ENDBRANCH  38  40
ENDBRANCH  37  38
ENDBRANCH  36  37
ENDBRANCH  35  36
ENDBRANCH  34  35
ENDBRANCH  33  34
ENDBRANCH   1  33
TORSDOF 19
ENDMDL
MODEL 2
REMARK VINA RESULT:     -12.3      1.309      2.127
REMARK SMILES Cc1ccc(N2C(=O)N[C@@H]3CCN(C(=O)CC4(CC(=O)OCCOCCOC(=O)c5ccc(-c6c7nc(c(-c8c(F)c(F)c(F)c(F)c8F)c8ccc([nH]8)c(-c8c(F)c(F)c(F)c(F)c8F)c8nc(c(-c9c(F)c(F)c(F)c(F)c9F)c9ccc6[nH]9)C=C8)C=C7)cc5)CCCC4)[C@@H]3C2=O)cc1
REMARK SMILES IDX 22 1 21 2 19 3 20 4 18 5 17 6 93 7 96 8 94 9 95 10 16 11
REMARK SMILES IDX 14 12 15 13 13 14 6 15 7 16 98 17 8 18 9 19 97 20 99 21
REMARK SMILES IDX 10 22 11 24 12 25 5 26 1 27 2 28 3 29 101 30 4 31 100 32
REMARK SMILES IDX 23 33 24 34 25 35 26 36 27 37 28 38 29 39 30 40 31 41 92 42
REMARK SMILES IDX 32 43 91 44 33 45 34 46 35 47 85 48 36 49 90 50 84 51 86 52
REMARK SMILES IDX 37 53 89 54 83 55 82 56 38 58 70 59 50 60 69 61 51 62 54 63
REMARK SMILES IDX 68 64 87 65 52 66 53 67 67 69 88 70 55 71 39 72 40 73 48 74
REMARK SMILES IDX 41 75 42 76 46 77 49 78 43 79 44 80 47 81 45 82 71 83 72 84
REMARK SMILES IDX 80 85 73 86 74 87 78 88 81 89 75 90 76 91 79 92 77 93 56 94
REMARK SMILES IDX 57 95 65 96 58 97 59 98 63 99 66 100 60 101 61 102 64 103
REMARK SMILES IDX 62 104
REMARK H PARENT 9 23 86 57 54 68
REMARK Flexibility Score: inf
ROOT
ATOM      1  C   UNL A   1      34.026  32.174  28.360  1.00  0.00     0.261 C 
ENDROOT
BRANCH   1   2
ATOM      2  O   UNL A   1      34.257  31.347  27.229  1.00  0.00    -0.463 OA
BRANCH   2   3
ATOM      3  C   UNL A   1      33.637  30.133  27.093  1.00  0.00     0.306 C 
ATOM      4  O   UNL A   1      33.861  29.136  27.738  1.00  0.00    -0.252 OA
BRANCH   3   5
ATOM      5  C   UNL A   1      32.590  30.263  25.986  1.00  0.00     0.130 C 
BRANCH   5   6
ATOM      6  C   UNL A   1      32.370  28.896  25.246  1.00  0.00    -0.011 C 
ATOM      7  C   UNL A   1      33.714  28.187  25.010  1.00  0.00     0.008 C 
ATOM      8  C   UNL A   1      31.890  29.209  23.773  1.00  0.00     0.008 C 
ATOM      9  C   UNL A   1      34.233  28.755  23.694  1.00  0.00     0.001 C 
ATOM     10  C   UNL A   1      32.998  28.795  22.819  1.00  0.00     0.001 C 
BRANCH   6  11
ATOM     11  C   UNL A   1      31.327  28.095  26.102  1.00  0.00     0.107 C 
BRANCH  11  12
ATOM     12  C   UNL A   1      31.289  26.590  26.170  1.00  0.00     0.223 C 
ATOM     13  O   UNL A   1      31.507  26.000  27.229  1.00  0.00    -0.275 OA
BRANCH  12  14
ATOM     14  N   UNL A   1      30.916  25.922  25.035  1.00  0.00    -0.328 N 
ATOM     15  N   UNL A   1      32.992  23.128  24.026  1.00  0.00    -0.230 N 
ATOM     16  C   UNL A   1      32.235  22.620  22.982  1.00  0.00     0.329 C 
ATOM     17  C   UNL A   1      32.603  24.182  24.843  1.00  0.00     0.260 C 
ATOM     18  O   UNL A   1      32.611  21.806  22.140  1.00  0.00    -0.248 OA
ATOM     19  N   UNL A   1      30.939  23.033  22.903  1.00  0.00    -0.332 N 
ATOM     20  C   UNL A   1      31.104  24.479  24.926  1.00  0.00     0.197 C 
ATOM     21  O   UNL A   1      33.422  24.846  25.489  1.00  0.00    -0.271 OA
ATOM     22  C   UNL A   1      30.359  24.105  23.653  1.00  0.00     0.118 C 
ATOM     23  H   UNL A   1      30.351  22.552  22.278  1.00  0.00     0.165 HD
ATOM     24  C   UNL A   1      30.346  25.393  22.831  1.00  0.00     0.049 C 
ATOM     25  C   UNL A   1      30.235  26.468  23.882  1.00  0.00     0.122 C 
BRANCH  15  26
ATOM     26  C   UNL A   1      34.295  22.598  24.264  1.00  0.00     0.054 A 
ATOM     27  C   UNL A   1      38.133  20.780  24.961  1.00  0.00     0.044 C 
ATOM     28  C   UNL A   1      36.799  21.426  24.739  1.00  0.00    -0.051 A 
ATOM     29  C   UNL A   1      36.666  22.474  23.818  1.00  0.00     0.005 A 
ATOM     30  C   UNL A   1      35.680  20.998  25.457  1.00  0.00     0.005 A 
ATOM     31  C   UNL A   1      35.417  23.045  23.565  1.00  0.00     0.027 A 
ATOM     32  C   UNL A   1      34.441  21.592  25.232  1.00  0.00     0.027 A 
ENDBRANCH  15  26
ENDBRANCH  12  14
ENDBRANCH  11  12
ENDBRANCH   6  11
ENDBRANCH   5   6
ENDBRANCH   3   5
ENDBRANCH   2   3
ENDBRANCH   1   2
BRANCH   1  33
ATOM     33  C   UNL A   1      33.894  33.620  28.017  1.00  0.00     0.202 C 
BRANCH  33  34
ATOM     34  O   UNL A   1      32.922  34.133  28.909  1.00  0.00    -0.374 OA
BRANCH  34  35
ATOM     35  C   UNL A   1      32.909  35.541  29.060  1.00  0.00     0.202 C 
BRANCH  35  36
ATOM     36  C   UNL A   1      32.931  36.025  30.520  1.00  0.00     0.261 C 
BRANCH  36  37
ATOM     37  O   UNL A   1      33.102  34.892  31.404  1.00  0.00    -0.460 OA
BRANCH  37  38
ATOM     38  C   UNL A   1      34.246  34.851  32.145  1.00  0.00     0.338 C 
ATOM     39  O   UNL A   1      34.678  35.763  32.832  1.00  0.00    -0.246 OA
BRANCH  38  40
ATOM     40  C   UNL A   1      35.078  33.682  31.704  1.00  0.00     0.060 A 
ATOM     41  C   UNL A   1      35.116  32.506  32.484  1.00  0.00     0.016 A 
ATOM     42  C   UNL A   1      36.077  33.910  30.764  1.00  0.00     0.016 A 
ATOM     43  C   UNL A   1      36.233  31.647  32.432  1.00  0.00     0.010 A 
ATOM     44  C   UNL A   1      37.213  33.123  30.799  1.00  0.00     0.010 A 
ATOM     45  C   UNL A   1      37.328  32.005  31.653  1.00  0.00    -0.014 A 
BRANCH  45  46
ATOM     46  C   UNL A   1      38.684  31.416  31.703  1.00  0.00     0.031 A 
ATOM     47  C   UNL A   1      38.919  30.188  30.905  1.00  0.00     0.074 A 
ATOM     48  C   UNL A   1      39.773  32.086  32.170  1.00  0.00     0.049 A 
ATOM     49  N   UNL A   1      40.010  29.506  30.920  1.00  0.00    -0.248 NA
ATOM     50  C   UNL A   1      37.916  29.613  30.021  1.00  0.00     0.031 C 
ATOM     51  C   UNL A   1      41.175  31.903  31.772  1.00  0.00     0.029 A 
ATOM     52  N   UNL A   1      39.872  33.115  33.121  1.00  0.00    -0.354 N 
ATOM     53  C   UNL A   1      39.994  28.653  29.842  1.00  0.00     0.074 A 
ATOM     54  C   UNL A   1      38.637  28.707  29.360  1.00  0.00     0.031 C 
ATOM     55  C   UNL A   1      41.980  32.533  32.643  1.00  0.00     0.029 A 
ATOM     56  C   UNL A   1      41.146  33.019  33.720  1.00  0.00     0.049 A 
ATOM     57  H   UNL A   1      39.179  33.782  33.331  1.00  0.00     0.167 HD
ATOM     58  C   UNL A   1      41.177  28.099  29.439  1.00  0.00     0.037 A 
ATOM     59  C   UNL A   1      41.259  32.793  35.056  1.00  0.00     0.037 A 
ATOM     60  C   UNL A   1      42.266  28.459  30.375  1.00  0.00     0.049 A 
ATOM     61  C   UNL A   1      41.859  31.432  35.295  1.00  0.00     0.074 A 
ATOM     62  C   UNL A   1      43.358  29.313  30.346  1.00  0.00     0.029 A 
ATOM     63  N   UNL A   1      42.115  28.120  31.714  1.00  0.00    -0.354 N 
ATOM     64  N   UNL A   1      42.403  30.709  34.354  1.00  0.00    -0.248 NA
ATOM     65  C   UNL A   1      41.797  30.725  36.568  1.00  0.00     0.031 C 
ATOM     66  C   UNL A   1      43.843  29.473  31.688  1.00  0.00     0.029 A 
ATOM     67  C   UNL A   1      43.070  28.698  32.533  1.00  0.00     0.049 A 
ATOM     68  H   UNL A   1      41.401  27.530  32.047  1.00  0.00     0.167 HD
ATOM     69  C   UNL A   1      42.609  29.442  34.800  1.00  0.00     0.074 A 
ATOM     70  C   UNL A   1      42.240  29.507  36.209  1.00  0.00     0.031 C 
ATOM     71  C   UNL A   1      43.008  28.427  33.973  1.00  0.00     0.037 A 
BRANCH  58  72
ATOM     72  C   UNL A   1      41.395  27.378  28.115  1.00  0.00     0.064 A 
ATOM     73  C   UNL A   1      41.038  26.019  27.970  1.00  0.00     0.173 A 
ATOM     74  C   UNL A   1      41.972  27.935  26.951  1.00  0.00     0.173 A 
ATOM     75  F   UNL A   1      40.396  25.361  28.944  1.00  0.00    -0.203 F 
ATOM     76  C   UNL A   1      41.312  25.279  26.811  1.00  0.00     0.198 A 
ATOM     77  C   UNL A   1      42.294  27.186  25.813  1.00  0.00     0.198 A 
ATOM     78  F   UNL A   1      42.179  29.243  26.812  1.00  0.00    -0.203 F 
ATOM     79  F   UNL A   1      40.932  23.996  26.738  1.00  0.00    -0.200 F 
ATOM     80  C   UNL A   1      41.966  25.855  25.743  1.00  0.00     0.200 A 
ATOM     81  F   UNL A   1      42.903  27.785  24.778  1.00  0.00    -0.200 F 
ATOM     82  F   UNL A   1      42.245  25.146  24.642  1.00  0.00    -0.200 F 
ENDBRANCH  58  72
BRANCH  59  83
ATOM     83  C   UNL A   1      40.138  33.467  35.788  1.00  0.00     0.064 A 
ATOM     84  C   UNL A   1      39.073  32.637  36.215  1.00  0.00     0.173 A 
ATOM     85  C   UNL A   1      40.357  34.648  36.512  1.00  0.00     0.173 A 
ATOM     86  F   UNL A   1      38.820  31.486  35.570  1.00  0.00    -0.203 F 
ATOM     87  C   UNL A   1      38.396  32.881  37.409  1.00  0.00     0.198 A 
ATOM     88  C   UNL A   1      39.656  34.898  37.696  1.00  0.00     0.198 A 
ATOM     89  F   UNL A   1      41.358  35.472  36.175  1.00  0.00    -0.203 F 
ATOM     90  F   UNL A   1      37.527  31.976  37.886  1.00  0.00    -0.200 F 
ATOM     91  C   UNL A   1      38.719  33.991  38.169  1.00  0.00     0.200 A 
ATOM     92  F   UNL A   1      39.978  35.962  38.447  1.00  0.00    -0.200 F 
ATOM     93  F   UNL A   1      38.180  34.150  39.387  1.00  0.00    -0.200 F 
ENDBRANCH  59  83
BRANCH  71  94
ATOM     94  C   UNL A   1      43.302  27.049  34.503  1.00  0.00     0.064 A 
ATOM     95  C   UNL A   1      44.617  26.574  34.634  1.00  0.00     0.173 A 
ATOM     96  C   UNL A   1      42.285  26.129  34.837  1.00  0.00     0.173 A 
ATOM     97  F   UNL A   1      45.659  27.293  34.190  1.00  0.00    -0.203 F 
ATOM     98  C   UNL A   1      44.898  25.336  35.210  1.00  0.00     0.198 A 
ATOM     99  C   UNL A   1      42.567  24.865  35.348  1.00  0.00     0.198 A 
ATOM    100  F   UNL A   1      40.985  26.417  34.707  1.00  0.00    -0.203 F 
ATOM    101  F   UNL A   1      46.172  24.977  35.417  1.00  0.00    -0.200 F 
ATOM    102  C   UNL A   1      43.872  24.485  35.572  1.00  0.00     0.200 A 
ATOM    103  F   UNL A   1      41.560  24.030  35.636  1.00  0.00    -0.200 F 
ATOM    104  F   UNL A   1      44.141  23.298  36.130  1.00  0.00    -0.200 F 
ENDBRANCH  71  94
ENDBRANCH  45  46
ENDBRANCH  38  40
ENDBRANCH  37  38
ENDBRANCH  36  37
ENDBRANCH  35  36
ENDBRANCH  34  35
ENDBRANCH  33  34
ENDBRANCH   1  33
TORSDOF 19
ENDMDL
MODEL 3
REMARK VINA RESULT:     -12.2      4.055     10.497
REMARK SMILES Cc1ccc(N2C(=O)N[C@@H]3CCN(C(=O)CC4(CC(=O)OCCOCCOC(=O)c5ccc(-c6c7nc(c(-c8c(F)c(F)c(F)c(F)c8F)c8ccc([nH]8)c(-c8c(F)c(F)c(F)c(F)c8F)c8nc(c(-c9c(F)c(F)c(F)c(F)c9F)c9ccc6[nH]9)C=C8)C=C7)cc5)CCCC4)[C@@H]3C2=O)cc1
REMARK SMILES IDX 22 1 21 2 19 3 20 4 18 5 17 6 93 7 96 8 94 9 95 10 16 11
REMARK SMILES IDX 14 12 15 13 13 14 6 15 7 16 98 17 8 18 9 19 97 20 99 21
REMARK SMILES IDX 10 22 11 24 12 25 5 26 1 27 2 28 3 29 101 30 4 31 100 32
REMARK SMILES IDX 23 33 24 34 25 35 26 36 27 37 28 38 29 39 30 40 31 41 92 42
REMARK SMILES IDX 32 43 91 44 33 45 34 46 35 47 85 48 36 49 90 50 84 51 86 52
REMARK SMILES IDX 37 53 89 54 83 55 82 56 38 58 70 59 50 60 69 61 51 62 54 63
REMARK SMILES IDX 68 64 87 65 52 66 53 67 67 69 88 70 55 71 39 72 40 73 48 74
REMARK SMILES IDX 41 75 42 76 46 77 49 78 43 79 44 80 47 81 45 82 71 83 72 84
REMARK SMILES IDX 80 85 73 86 74 87 78 88 81 89 75 90 76 91 79 92 77 93 56 94
REMARK SMILES IDX 57 95 65 96 58 97 59 98 63 99 66 100 60 101 61 102 64 103
REMARK SMILES IDX 62 104
REMARK H PARENT 9 23 86 57 54 68
REMARK Flexibility Score: inf
ROOT
ATOM      1  C   UNL A   1      38.393  21.800  25.740  1.00  0.00     0.261 C 
ENDROOT
BRANCH   1   2
ATOM      2  O   UNL A   1      36.992  21.617  25.876  1.00  0.00    -0.463 OA
BRANCH   2   3
ATOM      3  C   UNL A   1      36.104  22.586  25.493  1.00  0.00     0.306 C 
ATOM      4  O   UNL A   1      36.040  23.713  25.924  1.00  0.00    -0.252 OA
BRANCH   3   5
ATOM      5  C   UNL A   1      35.209  21.996  24.402  1.00  0.00     0.130 C 
BRANCH   5   6
ATOM      6  C   UNL A   1      33.768  21.693  24.948  1.00  0.00    -0.011 C 
ATOM      7  C   UNL A   1      33.774  20.419  25.809  1.00  0.00     0.008 C 
ATOM      8  C   UNL A   1      32.861  21.269  23.725  1.00  0.00     0.008 C 
ATOM      9  C   UNL A   1      33.583  19.275  24.820  1.00  0.00     0.001 C 
ATOM     10  C   UNL A   1      32.516  19.798  23.882  1.00  0.00     0.001 C 
BRANCH   6  11
ATOM     11  C   UNL A   1      33.291  22.997  25.677  1.00  0.00     0.107 C 
BRANCH  11  12
ATOM     12  C   UNL A   1      32.058  23.769  25.279  1.00  0.00     0.223 C 
ATOM     13  O   UNL A   1      31.045  23.745  25.977  1.00  0.00    -0.275 OA
BRANCH  12  14
ATOM     14  N   UNL A   1      32.150  24.560  24.165  1.00  0.00    -0.328 N 
ATOM     15  N   UNL A   1      33.443  27.912  24.644  1.00  0.00    -0.230 N 
ATOM     16  C   UNL A   1      33.547  28.329  23.327  1.00  0.00     0.329 C 
ATOM     17  C   UNL A   1      33.069  26.633  25.040  1.00  0.00     0.260 C 
ATOM     18  O   UNL A   1      33.713  29.485  22.941  1.00  0.00    -0.248 OA
ATOM     19  N   UNL A   1      33.498  27.362  22.369  1.00  0.00    -0.332 N 
ATOM     20  C   UNL A   1      33.249  25.509  24.017  1.00  0.00     0.197 C 
ATOM     21  O   UNL A   1      32.624  26.403  26.171  1.00  0.00    -0.271 OA
ATOM     22  C   UNL A   1      33.124  25.997  22.581  1.00  0.00     0.118 C 
ATOM     23  H   UNL A   1      33.741  27.624  21.452  1.00  0.00     0.165 HD
ATOM     24  C   UNL A   1      31.652  25.780  22.235  1.00  0.00     0.049 C 
ATOM     25  C   UNL A   1      31.305  24.524  22.993  1.00  0.00     0.122 C 
BRANCH  15  26
ATOM     26  C   UNL A   1      33.666  28.853  25.693  1.00  0.00     0.054 A 
ATOM     27  C   UNL A   1      34.558  31.728  28.769  1.00  0.00     0.044 C 
ATOM     28  C   UNL A   1      34.240  30.710  27.716  1.00  0.00    -0.051 A 
ATOM     29  C   UNL A   1      33.040  30.788  26.996  1.00  0.00     0.005 A 
ATOM     30  C   UNL A   1      35.132  29.669  27.449  1.00  0.00     0.005 A 
ATOM     31  C   UNL A   1      32.761  29.876  25.976  1.00  0.00     0.027 A 
ATOM     32  C   UNL A   1      34.839  28.738  26.457  1.00  0.00     0.027 A 
ENDBRANCH  15  26
ENDBRANCH  12  14
ENDBRANCH  11  12
ENDBRANCH   6  11
ENDBRANCH   5   6
ENDBRANCH   3   5
ENDBRANCH   2   3
ENDBRANCH   1   2
BRANCH   1  33
ATOM     33  C   UNL A   1      39.133  20.531  25.479  1.00  0.00     0.202 C 
BRANCH  33  34
ATOM     34  O   UNL A   1      40.306  20.607  26.266  1.00  0.00    -0.374 OA
BRANCH  34  35
ATOM     35  C   UNL A   1      41.059  19.411  26.365  1.00  0.00     0.202 C 
BRANCH  35  36
ATOM     36  C   UNL A   1      42.568  19.587  26.121  1.00  0.00     0.261 C 
BRANCH  36  37
ATOM     37  O   UNL A   1      42.782  20.624  25.136  1.00  0.00    -0.460 OA
BRANCH  37  38
ATOM     38  C   UNL A   1      43.769  21.531  25.393  1.00  0.00     0.338 C 
ATOM     39  O   UNL A   1      44.943  21.262  25.589  1.00  0.00    -0.246 OA
BRANCH  38  40
ATOM     40  C   UNL A   1      43.146  22.843  25.770  1.00  0.00     0.060 A 
ATOM     41  C   UNL A   1      43.322  23.974  24.944  1.00  0.00     0.016 A 
ATOM     42  C   UNL A   1      42.742  23.019  27.089  1.00  0.00     0.016 A 
ATOM     43  C   UNL A   1      43.250  25.275  25.482  1.00  0.00     0.010 A 
ATOM     44  C   UNL A   1      42.780  24.290  27.631  1.00  0.00     0.010 A 
ATOM     45  C   UNL A   1      43.068  25.432  26.851  1.00  0.00    -0.014 A 
BRANCH  45  46
ATOM     46  C   UNL A   1      43.270  26.669  27.638  1.00  0.00     0.031 A 
ATOM     47  C   UNL A   1      42.069  27.490  27.930  1.00  0.00     0.074 A 
ATOM     48  C   UNL A   1      44.400  26.925  28.351  1.00  0.00     0.049 A 
ATOM     49  N   UNL A   1      42.092  28.634  28.515  1.00  0.00    -0.248 NA
ATOM     50  C   UNL A   1      40.720  27.080  27.562  1.00  0.00     0.031 C 
ATOM     51  C   UNL A   1      44.525  27.740  29.568  1.00  0.00     0.029 A 
ATOM     52  N   UNL A   1      45.722  26.493  28.152  1.00  0.00    -0.354 N 
ATOM     53  C   UNL A   1      40.810  28.940  28.907  1.00  0.00     0.074 A 
ATOM     54  C   UNL A   1      39.986  27.975  28.222  1.00  0.00     0.031 C 
ATOM     55  C   UNL A   1      45.821  27.990  29.814  1.00  0.00     0.029 A 
ATOM     56  C   UNL A   1      46.576  27.479  28.691  1.00  0.00     0.049 A 
ATOM     57  H   UNL A   1      46.001  25.656  27.716  1.00  0.00     0.167 HD
ATOM     58  C   UNL A   1      40.637  29.911  29.853  1.00  0.00     0.037 A 
ATOM     59  C   UNL A   1      47.461  28.130  27.889  1.00  0.00     0.037 A 
ATOM     60  C   UNL A   1      41.931  30.548  30.187  1.00  0.00     0.049 A 
ATOM     61  C   UNL A   1      47.075  29.582  27.775  1.00  0.00     0.074 A 
ATOM     62  C   UNL A   1      42.807  30.512  31.261  1.00  0.00     0.029 A 
ATOM     63  N   UNL A   1      42.655  31.135  29.157  1.00  0.00    -0.354 N 
ATOM     64  N   UNL A   1      46.175  30.149  28.532  1.00  0.00    -0.248 NA
ATOM     65  C   UNL A   1      47.572  30.479  26.740  1.00  0.00     0.031 C 
ATOM     66  C   UNL A   1      44.057  31.083  30.845  1.00  0.00     0.029 A 
ATOM     67  C   UNL A   1      43.939  31.495  29.530  1.00  0.00     0.049 A 
ATOM     68  H   UNL A   1      42.292  31.280  28.254  1.00  0.00     0.167 HD
ATOM     69  C   UNL A   1      45.848  31.369  28.031  1.00  0.00     0.074 A 
ATOM     70  C   UNL A   1      46.774  31.546  26.919  1.00  0.00     0.031 C 
ATOM     71  C   UNL A   1      44.809  32.112  28.524  1.00  0.00     0.037 A 
BRANCH  58  72
ATOM     72  C   UNL A   1      39.338  30.173  30.606  1.00  0.00     0.064 A 
ATOM     73  C   UNL A   1      38.634  31.383  30.421  1.00  0.00     0.173 A 
ATOM     74  C   UNL A   1      38.732  29.306  31.543  1.00  0.00     0.173 A 
ATOM     75  F   UNL A   1      39.018  32.278  29.502  1.00  0.00    -0.203 F 
ATOM     76  C   UNL A   1      37.493  31.721  31.163  1.00  0.00     0.198 A 
ATOM     77  C   UNL A   1      37.625  29.662  32.322  1.00  0.00     0.198 A 
ATOM     78  F   UNL A   1      39.118  28.041  31.700  1.00  0.00    -0.203 F 
ATOM     79  F   UNL A   1      36.867  32.881  30.926  1.00  0.00    -0.200 F 
ATOM     80  C   UNL A   1      37.005  30.873  32.134  1.00  0.00     0.200 A 
ATOM     81  F   UNL A   1      37.157  28.800  33.237  1.00  0.00    -0.200 F 
ATOM     82  F   UNL A   1      35.927  31.200  32.858  1.00  0.00    -0.200 F 
ENDBRANCH  58  72
BRANCH  59  83
ATOM     83  C   UNL A   1      47.966  27.205  26.823  1.00  0.00     0.064 A 
ATOM     84  C   UNL A   1      47.401  27.360  25.534  1.00  0.00     0.173 A 
ATOM     85  C   UNL A   1      49.255  26.659  26.894  1.00  0.00     0.173 A 
ATOM     86  F   UNL A   1      46.174  27.890  25.398  1.00  0.00    -0.203 F 
ATOM     87  C   UNL A   1      48.159  27.160  24.381  1.00  0.00     0.198 A 
ATOM     88  C   UNL A   1      50.000  26.436  25.732  1.00  0.00     0.198 A 
ATOM     89  F   UNL A   1      49.857  26.499  28.080  1.00  0.00    -0.203 F 
ATOM     90  F   UNL A   1      47.660  27.499  23.182  1.00  0.00    -0.200 F 
ATOM     91  C   UNL A   1      49.472  26.737  24.484  1.00  0.00     0.200 A 
ATOM     92  F   UNL A   1      51.280  26.045  25.827  1.00  0.00    -0.200 F 
ATOM     93  F   UNL A   1      50.249  26.687  23.392  1.00  0.00    -0.200 F 
ENDBRANCH  59  83
BRANCH  71  94
ATOM     94  C   UNL A   1      44.511  33.492  28.002  1.00  0.00     0.064 A 
ATOM     95  C   UNL A   1      43.941  33.694  26.734  1.00  0.00     0.173 A 
ATOM     96  C   UNL A   1      44.842  34.665  28.714  1.00  0.00     0.173 A 
ATOM     97  F   UNL A   1      43.739  32.666  25.896  1.00  0.00    -0.203 F 
ATOM     98  C   UNL A   1      43.578  34.962  26.284  1.00  0.00     0.198 A 
ATOM     99  C   UNL A   1      44.542  35.935  28.233  1.00  0.00     0.198 A 
ATOM    100  F   UNL A   1      45.444  34.632  29.909  1.00  0.00    -0.203 F 
ATOM    101  F   UNL A   1      42.934  35.090  25.116  1.00  0.00    -0.200 F 
ATOM    102  C   UNL A   1      43.873  36.082  27.037  1.00  0.00     0.200 A 
ATOM    103  F   UNL A   1      44.890  37.013  28.949  1.00  0.00    -0.200 F 
ATOM    104  F   UNL A   1      43.521  37.300  26.608  1.00  0.00    -0.200 F 
ENDBRANCH  71  94
ENDBRANCH  45  46
ENDBRANCH  38  40
ENDBRANCH  37  38
ENDBRANCH  36  37
ENDBRANCH  35  36
ENDBRANCH  34  35
ENDBRANCH  33  34
ENDBRANCH   1  33
TORSDOF 19
ENDMDL
