MODEL 1
REMARK VINA RESULT:     -10.2      0.000      0.000
REMARK SMILES CC[NH2+]C(C)(C)C(=O)N[C@@](C)(C(=O)OCCOCCOC(=O)c1ccc(-c2c3nc(c(-c4c(F)c(F)c(F)c(F)c4F)c4ccc([nH]4)c(-c4c(F)c(F)c(F)c(F)c4F)c4nc(c(-c5c(F)c(F)c(F)c(F)c5F)c5ccc2[nH]5)C=C4)C=C3)cc1)C(F)(F)F
REMARK SMILES IDX 16 1 15 2 14 3 12 4 13 5 10 6 11 7 9 8 7 9 8 10 4 12 5 13
REMARK SMILES IDX 6 14 3 15 2 18 1 19 86 20 87 21 88 22 89 23 17 24 18 25
REMARK SMILES IDX 19 26 20 27 21 28 22 29 23 30 24 31 85 32 25 33 84 34 26 35
REMARK SMILES IDX 27 36 28 37 78 38 29 39 83 40 77 41 79 42 30 43 82 44 76 45
REMARK SMILES IDX 75 46 31 48 63 49 43 50 62 51 44 52 47 53 61 54 80 55 45 56
REMARK SMILES IDX 46 57 60 59 81 60 48 61 32 62 33 63 41 64 34 65 35 66 39 67
REMARK SMILES IDX 42 68 36 69 37 70 40 71 38 72 64 73 65 74 73 75 66 76 67 77
REMARK SMILES IDX 71 78 74 79 68 80 69 81 72 82 70 83 49 84 50 85 58 86 51 87
REMARK SMILES IDX 52 88 56 89 59 90 53 91 54 92 57 93 55 94
REMARK H PARENT 9 11 3 16 3 17 79 47 47 58
REMARK Flexibility Score: inf
ROOT
ATOM      1  C   UNL A   1      31.837  29.493  25.845  1.00  0.00     0.202 C 
ENDROOT
BRANCH   1   2
ATOM      2  C   UNL A   1      31.727  28.073  26.414  1.00  0.00     0.261 C 
BRANCH   2   3
ATOM      3  O   UNL A   1      31.569  27.075  25.393  1.00  0.00    -0.461 OA
BRANCH   3   4
ATOM      4  C   UNL A   1      30.871  25.961  25.770  1.00  0.00     0.341 C 
ATOM      5  O   UNL A   1      29.924  25.992  26.547  1.00  0.00    -0.249 OA
BRANCH   4   6
ATOM      6  C   UNL A   1      31.416  24.672  25.117  1.00  0.00     0.231 C 
ATOM      7  C   UNL A   1      30.843  23.509  25.938  1.00  0.00     0.058 C 
BRANCH   6   8
ATOM      8  N   UNL A   1      32.936  24.639  25.265  1.00  0.00    -0.328 N 
ATOM      9  C   UNL A   1      34.033  23.868  25.026  1.00  0.00     0.281 C 
ATOM     10  O   UNL A   1      35.037  24.277  25.627  1.00  0.00    -0.268 OA
ATOM     11  H   UNL A   1      33.228  25.480  25.684  1.00  0.00     0.165 HD
BRANCH   9  12
ATOM     12  C   UNL A   1      34.108  22.669  24.024  1.00  0.00     0.169 C 
ATOM     13  C   UNL A   1      35.487  22.000  24.130  1.00  0.00     0.090 C 
ATOM     14  C   UNL A   1      33.785  23.151  22.599  1.00  0.00     0.090 C 
BRANCH  12  15
ATOM     15  N   UNL A   1      33.064  21.617  24.243  1.00  0.00    -0.334 N 
ATOM     16  H   UNL A   1      32.166  22.097  24.305  1.00  0.00     0.347 HD
ATOM     17  H   UNL A   1      33.189  20.981  23.455  1.00  0.00     0.347 HD
BRANCH  15  18
ATOM     18  C   UNL A   1      33.167  20.750  25.413  1.00  0.00     0.257 C 
ATOM     19  C   UNL A   1      32.794  19.325  25.002  1.00  0.00     0.071 C 
ENDBRANCH  15  18
ENDBRANCH  12  15
ENDBRANCH   9  12
ENDBRANCH   6   8
BRANCH   6  20
ATOM     20  C   UNL A   1      30.762  24.753  23.724  1.00  0.00     0.422 C 
ATOM     21  F   UNL A   1      31.537  25.424  22.841  1.00  0.00    -0.168 F 
ATOM     22  F   UNL A   1      30.526  23.533  23.196  1.00  0.00    -0.168 F 
ATOM     23  F   UNL A   1      29.557  25.366  23.748  1.00  0.00    -0.168 F 
ENDBRANCH   6  20
ENDBRANCH   4   6
ENDBRANCH   3   4
ENDBRANCH   2   3
ENDBRANCH   1   2
BRANCH   1  24
ATOM     24  O   UNL A   1      32.109  30.554  26.753  1.00  0.00    -0.374 OA
BRANCH  24  25
ATOM     25  C   UNL A   1      31.343  31.754  26.641  1.00  0.00     0.202 C 
BRANCH  25  26
ATOM     26  C   UNL A   1      32.067  33.103  26.781  1.00  0.00     0.261 C 
BRANCH  26  27
ATOM     27  O   UNL A   1      32.493  33.384  28.127  1.00  0.00    -0.460 OA
BRANCH  27  28
ATOM     28  C   UNL A   1      33.606  34.157  28.210  1.00  0.00     0.338 C 
ATOM     29  O   UNL A   1      33.670  35.373  28.200  1.00  0.00    -0.246 OA
BRANCH  28  30
ATOM     30  C   UNL A   1      34.783  33.323  28.513  1.00  0.00     0.060 A 
ATOM     31  C   UNL A   1      34.557  32.077  29.113  1.00  0.00     0.016 A 
ATOM     32  C   UNL A   1      36.081  33.799  28.328  1.00  0.00     0.016 A 
ATOM     33  C   UNL A   1      35.631  31.318  29.570  1.00  0.00     0.010 A 
ATOM     34  C   UNL A   1      37.159  33.042  28.799  1.00  0.00     0.010 A 
ATOM     35  C   UNL A   1      36.936  31.816  29.454  1.00  0.00    -0.014 A 
BRANCH  35  36
ATOM     36  C   UNL A   1      38.042  31.121  30.154  1.00  0.00     0.031 A 
ATOM     37  C   UNL A   1      38.300  31.434  31.601  1.00  0.00     0.074 A 
ATOM     38  C   UNL A   1      38.780  30.193  29.520  1.00  0.00     0.049 A 
ATOM     39  N   UNL A   1      39.213  30.953  32.407  1.00  0.00    -0.248 NA
ATOM     40  C   UNL A   1      37.406  32.422  32.226  1.00  0.00     0.031 C 
ATOM     41  C   UNL A   1      38.596  29.774  28.133  1.00  0.00     0.029 A 
ATOM     42  N   UNL A   1      39.835  29.438  29.966  1.00  0.00    -0.354 N 
ATOM     43  C   UNL A   1      39.005  31.580  33.629  1.00  0.00     0.074 A 
ATOM     44  C   UNL A   1      37.899  32.497  33.453  1.00  0.00     0.031 C 
ATOM     45  C   UNL A   1      39.516  28.842  27.835  1.00  0.00     0.029 A 
ATOM     46  C   UNL A   1      40.368  28.618  29.003  1.00  0.00     0.049 A 
ATOM     47  H   UNL A   1      40.178  29.480  30.887  1.00  0.00     0.167 HD
ATOM     48  C   UNL A   1      39.673  31.401  34.795  1.00  0.00     0.037 A 
ATOM     49  C   UNL A   1      41.434  27.797  29.055  1.00  0.00     0.037 A 
ATOM     50  C   UNL A   1      40.774  30.491  34.965  1.00  0.00     0.049 A 
ATOM     51  C   UNL A   1      42.205  27.669  30.343  1.00  0.00     0.074 A 
ATOM     52  C   UNL A   1      41.504  30.223  36.110  1.00  0.00     0.029 A 
ATOM     53  N   UNL A   1      41.312  29.706  33.955  1.00  0.00    -0.354 N 
ATOM     54  N   UNL A   1      41.986  28.243  31.500  1.00  0.00    -0.248 NA
ATOM     55  C   UNL A   1      43.372  26.774  30.329  1.00  0.00     0.031 C 
ATOM     56  C   UNL A   1      42.514  29.312  35.781  1.00  0.00     0.029 A 
ATOM     57  C   UNL A   1      42.383  28.974  34.443  1.00  0.00     0.049 A 
ATOM     58  H   UNL A   1      40.982  29.675  33.028  1.00  0.00     0.167 HD
ATOM     59  C   UNL A   1      42.967  27.763  32.358  1.00  0.00     0.074 A 
ATOM     60  C   UNL A   1      43.776  26.840  31.590  1.00  0.00     0.031 C 
ATOM     61  C   UNL A   1      43.176  28.058  33.666  1.00  0.00     0.037 A 
BRANCH  48  62
ATOM     62  C   UNL A   1      39.243  32.230  35.969  1.00  0.00     0.064 A 
ATOM     63  C   UNL A   1      39.740  33.525  36.178  1.00  0.00     0.173 A 
ATOM     64  C   UNL A   1      38.305  31.730  36.885  1.00  0.00     0.173 A 
ATOM     65  F   UNL A   1      40.650  34.043  35.338  1.00  0.00    -0.203 F 
ATOM     66  C   UNL A   1      39.336  34.277  37.278  1.00  0.00     0.198 A 
ATOM     67  C   UNL A   1      37.883  32.496  37.968  1.00  0.00     0.198 A 
ATOM     68  F   UNL A   1      37.795  30.499  36.727  1.00  0.00    -0.203 F 
ATOM     69  F   UNL A   1      39.860  35.493  37.486  1.00  0.00    -0.200 F 
ATOM     70  C   UNL A   1      38.405  33.765  38.169  1.00  0.00     0.200 A 
ATOM     71  F   UNL A   1      36.975  32.004  38.822  1.00  0.00    -0.200 F 
ATOM     72  F   UNL A   1      38.015  34.491  39.226  1.00  0.00    -0.200 F 
ENDBRANCH  48  62
BRANCH  49  73
ATOM     73  C   UNL A   1      41.838  27.034  27.846  1.00  0.00     0.064 A 
ATOM     74  C   UNL A   1      42.730  27.579  26.912  1.00  0.00     0.173 A 
ATOM     75  C   UNL A   1      41.338  25.747  27.598  1.00  0.00     0.173 A 
ATOM     76  F   UNL A   1      43.215  28.816  27.093  1.00  0.00    -0.203 F 
ATOM     77  C   UNL A   1      43.097  26.870  25.770  1.00  0.00     0.198 A 
ATOM     78  C   UNL A   1      41.726  25.029  26.469  1.00  0.00     0.198 A 
ATOM     79  F   UNL A   1      40.480  25.184  28.460  1.00  0.00    -0.203 F 
ATOM     80  F   UNL A   1      43.921  27.429  24.873  1.00  0.00    -0.200 F 
ATOM     81  C   UNL A   1      42.601  25.593  25.553  1.00  0.00     0.200 A 
ATOM     82  F   UNL A   1      41.252  23.791  26.270  1.00  0.00    -0.200 F 
ATOM     83  F   UNL A   1      42.959  24.910  24.458  1.00  0.00    -0.200 F 
ENDBRANCH  49  73
BRANCH  61  84
ATOM     84  C   UNL A   1      44.307  27.354  34.358  1.00  0.00     0.064 A 
ATOM     85  C   UNL A   1      44.137  26.094  34.949  1.00  0.00     0.173 A 
ATOM     86  C   UNL A   1      45.586  27.929  34.391  1.00  0.00     0.173 A 
ATOM     87  F   UNL A   1      42.930  25.509  34.955  1.00  0.00    -0.203 F 
ATOM     88  C   UNL A   1      45.203  25.445  35.569  1.00  0.00     0.198 A 
ATOM     89  C   UNL A   1      46.655  27.266  34.987  1.00  0.00     0.198 A 
ATOM     90  F   UNL A   1      45.802  29.131  33.835  1.00  0.00    -0.203 F 
ATOM     91  F   UNL A   1      45.008  24.261  36.165  1.00  0.00    -0.200 F 
ATOM     92  C   UNL A   1      46.461  26.028  35.581  1.00  0.00     0.200 A 
ATOM     93  F   UNL A   1      47.873  27.825  34.987  1.00  0.00    -0.200 F 
ATOM     94  F   UNL A   1      47.486  25.399  36.171  1.00  0.00    -0.200 F 
ENDBRANCH  61  84
ENDBRANCH  35  36
ENDBRANCH  28  30
ENDBRANCH  27  28
ENDBRANCH  26  27
ENDBRANCH  25  26
ENDBRANCH  24  25
ENDBRANCH   1  24
TORSDOF 19
ENDMDL
MODEL 2
REMARK VINA RESULT:     -10.1      1.404      7.529
REMARK SMILES CC[NH2+]C(C)(C)C(=O)N[C@@](C)(C(=O)OCCOCCOC(=O)c1ccc(-c2c3nc(c(-c4c(F)c(F)c(F)c(F)c4F)c4ccc([nH]4)c(-c4c(F)c(F)c(F)c(F)c4F)c4nc(c(-c5c(F)c(F)c(F)c(F)c5F)c5ccc2[nH]5)C=C4)C=C3)cc1)C(F)(F)F
REMARK SMILES IDX 16 1 15 2 14 3 12 4 13 5 10 6 11 7 9 8 7 9 8 10 4 12 5 13
REMARK SMILES IDX 6 14 3 15 2 18 1 19 86 20 87 21 88 22 89 23 17 24 18 25
REMARK SMILES IDX 19 26 20 27 21 28 22 29 23 30 24 31 85 32 25 33 84 34 26 35
REMARK SMILES IDX 27 36 28 37 78 38 29 39 83 40 77 41 79 42 30 43 82 44 76 45
REMARK SMILES IDX 75 46 31 48 63 49 43 50 62 51 44 52 47 53 61 54 80 55 45 56
REMARK SMILES IDX 46 57 60 59 81 60 48 61 32 62 33 63 41 64 34 65 35 66 39 67
REMARK SMILES IDX 42 68 36 69 37 70 40 71 38 72 64 73 65 74 73 75 66 76 67 77
REMARK SMILES IDX 71 78 74 79 68 80 69 81 72 82 70 83 49 84 50 85 58 86 51 87
REMARK SMILES IDX 52 88 56 89 59 90 53 91 54 92 57 93 55 94
REMARK H PARENT 9 11 3 16 3 17 79 47 47 58
REMARK Flexibility Score: inf
ROOT
ATOM      1  C   UNL A   1      32.895  28.984  23.048  1.00  0.00     0.202 C 
ENDROOT
BRANCH   1   2
ATOM      2  C   UNL A   1      33.656  27.682  22.763  1.00  0.00     0.261 C 
BRANCH   2   3
ATOM      3  O   UNL A   1      33.027  26.531  23.346  1.00  0.00    -0.461 OA
BRANCH   3   4
ATOM      4  C   UNL A   1      33.367  25.333  22.781  1.00  0.00     0.341 C 
ATOM      5  O   UNL A   1      33.490  25.170  21.573  1.00  0.00    -0.249 OA
BRANCH   4   6
ATOM      6  C   UNL A   1      33.569  24.219  23.832  1.00  0.00     0.231 C 
ATOM      7  C   UNL A   1      33.640  24.928  25.190  1.00  0.00     0.058 C 
BRANCH   6   8
ATOM      8  N   UNL A   1      34.916  23.541  23.592  1.00  0.00    -0.328 N 
ATOM      9  C   UNL A   1      35.730  22.549  24.050  1.00  0.00     0.281 C 
ATOM     10  O   UNL A   1      36.880  22.635  23.597  1.00  0.00    -0.268 OA
ATOM     11  H   UNL A   1      35.356  23.980  22.828  1.00  0.00     0.165 HD
BRANCH   9  12
ATOM     12  C   UNL A   1      35.289  21.345  24.946  1.00  0.00     0.169 C 
ATOM     13  C   UNL A   1      34.955  21.854  26.357  1.00  0.00     0.090 C 
ATOM     14  C   UNL A   1      36.378  20.259  24.945  1.00  0.00     0.090 C 
BRANCH  12  15
ATOM     15  N   UNL A   1      34.099  20.596  24.429  1.00  0.00    -0.334 N 
ATOM     16  H   UNL A   1      33.271  21.040  24.826  1.00  0.00     0.347 HD
ATOM     17  H   UNL A   1      34.202  20.645  23.415  1.00  0.00     0.347 HD
BRANCH  15  18
ATOM     18  C   UNL A   1      33.990  19.166  24.702  1.00  0.00     0.257 C 
ATOM     19  C   UNL A   1      32.671  18.655  24.122  1.00  0.00     0.071 C 
ENDBRANCH  15  18
ENDBRANCH  12  15
ENDBRANCH   9  12
ENDBRANCH   6   8
BRANCH   6  20
ATOM     20  C   UNL A   1      32.253  23.432  23.678  1.00  0.00     0.422 C 
ATOM     21  F   UNL A   1      31.212  24.244  23.379  1.00  0.00    -0.168 F 
ATOM     22  F   UNL A   1      32.322  22.503  22.700  1.00  0.00    -0.168 F 
ATOM     23  F   UNL A   1      31.920  22.746  24.794  1.00  0.00    -0.168 F 
ENDBRANCH   6  20
ENDBRANCH   4   6
ENDBRANCH   3   4
ENDBRANCH   2   3
ENDBRANCH   1   2
BRANCH   1  24
ATOM     24  O   UNL A   1      31.654  28.891  23.738  1.00  0.00    -0.374 OA
BRANCH  24  25
ATOM     25  C   UNL A   1      31.613  29.281  25.111  1.00  0.00     0.202 C 
BRANCH  25  26
ATOM     26  C   UNL A   1      32.795  30.079  25.684  1.00  0.00     0.261 C 
BRANCH  26  27
ATOM     27  O   UNL A   1      32.551  30.591  27.006  1.00  0.00    -0.460 OA
BRANCH  27  28
ATOM     28  C   UNL A   1      33.274  31.696  27.320  1.00  0.00     0.338 C 
ATOM     29  O   UNL A   1      32.885  32.850  27.376  1.00  0.00    -0.246 OA
BRANCH  28  30
ATOM     30  C   UNL A   1      34.618  31.310  27.788  1.00  0.00     0.060 A 
ATOM     31  C   UNL A   1      34.822  29.967  28.131  1.00  0.00     0.016 A 
ATOM     32  C   UNL A   1      35.617  32.259  28.001  1.00  0.00     0.016 A 
ATOM     33  C   UNL A   1      36.015  29.574  28.732  1.00  0.00     0.010 A 
ATOM     34  C   UNL A   1      36.810  31.867  28.616  1.00  0.00     0.010 A 
ATOM     35  C   UNL A   1      37.000  30.531  29.016  1.00  0.00    -0.014 A 
BRANCH  35  36
ATOM     36  C   UNL A   1      38.153  30.152  29.866  1.00  0.00     0.031 A 
ATOM     37  C   UNL A   1      39.178  29.197  29.323  1.00  0.00     0.074 A 
ATOM     38  C   UNL A   1      38.308  30.686  31.090  1.00  0.00     0.049 A 
ATOM     39  N   UNL A   1      40.259  28.724  29.889  1.00  0.00    -0.248 NA
ATOM     40  C   UNL A   1      38.954  28.709  27.952  1.00  0.00     0.031 C 
ATOM     41  C   UNL A   1      37.405  31.654  31.707  1.00  0.00     0.029 A 
ATOM     42  N   UNL A   1      39.283  30.482  32.034  1.00  0.00    -0.354 N 
ATOM     43  C   UNL A   1      40.841  27.884  28.949  1.00  0.00     0.074 A 
ATOM     44  C   UNL A   1      39.980  27.888  27.786  1.00  0.00     0.031 C 
ATOM     45  C   UNL A   1      37.863  31.955  32.934  1.00  0.00     0.029 A 
ATOM     46  C   UNL A   1      39.075  31.181  33.196  1.00  0.00     0.049 A 
ATOM     47  H   UNL A   1      40.056  29.891  31.892  1.00  0.00     0.167 HD
ATOM     48  C   UNL A   1      41.994  27.179  29.045  1.00  0.00     0.037 A 
ATOM     49  C   UNL A   1      39.776  31.180  34.347  1.00  0.00     0.037 A 
ATOM     50  C   UNL A   1      42.846  27.174  30.204  1.00  0.00     0.049 A 
ATOM     51  C   UNL A   1      41.016  30.331  34.455  1.00  0.00     0.074 A 
ATOM     52  C   UNL A   1      44.045  26.509  30.394  1.00  0.00     0.029 A 
ATOM     53  N   UNL A   1      42.582  27.864  31.379  1.00  0.00    -0.354 N 
ATOM     54  N   UNL A   1      41.574  29.561  33.554  1.00  0.00    -0.248 NA
ATOM     55  C   UNL A   1      41.723  30.354  35.744  1.00  0.00     0.031 C 
ATOM     56  C   UNL A   1      44.482  26.758  31.700  1.00  0.00     0.029 A 
ATOM     57  C   UNL A   1      43.581  27.618  32.308  1.00  0.00     0.049 A 
ATOM     58  H   UNL A   1      41.800  28.443  31.531  1.00  0.00     0.167 HD
ATOM     59  C   UNL A   1      42.709  29.030  34.152  1.00  0.00     0.074 A 
ATOM     60  C   UNL A   1      42.766  29.575  35.493  1.00  0.00     0.031 C 
ATOM     61  C   UNL A   1      43.624  28.171  33.637  1.00  0.00     0.037 A 
BRANCH  48  62
ATOM     62  C   UNL A   1      42.383  26.331  27.870  1.00  0.00     0.064 A 
ATOM     63  C   UNL A   1      43.283  26.788  26.895  1.00  0.00     0.173 A 
ATOM     64  C   UNL A   1      41.863  25.035  27.728  1.00  0.00     0.173 A 
ATOM     65  F   UNL A   1      43.796  28.025  26.978  1.00  0.00    -0.203 F 
ATOM     66  C   UNL A   1      43.625  25.990  25.807  1.00  0.00     0.198 A 
ATOM     67  C   UNL A   1      42.230  24.231  26.653  1.00  0.00     0.198 A 
ATOM     68  F   UNL A   1      41.002  24.548  28.635  1.00  0.00    -0.203 F 
ATOM     69  F   UNL A   1      44.449  26.465  24.863  1.00  0.00    -0.200 F 
ATOM     70  C   UNL A   1      43.103  24.711  25.689  1.00  0.00     0.200 A 
ATOM     71  F   UNL A   1      41.733  22.990  26.546  1.00  0.00    -0.200 F 
ATOM     72  F   UNL A   1      43.436  23.943  24.643  1.00  0.00    -0.200 F 
ENDBRANCH  48  62
BRANCH  49  73
ATOM     73  C   UNL A   1      39.316  32.006  35.492  1.00  0.00     0.064 A 
ATOM     74  C   UNL A   1      39.702  33.348  35.617  1.00  0.00     0.173 A 
ATOM     75  C   UNL A   1      38.485  31.471  36.487  1.00  0.00     0.173 A 
ATOM     76  F   UNL A   1      40.516  33.897  34.704  1.00  0.00    -0.203 F 
ATOM     77  C   UNL A   1      39.283  34.119  36.700  1.00  0.00     0.198 A 
ATOM     78  C   UNL A   1      38.046  32.249  37.555  1.00  0.00     0.198 A 
ATOM     79  F   UNL A   1      38.091  30.191  36.415  1.00  0.00    -0.203 F 
ATOM     80  F   UNL A   1      39.697  35.388  36.815  1.00  0.00    -0.200 F 
ATOM     81  C   UNL A   1      38.449  33.571  37.663  1.00  0.00     0.200 A 
ATOM     82  F   UNL A   1      37.232  31.719  38.478  1.00  0.00    -0.200 F 
ATOM     83  F   UNL A   1      38.043  34.315  38.700  1.00  0.00    -0.200 F 
ENDBRANCH  49  73
BRANCH  61  84
ATOM     84  C   UNL A   1      44.780  27.789  34.514  1.00  0.00     0.064 A 
ATOM     85  C   UNL A   1      45.969  28.532  34.529  1.00  0.00     0.173 A 
ATOM     86  C   UNL A   1      44.680  26.690  35.381  1.00  0.00     0.173 A 
ATOM     87  F   UNL A   1      46.119  29.582  33.708  1.00  0.00    -0.203 F 
ATOM     88  C   UNL A   1      47.025  28.176  35.365  1.00  0.00     0.198 A 
ATOM     89  C   UNL A   1      45.726  26.354  36.236  1.00  0.00     0.198 A 
ATOM     90  F   UNL A   1      43.561  25.950  35.409  1.00  0.00    -0.203 F 
ATOM     91  F   UNL A   1      48.168  28.874  35.332  1.00  0.00    -0.200 F 
ATOM     92  C   UNL A   1      46.900  27.092  36.222  1.00  0.00     0.200 A 
ATOM     93  F   UNL A   1      45.600  25.313  37.071  1.00  0.00    -0.200 F 
ATOM     94  F   UNL A   1      47.914  26.755  37.030  1.00  0.00    -0.200 F 
ENDBRANCH  61  84
ENDBRANCH  35  36
ENDBRANCH  28  30
ENDBRANCH  27  28
ENDBRANCH  26  27
ENDBRANCH  25  26
ENDBRANCH  24  25
ENDBRANCH   1  24
TORSDOF 19
ENDMDL
MODEL 3
REMARK VINA RESULT:     -10.1      1.329      2.565
REMARK SMILES CC[NH2+]C(C)(C)C(=O)N[C@@](C)(C(=O)OCCOCCOC(=O)c1ccc(-c2c3nc(c(-c4c(F)c(F)c(F)c(F)c4F)c4ccc([nH]4)c(-c4c(F)c(F)c(F)c(F)c4F)c4nc(c(-c5c(F)c(F)c(F)c(F)c5F)c5ccc2[nH]5)C=C4)C=C3)cc1)C(F)(F)F
REMARK SMILES IDX 16 1 15 2 14 3 12 4 13 5 10 6 11 7 9 8 7 9 8 10 4 12 5 13
REMARK SMILES IDX 6 14 3 15 2 18 1 19 86 20 87 21 88 22 89 23 17 24 18 25
REMARK SMILES IDX 19 26 20 27 21 28 22 29 23 30 24 31 85 32 25 33 84 34 26 35
REMARK SMILES IDX 27 36 28 37 78 38 29 39 83 40 77 41 79 42 30 43 82 44 76 45
REMARK SMILES IDX 75 46 31 48 63 49 43 50 62 51 44 52 47 53 61 54 80 55 45 56
REMARK SMILES IDX 46 57 60 59 81 60 48 61 32 62 33 63 41 64 34 65 35 66 39 67
REMARK SMILES IDX 42 68 36 69 37 70 40 71 38 72 64 73 65 74 73 75 66 76 67 77
REMARK SMILES IDX 71 78 74 79 68 80 69 81 72 82 70 83 49 84 50 85 58 86 51 87
REMARK SMILES IDX 52 88 56 89 59 90 53 91 54 92 57 93 55 94
REMARK H PARENT 9 11 3 16 3 17 79 47 47 58
REMARK Flexibility Score: inf
ROOT
ATOM      1  C   UNL A   1      32.794  29.163  26.844  1.00  0.00     0.202 C 
ENDROOT
BRANCH   1   2
ATOM      2  C   UNL A   1      32.294  27.713  26.827  1.00  0.00     0.261 C 
BRANCH   2   3
ATOM      3  O   UNL A   1      31.915  27.270  25.515  1.00  0.00    -0.461 OA
BRANCH   3   4
ATOM      4  C   UNL A   1      32.903  26.647  24.803  1.00  0.00     0.341 C 
ATOM      5  O   UNL A   1      33.830  26.043  25.328  1.00  0.00    -0.249 OA
BRANCH   4   6
ATOM      6  C   UNL A   1      32.720  26.801  23.277  1.00  0.00     0.231 C 
ATOM      7  C   UNL A   1      31.211  26.953  23.046  1.00  0.00     0.058 C 
BRANCH   6   8
ATOM      8  N   UNL A   1      33.168  25.514  22.587  1.00  0.00    -0.328 N 
ATOM      9  C   UNL A   1      33.096  24.157  22.669  1.00  0.00     0.281 C 
ATOM     10  O   UNL A   1      33.916  23.595  21.930  1.00  0.00    -0.268 OA
ATOM     11  H   UNL A   1      33.702  25.753  21.795  1.00  0.00     0.165 HD
BRANCH   9  12
ATOM     12  C   UNL A   1      32.038  23.345  23.488  1.00  0.00     0.169 C 
ATOM     13  C   UNL A   1      32.220  21.845  23.212  1.00  0.00     0.090 C 
ATOM     14  C   UNL A   1      30.620  23.845  23.162  1.00  0.00     0.090 C 
BRANCH  12  15
ATOM     15  N   UNL A   1      32.112  23.557  24.969  1.00  0.00    -0.334 N 
ATOM     16  H   UNL A   1      32.648  24.412  25.122  1.00  0.00     0.347 HD
ATOM     17  H   UNL A   1      31.135  23.573  25.262  1.00  0.00     0.347 HD
BRANCH  15  18
ATOM     18  C   UNL A   1      32.712  22.521  25.804  1.00  0.00     0.257 C 
ATOM     19  C   UNL A   1      32.616  22.953  27.267  1.00  0.00     0.071 C 
ENDBRANCH  15  18
ENDBRANCH  12  15
ENDBRANCH   9  12
ENDBRANCH   6   8
BRANCH   6  20
ATOM     20  C   UNL A   1      33.463  28.128  23.028  1.00  0.00     0.422 C 
ATOM     21  F   UNL A   1      34.425  28.350  23.954  1.00  0.00    -0.168 F 
ATOM     22  F   UNL A   1      34.064  28.161  21.819  1.00  0.00    -0.168 F 
ATOM     23  F   UNL A   1      32.638  29.199  23.041  1.00  0.00    -0.168 F 
ENDBRANCH   6  20
ENDBRANCH   4   6
ENDBRANCH   3   4
ENDBRANCH   2   3
ENDBRANCH   1   2
BRANCH   1  24
ATOM     24  O   UNL A   1      31.882  30.176  27.252  1.00  0.00    -0.374 OA
BRANCH  24  25
ATOM     25  C   UNL A   1      31.676  31.291  26.384  1.00  0.00     0.202 C 
BRANCH  25  26
ATOM     26  C   UNL A   1      31.777  32.708  26.971  1.00  0.00     0.261 C 
BRANCH  26  27
ATOM     27  O   UNL A   1      33.100  33.268  26.884  1.00  0.00    -0.460 OA
BRANCH  27  28
ATOM     28  C   UNL A   1      33.611  33.683  28.071  1.00  0.00     0.338 C 
ATOM     29  O   UNL A   1      33.100  34.438  28.879  1.00  0.00    -0.246 OA
BRANCH  28  30
ATOM     30  C   UNL A   1      34.845  32.939  28.382  1.00  0.00     0.060 A 
ATOM     31  C   UNL A   1      34.709  31.611  28.809  1.00  0.00     0.016 A 
ATOM     32  C   UNL A   1      36.093  33.560  28.374  1.00  0.00     0.016 A 
ATOM     33  C   UNL A   1      35.820  30.911  29.272  1.00  0.00     0.010 A 
ATOM     34  C   UNL A   1      37.206  32.861  28.852  1.00  0.00     0.010 A 
ATOM     35  C   UNL A   1      37.068  31.546  29.336  1.00  0.00    -0.014 A 
BRANCH  35  36
ATOM     36  C   UNL A   1      38.184  30.882  30.050  1.00  0.00     0.031 A 
ATOM     37  C   UNL A   1      38.428  31.216  31.494  1.00  0.00     0.074 A 
ATOM     38  C   UNL A   1      38.944  29.963  29.430  1.00  0.00     0.049 A 
ATOM     39  N   UNL A   1      39.346  30.763  32.310  1.00  0.00    -0.248 NA
ATOM     40  C   UNL A   1      37.510  32.192  32.104  1.00  0.00     0.031 C 
ATOM     41  C   UNL A   1      38.776  29.525  28.047  1.00  0.00     0.029 A 
ATOM     42  N   UNL A   1      40.013  29.234  29.889  1.00  0.00    -0.354 N 
ATOM     43  C   UNL A   1      39.119  31.399  33.524  1.00  0.00     0.074 A 
ATOM     44  C   UNL A   1      37.995  32.290  33.332  1.00  0.00     0.031 C 
ATOM     45  C   UNL A   1      39.717  28.608  27.764  1.00  0.00     0.029 A 
ATOM     46  C   UNL A   1      40.567  28.415  28.938  1.00  0.00     0.049 A 
ATOM     47  H   UNL A   1      40.350  29.294  30.812  1.00  0.00     0.167 HD
ATOM     48  C   UNL A   1      39.783  31.246  34.695  1.00  0.00     0.037 A 
ATOM     49  C   UNL A   1      41.650  27.616  29.005  1.00  0.00     0.037 A 
ATOM     50  C   UNL A   1      40.903  30.362  34.882  1.00  0.00     0.049 A 
ATOM     51  C   UNL A   1      42.417  27.519  30.298  1.00  0.00     0.074 A 
ATOM     52  C   UNL A   1      41.632  30.121  36.033  1.00  0.00     0.029 A 
ATOM     53  N   UNL A   1      41.462  29.577  33.883  1.00  0.00    -0.354 N 
ATOM     54  N   UNL A   1      42.179  28.101  31.447  1.00  0.00    -0.248 NA
ATOM     55  C   UNL A   1      43.601  26.648  30.301  1.00  0.00     0.031 C 
ATOM     56  C   UNL A   1      42.662  29.227  35.719  1.00  0.00     0.029 A 
ATOM     57  C   UNL A   1      42.545  28.872  34.385  1.00  0.00     0.049 A 
ATOM     58  H   UNL A   1      41.137  29.528  32.954  1.00  0.00     0.167 HD
ATOM     59  C   UNL A   1      43.165  27.651  32.316  1.00  0.00     0.074 A 
ATOM     60  C   UNL A   1      43.997  26.736  31.563  1.00  0.00     0.031 C 
ATOM     61  C   UNL A   1      43.361  27.964  33.621  1.00  0.00     0.037 A 
BRANCH  48  62
ATOM     62  C   UNL A   1      39.330  32.080  35.857  1.00  0.00     0.064 A 
ATOM     63  C   UNL A   1      38.373  31.614  36.771  1.00  0.00     0.173 A 
ATOM     64  C   UNL A   1      39.877  33.354  36.071  1.00  0.00     0.173 A 
ATOM     65  F   UNL A   1      37.811  30.407  36.602  1.00  0.00    -0.203 F 
ATOM     66  C   UNL A   1      37.959  32.404  37.839  1.00  0.00     0.198 A 
ATOM     67  C   UNL A   1      39.479  34.131  37.156  1.00  0.00     0.198 A 
ATOM     68  F   UNL A   1      40.799  33.845  35.229  1.00  0.00    -0.203 F 
ATOM     69  F   UNL A   1      37.009  31.958  38.672  1.00  0.00    -0.200 F 
ATOM     70  C   UNL A   1      38.516  33.660  38.034  1.00  0.00     0.200 A 
ATOM     71  F   UNL A   1      40.026  35.339  37.349  1.00  0.00    -0.200 F 
ATOM     72  F   UNL A   1      38.118  34.419  39.065  1.00  0.00    -0.200 F 
ENDBRANCH  48  62
BRANCH  49  73
ATOM     73  C   UNL A   1      42.076  26.849  27.807  1.00  0.00     0.064 A 
ATOM     74  C   UNL A   1      41.561  25.573  27.543  1.00  0.00     0.173 A 
ATOM     75  C   UNL A   1      43.010  27.376  26.902  1.00  0.00     0.173 A 
ATOM     76  F   UNL A   1      40.685  25.017  28.393  1.00  0.00    -0.203 F 
ATOM     77  C   UNL A   1      41.973  24.847  26.427  1.00  0.00     0.198 A 
ATOM     78  C   UNL A   1      43.401  26.661  25.773  1.00  0.00     0.198 A 
ATOM     79  F   UNL A   1      43.534  28.592  27.111  1.00  0.00    -0.203 F 
ATOM     80  F   UNL A   1      41.494  23.613  26.220  1.00  0.00    -0.200 F 
ATOM     81  C   UNL A   1      42.887  25.395  25.539  1.00  0.00     0.200 A 
ATOM     82  F   UNL A   1      44.277  27.198  24.912  1.00  0.00    -0.200 F 
ATOM     83  F   UNL A   1      43.278  24.698  24.464  1.00  0.00    -0.200 F 
ENDBRANCH  49  73
BRANCH  61  84
ATOM     84  C   UNL A   1      44.502  27.291  34.327  1.00  0.00     0.064 A 
ATOM     85  C   UNL A   1      45.766  27.890  34.418  1.00  0.00     0.173 A 
ATOM     86  C   UNL A   1      44.315  26.051  34.956  1.00  0.00     0.173 A 
ATOM     87  F   UNL A   1      46.000  29.068  33.820  1.00  0.00    -0.203 F 
ATOM     88  C   UNL A   1      46.809  27.261  35.095  1.00  0.00     0.198 A 
ATOM     89  C   UNL A   1      45.351  25.438  35.656  1.00  0.00     0.198 A 
ATOM     90  F   UNL A   1      43.122  25.440  34.903  1.00  0.00    -0.203 F 
ATOM     91  F   UNL A   1      48.021  27.831  35.132  1.00  0.00    -0.200 F 
ATOM     92  C   UNL A   1      46.598  26.041  35.719  1.00  0.00     0.200 A 
ATOM     93  F   UNL A   1      45.142  24.265  36.268  1.00  0.00    -0.200 F 
ATOM     94  F   UNL A   1      47.601  25.441  36.375  1.00  0.00    -0.200 F 
ENDBRANCH  61  84
ENDBRANCH  35  36
ENDBRANCH  28  30
ENDBRANCH  27  28
ENDBRANCH  26  27
ENDBRANCH  25  26
ENDBRANCH  24  25
ENDBRANCH   1  24
TORSDOF 19
ENDMDL
