MODEL 1
REMARK VINA RESULT:     -11.0      0.000      0.000
REMARK SMILES O=C(OCCOCCOC(=O)c1cccc(N[C@H]2CCCC[C@@H]2O)c1)c1ccc(-c2c3nc(c(-c4c(F)c(F)c(F)c(F)c4F)c4ccc([nH]4)c(-c4c(F)c(F)c(F)c(F)c4F)c4nc(c(-c5c(F)c(F)c(F)c(F)c5F)c5ccc2[nH]5)C=C4)C=C3)cc1
REMARK SMILES IDX 7 1 6 2 5 3 4 4 3 5 2 6 1 7 26 8 27 9 88 10 28 11 87 12
REMARK SMILES IDX 29 13 30 14 31 15 81 16 32 17 86 18 80 19 82 20 33 21 85 22
REMARK SMILES IDX 79 23 78 24 34 26 66 27 46 28 65 29 47 30 50 31 64 32 83 33
REMARK SMILES IDX 48 34 49 35 63 37 84 38 51 39 35 40 36 41 44 42 37 43 38 44
REMARK SMILES IDX 42 45 45 46 39 47 40 48 43 49 41 50 67 51 68 52 76 53 69 54
REMARK SMILES IDX 70 55 74 56 77 57 71 58 72 59 75 60 73 61 52 62 53 63 61 64
REMARK SMILES IDX 54 65 55 66 59 67 62 68 56 69 57 70 60 71 58 72 8 73 9 74
REMARK SMILES IDX 10 75 11 76 12 77 13 78 25 79 14 80 16 81 15 82 17 83 18 85
REMARK SMILES IDX 19 86 23 87 20 88 22 89 21 90 24 91
REMARK H PARENT 82 25 50 36 17 84 24 92
REMARK Flexibility Score: inf
ROOT
ATOM      1  C   UNL A   1      35.047  33.786  28.552  1.00  0.00     0.202 C 
ENDROOT
BRANCH   1   2
ATOM      2  O   UNL A   1      34.115  34.745  28.036  1.00  0.00    -0.374 OA
BRANCH   2   3
ATOM      3  C   UNL A   1      33.927  35.922  28.823  1.00  0.00     0.202 C 
BRANCH   3   4
ATOM      4  C   UNL A   1      32.518  36.080  29.398  1.00  0.00     0.261 C 
BRANCH   4   5
ATOM      5  O   UNL A   1      32.584  36.447  30.785  1.00  0.00    -0.460 OA
BRANCH   5   6
ATOM      6  C   UNL A   1      32.642  35.634  31.865  1.00  0.00     0.338 C 
ATOM      7  O   UNL A   1      31.645  35.529  32.577  1.00  0.00    -0.246 OA
BRANCH   6   8
ATOM      8  C   UNL A   1      33.855  34.852  32.252  1.00  0.00     0.060 A 
ATOM      9  C   UNL A   1      33.857  33.502  32.613  1.00  0.00     0.016 A 
ATOM     10  C   UNL A   1      35.095  35.503  32.140  1.00  0.00     0.016 A 
ATOM     11  C   UNL A   1      35.032  32.828  32.905  1.00  0.00     0.010 A 
ATOM     12  C   UNL A   1      36.289  34.823  32.392  1.00  0.00     0.010 A 
ATOM     13  C   UNL A   1      36.252  33.482  32.786  1.00  0.00    -0.014 A 
BRANCH  13  14
ATOM     14  C   UNL A   1      37.464  32.743  33.171  1.00  0.00     0.031 A 
ATOM     15  C   UNL A   1      38.060  33.009  34.514  1.00  0.00     0.074 A 
ATOM     16  C   UNL A   1      37.922  31.768  32.368  1.00  0.00     0.049 A 
ATOM     17  N   UNL A   1      39.139  32.515  35.054  1.00  0.00    -0.248 NA
ATOM     18  C   UNL A   1      37.327  33.952  35.375  1.00  0.00     0.031 C 
ATOM     19  C   UNL A   1      37.310  31.370  31.098  1.00  0.00     0.029 A 
ATOM     20  N   UNL A   1      38.985  30.919  32.510  1.00  0.00    -0.354 N 
ATOM     21  C   UNL A   1      39.234  33.110  36.304  1.00  0.00     0.074 A 
ATOM     22  C   UNL A   1      38.104  33.999  36.446  1.00  0.00     0.031 C 
ATOM     23  C   UNL A   1      38.005  30.344  30.581  1.00  0.00     0.029 A 
ATOM     24  C   UNL A   1      39.144  30.064  31.446  1.00  0.00     0.049 A 
ATOM     25  H   UNL A   1      39.578  30.920  33.295  1.00  0.00     0.167 HD
ATOM     26  C   UNL A   1      40.197  32.930  37.236  1.00  0.00     0.037 A 
ATOM     27  C   UNL A   1      40.133  29.187  31.192  1.00  0.00     0.037 A 
ATOM     28  C   UNL A   1      41.309  32.037  37.052  1.00  0.00     0.049 A 
ATOM     29  C   UNL A   1      41.238  29.067  32.207  1.00  0.00     0.074 A 
ATOM     30  C   UNL A   1      42.384  31.803  37.887  1.00  0.00     0.029 A 
ATOM     31  N   UNL A   1      41.482  31.227  35.934  1.00  0.00    -0.354 N 
ATOM     32  N   UNL A   1      41.368  29.677  33.363  1.00  0.00    -0.248 NA
ATOM     33  C   UNL A   1      42.340  28.154  31.882  1.00  0.00     0.031 C 
ATOM     34  C   UNL A   1      43.232  30.888  37.252  1.00  0.00     0.029 A 
ATOM     35  C   UNL A   1      42.659  30.508  36.046  1.00  0.00     0.049 A 
ATOM     36  H   UNL A   1      40.858  31.173  35.174  1.00  0.00     0.167 HD
ATOM     37  C   UNL A   1      42.557  29.219  33.909  1.00  0.00     0.074 A 
ATOM     38  C   UNL A   1      43.098  28.260  32.965  1.00  0.00     0.031 C 
ATOM     39  C   UNL A   1      43.154  29.560  35.077  1.00  0.00     0.037 A 
BRANCH  26  40
ATOM     40  C   UNL A   1      40.118  33.781  38.468  1.00  0.00     0.064 A 
ATOM     41  C   UNL A   1      40.820  34.991  38.587  1.00  0.00     0.173 A 
ATOM     42  C   UNL A   1      39.374  33.344  39.575  1.00  0.00     0.173 A 
ATOM     43  F   UNL A   1      41.572  35.438  37.571  1.00  0.00    -0.203 F 
ATOM     44  C   UNL A   1      40.812  35.708  39.783  1.00  0.00     0.198 A 
ATOM     45  C   UNL A   1      39.346  34.078  40.757  1.00  0.00     0.198 A 
ATOM     46  F   UNL A   1      38.691  32.190  39.518  1.00  0.00    -0.203 F 
ATOM     47  F   UNL A   1      41.550  36.822  39.899  1.00  0.00    -0.200 F 
ATOM     48  C   UNL A   1      40.075  35.252  40.865  1.00  0.00     0.200 A 
ATOM     49  F   UNL A   1      38.631  33.636  41.801  1.00  0.00    -0.200 F 
ATOM     50  F   UNL A   1      40.082  35.934  42.019  1.00  0.00    -0.200 F 
ENDBRANCH  26  40
BRANCH  27  51
ATOM     51  C   UNL A   1      40.144  28.422  29.917  1.00  0.00     0.064 A 
ATOM     52  C   UNL A   1      39.511  27.179  29.800  1.00  0.00     0.173 A 
ATOM     53  C   UNL A   1      40.788  28.931  28.776  1.00  0.00     0.173 A 
ATOM     54  F   UNL A   1      38.901  26.636  30.864  1.00  0.00    -0.203 F 
ATOM     55  C   UNL A   1      39.530  26.469  28.599  1.00  0.00     0.198 A 
ATOM     56  C   UNL A   1      40.778  28.236  27.568  1.00  0.00     0.198 A 
ATOM     57  F   UNL A   1      41.414  30.116  28.829  1.00  0.00    -0.203 F 
ATOM     58  F   UNL A   1      38.951  25.263  28.528  1.00  0.00    -0.200 F 
ATOM     59  C   UNL A   1      40.155  27.002  27.482  1.00  0.00     0.200 A 
ATOM     60  F   UNL A   1      41.372  28.765  26.488  1.00  0.00    -0.200 F 
ATOM     61  F   UNL A   1      40.165  26.324  26.327  1.00  0.00    -0.200 F 
ENDBRANCH  27  51
BRANCH  39  62
ATOM     62  C   UNL A   1      44.446  28.873  35.400  1.00  0.00     0.064 A 
ATOM     63  C   UNL A   1      45.681  29.418  35.022  1.00  0.00     0.173 A 
ATOM     64  C   UNL A   1      44.446  27.686  36.146  1.00  0.00     0.173 A 
ATOM     65  F   UNL A   1      45.728  30.544  34.294  1.00  0.00    -0.203 F 
ATOM     66  C   UNL A   1      46.872  28.788  35.366  1.00  0.00     0.198 A 
ATOM     67  C   UNL A   1      45.639  27.074  36.514  1.00  0.00     0.198 A 
ATOM     68  F   UNL A   1      43.288  27.131  36.535  1.00  0.00    -0.203 F 
ATOM     69  F   UNL A   1      48.041  29.303  34.961  1.00  0.00    -0.200 F 
ATOM     70  C   UNL A   1      46.851  27.622  36.119  1.00  0.00     0.200 A 
ATOM     71  F   UNL A   1      45.618  25.957  37.255  1.00  0.00    -0.200 F 
ATOM     72  F   UNL A   1      48.000  27.024  36.462  1.00  0.00    -0.200 F 
ENDBRANCH  39  62
ENDBRANCH  13  14
ENDBRANCH   6   8
ENDBRANCH   5   6
ENDBRANCH   4   5
ENDBRANCH   3   4
ENDBRANCH   2   3
ENDBRANCH   1   2
BRANCH   1  73
ATOM     73  C   UNL A   1      34.286  32.538  29.009  1.00  0.00     0.261 C 
BRANCH  73  74
ATOM     74  O   UNL A   1      33.856  31.822  27.842  1.00  0.00    -0.460 OA
BRANCH  74  75
ATOM     75  C   UNL A   1      34.431  30.600  27.690  1.00  0.00     0.338 C 
ATOM     76  O   UNL A   1      35.448  30.188  28.221  1.00  0.00    -0.246 OA
BRANCH  75  77
ATOM     77  C   UNL A   1      33.463  29.750  26.966  1.00  0.00     0.062 A 
ATOM     78  C   UNL A   1      33.161  28.491  27.491  1.00  0.00     0.016 A 
ATOM     79  C   UNL A   1      32.792  30.225  25.834  1.00  0.00     0.041 A 
ATOM     80  C   UNL A   1      32.143  27.742  26.917  1.00  0.00     0.003 A 
ATOM     81  C   UNL A   1      31.810  29.458  25.204  1.00  0.00     0.035 A 
ATOM     82  C   UNL A   1      31.474  28.230  25.791  1.00  0.00     0.026 A 
BRANCH  81  83
ATOM     83  N   UNL A   1      31.284  29.923  24.011  1.00  0.00    -0.380 N 
ATOM     84  H   UNL A   1      31.923  30.227  23.327  1.00  0.00     0.160 HD
BRANCH  83  85
ATOM     85  C   UNL A   1      29.854  30.004  23.676  1.00  0.00     0.107 C 
ATOM     86  C   UNL A   1      29.230  31.350  24.074  1.00  0.00     0.027 C 
ATOM     87  C   UNL A   1      29.606  29.578  22.214  1.00  0.00     0.136 C 
ATOM     88  C   UNL A   1      27.790  31.488  23.595  1.00  0.00     0.002 C 
ATOM     89  C   UNL A   1      28.154  29.777  21.796  1.00  0.00     0.034 C 
ATOM     90  C   UNL A   1      27.676  31.191  22.104  1.00  0.00     0.003 C 
BRANCH  87  91
ATOM     91  O   UNL A   1      29.945  28.194  22.060  1.00  0.00    -0.391 OA
ATOM     92  H   UNL A   1      30.281  28.042  21.163  1.00  0.00     0.211 HD
ENDBRANCH  87  91
ENDBRANCH  83  85
ENDBRANCH  81  83
ENDBRANCH  75  77
ENDBRANCH  74  75
ENDBRANCH  73  74
ENDBRANCH   1  73
TORSDOF 17
ENDMDL
MODEL 2
REMARK VINA RESULT:     -10.9      4.897     10.652
REMARK SMILES O=C(OCCOCCOC(=O)c1cccc(N[C@H]2CCCC[C@@H]2O)c1)c1ccc(-c2c3nc(c(-c4c(F)c(F)c(F)c(F)c4F)c4ccc([nH]4)c(-c4c(F)c(F)c(F)c(F)c4F)c4nc(c(-c5c(F)c(F)c(F)c(F)c5F)c5ccc2[nH]5)C=C4)C=C3)cc1
REMARK SMILES IDX 7 1 6 2 5 3 4 4 3 5 2 6 1 7 26 8 27 9 88 10 28 11 87 12
REMARK SMILES IDX 29 13 30 14 31 15 81 16 32 17 86 18 80 19 82 20 33 21 85 22
REMARK SMILES IDX 79 23 78 24 34 26 66 27 46 28 65 29 47 30 50 31 64 32 83 33
REMARK SMILES IDX 48 34 49 35 63 37 84 38 51 39 35 40 36 41 44 42 37 43 38 44
REMARK SMILES IDX 42 45 45 46 39 47 40 48 43 49 41 50 67 51 68 52 76 53 69 54
REMARK SMILES IDX 70 55 74 56 77 57 71 58 72 59 75 60 73 61 52 62 53 63 61 64
REMARK SMILES IDX 54 65 55 66 59 67 62 68 56 69 57 70 60 71 58 72 8 73 9 74
REMARK SMILES IDX 10 75 11 76 12 77 13 78 25 79 14 80 16 81 15 82 17 83 18 85
REMARK SMILES IDX 19 86 23 87 20 88 22 89 21 90 24 91
REMARK H PARENT 82 25 50 36 17 84 24 92
REMARK Flexibility Score: inf
ROOT
ATOM      1  C   UNL A   1      43.478  19.189  25.412  1.00  0.00     0.202 C 
ENDROOT
BRANCH   1   2
ATOM      2  O   UNL A   1      43.602  20.389  24.639  1.00  0.00    -0.374 OA
BRANCH   2   3
ATOM      3  C   UNL A   1      44.833  21.100  24.779  1.00  0.00     0.202 C 
BRANCH   3   4
ATOM      4  C   UNL A   1      44.808  22.204  25.837  1.00  0.00     0.261 C 
BRANCH   4   5
ATOM      5  O   UNL A   1      43.969  23.288  25.408  1.00  0.00    -0.460 OA
BRANCH   5   6
ATOM      6  C   UNL A   1      44.198  24.617  25.513  1.00  0.00     0.338 C 
ATOM      7  O   UNL A   1      44.835  25.177  24.624  1.00  0.00    -0.246 OA
BRANCH   6   8
ATOM      8  C   UNL A   1      43.721  25.455  26.655  1.00  0.00     0.060 A 
ATOM      9  C   UNL A   1      43.974  26.820  26.809  1.00  0.00     0.016 A 
ATOM     10  C   UNL A   1      42.867  24.837  27.585  1.00  0.00     0.016 A 
ATOM     11  C   UNL A   1      43.451  27.544  27.868  1.00  0.00     0.010 A 
ATOM     12  C   UNL A   1      42.300  25.565  28.634  1.00  0.00     0.010 A 
ATOM     13  C   UNL A   1      42.604  26.922  28.778  1.00  0.00    -0.014 A 
BRANCH  13  14
ATOM     14  C   UNL A   1      42.127  27.717  29.920  1.00  0.00     0.031 A 
ATOM     15  C   UNL A   1      40.860  28.493  29.763  1.00  0.00     0.074 A 
ATOM     16  C   UNL A   1      42.762  27.621  31.100  1.00  0.00     0.049 A 
ATOM     17  N   UNL A   1      40.269  29.292  30.607  1.00  0.00    -0.248 NA
ATOM     18  C   UNL A   1      40.155  28.335  28.480  1.00  0.00     0.031 C 
ATOM     19  C   UNL A   1      43.933  26.779  31.356  1.00  0.00     0.029 A 
ATOM     20  N   UNL A   1      42.503  28.211  32.306  1.00  0.00    -0.354 N 
ATOM     21  C   UNL A   1      39.140  29.757  29.948  1.00  0.00     0.074 A 
ATOM     22  C   UNL A   1      39.126  29.152  28.636  1.00  0.00     0.031 C 
ATOM     23  C   UNL A   1      44.284  26.900  32.646  1.00  0.00     0.029 A 
ATOM     24  C   UNL A   1      43.409  27.877  33.282  1.00  0.00     0.049 A 
ATOM     25  H   UNL A   1      41.742  28.816  32.460  1.00  0.00     0.167 HD
ATOM     26  C   UNL A   1      38.212  30.627  30.408  1.00  0.00     0.037 A 
ATOM     27  C   UNL A   1      43.533  28.351  34.536  1.00  0.00     0.037 A 
ATOM     28  C   UNL A   1      38.266  31.211  31.720  1.00  0.00     0.049 A 
ATOM     29  C   UNL A   1      42.537  29.382  34.994  1.00  0.00     0.074 A 
ATOM     30  C   UNL A   1      37.428  32.148  32.292  1.00  0.00     0.029 A 
ATOM     31  N   UNL A   1      39.235  30.903  32.671  1.00  0.00    -0.354 N 
ATOM     32  N   UNL A   1      41.504  29.876  34.350  1.00  0.00    -0.248 NA
ATOM     33  C   UNL A   1      42.727  29.934  36.340  1.00  0.00     0.031 C 
ATOM     34  C   UNL A   1      37.917  32.443  33.569  1.00  0.00     0.029 A 
ATOM     35  C   UNL A   1      39.029  31.649  33.817  1.00  0.00     0.049 A 
ATOM     36  H   UNL A   1      39.961  30.250  32.546  1.00  0.00     0.167 HD
ATOM     37  C   UNL A   1      40.915  30.789  35.212  1.00  0.00     0.074 A 
ATOM     38  C   UNL A   1      41.695  30.761  36.434  1.00  0.00     0.031 C 
ATOM     39  C   UNL A   1      39.834  31.583  35.013  1.00  0.00     0.037 A 
BRANCH  26  40
ATOM     40  C   UNL A   1      37.140  31.047  29.447  1.00  0.00     0.064 A 
ATOM     41  C   UNL A   1      37.122  32.321  28.857  1.00  0.00     0.173 A 
ATOM     42  C   UNL A   1      36.075  30.179  29.161  1.00  0.00     0.173 A 
ATOM     43  F   UNL A   1      38.098  33.202  29.122  1.00  0.00    -0.203 F 
ATOM     44  C   UNL A   1      36.058  32.722  28.051  1.00  0.00     0.198 A 
ATOM     45  C   UNL A   1      35.029  30.573  28.332  1.00  0.00     0.198 A 
ATOM     46  F   UNL A   1      36.039  28.953  29.705  1.00  0.00    -0.203 F 
ATOM     47  F   UNL A   1      36.024  33.969  27.559  1.00  0.00    -0.200 F 
ATOM     48  C   UNL A   1      35.014  31.848  27.788  1.00  0.00     0.200 A 
ATOM     49  F   UNL A   1      34.022  29.726  28.079  1.00  0.00    -0.200 F 
ATOM     50  F   UNL A   1      33.983  32.241  27.028  1.00  0.00    -0.200 F 
ENDBRANCH  26  40
BRANCH  27  51
ATOM     51  C   UNL A   1      44.661  27.904  35.396  1.00  0.00     0.064 A 
ATOM     52  C   UNL A   1      44.545  26.793  36.241  1.00  0.00     0.173 A 
ATOM     53  C   UNL A   1      45.892  28.581  35.381  1.00  0.00     0.173 A 
ATOM     54  F   UNL A   1      43.385  26.124  36.311  1.00  0.00    -0.203 F 
ATOM     55  C   UNL A   1      45.609  26.383  37.045  1.00  0.00     0.198 A 
ATOM     56  C   UNL A   1      46.964  28.151  36.161  1.00  0.00     0.198 A 
ATOM     57  F   UNL A   1      46.061  29.653  34.594  1.00  0.00    -0.203 F 
ATOM     58  F   UNL A   1      45.456  25.343  37.875  1.00  0.00    -0.200 F 
ATOM     59  C   UNL A   1      46.820  27.057  36.998  1.00  0.00     0.200 A 
ATOM     60  F   UNL A   1      48.137  28.798  36.098  1.00  0.00    -0.200 F 
ATOM     61  F   UNL A   1      47.844  26.658  37.764  1.00  0.00    -0.200 F 
ENDBRANCH  27  51
BRANCH  39  62
ATOM     62  C   UNL A   1      39.428  32.466  36.154  1.00  0.00     0.064 A 
ATOM     63  C   UNL A   1      39.982  33.742  36.327  1.00  0.00     0.173 A 
ATOM     64  C   UNL A   1      38.431  32.049  37.048  1.00  0.00     0.173 A 
ATOM     65  F   UNL A   1      40.950  34.175  35.504  1.00  0.00    -0.203 F 
ATOM     66  C   UNL A   1      39.563  34.564  37.367  1.00  0.00     0.198 A 
ATOM     67  C   UNL A   1      37.994  32.886  38.068  1.00  0.00     0.198 A 
ATOM     68  F   UNL A   1      37.868  30.839  36.917  1.00  0.00    -0.203 F 
ATOM     69  F   UNL A   1      40.134  35.765  37.540  1.00  0.00    -0.200 F 
ATOM     70  C   UNL A   1      38.564  34.140  38.231  1.00  0.00     0.200 A 
ATOM     71  F   UNL A   1      37.017  32.481  38.893  1.00  0.00    -0.200 F 
ATOM     72  F   UNL A   1      38.152  34.939  39.225  1.00  0.00    -0.200 F 
ENDBRANCH  39  62
ENDBRANCH  13  14
ENDBRANCH   6   8
ENDBRANCH   5   6
ENDBRANCH   4   5
ENDBRANCH   3   4
ENDBRANCH   2   3
ENDBRANCH   1   2
BRANCH   1  73
ATOM     73  C   UNL A   1      42.169  19.234  26.208  1.00  0.00     0.261 C 
BRANCH  73  74
ATOM     74  O   UNL A   1      41.497  20.462  25.896  1.00  0.00    -0.460 OA
BRANCH  74  75
ATOM     75  C   UNL A   1      41.227  21.244  26.974  1.00  0.00     0.338 C 
ATOM     76  O   UNL A   1      41.954  21.469  27.927  1.00  0.00    -0.246 OA
BRANCH  75  77
ATOM     77  C   UNL A   1      39.991  21.996  26.669  1.00  0.00     0.062 A 
ATOM     78  C   UNL A   1      39.860  23.291  27.176  1.00  0.00     0.016 A 
ATOM     79  C   UNL A   1      39.016  21.465  25.818  1.00  0.00     0.041 A 
ATOM     80  C   UNL A   1      38.783  24.070  26.776  1.00  0.00     0.003 A 
ATOM     81  C   UNL A   1      37.893  22.211  25.456  1.00  0.00     0.035 A 
ATOM     82  C   UNL A   1      37.819  23.532  25.919  1.00  0.00     0.026 A 
BRANCH  81  83
ATOM     83  N   UNL A   1      36.899  21.582  24.726  1.00  0.00    -0.380 N 
ATOM     84  H   UNL A   1      37.130  20.726  24.300  1.00  0.00     0.160 HD
BRANCH  83  85
ATOM     85  C   UNL A   1      35.530  22.081  24.531  1.00  0.00     0.107 C 
ATOM     86  C   UNL A   1      35.392  22.953  23.275  1.00  0.00     0.027 C 
ATOM     87  C   UNL A   1      34.505  20.932  24.642  1.00  0.00     0.136 C 
ATOM     88  C   UNL A   1      33.947  23.346  22.994  1.00  0.00     0.002 C 
ATOM     89  C   UNL A   1      33.089  21.392  24.314  1.00  0.00     0.034 C 
ATOM     90  C   UNL A   1      33.038  22.122  22.977  1.00  0.00     0.003 C 
BRANCH  87  91
ATOM     91  O   UNL A   1      34.522  20.408  25.976  1.00  0.00    -0.391 OA
ATOM     92  H   UNL A   1      35.038  20.997  26.547  1.00  0.00     0.211 HD
ENDBRANCH  87  91
ENDBRANCH  83  85
ENDBRANCH  81  83
ENDBRANCH  75  77
ENDBRANCH  74  75
ENDBRANCH  73  74
ENDBRANCH   1  73
TORSDOF 17
ENDMDL
MODEL 3
REMARK VINA RESULT:     -10.7      3.472      8.678
REMARK SMILES O=C(OCCOCCOC(=O)c1cccc(N[C@H]2CCCC[C@@H]2O)c1)c1ccc(-c2c3nc(c(-c4c(F)c(F)c(F)c(F)c4F)c4ccc([nH]4)c(-c4c(F)c(F)c(F)c(F)c4F)c4nc(c(-c5c(F)c(F)c(F)c(F)c5F)c5ccc2[nH]5)C=C4)C=C3)cc1
REMARK SMILES IDX 7 1 6 2 5 3 4 4 3 5 2 6 1 7 26 8 27 9 88 10 28 11 87 12
REMARK SMILES IDX 29 13 30 14 31 15 81 16 32 17 86 18 80 19 82 20 33 21 85 22
REMARK SMILES IDX 79 23 78 24 34 26 66 27 46 28 65 29 47 30 50 31 64 32 83 33
REMARK SMILES IDX 48 34 49 35 63 37 84 38 51 39 35 40 36 41 44 42 37 43 38 44
REMARK SMILES IDX 42 45 45 46 39 47 40 48 43 49 41 50 67 51 68 52 76 53 69 54
REMARK SMILES IDX 70 55 74 56 77 57 71 58 72 59 75 60 73 61 52 62 53 63 61 64
REMARK SMILES IDX 54 65 55 66 59 67 62 68 56 69 57 70 60 71 58 72 8 73 9 74
REMARK SMILES IDX 10 75 11 76 12 77 13 78 25 79 14 80 16 81 15 82 17 83 18 85
REMARK SMILES IDX 19 86 23 87 20 88 22 89 21 90 24 91
REMARK H PARENT 82 25 50 36 17 84 24 92
REMARK Flexibility Score: inf
ROOT
ATOM      1  C   UNL A   1      32.506  28.986  26.926  1.00  0.00     0.202 C 
ENDROOT
BRANCH   1   2
ATOM      2  O   UNL A   1      31.723  30.185  26.893  1.00  0.00    -0.374 OA
BRANCH   2   3
ATOM      3  C   UNL A   1      32.454  31.409  26.803  1.00  0.00     0.202 C 
BRANCH   3   4
ATOM      4  C   UNL A   1      31.670  32.648  27.238  1.00  0.00     0.261 C 
BRANCH   4   5
ATOM      5  O   UNL A   1      32.538  33.790  27.304  1.00  0.00    -0.460 OA
BRANCH   5   6
ATOM      6  C   UNL A   1      33.104  34.350  28.399  1.00  0.00     0.338 C 
ATOM      7  O   UNL A   1      32.653  35.415  28.815  1.00  0.00    -0.246 OA
BRANCH   6   8
ATOM      8  C   UNL A   1      34.255  33.749  29.138  1.00  0.00     0.060 A 
ATOM      9  C   UNL A   1      34.195  32.585  29.907  1.00  0.00     0.016 A 
ATOM     10  C   UNL A   1      35.512  34.350  28.956  1.00  0.00     0.016 A 
ATOM     11  C   UNL A   1      35.319  32.056  30.520  1.00  0.00     0.010 A 
ATOM     12  C   UNL A   1      36.661  33.804  29.535  1.00  0.00     0.010 A 
ATOM     13  C   UNL A   1      36.558  32.657  30.328  1.00  0.00    -0.014 A 
BRANCH  13  14
ATOM     14  C   UNL A   1      37.709  32.097  31.051  1.00  0.00     0.031 A 
ATOM     15  C   UNL A   1      38.556  31.081  30.357  1.00  0.00     0.074 A 
ATOM     16  C   UNL A   1      38.041  32.601  32.251  1.00  0.00     0.049 A 
ATOM     17  N   UNL A   1      39.589  30.421  30.801  1.00  0.00    -0.248 NA
ATOM     18  C   UNL A   1      38.196  30.780  28.961  1.00  0.00     0.031 C 
ATOM     19  C   UNL A   1      37.329  33.686  32.932  1.00  0.00     0.029 A 
ATOM     20  N   UNL A   1      39.070  32.293  33.097  1.00  0.00    -0.354 N 
ATOM     21  C   UNL A   1      39.984  29.602  29.753  1.00  0.00     0.074 A 
ATOM     22  C   UNL A   1      39.084  29.848  28.650  1.00  0.00     0.031 C 
ATOM     23  C   UNL A   1      37.952  33.959  34.089  1.00  0.00     0.029 A 
ATOM     24  C   UNL A   1      39.057  33.023  34.260  1.00  0.00     0.049 A 
ATOM     25  H   UNL A   1      39.752  31.612  32.894  1.00  0.00     0.167 HD
ATOM     26  C   UNL A   1      41.005  28.715  29.734  1.00  0.00     0.037 A 
ATOM     27  C   UNL A   1      39.833  32.909  35.354  1.00  0.00     0.037 A 
ATOM     28  C   UNL A   1      41.875  28.497  30.857  1.00  0.00     0.049 A 
ATOM     29  C   UNL A   1      40.909  31.855  35.340  1.00  0.00     0.074 A 
ATOM     30  C   UNL A   1      42.909  27.592  30.995  1.00  0.00     0.029 A 
ATOM     31  N   UNL A   1      41.801  29.209  32.050  1.00  0.00    -0.354 N 
ATOM     32  N   UNL A   1      41.244  31.031  34.374  1.00  0.00    -0.248 NA
ATOM     33  C   UNL A   1      41.701  31.702  36.564  1.00  0.00     0.031 C 
ATOM     34  C   UNL A   1      43.427  27.721  32.288  1.00  0.00     0.029 A 
ATOM     35  C   UNL A   1      42.755  28.747  32.940  1.00  0.00     0.049 A 
ATOM     36  H   UNL A   1      41.162  29.935  32.236  1.00  0.00     0.167 HD
ATOM     37  C   UNL A   1      42.291  30.267  34.867  1.00  0.00     0.074 A 
ATOM     38  C   UNL A   1      42.549  30.745  36.212  1.00  0.00     0.031 C 
ATOM     39  C   UNL A   1      42.974  29.259  34.271  1.00  0.00     0.037 A 
BRANCH  26  40
ATOM     40  C   UNL A   1      41.151  27.875  28.501  1.00  0.00     0.064 A 
ATOM     41  C   UNL A   1      41.977  28.256  27.430  1.00  0.00     0.173 A 
ATOM     42  C   UNL A   1      40.401  26.698  28.361  1.00  0.00     0.173 A 
ATOM     43  F   UNL A   1      42.690  29.389  27.498  1.00  0.00    -0.203 F 
ATOM     44  C   UNL A   1      42.011  27.510  26.253  1.00  0.00     0.198 A 
ATOM     45  C   UNL A   1      40.461  25.940  27.196  1.00  0.00     0.198 A 
ATOM     46  F   UNL A   1      39.590  26.292  29.351  1.00  0.00    -0.203 F 
ATOM     47  F   UNL A   1      42.749  27.932  25.216  1.00  0.00    -0.200 F 
ATOM     48  C   UNL A   1      41.256  26.353  26.137  1.00  0.00     0.200 A 
ATOM     49  F   UNL A   1      39.731  24.822  27.086  1.00  0.00    -0.200 F 
ATOM     50  F   UNL A   1      41.277  25.647  24.998  1.00  0.00    -0.200 F 
ENDBRANCH  26  40
BRANCH  27  51
ATOM     51  C   UNL A   1      39.576  33.760  36.545  1.00  0.00     0.064 A 
ATOM     52  C   UNL A   1      38.775  33.317  37.606  1.00  0.00     0.173 A 
ATOM     53  C   UNL A   1      40.140  35.043  36.651  1.00  0.00     0.173 A 
ATOM     54  F   UNL A   1      38.195  32.110  37.546  1.00  0.00    -0.203 F 
ATOM     55  C   UNL A   1      38.540  34.125  38.719  1.00  0.00     0.198 A 
ATOM     56  C   UNL A   1      39.930  35.836  37.778  1.00  0.00     0.198 A 
ATOM     57  F   UNL A   1      40.913  35.522  35.666  1.00  0.00    -0.203 F 
ATOM     58  F   UNL A   1      37.736  33.692  39.699  1.00  0.00    -0.200 F 
ATOM     59  C   UNL A   1      39.124  35.379  38.808  1.00  0.00     0.200 A 
ATOM     60  F   UNL A   1      40.510  37.042  37.863  1.00  0.00    -0.200 F 
ATOM     61  F   UNL A   1      38.903  36.151  39.880  1.00  0.00    -0.200 F 
ENDBRANCH  27  51
BRANCH  39  62
ATOM     62  C   UNL A   1      44.076  28.628  35.067  1.00  0.00     0.064 A 
ATOM     63  C   UNL A   1      43.839  27.526  35.901  1.00  0.00     0.173 A 
ATOM     64  C   UNL A   1      45.392  29.098  34.947  1.00  0.00     0.173 A 
ATOM     65  F   UNL A   1      42.593  27.053  36.058  1.00  0.00    -0.203 F 
ATOM     66  C   UNL A   1      44.880  26.927  36.601  1.00  0.00     0.198 A 
ATOM     67  C   UNL A   1      46.435  28.477  35.625  1.00  0.00     0.198 A 
ATOM     68  F   UNL A   1      45.666  30.145  34.156  1.00  0.00    -0.203 F 
ATOM     69  F   UNL A   1      44.627  25.900  37.424  1.00  0.00    -0.200 F 
ATOM     70  C   UNL A   1      46.178  27.396  36.455  1.00  0.00     0.200 A 
ATOM     71  F   UNL A   1      47.690  28.921  35.471  1.00  0.00    -0.200 F 
ATOM     72  F   UNL A   1      47.182  26.808  37.120  1.00  0.00    -0.200 F 
ENDBRANCH  39  62
ENDBRANCH  13  14
ENDBRANCH   6   8
ENDBRANCH   5   6
ENDBRANCH   4   5
ENDBRANCH   3   4
ENDBRANCH   2   3
ENDBRANCH   1   2
BRANCH   1  73
ATOM     73  C   UNL A   1      31.603  27.785  26.625  1.00  0.00     0.261 C 
BRANCH  73  74
ATOM     74  O   UNL A   1      32.324  26.589  26.953  1.00  0.00    -0.460 OA
BRANCH  74  75
ATOM     75  C   UNL A   1      31.748  25.444  26.501  1.00  0.00     0.338 C 
ATOM     76  O   UNL A   1      30.570  25.258  26.247  1.00  0.00    -0.246 OA
BRANCH  75  77
ATOM     77  C   UNL A   1      32.842  24.528  26.114  1.00  0.00     0.062 A 
ATOM     78  C   UNL A   1      34.034  25.080  25.640  1.00  0.00     0.016 A 
ATOM     79  C   UNL A   1      32.726  23.147  26.304  1.00  0.00     0.041 A 
ATOM     80  C   UNL A   1      35.126  24.252  25.419  1.00  0.00     0.003 A 
ATOM     81  C   UNL A   1      33.793  22.290  26.026  1.00  0.00     0.035 A 
ATOM     82  C   UNL A   1      35.001  22.874  25.620  1.00  0.00     0.026 A 
BRANCH  81  83
ATOM     83  N   UNL A   1      33.571  20.926  26.102  1.00  0.00    -0.380 N 
ATOM     84  H   UNL A   1      33.997  20.444  26.847  1.00  0.00     0.160 HD
BRANCH  83  85
ATOM     85  C   UNL A   1      32.756  20.134  25.169  1.00  0.00     0.107 C 
ATOM     86  C   UNL A   1      32.859  20.637  23.721  1.00  0.00     0.027 C 
ATOM     87  C   UNL A   1      33.017  18.624  25.354  1.00  0.00     0.136 C 
ATOM     88  C   UNL A   1      32.134  19.729  22.737  1.00  0.00     0.002 C 
ATOM     89  C   UNL A   1      32.287  17.784  24.313  1.00  0.00     0.034 C 
ATOM     90  C   UNL A   1      32.572  18.278  22.901  1.00  0.00     0.003 C 
BRANCH  87  91
ATOM     91  O   UNL A   1      32.581  18.225  26.659  1.00  0.00    -0.391 OA
ATOM     92  H   UNL A   1      33.147  17.508  26.984  1.00  0.00     0.211 HD
ENDBRANCH  87  91
ENDBRANCH  83  85
ENDBRANCH  81  83
ENDBRANCH  75  77
ENDBRANCH  74  75
ENDBRANCH  73  74
ENDBRANCH   1  73
TORSDOF 17
ENDMDL
