MODEL 1
REMARK VINA RESULT:     -13.1      0.000      0.000
REMARK SMILES O=C(OCCOCCOC(=O)[C@H](NC(=O)[C@H]1CC[C@@H](CNC(=O)[C@@H]2Cc3ccccc3C[NH2+]2)CC1)c1ccccc1)c1ccc(-c2c3nc(c(-c4c(F)c(F)c(F)c(F)c4F)c4ccc([nH]4)c(-c4c(F)c(F)c(F)c(F)c4F)c4nc(c(-c5c(F)c(F)c(F)c(F)c5F)c5ccc2[nH]5)C=C4)C=C3)cc1
REMARK SMILES IDX 7 1 6 2 5 3 4 4 3 5 2 6 1 7 42 8 43 9 104 10 44 11 103 12
REMARK SMILES IDX 45 13 46 14 47 15 97 16 48 17 102 18 96 19 98 20 49 21
REMARK SMILES IDX 101 22 95 23 94 24 50 26 82 27 62 28 81 29 63 30 66 31 80 32
REMARK SMILES IDX 99 33 64 34 65 35 79 37 100 38 67 39 51 40 52 41 60 42 53 43
REMARK SMILES IDX 54 44 58 45 61 46 55 47 56 48 59 49 57 50 83 51 84 52 92 53
REMARK SMILES IDX 85 54 86 55 90 56 93 57 87 58 88 59 91 60 89 61 68 62 69 63
REMARK SMILES IDX 77 64 70 65 71 66 75 67 78 68 72 69 73 70 76 71 74 72 8 73
REMARK SMILES IDX 9 74 10 75 11 76 12 77 36 78 37 79 41 80 38 81 40 82 39 83
REMARK SMILES IDX 13 84 14 85 15 87 16 88 35 89 17 90 34 91 18 92 19 93 20 94
REMARK SMILES IDX 21 95 22 96 23 98 24 99 25 100 33 101 26 102 32 103 27 106
REMARK SMILES IDX 31 107 28 108 30 109 29 110
REMARK H PARENT 98 25 66 36 13 86 21 97 33 104 33 105
REMARK Flexibility Score: inf
ROOT
ATOM      1  C   UNL A   1      37.120  21.420  24.738  1.00  0.00     0.202 C 
ENDROOT
BRANCH   1   2
ATOM      2  O   UNL A   1      36.932  20.029  24.997  1.00  0.00    -0.374 OA
BRANCH   2   3
ATOM      3  C   UNL A   1      38.090  19.196  24.978  1.00  0.00     0.202 C 
BRANCH   3   4
ATOM      4  C   UNL A   1      39.273  19.817  25.724  1.00  0.00     0.261 C 
BRANCH   4   5
ATOM      5  O   UNL A   1      40.450  19.018  25.570  1.00  0.00    -0.460 OA
BRANCH   5   6
ATOM      6  C   UNL A   1      41.676  19.320  26.056  1.00  0.00     0.338 C 
ATOM      7  O   UNL A   1      42.489  18.409  26.212  1.00  0.00    -0.246 OA
BRANCH   6   8
ATOM      8  C   UNL A   1      42.138  20.718  26.332  1.00  0.00     0.060 A 
ATOM      9  C   UNL A   1      42.324  21.735  25.387  1.00  0.00     0.016 A 
ATOM     10  C   UNL A   1      42.295  21.044  27.689  1.00  0.00     0.016 A 
ATOM     11  C   UNL A   1      42.640  23.030  25.761  1.00  0.00     0.010 A 
ATOM     12  C   UNL A   1      42.627  22.340  28.079  1.00  0.00     0.010 A 
ATOM     13  C   UNL A   1      42.803  23.329  27.106  1.00  0.00    -0.014 A 
BRANCH  13  14
ATOM     14  C   UNL A   1      43.342  24.646  27.453  1.00  0.00     0.031 A 
ATOM     15  C   UNL A   1      42.403  25.622  28.076  1.00  0.00     0.074 A 
ATOM     16  C   UNL A   1      44.649  24.898  27.289  1.00  0.00     0.049 A 
ATOM     17  N   UNL A   1      42.574  26.885  28.340  1.00  0.00    -0.248 NA
ATOM     18  C   UNL A   1      41.082  25.093  28.456  1.00  0.00     0.031 C 
ATOM     19  C   UNL A   1      45.641  23.928  26.823  1.00  0.00     0.029 A 
ATOM     20  N   UNL A   1      45.365  26.043  27.495  1.00  0.00    -0.354 N 
ATOM     21  C   UNL A   1      41.367  27.313  28.874  1.00  0.00     0.074 A 
ATOM     22  C   UNL A   1      40.476  26.178  28.907  1.00  0.00     0.031 C 
ATOM     23  C   UNL A   1      46.839  24.530  26.757  1.00  0.00     0.029 A 
ATOM     24  C   UNL A   1      46.675  25.938  27.104  1.00  0.00     0.049 A 
ATOM     25  H   UNL A   1      44.979  26.861  27.886  1.00  0.00     0.167 HD
ATOM     26  C   UNL A   1      41.044  28.564  29.274  1.00  0.00     0.037 A 
ATOM     27  C   UNL A   1      47.607  26.901  26.984  1.00  0.00     0.037 A 
ATOM     28  C   UNL A   1      41.972  29.659  29.205  1.00  0.00     0.049 A 
ATOM     29  C   UNL A   1      47.204  28.305  27.349  1.00  0.00     0.074 A 
ATOM     30  C   UNL A   1      41.776  30.986  29.523  1.00  0.00     0.029 A 
ATOM     31  N   UNL A   1      43.288  29.533  28.770  1.00  0.00    -0.354 N 
ATOM     32  N   UNL A   1      46.046  28.741  27.791  1.00  0.00    -0.248 NA
ATOM     33  C   UNL A   1      48.218  29.352  27.190  1.00  0.00     0.031 C 
ATOM     34  C   UNL A   1      42.958  31.675  29.226  1.00  0.00     0.029 A 
ATOM     35  C   UNL A   1      43.912  30.766  28.787  1.00  0.00     0.049 A 
ATOM     36  H   UNL A   1      43.713  28.689  28.492  1.00  0.00     0.167 HD
ATOM     37  C   UNL A   1      46.192  30.107  27.979  1.00  0.00     0.074 A 
ATOM     38  C   UNL A   1      47.559  30.424  27.610  1.00  0.00     0.031 C 
ATOM     39  C   UNL A   1      45.286  31.018  28.415  1.00  0.00     0.037 A 
BRANCH  26  40
ATOM     40  C   UNL A   1      39.621  28.793  29.694  1.00  0.00     0.064 A 
ATOM     41  C   UNL A   1      38.650  29.298  28.815  1.00  0.00     0.173 A 
ATOM     42  C   UNL A   1      39.248  28.588  31.031  1.00  0.00     0.173 A 
ATOM     43  F   UNL A   1      38.961  29.544  27.534  1.00  0.00    -0.203 F 
ATOM     44  C   UNL A   1      37.378  29.640  29.272  1.00  0.00     0.198 A 
ATOM     45  C   UNL A   1      37.966  28.899  31.476  1.00  0.00     0.198 A 
ATOM     46  F   UNL A   1      40.138  28.117  31.919  1.00  0.00    -0.203 F 
ATOM     47  F   UNL A   1      36.497  30.206  28.434  1.00  0.00    -0.200 F 
ATOM     48  C   UNL A   1      37.038  29.439  30.601  1.00  0.00     0.200 A 
ATOM     49  F   UNL A   1      37.639  28.703  32.762  1.00  0.00    -0.200 F 
ATOM     50  F   UNL A   1      35.822  29.790  31.043  1.00  0.00    -0.200 F 
ENDBRANCH  26  40
BRANCH  27  51
ATOM     51  C   UNL A   1      48.948  26.566  26.440  1.00  0.00     0.064 A 
ATOM     52  C   UNL A   1      49.278  26.811  25.102  1.00  0.00     0.173 A 
ATOM     53  C   UNL A   1      49.951  26.033  27.268  1.00  0.00     0.173 A 
ATOM     54  F   UNL A   1      48.355  27.303  24.264  1.00  0.00    -0.203 F 
ATOM     55  C   UNL A   1      50.556  26.536  24.612  1.00  0.00     0.198 A 
ATOM     56  C   UNL A   1      51.235  25.785  26.786  1.00  0.00     0.198 A 
ATOM     57  F   UNL A   1      49.692  25.779  28.560  1.00  0.00    -0.203 F 
ATOM     58  F   UNL A   1      50.838  26.755  23.321  1.00  0.00    -0.200 F 
ATOM     59  C   UNL A   1      51.535  26.033  25.457  1.00  0.00     0.200 A 
ATOM     60  F   UNL A   1      52.180  25.318  27.612  1.00  0.00    -0.200 F 
ATOM     61  F   UNL A   1      52.767  25.787  24.989  1.00  0.00    -0.200 F 
ENDBRANCH  27  51
BRANCH  39  62
ATOM     62  C   UNL A   1      45.760  32.433  28.554  1.00  0.00     0.064 A 
ATOM     63  C   UNL A   1      46.434  32.871  29.702  1.00  0.00     0.173 A 
ATOM     64  C   UNL A   1      45.625  33.324  27.479  1.00  0.00     0.173 A 
ATOM     65  F   UNL A   1      46.572  32.056  30.757  1.00  0.00    -0.203 F 
ATOM     66  C   UNL A   1      46.952  34.160  29.770  1.00  0.00     0.198 A 
ATOM     67  C   UNL A   1      46.171  34.600  27.539  1.00  0.00     0.198 A 
ATOM     68  F   UNL A   1      44.995  32.941  26.359  1.00  0.00    -0.203 F 
ATOM     69  F   UNL A   1      47.570  34.573  30.885  1.00  0.00    -0.200 F 
ATOM     70  C   UNL A   1      46.832  35.018  28.686  1.00  0.00     0.200 A 
ATOM     71  F   UNL A   1      46.073  35.420  26.485  1.00  0.00    -0.200 F 
ATOM     72  F   UNL A   1      47.357  36.249  28.743  1.00  0.00    -0.200 F 
ENDBRANCH  39  62
ENDBRANCH  13  14
ENDBRANCH   6   8
ENDBRANCH   5   6
ENDBRANCH   4   5
ENDBRANCH   3   4
ENDBRANCH   2   3
ENDBRANCH   1   2
BRANCH   1  73
ATOM     73  C   UNL A   1      35.765  22.075  24.481  1.00  0.00     0.261 C 
BRANCH  73  74
ATOM     74  O   UNL A   1      34.734  21.145  24.837  1.00  0.00    -0.461 OA
BRANCH  74  75
ATOM     75  C   UNL A   1      33.584  21.306  24.120  1.00  0.00     0.333 C 
ATOM     76  O   UNL A   1      33.455  21.967  23.099  1.00  0.00    -0.249 OA
BRANCH  75  77
ATOM     77  C   UNL A   1      32.430  20.538  24.783  1.00  0.00     0.223 C 
BRANCH  77  78
ATOM     78  C   UNL A   1      32.744  19.066  24.639  1.00  0.00    -0.014 A 
ATOM     79  C   UNL A   1      32.891  18.481  23.363  1.00  0.00     0.006 A 
ATOM     80  C   UNL A   1      32.844  18.245  25.769  1.00  0.00     0.006 A 
ATOM     81  C   UNL A   1      33.194  17.129  23.225  1.00  0.00     0.000 A 
ATOM     82  C   UNL A   1      33.128  16.885  25.626  1.00  0.00     0.000 A 
ATOM     83  C   UNL A   1      33.316  16.333  24.358  1.00  0.00     0.000 A 
ENDBRANCH  77  78
BRANCH  77  84
ATOM     84  N   UNL A   1      32.303  21.117  26.145  1.00  0.00    -0.339 N 
ATOM     85  C   UNL A   1      32.160  22.392  26.607  1.00  0.00     0.224 C 
ATOM     86  H   UNL A   1      32.326  20.441  26.860  1.00  0.00     0.164 HD
ATOM     87  O   UNL A   1      32.668  22.680  27.691  1.00  0.00    -0.275 OA
BRANCH  85  88
ATOM     88  C   UNL A   1      31.299  23.363  25.825  1.00  0.00     0.078 C 
ATOM     89  C   UNL A   1      30.738  24.362  26.829  1.00  0.00     0.014 C 
ATOM     90  C   UNL A   1      32.056  24.203  24.775  1.00  0.00     0.014 C 
ATOM     91  C   UNL A   1      29.649  25.169  26.158  1.00  0.00     0.006 C 
ATOM     92  C   UNL A   1      31.182  25.330  24.173  1.00  0.00     0.006 C 
ATOM     93  C   UNL A   1      30.315  26.130  25.184  1.00  0.00     0.008 C 
BRANCH  93  94
ATOM     94  C   UNL A   1      31.106  27.177  25.996  1.00  0.00     0.119 C 
BRANCH  94  95
ATOM     95  N   UNL A   1      32.400  27.411  25.421  1.00  0.00    -0.351 N 
ATOM     96  C   UNL A   1      32.819  28.235  24.436  1.00  0.00     0.278 C 
ATOM     97  H   UNL A   1      33.118  26.867  25.820  1.00  0.00     0.163 HD
ATOM     98  O   UNL A   1      34.028  28.148  24.163  1.00  0.00    -0.268 OA
BRANCH  96  99
ATOM     99  C   UNL A   1      31.941  29.318  23.732  1.00  0.00     0.277 C 
ATOM    100  C   UNL A   1      30.764  29.935  24.538  1.00  0.00     0.111 C 
ATOM    101  N   UNL A   1      31.549  28.722  22.409  1.00  0.00    -0.332 N 
ATOM    102  C   UNL A   1      29.649  30.430  23.636  1.00  0.00    -0.033 A 
ATOM    103  C   UNL A   1      30.134  28.371  22.351  1.00  0.00     0.298 C 
ATOM    104  H   UNL A   1      32.101  27.880  22.253  1.00  0.00     0.347 HD
ATOM    105  H   UNL A   1      31.722  29.424  21.690  1.00  0.00     0.347 HD
ATOM    106  C   UNL A   1      28.964  31.632  23.837  1.00  0.00     0.004 A 
ATOM    107  C   UNL A   1      29.324  29.624  22.532  1.00  0.00     0.010 A 
ATOM    108  C   UNL A   1      27.989  32.037  22.921  1.00  0.00     0.000 A 
ATOM    109  C   UNL A   1      28.338  30.026  21.628  1.00  0.00     0.010 A 
ATOM    110  C   UNL A   1      27.678  31.238  21.818  1.00  0.00     0.001 A 
ENDBRANCH  96  99
ENDBRANCH  94  95
ENDBRANCH  93  94
ENDBRANCH  85  88
ENDBRANCH  77  84
ENDBRANCH  75  77
ENDBRANCH  74  75
ENDBRANCH  73  74
ENDBRANCH   1  73
TORSDOF 20
ENDMDL
MODEL 2
REMARK VINA RESULT:     -12.9      1.865      4.193
REMARK SMILES O=C(OCCOCCOC(=O)[C@H](NC(=O)[C@H]1CC[C@@H](CNC(=O)[C@@H]2Cc3ccccc3C[NH2+]2)CC1)c1ccccc1)c1ccc(-c2c3nc(c(-c4c(F)c(F)c(F)c(F)c4F)c4ccc([nH]4)c(-c4c(F)c(F)c(F)c(F)c4F)c4nc(c(-c5c(F)c(F)c(F)c(F)c5F)c5ccc2[nH]5)C=C4)C=C3)cc1
REMARK SMILES IDX 7 1 6 2 5 3 4 4 3 5 2 6 1 7 42 8 43 9 104 10 44 11 103 12
REMARK SMILES IDX 45 13 46 14 47 15 97 16 48 17 102 18 96 19 98 20 49 21
REMARK SMILES IDX 101 22 95 23 94 24 50 26 82 27 62 28 81 29 63 30 66 31 80 32
REMARK SMILES IDX 99 33 64 34 65 35 79 37 100 38 67 39 51 40 52 41 60 42 53 43
REMARK SMILES IDX 54 44 58 45 61 46 55 47 56 48 59 49 57 50 83 51 84 52 92 53
REMARK SMILES IDX 85 54 86 55 90 56 93 57 87 58 88 59 91 60 89 61 68 62 69 63
REMARK SMILES IDX 77 64 70 65 71 66 75 67 78 68 72 69 73 70 76 71 74 72 8 73
REMARK SMILES IDX 9 74 10 75 11 76 12 77 36 78 37 79 41 80 38 81 40 82 39 83
REMARK SMILES IDX 13 84 14 85 15 87 16 88 35 89 17 90 34 91 18 92 19 93 20 94
REMARK SMILES IDX 21 95 22 96 23 98 24 99 25 100 33 101 26 102 32 103 27 106
REMARK SMILES IDX 31 107 28 108 30 109 29 110
REMARK H PARENT 98 25 66 36 13 86 21 97 33 104 33 105
REMARK Flexibility Score: inf
ROOT
ATOM      1  C   UNL A   1      36.034  22.218  25.332  1.00  0.00     0.202 C 
ENDROOT
BRANCH   1   2
ATOM      2  O   UNL A   1      36.797  21.017  25.452  1.00  0.00    -0.374 OA
BRANCH   2   3
ATOM      3  C   UNL A   1      38.210  21.118  25.279  1.00  0.00     0.202 C 
BRANCH   3   4
ATOM      4  C   UNL A   1      38.865  19.764  24.995  1.00  0.00     0.261 C 
BRANCH   4   5
ATOM      5  O   UNL A   1      39.743  19.389  26.061  1.00  0.00    -0.460 OA
BRANCH   5   6
ATOM      6  C   UNL A   1      41.079  19.602  26.092  1.00  0.00     0.338 C 
ATOM      7  O   UNL A   1      41.826  18.720  25.669  1.00  0.00    -0.246 OA
BRANCH   6   8
ATOM      8  C   UNL A   1      41.704  20.892  26.526  1.00  0.00     0.060 A 
ATOM      9  C   UNL A   1      42.183  21.195  27.808  1.00  0.00     0.016 A 
ATOM     10  C   UNL A   1      41.913  21.834  25.507  1.00  0.00     0.016 A 
ATOM     11  C   UNL A   1      42.854  22.376  28.076  1.00  0.00     0.010 A 
ATOM     12  C   UNL A   1      42.573  23.034  25.765  1.00  0.00     0.010 A 
ATOM     13  C   UNL A   1      43.038  23.300  27.057  1.00  0.00    -0.014 A 
BRANCH  13  14
ATOM     14  C   UNL A   1      43.558  24.620  27.418  1.00  0.00     0.031 A 
ATOM     15  C   UNL A   1      42.609  25.571  28.064  1.00  0.00     0.074 A 
ATOM     16  C   UNL A   1      44.859  24.897  27.246  1.00  0.00     0.049 A 
ATOM     17  N   UNL A   1      42.761  26.833  28.346  1.00  0.00    -0.248 NA
ATOM     18  C   UNL A   1      41.300  25.014  28.449  1.00  0.00     0.031 C 
ATOM     19  C   UNL A   1      45.863  23.950  26.756  1.00  0.00     0.029 A 
ATOM     20  N   UNL A   1      45.558  26.051  27.463  1.00  0.00    -0.354 N 
ATOM     21  C   UNL A   1      41.553  27.233  28.898  1.00  0.00     0.074 A 
ATOM     22  C   UNL A   1      40.681  26.083  28.922  1.00  0.00     0.031 C 
ATOM     23  C   UNL A   1      47.050  24.574  26.688  1.00  0.00     0.029 A 
ATOM     24  C   UNL A   1      46.866  25.973  27.058  1.00  0.00     0.049 A 
ATOM     25  H   UNL A   1      45.163  26.856  27.869  1.00  0.00     0.167 HD
ATOM     26  C   UNL A   1      41.213  28.472  29.319  1.00  0.00     0.037 A 
ATOM     27  C   UNL A   1      47.780  26.953  26.943  1.00  0.00     0.037 A 
ATOM     28  C   UNL A   1      42.122  29.583  29.257  1.00  0.00     0.049 A 
ATOM     29  C   UNL A   1      47.357  28.346  27.333  1.00  0.00     0.074 A 
ATOM     30  C   UNL A   1      41.907  30.902  29.597  1.00  0.00     0.029 A 
ATOM     31  N   UNL A   1      43.436  29.486  28.808  1.00  0.00    -0.354 N 
ATOM     32  N   UNL A   1      46.196  28.755  27.792  1.00  0.00    -0.248 NA
ATOM     33  C   UNL A   1      48.352  29.411  27.180  1.00  0.00     0.031 C 
ATOM     34  C   UNL A   1      43.075  31.615  29.300  1.00  0.00     0.029 A 
ATOM     35  C   UNL A   1      44.039  30.729  28.838  1.00  0.00     0.049 A 
ATOM     36  H   UNL A   1      43.872  28.654  28.514  1.00  0.00     0.167 HD
ATOM     37  C   UNL A   1      46.322  30.120  27.999  1.00  0.00     0.074 A 
ATOM     38  C   UNL A   1      47.680  30.466  27.622  1.00  0.00     0.031 C 
ATOM     39  C   UNL A   1      45.405  31.010  28.457  1.00  0.00     0.037 A 
BRANCH  26  40
ATOM     40  C   UNL A   1      39.791  28.671  29.756  1.00  0.00     0.064 A 
ATOM     41  C   UNL A   1      38.740  28.841  28.841  1.00  0.00     0.173 A 
ATOM     42  C   UNL A   1      39.491  28.785  31.122  1.00  0.00     0.173 A 
ATOM     43  F   UNL A   1      38.976  28.776  27.522  1.00  0.00    -0.203 F 
ATOM     44  C   UNL A   1      37.457  29.172  29.274  1.00  0.00     0.198 A 
ATOM     45  C   UNL A   1      38.201  29.082  31.553  1.00  0.00     0.198 A 
ATOM     46  F   UNL A   1      40.457  28.642  32.042  1.00  0.00    -0.203 F 
ATOM     47  F   UNL A   1      36.491  29.420  28.378  1.00  0.00    -0.200 F 
ATOM     48  C   UNL A   1      37.189  29.291  30.630  1.00  0.00     0.200 A 
ATOM     49  F   UNL A   1      37.944  29.195  32.864  1.00  0.00    -0.200 F 
ATOM     50  F   UNL A   1      35.961  29.631  31.044  1.00  0.00    -0.200 F 
ENDBRANCH  26  40
BRANCH  27  51
ATOM     51  C   UNL A   1      49.122  26.649  26.382  1.00  0.00     0.064 A 
ATOM     52  C   UNL A   1      49.421  26.877  25.034  1.00  0.00     0.173 A 
ATOM     53  C   UNL A   1      50.154  26.163  27.202  1.00  0.00     0.173 A 
ATOM     54  F   UNL A   1      48.468  27.324  24.203  1.00  0.00    -0.203 F 
ATOM     55  C   UNL A   1      50.698  26.632  24.526  1.00  0.00     0.198 A 
ATOM     56  C   UNL A   1      51.437  25.946  26.702  1.00  0.00     0.198 A 
ATOM     57  F   UNL A   1      49.926  25.928  28.502  1.00  0.00    -0.203 F 
ATOM     58  F   UNL A   1      50.950  26.835  23.226  1.00  0.00    -0.200 F 
ATOM     59  C   UNL A   1      51.706  26.177  25.362  1.00  0.00     0.200 A 
ATOM     60  F   UNL A   1      52.411  25.525  27.519  1.00  0.00    -0.200 F 
ATOM     61  F   UNL A   1      52.937  25.959  24.878  1.00  0.00    -0.200 F 
ENDBRANCH  27  51
BRANCH  39  62
ATOM     62  C   UNL A   1      45.856  32.430  28.613  1.00  0.00     0.064 A 
ATOM     63  C   UNL A   1      45.675  33.373  27.593  1.00  0.00     0.173 A 
ATOM     64  C   UNL A   1      46.380  32.866  29.839  1.00  0.00     0.173 A 
ATOM     65  F   UNL A   1      45.191  32.995  26.401  1.00  0.00    -0.203 F 
ATOM     66  C   UNL A   1      46.011  34.708  27.795  1.00  0.00     0.198 A 
ATOM     67  C   UNL A   1      46.685  34.206  30.047  1.00  0.00     0.198 A 
ATOM     68  F   UNL A   1      46.561  31.997  30.845  1.00  0.00    -0.203 F 
ATOM     69  F   UNL A   1      45.857  35.592  26.800  1.00  0.00    -0.200 F 
ATOM     70  C   UNL A   1      46.502  35.125  29.023  1.00  0.00     0.200 A 
ATOM     71  F   UNL A   1      47.140  34.611  31.240  1.00  0.00    -0.200 F 
ATOM     72  F   UNL A   1      46.798  36.416  29.224  1.00  0.00    -0.200 F 
ENDBRANCH  39  62
ENDBRANCH  13  14
ENDBRANCH   6   8
ENDBRANCH   5   6
ENDBRANCH   4   5
ENDBRANCH   3   4
ENDBRANCH   2   3
ENDBRANCH   1   2
BRANCH   1  73
ATOM     73  C   UNL A   1      35.134  22.370  26.555  1.00  0.00     0.261 C 
BRANCH  73  74
ATOM     74  O   UNL A   1      34.426  23.610  26.449  1.00  0.00    -0.461 OA
BRANCH  74  75
ATOM     75  C   UNL A   1      33.069  23.466  26.455  1.00  0.00     0.333 C 
ATOM     76  O   UNL A   1      32.384  23.115  27.405  1.00  0.00    -0.249 OA
BRANCH  75  77
ATOM     77  C   UNL A   1      32.490  23.798  25.071  1.00  0.00     0.223 C 
BRANCH  77  78
ATOM     78  C   UNL A   1      32.362  22.490  24.325  1.00  0.00    -0.014 A 
ATOM     79  C   UNL A   1      32.438  21.258  25.010  1.00  0.00     0.006 A 
ATOM     80  C   UNL A   1      32.217  22.474  22.932  1.00  0.00     0.006 A 
ATOM     81  C   UNL A   1      32.307  20.050  24.331  1.00  0.00     0.000 A 
ATOM     82  C   UNL A   1      32.106  21.260  22.252  1.00  0.00     0.000 A 
ATOM     83  C   UNL A   1      32.137  20.053  22.951  1.00  0.00     0.000 A 
ENDBRANCH  77  78
BRANCH  77  84
ATOM     84  N   UNL A   1      31.267  24.598  25.337  1.00  0.00    -0.339 N 
ATOM     85  C   UNL A   1      31.059  25.840  25.859  1.00  0.00     0.224 C 
ATOM     86  H   UNL A   1      30.436  24.135  25.085  1.00  0.00     0.164 HD
ATOM     87  O   UNL A   1      30.039  26.033  26.520  1.00  0.00    -0.275 OA
BRANCH  85  88
ATOM     88  C   UNL A   1      32.032  26.950  25.517  1.00  0.00     0.078 C 
ATOM     89  C   UNL A   1      31.259  28.259  25.614  1.00  0.00     0.014 C 
ATOM     90  C   UNL A   1      33.224  27.093  26.487  1.00  0.00     0.014 C 
ATOM     91  C   UNL A   1      32.092  29.365  25.004  1.00  0.00     0.006 C 
ATOM     92  C   UNL A   1      34.052  28.375  26.226  1.00  0.00     0.006 C 
ATOM     93  C   UNL A   1      33.235  29.670  25.962  1.00  0.00     0.008 C 
BRANCH  93  94
ATOM     94  C   UNL A   1      32.645  30.309  27.236  1.00  0.00     0.119 C 
BRANCH  94  95
ATOM     95  N   UNL A   1      32.806  31.735  27.223  1.00  0.00    -0.351 N 
ATOM     96  C   UNL A   1      33.589  32.567  27.945  1.00  0.00     0.278 C 
ATOM     97  H   UNL A   1      32.239  32.195  26.562  1.00  0.00     0.163 HD
ATOM     98  O   UNL A   1      33.440  33.773  27.692  1.00  0.00    -0.268 OA
BRANCH  96  99
ATOM     99  C   UNL A   1      34.696  32.116  28.951  1.00  0.00     0.277 C 
ATOM    100  C   UNL A   1      34.751  32.821  30.335  1.00  0.00     0.111 C 
ATOM    101  N   UNL A   1      35.985  32.157  28.177  1.00  0.00    -0.332 N 
ATOM    102  C   UNL A   1      36.146  32.807  30.931  1.00  0.00    -0.033 A 
ATOM    103  C   UNL A   1      36.858  33.246  28.602  1.00  0.00     0.298 C 
ATOM    104  H   UNL A   1      35.769  32.278  27.188  1.00  0.00     0.347 HD
ATOM    105  H   UNL A   1      36.477  31.281  28.351  1.00  0.00     0.347 HD
ATOM    106  C   UNL A   1      36.410  32.561  32.281  1.00  0.00     0.004 A 
ATOM    107  C   UNL A   1      37.213  33.036  30.046  1.00  0.00     0.010 A 
ATOM    108  C   UNL A   1      37.732  32.510  32.732  1.00  0.00     0.000 A 
ATOM    109  C   UNL A   1      38.532  33.001  30.505  1.00  0.00     0.010 A 
ATOM    110  C   UNL A   1      38.791  32.727  31.847  1.00  0.00     0.001 A 
ENDBRANCH  96  99
ENDBRANCH  94  95
ENDBRANCH  93  94
ENDBRANCH  85  88
ENDBRANCH  77  84
ENDBRANCH  75  77
ENDBRANCH  74  75
ENDBRANCH  73  74
ENDBRANCH   1  73
TORSDOF 20
ENDMDL
MODEL 3
REMARK VINA RESULT:     -12.8      4.281      8.222
REMARK SMILES O=C(OCCOCCOC(=O)[C@H](NC(=O)[C@H]1CC[C@@H](CNC(=O)[C@@H]2Cc3ccccc3C[NH2+]2)CC1)c1ccccc1)c1ccc(-c2c3nc(c(-c4c(F)c(F)c(F)c(F)c4F)c4ccc([nH]4)c(-c4c(F)c(F)c(F)c(F)c4F)c4nc(c(-c5c(F)c(F)c(F)c(F)c5F)c5ccc2[nH]5)C=C4)C=C3)cc1
REMARK SMILES IDX 7 1 6 2 5 3 4 4 3 5 2 6 1 7 42 8 43 9 104 10 44 11 103 12
REMARK SMILES IDX 45 13 46 14 47 15 97 16 48 17 102 18 96 19 98 20 49 21
REMARK SMILES IDX 101 22 95 23 94 24 50 26 82 27 62 28 81 29 63 30 66 31 80 32
REMARK SMILES IDX 99 33 64 34 65 35 79 37 100 38 67 39 51 40 52 41 60 42 53 43
REMARK SMILES IDX 54 44 58 45 61 46 55 47 56 48 59 49 57 50 83 51 84 52 92 53
REMARK SMILES IDX 85 54 86 55 90 56 93 57 87 58 88 59 91 60 89 61 68 62 69 63
REMARK SMILES IDX 77 64 70 65 71 66 75 67 78 68 72 69 73 70 76 71 74 72 8 73
REMARK SMILES IDX 9 74 10 75 11 76 12 77 36 78 37 79 41 80 38 81 40 82 39 83
REMARK SMILES IDX 13 84 14 85 15 87 16 88 35 89 17 90 34 91 18 92 19 93 20 94
REMARK SMILES IDX 21 95 22 96 23 98 24 99 25 100 33 101 26 102 32 103 27 106
REMARK SMILES IDX 31 107 28 108 30 109 29 110
REMARK H PARENT 98 25 66 36 13 86 21 97 33 104 33 105
REMARK Flexibility Score: inf
ROOT
ATOM      1  C   UNL A   1      37.032  23.437  24.545  1.00  0.00     0.202 C 
ENDROOT
BRANCH   1   2
ATOM      2  O   UNL A   1      37.932  22.348  24.752  1.00  0.00    -0.374 OA
BRANCH   2   3
ATOM      3  C   UNL A   1      38.643  22.311  25.988  1.00  0.00     0.202 C 
BRANCH   3   4
ATOM      4  C   UNL A   1      39.821  21.335  25.958  1.00  0.00     0.261 C 
BRANCH   4   5
ATOM      5  O   UNL A   1      40.952  21.878  26.647  1.00  0.00    -0.460 OA
BRANCH   5   6
ATOM      6  C   UNL A   1      41.603  23.017  26.315  1.00  0.00     0.338 C 
ATOM      7  O   UNL A   1      42.270  23.034  25.280  1.00  0.00    -0.246 OA
BRANCH   6   8
ATOM      8  C   UNL A   1      41.488  24.295  27.088  1.00  0.00     0.060 A 
ATOM      9  C   UNL A   1      42.277  25.441  26.924  1.00  0.00     0.016 A 
ATOM     10  C   UNL A   1      40.410  24.361  27.985  1.00  0.00     0.016 A 
ATOM     11  C   UNL A   1      42.010  26.614  27.609  1.00  0.00     0.010 A 
ATOM     12  C   UNL A   1      40.139  25.531  28.692  1.00  0.00     0.010 A 
ATOM     13  C   UNL A   1      40.948  26.655  28.500  1.00  0.00    -0.014 A 
BRANCH  13  14
ATOM     14  C   UNL A   1      40.823  27.834  29.360  1.00  0.00     0.031 A 
ATOM     15  C   UNL A   1      41.851  28.012  30.424  1.00  0.00     0.074 A 
ATOM     16  C   UNL A   1      39.867  28.742  29.115  1.00  0.00     0.049 A 
ATOM     17  N   UNL A   1      41.894  28.871  31.402  1.00  0.00    -0.248 NA
ATOM     18  C   UNL A   1      42.998  27.088  30.374  1.00  0.00     0.031 C 
ATOM     19  C   UNL A   1      38.927  28.692  27.993  1.00  0.00     0.029 A 
ATOM     20  N   UNL A   1      39.529  29.881  29.790  1.00  0.00    -0.354 N 
ATOM     21  C   UNL A   1      43.046  28.561  32.111  1.00  0.00     0.074 A 
ATOM     22  C   UNL A   1      43.679  27.445  31.450  1.00  0.00     0.031 C 
ATOM     23  C   UNL A   1      38.100  29.747  28.073  1.00  0.00     0.029 A 
ATOM     24  C   UNL A   1      38.410  30.494  29.287  1.00  0.00     0.049 A 
ATOM     25  H   UNL A   1      40.037  30.226  30.559  1.00  0.00     0.167 HD
ATOM     26  C   UNL A   1      43.503  29.156  33.235  1.00  0.00     0.037 A 
ATOM     27  C   UNL A   1      37.691  31.507  29.804  1.00  0.00     0.037 A 
ATOM     28  C   UNL A   1      42.820  30.258  33.856  1.00  0.00     0.049 A 
ATOM     29  C   UNL A   1      38.165  32.102  31.104  1.00  0.00     0.074 A 
ATOM     30  C   UNL A   1      43.131  30.930  35.019  1.00  0.00     0.029 A 
ATOM     31  N   UNL A   1      41.664  30.840  33.344  1.00  0.00    -0.354 N 
ATOM     32  N   UNL A   1      39.213  31.775  31.825  1.00  0.00    -0.248 NA
ATOM     33  C   UNL A   1      37.360  33.187  31.672  1.00  0.00     0.031 C 
ATOM     34  C   UNL A   1      42.130  31.883  35.242  1.00  0.00     0.029 A 
ATOM     35  C   UNL A   1      41.232  31.850  34.183  1.00  0.00     0.049 A 
ATOM     36  H   UNL A   1      41.220  30.574  32.507  1.00  0.00     0.167 HD
ATOM     37  C   UNL A   1      39.208  32.622  32.923  1.00  0.00     0.074 A 
ATOM     38  C   UNL A   1      38.051  33.485  32.765  1.00  0.00     0.031 C 
ATOM     39  C   UNL A   1      40.073  32.686  33.966  1.00  0.00     0.037 A 
BRANCH  26  40
ATOM     40  C   UNL A   1      44.709  28.542  33.883  1.00  0.00     0.064 A 
ATOM     41  C   UNL A   1      44.615  27.469  34.783  1.00  0.00     0.173 A 
ATOM     42  C   UNL A   1      45.978  29.102  33.666  1.00  0.00     0.173 A 
ATOM     43  F   UNL A   1      43.422  26.917  35.053  1.00  0.00    -0.203 F 
ATOM     44  C   UNL A   1      45.733  27.017  35.482  1.00  0.00     0.198 A 
ATOM     45  C   UNL A   1      47.100  28.626  34.340  1.00  0.00     0.198 A 
ATOM     46  F   UNL A   1      46.127  30.136  32.824  1.00  0.00    -0.203 F 
ATOM     47  F   UNL A   1      45.602  26.053  36.404  1.00  0.00    -0.200 F 
ATOM     48  C   UNL A   1      46.974  27.595  35.258  1.00  0.00     0.200 A 
ATOM     49  F   UNL A   1      48.298  29.185  34.122  1.00  0.00    -0.200 F 
ATOM     50  F   UNL A   1      48.044  27.175  35.947  1.00  0.00    -0.200 F 
ENDBRANCH  26  40
BRANCH  27  51
ATOM     51  C   UNL A   1      36.444  31.947  29.127  1.00  0.00     0.064 A 
ATOM     52  C   UNL A   1      36.298  33.248  28.633  1.00  0.00     0.173 A 
ATOM     53  C   UNL A   1      35.381  31.052  28.919  1.00  0.00     0.173 A 
ATOM     54  F   UNL A   1      37.274  34.148  28.818  1.00  0.00    -0.203 F 
ATOM     55  C   UNL A   1      35.141  33.639  27.957  1.00  0.00     0.198 A 
ATOM     56  C   UNL A   1      34.237  31.433  28.220  1.00  0.00     0.198 A 
ATOM     57  F   UNL A   1      35.465  29.791  29.369  1.00  0.00    -0.203 F 
ATOM     58  F   UNL A   1      35.016  34.898  27.517  1.00  0.00    -0.200 F 
ATOM     59  C   UNL A   1      34.116  32.728  27.743  1.00  0.00     0.200 A 
ATOM     60  F   UNL A   1      33.260  30.543  27.999  1.00  0.00    -0.200 F 
ATOM     61  F   UNL A   1      33.013  33.099  27.078  1.00  0.00    -0.200 F 
ENDBRANCH  27  51
BRANCH  39  62
ATOM     62  C   UNL A   1      39.822  33.749  34.992  1.00  0.00     0.064 A 
ATOM     63  C   UNL A   1      39.114  33.478  36.170  1.00  0.00     0.173 A 
ATOM     64  C   UNL A   1      40.391  35.021  34.833  1.00  0.00     0.173 A 
ATOM     65  F   UNL A   1      38.542  32.279  36.355  1.00  0.00    -0.203 F 
ATOM     66  C   UNL A   1      38.977  34.452  37.154  1.00  0.00     0.198 A 
ATOM     67  C   UNL A   1      40.278  35.981  35.831  1.00  0.00     0.198 A 
ATOM     68  F   UNL A   1      41.084  35.318  33.724  1.00  0.00    -0.203 F 
ATOM     69  F   UNL A   1      38.273  34.187  38.262  1.00  0.00    -0.200 F 
ATOM     70  C   UNL A   1      39.570  35.696  36.990  1.00  0.00     0.200 A 
ATOM     71  F   UNL A   1      40.867  37.174  35.681  1.00  0.00    -0.200 F 
ATOM     72  F   UNL A   1      39.460  36.623  37.951  1.00  0.00    -0.200 F 
ENDBRANCH  39  62
ENDBRANCH  13  14
ENDBRANCH   6   8
ENDBRANCH   5   6
ENDBRANCH   4   5
ENDBRANCH   3   4
ENDBRANCH   2   3
ENDBRANCH   1   2
BRANCH   1  73
ATOM     73  C   UNL A   1      35.751  22.919  23.898  1.00  0.00     0.261 C 
BRANCH  73  74
ATOM     74  O   UNL A   1      35.619  21.525  24.197  1.00  0.00    -0.461 OA
BRANCH  74  75
ATOM     75  C   UNL A   1      34.893  21.275  25.326  1.00  0.00     0.333 C 
ATOM     76  O   UNL A   1      35.312  21.301  26.474  1.00  0.00    -0.249 OA
BRANCH  75  77
ATOM     77  C   UNL A   1      33.440  20.934  24.962  1.00  0.00     0.223 C 
BRANCH  77  78
ATOM     78  C   UNL A   1      33.459  19.564  24.324  1.00  0.00    -0.014 A 
ATOM     79  C   UNL A   1      32.507  19.211  23.343  1.00  0.00     0.006 A 
ATOM     80  C   UNL A   1      34.390  18.600  24.732  1.00  0.00     0.006 A 
ATOM     81  C   UNL A   1      32.528  17.955  22.742  1.00  0.00     0.000 A 
ATOM     82  C   UNL A   1      34.395  17.335  24.141  1.00  0.00     0.000 A 
ATOM     83  C   UNL A   1      33.475  17.019  23.140  1.00  0.00     0.000 A 
ENDBRANCH  77  78
BRANCH  77  84
ATOM     84  N   UNL A   1      32.663  21.136  26.212  1.00  0.00    -0.339 N 
ATOM     85  C   UNL A   1      32.008  22.208  26.741  1.00  0.00     0.224 C 
ATOM     86  H   UNL A   1      32.610  20.329  26.773  1.00  0.00     0.164 HD
ATOM     87  O   UNL A   1      31.979  22.327  27.966  1.00  0.00    -0.275 OA
BRANCH  85  88
ATOM     88  C   UNL A   1      31.260  23.141  25.811  1.00  0.00     0.078 C 
ATOM     89  C   UNL A   1      30.609  24.206  26.684  1.00  0.00     0.014 C 
ATOM     90  C   UNL A   1      32.147  23.907  24.807  1.00  0.00     0.014 C 
ATOM     91  C   UNL A   1      29.618  24.986  25.848  1.00  0.00     0.006 C 
ATOM     92  C   UNL A   1      31.368  25.007  24.045  1.00  0.00     0.006 C 
ATOM     93  C   UNL A   1      30.409  25.878  24.903  1.00  0.00     0.008 C 
BRANCH  93  94
ATOM     94  C   UNL A   1      31.123  26.961  25.737  1.00  0.00     0.119 C 
BRANCH  94  95
ATOM     95  N   UNL A   1      32.424  27.253  25.204  1.00  0.00    -0.351 N 
ATOM     96  C   UNL A   1      32.847  28.149  24.285  1.00  0.00     0.278 C 
ATOM     97  H   UNL A   1      33.144  26.696  25.579  1.00  0.00     0.163 HD
ATOM     98  O   UNL A   1      34.062  28.099  24.030  1.00  0.00    -0.268 OA
BRANCH  96  99
ATOM     99  C   UNL A   1      31.965  29.263  23.639  1.00  0.00     0.277 C 
ATOM    100  C   UNL A   1      30.859  29.915  24.516  1.00  0.00     0.111 C 
ATOM    101  N   UNL A   1      31.472  28.686  22.341  1.00  0.00    -0.332 N 
ATOM    102  C   UNL A   1      29.709  30.451  23.685  1.00  0.00    -0.033 A 
ATOM    103  C   UNL A   1      30.045  28.382  22.369  1.00  0.00     0.298 C 
ATOM    104  H   UNL A   1      31.985  27.826  22.149  1.00  0.00     0.347 HD
ATOM    105  H   UNL A   1      31.624  29.385  21.614  1.00  0.00     0.347 HD
ATOM    106  C   UNL A   1      29.078  31.673  23.930  1.00  0.00     0.004 A 
ATOM    107  C   UNL A   1      29.290  29.660  22.602  1.00  0.00     0.010 A 
ATOM    108  C   UNL A   1      28.062  32.115  23.077  1.00  0.00     0.000 A 
ATOM    109  C   UNL A   1      28.264  30.098  21.761  1.00  0.00     0.010 A 
ATOM    110  C   UNL A   1      27.658  31.331  21.994  1.00  0.00     0.001 A 
ENDBRANCH  96  99
ENDBRANCH  94  95
ENDBRANCH  93  94
ENDBRANCH  85  88
ENDBRANCH  77  84
ENDBRANCH  75  77
ENDBRANCH  74  75
ENDBRANCH  73  74
ENDBRANCH   1  73
TORSDOF 20
ENDMDL
