MODEL 1
REMARK VINA RESULT:     -11.4      0.000      0.000
REMARK SMILES CC(C)C[C@@H](NS(=O)(=O)/C=C/c1ccc(Cl)cc1)C(=O)OCCOCCOC(=O)c1ccc(-c2c3nc(c(-c4c(F)c(F)c(F)c(F)c4F)c4ccc([nH]4)c(-c4c(F)c(F)c(F)c(F)c4F)c4nc(c(-c5c(F)c(F)c(F)c(F)c5F)c5ccc2[nH]5)C=C4)C=C3)cc1
REMARK SMILES IDX 23 1 22 2 21 3 19 4 20 5 5 6 4 7 2 8 1 9 3 10 6 11 7 13 8 14
REMARK SMILES IDX 9 15 10 16 11 17 12 18 13 19 18 20 14 21 17 22 15 23 16 24
REMARK SMILES IDX 24 25 25 26 26 27 27 28 28 29 29 30 30 31 31 32 92 33 32 34
REMARK SMILES IDX 91 35 33 36 34 37 35 38 85 39 36 40 90 41 84 42 86 43 37 44
REMARK SMILES IDX 89 45 83 46 82 47 38 49 70 50 50 51 69 52 51 53 54 54 68 55
REMARK SMILES IDX 87 56 52 57 53 58 67 60 88 61 55 62 39 63 40 64 48 65 41 66
REMARK SMILES IDX 42 67 46 68 49 69 43 70 44 71 47 72 45 73 71 74 72 75 80 76
REMARK SMILES IDX 73 77 74 78 78 79 81 80 75 81 76 82 79 83 77 84 56 85 57 86
REMARK SMILES IDX 65 87 58 88 59 89 63 90 66 91 60 92 61 93 64 94 62 95
REMARK H PARENT 6 12 86 48 54 59
REMARK Flexibility Score: inf
ROOT
ATOM      1  C   UNL A   1      34.751  21.698  26.883  1.00  0.00     0.202 C 
ENDROOT
BRANCH   1   2
ATOM      2  C   UNL A   1      33.761  22.793  27.309  1.00  0.00     0.261 C 
BRANCH   2   3
ATOM      3  O   UNL A   1      33.398  23.805  26.378  1.00  0.00    -0.462 OA
BRANCH   3   4
ATOM      4  C   UNL A   1      32.109  24.243  26.375  1.00  0.00     0.324 C 
ATOM      5  O   UNL A   1      31.299  24.082  27.275  1.00  0.00    -0.250 OA
BRANCH   4   6
ATOM      6  C   UNL A   1      31.765  24.908  25.045  1.00  0.00     0.180 C 
BRANCH   6   7
ATOM      7  C   UNL A   1      31.702  26.441  25.251  1.00  0.00     0.035 C 
BRANCH   7   8
ATOM      8  C   UNL A   1      32.645  27.076  26.288  1.00  0.00    -0.015 C 
ATOM      9  C   UNL A   1      33.705  27.983  25.664  1.00  0.00     0.007 C 
ATOM     10  C   UNL A   1      31.801  27.905  27.270  1.00  0.00     0.007 C 
ENDBRANCH   7   8
ENDBRANCH   6   7
BRANCH   6  11
ATOM     11  N   UNL A   1      32.818  24.531  24.054  1.00  0.00    -0.197 NA
ATOM     12  H   UNL A   1      33.663  24.298  24.576  1.00  0.00     0.142 HD
BRANCH  11  13
ATOM     13  S   UNL A   1      32.471  23.213  23.016  1.00  0.00     0.234 S 
ATOM     14  O   UNL A   1      31.034  23.238  22.852  1.00  0.00    -0.208 OA
ATOM     15  O   UNL A   1      33.330  23.438  21.869  1.00  0.00    -0.208 OA
BRANCH  13  16
ATOM     16  C   UNL A   1      32.924  21.717  23.766  1.00  0.00     0.123 C 
ATOM     17  C   UNL A   1      32.284  20.576  23.467  1.00  0.00     0.021 C 
BRANCH  17  18
ATOM     18  C   UNL A   1      32.695  19.231  23.921  1.00  0.00    -0.025 A 
ATOM     19  C   UNL A   1      32.555  18.905  25.275  1.00  0.00     0.009 A 
ATOM     20  C   UNL A   1      33.036  18.205  23.024  1.00  0.00     0.009 A 
ATOM     21  C   UNL A   1      32.696  17.582  25.714  1.00  0.00     0.021 A 
ATOM     22  C   UNL A   1      33.147  16.876  23.455  1.00  0.00     0.021 A 
ATOM     23  C   UNL A   1      32.959  16.569  24.797  1.00  0.00     0.041 A 
ATOM     24  Cl  UNL A   1      33.004  14.930  25.316  1.00  0.00    -0.084 Cl
ENDBRANCH  17  18
ENDBRANCH  13  16
ENDBRANCH  11  13
ENDBRANCH   6  11
ENDBRANCH   4   6
ENDBRANCH   3   4
ENDBRANCH   2   3
ENDBRANCH   1   2
BRANCH   1  25
ATOM     25  O   UNL A   1      35.447  21.771  25.653  1.00  0.00    -0.374 OA
BRANCH  25  26
ATOM     26  C   UNL A   1      35.934  20.584  25.043  1.00  0.00     0.202 C 
BRANCH  26  27
ATOM     27  C   UNL A   1      37.444  20.362  24.961  1.00  0.00     0.261 C 
BRANCH  27  28
ATOM     28  O   UNL A   1      38.201  21.498  25.414  1.00  0.00    -0.460 OA
BRANCH  28  29
ATOM     29  C   UNL A   1      39.297  21.190  26.153  1.00  0.00     0.338 C 
ATOM     30  O   UNL A   1      39.853  20.112  26.247  1.00  0.00    -0.246 OA
BRANCH  29  31
ATOM     31  C   UNL A   1      39.872  22.425  26.713  1.00  0.00     0.060 A 
ATOM     32  C   UNL A   1      39.438  23.655  26.196  1.00  0.00     0.016 A 
ATOM     33  C   UNL A   1      40.872  22.372  27.682  1.00  0.00     0.016 A 
ATOM     34  C   UNL A   1      40.010  24.842  26.645  1.00  0.00     0.010 A 
ATOM     35  C   UNL A   1      41.467  23.562  28.107  1.00  0.00     0.010 A 
ATOM     36  C   UNL A   1      41.053  24.798  27.576  1.00  0.00    -0.014 A 
BRANCH  36  37
ATOM     37  C   UNL A   1      41.818  26.024  27.901  1.00  0.00     0.031 A 
ATOM     38  C   UNL A   1      41.125  27.124  28.652  1.00  0.00     0.074 A 
ATOM     39  C   UNL A   1      43.095  26.164  27.502  1.00  0.00     0.049 A 
ATOM     40  N   UNL A   1      41.531  28.342  28.898  1.00  0.00    -0.248 NA
ATOM     41  C   UNL A   1      39.792  26.812  29.192  1.00  0.00     0.031 C 
ATOM     42  C   UNL A   1      43.883  25.143  26.819  1.00  0.00     0.029 A 
ATOM     43  N   UNL A   1      43.939  27.243  27.589  1.00  0.00    -0.354 N 
ATOM     44  C   UNL A   1      40.497  28.948  29.598  1.00  0.00     0.074 A 
ATOM     45  C   UNL A   1      39.441  27.968  29.736  1.00  0.00     0.031 C 
ATOM     46  C   UNL A   1      45.086  25.657  26.509  1.00  0.00     0.029 A 
ATOM     47  C   UNL A   1      45.130  27.057  26.931  1.00  0.00     0.049 A 
ATOM     48  H   UNL A   1      43.714  28.069  28.077  1.00  0.00     0.167 HD
ATOM     49  C   UNL A   1      40.436  30.213  30.074  1.00  0.00     0.037 A 
ATOM     50  C   UNL A   1      46.115  27.934  26.653  1.00  0.00     0.037 A 
ATOM     51  C   UNL A   1      41.497  31.176  29.945  1.00  0.00     0.049 A 
ATOM     52  C   UNL A   1      45.982  29.362  27.127  1.00  0.00     0.074 A 
ATOM     53  C   UNL A   1      41.554  32.466  30.442  1.00  0.00     0.029 A 
ATOM     54  N   UNL A   1      42.681  30.957  29.258  1.00  0.00    -0.354 N 
ATOM     55  N   UNL A   1      45.022  29.919  27.825  1.00  0.00    -0.248 NA
ATOM     56  C   UNL A   1      47.069  30.286  26.766  1.00  0.00     0.031 C 
ATOM     57  C   UNL A   1      42.741  33.052  29.996  1.00  0.00     0.029 A 
ATOM     58  C   UNL A   1      43.453  32.107  29.275  1.00  0.00     0.049 A 
ATOM     59  H   UNL A   1      42.935  30.112  28.822  1.00  0.00     0.167 HD
ATOM     60  C   UNL A   1      45.399  31.245  28.005  1.00  0.00     0.074 A 
ATOM     61  C   UNL A   1      46.686  31.404  27.364  1.00  0.00     0.031 C 
ATOM     62  C   UNL A   1      44.737  32.244  28.638  1.00  0.00     0.037 A 
BRANCH  49  63
ATOM     63  C   UNL A   1      39.173  30.658  30.748  1.00  0.00     0.064 A 
ATOM     64  C   UNL A   1      38.075  31.140  30.022  1.00  0.00     0.173 A 
ATOM     65  C   UNL A   1      39.031  30.511  32.136  1.00  0.00     0.173 A 
ATOM     66  F   UNL A   1      38.164  31.311  28.695  1.00  0.00    -0.203 F 
ATOM     67  C   UNL A   1      36.881  31.462  30.663  1.00  0.00     0.198 A 
ATOM     68  C   UNL A   1      37.829  30.807  32.770  1.00  0.00     0.198 A 
ATOM     69  F   UNL A   1      40.052  30.053  32.876  1.00  0.00    -0.203 F 
ATOM     70  F   UNL A   1      35.850  31.942  29.955  1.00  0.00    -0.200 F 
ATOM     71  C   UNL A   1      36.755  31.284  32.034  1.00  0.00     0.200 A 
ATOM     72  F   UNL A   1      37.705  30.621  34.091  1.00  0.00    -0.200 F 
ATOM     73  F   UNL A   1      35.597  31.570  32.645  1.00  0.00    -0.200 F 
ENDBRANCH  49  63
BRANCH  50  74
ATOM     74  C   UNL A   1      47.285  27.521  25.831  1.00  0.00     0.064 A 
ATOM     75  C   UNL A   1      48.456  27.031  26.428  1.00  0.00     0.173 A 
ATOM     76  C   UNL A   1      47.282  27.670  24.436  1.00  0.00     0.173 A 
ATOM     77  F   UNL A   1      48.521  26.895  27.761  1.00  0.00    -0.203 F 
ATOM     78  C   UNL A   1      49.586  26.741  25.666  1.00  0.00     0.198 A 
ATOM     79  C   UNL A   1      48.400  27.345  23.671  1.00  0.00     0.198 A 
ATOM     80  F   UNL A   1      46.190  28.139  23.812  1.00  0.00    -0.203 F 
ATOM     81  F   UNL A   1      50.714  26.344  26.271  1.00  0.00    -0.200 F 
ATOM     82  C   UNL A   1      49.556  26.895  24.289  1.00  0.00     0.200 A 
ATOM     83  F   UNL A   1      48.361  27.484  22.339  1.00  0.00    -0.200 F 
ATOM     84  F   UNL A   1      50.647  26.625  23.558  1.00  0.00    -0.200 F 
ENDBRANCH  50  74
BRANCH  62  85
ATOM     85  C   UNL A   1      45.399  33.592  28.692  1.00  0.00     0.064 A 
ATOM     86  C   UNL A   1      46.383  33.889  29.645  1.00  0.00     0.173 A 
ATOM     87  C   UNL A   1      45.086  34.576  27.741  1.00  0.00     0.173 A 
ATOM     88  F   UNL A   1      46.708  32.987  30.585  1.00  0.00    -0.203 F 
ATOM     89  C   UNL A   1      47.017  35.129  29.656  1.00  0.00     0.198 A 
ATOM     90  C   UNL A   1      45.746  35.801  27.735  1.00  0.00     0.198 A 
ATOM     91  F   UNL A   1      44.158  34.340  26.802  1.00  0.00    -0.203 F 
ATOM     92  F   UNL A   1      47.923  35.407  30.604  1.00  0.00    -0.200 F 
ATOM     93  C   UNL A   1      46.705  36.080  28.696  1.00  0.00     0.200 A 
ATOM     94  F   UNL A   1      45.456  36.712  26.794  1.00  0.00    -0.200 F 
ATOM     95  F   UNL A   1      47.327  37.267  28.700  1.00  0.00    -0.200 F 
ENDBRANCH  62  85
ENDBRANCH  36  37
ENDBRANCH  29  31
ENDBRANCH  28  29
ENDBRANCH  27  28
ENDBRANCH  26  27
ENDBRANCH  25  26
ENDBRANCH   1  25
TORSDOF 20
ENDMDL
MODEL 2
REMARK VINA RESULT:     -11.4      2.134      4.270
REMARK SMILES CC(C)C[C@@H](NS(=O)(=O)/C=C/c1ccc(Cl)cc1)C(=O)OCCOCCOC(=O)c1ccc(-c2c3nc(c(-c4c(F)c(F)c(F)c(F)c4F)c4ccc([nH]4)c(-c4c(F)c(F)c(F)c(F)c4F)c4nc(c(-c5c(F)c(F)c(F)c(F)c5F)c5ccc2[nH]5)C=C4)C=C3)cc1
REMARK SMILES IDX 23 1 22 2 21 3 19 4 20 5 5 6 4 7 2 8 1 9 3 10 6 11 7 13 8 14
REMARK SMILES IDX 9 15 10 16 11 17 12 18 13 19 18 20 14 21 17 22 15 23 16 24
REMARK SMILES IDX 24 25 25 26 26 27 27 28 28 29 29 30 30 31 31 32 92 33 32 34
REMARK SMILES IDX 91 35 33 36 34 37 35 38 85 39 36 40 90 41 84 42 86 43 37 44
REMARK SMILES IDX 89 45 83 46 82 47 38 49 70 50 50 51 69 52 51 53 54 54 68 55
REMARK SMILES IDX 87 56 52 57 53 58 67 60 88 61 55 62 39 63 40 64 48 65 41 66
REMARK SMILES IDX 42 67 46 68 49 69 43 70 44 71 47 72 45 73 71 74 72 75 80 76
REMARK SMILES IDX 73 77 74 78 78 79 81 80 75 81 76 82 79 83 77 84 56 85 57 86
REMARK SMILES IDX 65 87 58 88 59 89 63 90 66 91 60 92 61 93 64 94 62 95
REMARK H PARENT 6 12 86 48 54 59
REMARK Flexibility Score: inf
ROOT
ATOM      1  C   UNL A   1      34.399  18.371  24.251  1.00  0.00     0.202 C 
ENDROOT
BRANCH   1   2
ATOM      2  C   UNL A   1      33.134  18.289  25.119  1.00  0.00     0.261 C 
BRANCH   2   3
ATOM      3  O   UNL A   1      32.385  19.472  25.371  1.00  0.00    -0.462 OA
BRANCH   3   4
ATOM      4  C   UNL A   1      32.397  20.453  24.428  1.00  0.00     0.324 C 
ATOM      5  O   UNL A   1      32.149  20.305  23.241  1.00  0.00    -0.250 OA
BRANCH   4   6
ATOM      6  C   UNL A   1      32.845  21.781  25.032  1.00  0.00     0.180 C 
BRANCH   6   7
ATOM      7  C   UNL A   1      33.747  22.519  24.013  1.00  0.00     0.035 C 
BRANCH   7   8
ATOM      8  C   UNL A   1      33.237  23.842  23.413  1.00  0.00    -0.015 C 
ATOM      9  C   UNL A   1      34.082  25.050  23.813  1.00  0.00     0.007 C 
ATOM     10  C   UNL A   1      33.246  23.718  21.881  1.00  0.00     0.007 C 
ENDBRANCH   7   8
ENDBRANCH   6   7
BRANCH   6  11
ATOM     11  N   UNL A   1      31.623  22.576  25.358  1.00  0.00    -0.197 NA
ATOM     12  H   UNL A   1      30.818  21.956  25.266  1.00  0.00     0.142 HD
BRANCH  11  13
ATOM     13  S   UNL A   1      31.552  23.289  26.915  1.00  0.00     0.234 S 
ATOM     14  O   UNL A   1      30.154  23.239  27.282  1.00  0.00    -0.208 OA
ATOM     15  O   UNL A   1      32.526  22.540  27.685  1.00  0.00    -0.208 OA
BRANCH  13  16
ATOM     16  C   UNL A   1      32.053  24.948  26.844  1.00  0.00     0.123 C 
ATOM     17  C   UNL A   1      31.366  25.843  26.118  1.00  0.00     0.021 C 
BRANCH  17  18
ATOM     18  C   UNL A   1      31.609  27.301  26.122  1.00  0.00    -0.025 A 
ATOM     19  C   UNL A   1      31.360  28.029  24.954  1.00  0.00     0.009 A 
ATOM     20  C   UNL A   1      31.892  28.013  27.300  1.00  0.00     0.009 A 
ATOM     21  C   UNL A   1      31.339  29.429  24.971  1.00  0.00     0.021 A 
ATOM     22  C   UNL A   1      31.841  29.413  27.327  1.00  0.00     0.021 A 
ATOM     23  C   UNL A   1      31.547  30.115  26.164  1.00  0.00     0.041 A 
ATOM     24  Cl  UNL A   1      31.393  31.827  26.211  1.00  0.00    -0.084 Cl
ENDBRANCH  17  18
ENDBRANCH  13  16
ENDBRANCH  11  13
ENDBRANCH   6  11
ENDBRANCH   4   6
ENDBRANCH   3   4
ENDBRANCH   2   3
ENDBRANCH   1   2
BRANCH   1  25
ATOM     25  O   UNL A   1      35.675  18.582  24.825  1.00  0.00    -0.374 OA
BRANCH  25  26
ATOM     26  C   UNL A   1      36.157  19.906  25.012  1.00  0.00     0.202 C 
BRANCH  26  27
ATOM     27  C   UNL A   1      37.626  20.206  24.717  1.00  0.00     0.261 C 
BRANCH  27  28
ATOM     28  O   UNL A   1      38.142  21.298  25.498  1.00  0.00    -0.460 OA
BRANCH  28  29
ATOM     29  C   UNL A   1      39.301  21.029  26.151  1.00  0.00     0.338 C 
ATOM     30  O   UNL A   1      39.932  19.988  26.150  1.00  0.00    -0.246 OA
BRANCH  29  31
ATOM     31  C   UNL A   1      39.830  22.271  26.741  1.00  0.00     0.060 A 
ATOM     32  C   UNL A   1      39.289  23.493  26.314  1.00  0.00     0.016 A 
ATOM     33  C   UNL A   1      40.886  22.237  27.648  1.00  0.00     0.016 A 
ATOM     34  C   UNL A   1      39.811  24.692  26.791  1.00  0.00     0.010 A 
ATOM     35  C   UNL A   1      41.429  23.441  28.101  1.00  0.00     0.010 A 
ATOM     36  C   UNL A   1      40.908  24.672  27.659  1.00  0.00    -0.014 A 
BRANCH  36  37
ATOM     37  C   UNL A   1      41.612  25.928  28.005  1.00  0.00     0.031 A 
ATOM     38  C   UNL A   1      40.845  27.010  28.709  1.00  0.00     0.074 A 
ATOM     39  C   UNL A   1      42.899  26.111  27.663  1.00  0.00     0.049 A 
ATOM     40  N   UNL A   1      41.195  28.245  28.959  1.00  0.00    -0.248 NA
ATOM     41  C   UNL A   1      39.500  26.654  29.191  1.00  0.00     0.031 C 
ATOM     42  C   UNL A   1      43.756  25.112  27.029  1.00  0.00     0.029 A 
ATOM     43  N   UNL A   1      43.699  27.221  27.776  1.00  0.00    -0.354 N 
ATOM     44  C   UNL A   1      40.107  28.819  29.604  1.00  0.00     0.074 A 
ATOM     45  C   UNL A   1      39.083  27.803  29.705  1.00  0.00     0.031 C 
ATOM     46  C   UNL A   1      44.952  25.668  26.769  1.00  0.00     0.029 A 
ATOM     47  C   UNL A   1      44.926  27.072  27.175  1.00  0.00     0.049 A 
ATOM     48  H   UNL A   1      43.422  28.043  28.243  1.00  0.00     0.167 HD
ATOM     49  C   UNL A   1      39.979  30.086  30.061  1.00  0.00     0.037 A 
ATOM     50  C   UNL A   1      45.890  27.982  26.933  1.00  0.00     0.037 A 
ATOM     51  C   UNL A   1      41.010  31.086  29.969  1.00  0.00     0.049 A 
ATOM     52  C   UNL A   1      45.684  29.409  27.383  1.00  0.00     0.074 A 
ATOM     53  C   UNL A   1      40.996  32.382  30.453  1.00  0.00     0.029 A 
ATOM     54  N   UNL A   1      42.231  30.904  29.340  1.00  0.00    -0.354 N 
ATOM     55  N   UNL A   1      44.672  29.937  28.030  1.00  0.00    -0.248 NA
ATOM     56  C   UNL A   1      46.751  30.369  27.062  1.00  0.00     0.031 C 
ATOM     57  C   UNL A   1      42.181  33.007  30.055  1.00  0.00     0.029 A 
ATOM     58  C   UNL A   1      42.960  32.081  29.380  1.00  0.00     0.049 A 
ATOM     59  H   UNL A   1      42.535  30.064  28.926  1.00  0.00     0.167 HD
ATOM     60  C   UNL A   1      44.992  31.279  28.211  1.00  0.00     0.074 A 
ATOM     61  C   UNL A   1      46.301  31.478  27.628  1.00  0.00     0.031 C 
ATOM     62  C   UNL A   1      44.266  32.259  28.801  1.00  0.00     0.037 A 
BRANCH  49  63
ATOM     63  C   UNL A   1      38.671  30.491  30.671  1.00  0.00     0.064 A 
ATOM     64  C   UNL A   1      38.476  30.518  32.059  1.00  0.00     0.173 A 
ATOM     65  C   UNL A   1      37.627  30.946  29.850  1.00  0.00     0.173 A 
ATOM     66  F   UNL A   1      39.437  30.081  32.885  1.00  0.00    -0.203 F 
ATOM     67  C   UNL A   1      37.281  30.984  32.603  1.00  0.00     0.198 A 
ATOM     68  C   UNL A   1      36.446  31.436  30.398  1.00  0.00     0.198 A 
ATOM     69  F   UNL A   1      37.765  30.941  28.516  1.00  0.00    -0.203 F 
ATOM     70  F   UNL A   1      37.106  30.981  33.931  1.00  0.00    -0.200 F 
ATOM     71  C   UNL A   1      36.272  31.454  31.773  1.00  0.00     0.200 A 
ATOM     72  F   UNL A   1      35.479  31.902  29.595  1.00  0.00    -0.200 F 
ATOM     73  F   UNL A   1      35.134  31.925  32.299  1.00  0.00    -0.200 F 
ENDBRANCH  49  63
BRANCH  50  74
ATOM     74  C   UNL A   1      47.111  27.604  26.171  1.00  0.00     0.064 A 
ATOM     75  C   UNL A   1      47.154  27.697  24.773  1.00  0.00     0.173 A 
ATOM     76  C   UNL A   1      48.238  27.076  26.821  1.00  0.00     0.173 A 
ATOM     77  F   UNL A   1      46.093  28.169  24.101  1.00  0.00    -0.203 F 
ATOM     78  C   UNL A   1      48.260  27.247  24.054  1.00  0.00     0.198 A 
ATOM     79  C   UNL A   1      49.357  26.660  26.105  1.00  0.00     0.198 A 
ATOM     80  F   UNL A   1      48.250  26.960  28.158  1.00  0.00    -0.203 F 
ATOM     81  F   UNL A   1      48.243  27.281  22.714  1.00  0.00    -0.200 F 
ATOM     82  C   UNL A   1      49.361  26.731  24.720  1.00  0.00     0.200 A 
ATOM     83  F   UNL A   1      50.424  26.175  26.755  1.00  0.00    -0.200 F 
ATOM     84  F   UNL A   1      50.420  26.289  24.028  1.00  0.00    -0.200 F 
ENDBRANCH  50  74
BRANCH  62  85
ATOM     85  C   UNL A   1      44.875  33.630  28.869  1.00  0.00     0.064 A 
ATOM     86  C   UNL A   1      45.732  34.002  29.914  1.00  0.00     0.173 A 
ATOM     87  C   UNL A   1      44.645  34.562  27.844  1.00  0.00     0.173 A 
ATOM     88  F   UNL A   1      45.973  33.153  30.925  1.00  0.00    -0.203 F 
ATOM     89  C   UNL A   1      46.322  35.263  29.941  1.00  0.00     0.198 A 
ATOM     90  C   UNL A   1      45.263  35.809  27.858  1.00  0.00     0.198 A 
ATOM     91  F   UNL A   1      43.840  34.254  26.816  1.00  0.00    -0.203 F 
ATOM     92  F   UNL A   1      47.103  35.613  30.974  1.00  0.00    -0.200 F 
ATOM     93  C   UNL A   1      46.095  36.162  28.910  1.00  0.00     0.200 A 
ATOM     94  F   UNL A   1      45.057  36.669  26.850  1.00  0.00    -0.200 F 
ATOM     95  F   UNL A   1      46.675  37.369  28.931  1.00  0.00    -0.200 F 
ENDBRANCH  62  85
ENDBRANCH  36  37
ENDBRANCH  29  31
ENDBRANCH  28  29
ENDBRANCH  27  28
ENDBRANCH  26  27
ENDBRANCH  25  26
ENDBRANCH   1  25
TORSDOF 20
ENDMDL
MODEL 3
REMARK VINA RESULT:     -11.4      4.303      9.418
REMARK SMILES CC(C)C[C@@H](NS(=O)(=O)/C=C/c1ccc(Cl)cc1)C(=O)OCCOCCOC(=O)c1ccc(-c2c3nc(c(-c4c(F)c(F)c(F)c(F)c4F)c4ccc([nH]4)c(-c4c(F)c(F)c(F)c(F)c4F)c4nc(c(-c5c(F)c(F)c(F)c(F)c5F)c5ccc2[nH]5)C=C4)C=C3)cc1
REMARK SMILES IDX 23 1 22 2 21 3 19 4 20 5 5 6 4 7 2 8 1 9 3 10 6 11 7 13 8 14
REMARK SMILES IDX 9 15 10 16 11 17 12 18 13 19 18 20 14 21 17 22 15 23 16 24
REMARK SMILES IDX 24 25 25 26 26 27 27 28 28 29 29 30 30 31 31 32 92 33 32 34
REMARK SMILES IDX 91 35 33 36 34 37 35 38 85 39 36 40 90 41 84 42 86 43 37 44
REMARK SMILES IDX 89 45 83 46 82 47 38 49 70 50 50 51 69 52 51 53 54 54 68 55
REMARK SMILES IDX 87 56 52 57 53 58 67 60 88 61 55 62 39 63 40 64 48 65 41 66
REMARK SMILES IDX 42 67 46 68 49 69 43 70 44 71 47 72 45 73 71 74 72 75 80 76
REMARK SMILES IDX 73 77 74 78 78 79 81 80 75 81 76 82 79 83 77 84 56 85 57 86
REMARK SMILES IDX 65 87 58 88 59 89 63 90 66 91 60 92 61 93 64 94 62 95
REMARK H PARENT 6 12 86 48 54 59
REMARK Flexibility Score: inf
ROOT
ATOM      1  C   UNL A   1      32.117  28.518  22.961  1.00  0.00     0.202 C 
ENDROOT
BRANCH   1   2
ATOM      2  C   UNL A   1      32.013  27.002  23.191  1.00  0.00     0.261 C 
BRANCH   2   3
ATOM      3  O   UNL A   1      33.200  26.219  23.219  1.00  0.00    -0.462 OA
BRANCH   3   4
ATOM      4  C   UNL A   1      33.755  25.936  24.429  1.00  0.00     0.324 C 
ATOM      5  O   UNL A   1      33.819  26.700  25.380  1.00  0.00    -0.250 OA
BRANCH   4   6
ATOM      6  C   UNL A   1      34.374  24.541  24.430  1.00  0.00     0.180 C 
BRANCH   6   7
ATOM      7  C   UNL A   1      35.515  24.498  25.475  1.00  0.00     0.035 C 
BRANCH   7   8
ATOM      8  C   UNL A   1      36.473  23.293  25.458  1.00  0.00    -0.015 C 
ATOM      9  C   UNL A   1      36.746  22.759  24.052  1.00  0.00     0.007 C 
ATOM     10  C   UNL A   1      37.807  23.722  26.091  1.00  0.00     0.007 C 
ENDBRANCH   7   8
ENDBRANCH   6   7
BRANCH   6  11
ATOM     11  N   UNL A   1      33.297  23.559  24.755  1.00  0.00    -0.197 NA
ATOM     12  H   UNL A   1      32.551  24.065  25.233  1.00  0.00     0.142 HD
BRANCH  11  13
ATOM     13  S   UNL A   1      32.590  22.718  23.440  1.00  0.00     0.234 S 
ATOM     14  O   UNL A   1      31.232  23.210  23.371  1.00  0.00    -0.208 OA
ATOM     15  O   UNL A   1      33.501  22.964  22.339  1.00  0.00    -0.208 OA
BRANCH  13  16
ATOM     16  C   UNL A   1      32.552  21.014  23.762  1.00  0.00     0.123 C 
ATOM     17  C   UNL A   1      33.626  20.384  24.259  1.00  0.00     0.021 C 
BRANCH  17  18
ATOM     18  C   UNL A   1      33.646  18.979  24.719  1.00  0.00    -0.025 A 
ATOM     19  C   UNL A   1      32.568  18.502  25.474  1.00  0.00     0.009 A 
ATOM     20  C   UNL A   1      34.601  18.053  24.268  1.00  0.00     0.009 A 
ATOM     21  C   UNL A   1      32.418  17.133  25.726  1.00  0.00     0.021 A 
ATOM     22  C   UNL A   1      34.438  16.680  24.493  1.00  0.00     0.021 A 
ATOM     23  C   UNL A   1      33.336  16.224  25.206  1.00  0.00     0.041 A 
ATOM     24  Cl  UNL A   1      33.081  14.535  25.406  1.00  0.00    -0.084 Cl
ENDBRANCH  17  18
ENDBRANCH  13  16
ENDBRANCH  11  13
ENDBRANCH   6  11
ENDBRANCH   4   6
ENDBRANCH   3   4
ENDBRANCH   2   3
ENDBRANCH   1   2
BRANCH   1  25
ATOM     25  O   UNL A   1      32.408  29.407  24.021  1.00  0.00    -0.374 OA
BRANCH  25  26
ATOM     26  C   UNL A   1      31.429  29.666  25.018  1.00  0.00     0.202 C 
BRANCH  26  27
ATOM     27  C   UNL A   1      31.776  30.614  26.165  1.00  0.00     0.261 C 
BRANCH  27  28
ATOM     28  O   UNL A   1      33.108  30.415  26.672  1.00  0.00    -0.460 OA
BRANCH  28  29
ATOM     29  C   UNL A   1      33.630  31.483  27.325  1.00  0.00     0.338 C 
ATOM     30  O   UNL A   1      33.072  32.524  27.617  1.00  0.00    -0.246 OA
BRANCH  29  31
ATOM     31  C   UNL A   1      34.970  31.139  27.831  1.00  0.00     0.060 A 
ATOM     32  C   UNL A   1      35.225  29.806  28.187  1.00  0.00     0.016 A 
ATOM     33  C   UNL A   1      35.938  32.124  28.017  1.00  0.00     0.016 A 
ATOM     34  C   UNL A   1      36.454  29.453  28.739  1.00  0.00     0.010 A 
ATOM     35  C   UNL A   1      37.158  31.774  28.599  1.00  0.00     0.010 A 
ATOM     36  C   UNL A   1      37.413  30.442  28.981  1.00  0.00    -0.014 A 
BRANCH  36  37
ATOM     37  C   UNL A   1      38.632  30.128  29.761  1.00  0.00     0.031 A 
ATOM     38  C   UNL A   1      39.594  29.115  29.211  1.00  0.00     0.074 A 
ATOM     39  C   UNL A   1      38.855  30.710  30.953  1.00  0.00     0.049 A 
ATOM     40  N   UNL A   1      40.629  28.559  29.785  1.00  0.00    -0.248 NA
ATOM     41  C   UNL A   1      39.355  28.664  27.830  1.00  0.00     0.031 C 
ATOM     42  C   UNL A   1      38.020  31.745  31.557  1.00  0.00     0.029 A 
ATOM     43  N   UNL A   1      39.839  30.482  31.882  1.00  0.00    -0.354 N 
ATOM     44  C   UNL A   1      41.148  27.676  28.848  1.00  0.00     0.074 A 
ATOM     45  C   UNL A   1      40.315  27.765  27.668  1.00  0.00     0.031 C 
ATOM     46  C   UNL A   1      38.503  32.035  32.778  1.00  0.00     0.029 A 
ATOM     47  C   UNL A   1      39.651  31.172  33.055  1.00  0.00     0.049 A 
ATOM     48  H   UNL A   1      40.606  29.885  31.723  1.00  0.00     0.167 HD
ATOM     49  C   UNL A   1      42.220  26.860  28.970  1.00  0.00     0.037 A 
ATOM     50  C   UNL A   1      40.297  31.072  34.234  1.00  0.00     0.037 A 
ATOM     51  C   UNL A   1      43.051  26.790  30.142  1.00  0.00     0.049 A 
ATOM     52  C   UNL A   1      41.439  30.093  34.365  1.00  0.00     0.074 A 
ATOM     53  C   UNL A   1      44.194  26.035  30.342  1.00  0.00     0.029 A 
ATOM     54  N   UNL A   1      42.821  27.490  31.316  1.00  0.00    -0.354 N 
ATOM     55  N   UNL A   1      41.953  29.291  33.464  1.00  0.00    -0.248 NA
ATOM     56  C   UNL A   1      42.086  29.999  35.684  1.00  0.00     0.031 C 
ATOM     57  C   UNL A   1      44.614  26.225  31.661  1.00  0.00     0.029 A 
ATOM     58  C   UNL A   1      43.771  27.146  32.262  1.00  0.00     0.049 A 
ATOM     59  H   UNL A   1      42.089  28.134  31.456  1.00  0.00     0.167 HD
ATOM     60  C   UNL A   1      42.993  28.619  34.097  1.00  0.00     0.074 A 
ATOM     61  C   UNL A   1      43.053  29.123  35.452  1.00  0.00     0.031 C 
ATOM     62  C   UNL A   1      43.820  27.665  33.604  1.00  0.00     0.037 A 
BRANCH  49  63
ATOM     63  C   UNL A   1      42.548  25.943  27.830  1.00  0.00     0.064 A 
ATOM     64  C   UNL A   1      41.852  24.745  27.619  1.00  0.00     0.173 A 
ATOM     65  C   UNL A   1      43.513  26.320  26.884  1.00  0.00     0.173 A 
ATOM     66  F   UNL A   1      40.929  24.334  28.501  1.00  0.00    -0.203 F 
ATOM     67  C   UNL A   1      42.113  23.955  26.502  1.00  0.00     0.198 A 
ATOM     68  C   UNL A   1      43.753  25.543  25.755  1.00  0.00     0.198 A 
ATOM     69  F   UNL A   1      44.205  27.458  27.040  1.00  0.00    -0.203 F 
ATOM     70  F   UNL A   1      41.454  22.802  26.329  1.00  0.00    -0.200 F 
ATOM     71  C   UNL A   1      43.054  24.360  25.565  1.00  0.00     0.200 A 
ATOM     72  F   UNL A   1      44.651  25.943  24.845  1.00  0.00    -0.200 F 
ATOM     73  F   UNL A   1      43.287  23.611  24.478  1.00  0.00    -0.200 F 
ENDBRANCH  49  63
BRANCH  50  74
ATOM     74  C   UNL A   1      39.848  31.866  35.411  1.00  0.00     0.064 A 
ATOM     75  C   UNL A   1      38.788  31.430  36.219  1.00  0.00     0.173 A 
ATOM     76  C   UNL A   1      40.425  33.109  35.711  1.00  0.00     0.173 A 
ATOM     77  F   UNL A   1      38.184  30.262  35.958  1.00  0.00    -0.203 F 
ATOM     78  C   UNL A   1      38.302  32.223  37.258  1.00  0.00     0.198 A 
ATOM     79  C   UNL A   1      39.963  33.884  36.772  1.00  0.00     0.198 A 
ATOM     80  F   UNL A   1      41.440  33.576  34.967  1.00  0.00    -0.203 F 
ATOM     81  F   UNL A   1      37.241  31.814  37.968  1.00  0.00    -0.200 F 
ATOM     82  C   UNL A   1      38.891  33.447  37.535  1.00  0.00     0.200 A 
ATOM     83  F   UNL A   1      40.545  35.060  37.043  1.00  0.00    -0.200 F 
ATOM     84  F   UNL A   1      38.417  34.212  38.528  1.00  0.00    -0.200 F 
ENDBRANCH  50  74
BRANCH  62  85
ATOM     85  C   UNL A   1      44.876  27.119  34.522  1.00  0.00     0.064 A 
ATOM     86  C   UNL A   1      46.121  27.748  34.667  1.00  0.00     0.173 A 
ATOM     87  C   UNL A   1      44.616  25.987  35.312  1.00  0.00     0.173 A 
ATOM     88  F   UNL A   1      46.424  28.824  33.924  1.00  0.00    -0.203 F 
ATOM     89  C   UNL A   1      47.074  27.253  35.553  1.00  0.00     0.198 A 
ATOM     90  C   UNL A   1      45.559  25.517  36.221  1.00  0.00     0.198 A 
ATOM     91  F   UNL A   1      43.438  25.353  35.220  1.00  0.00    -0.203 F 
ATOM     92  F   UNL A   1      48.274  27.845  35.641  1.00  0.00    -0.200 F 
ATOM     93  C   UNL A   1      46.790  26.145  36.335  1.00  0.00     0.200 A 
ATOM     94  F   UNL A   1      45.274  24.456  36.990  1.00  0.00    -0.200 F 
ATOM     95  F   UNL A   1      47.703  25.679  37.198  1.00  0.00    -0.200 F 
ENDBRANCH  62  85
ENDBRANCH  36  37
ENDBRANCH  29  31
ENDBRANCH  28  29
ENDBRANCH  27  28
ENDBRANCH  26  27
ENDBRANCH  25  26
ENDBRANCH   1  25
TORSDOF 20
ENDMDL
