MODEL 1
REMARK VINA RESULT:     -12.1      0.000      0.000
REMARK SMILES Cc1ccc2occ(/C=N/NC(=O)CCC(=O)Nc3ccc(C(=O)OCCOCCOC(=O)c4ccc(-c5c6nc(c(-c7c(F)c(F)c(F)c(F)c7F)c7ccc([nH]7)c(-c7c(F)c(F)c(F)c(F)c7F)c7nc(c(-c8c(F)c(F)c(F)c(F)c8F)c8ccc5[nH]8)C=C7)C=C6)cc4)cc3)c(=O)c2c1
REMARK SMILES IDX 26 1 25 2 23 3 24 4 22 5 19 6 20 7 98 8 21 9 97 10 18 11
REMARK SMILES IDX 16 12 17 13 15 15 14 16 12 17 11 18 13 20 10 21 9 22 8 23
REMARK SMILES IDX 1 24 2 25 3 26 102 27 4 28 101 29 5 30 99 31 6 32 100 33
REMARK SMILES IDX 7 34 27 35 28 36 29 37 30 38 31 39 32 40 33 41 34 42 35 43
REMARK SMILES IDX 96 44 36 45 95 46 37 47 38 48 39 49 89 50 40 51 94 52 88 53
REMARK SMILES IDX 90 54 41 55 93 56 87 57 86 58 42 60 74 61 54 62 73 63 55 64
REMARK SMILES IDX 58 65 72 66 91 67 56 68 57 69 71 71 92 72 59 73 43 74 44 75
REMARK SMILES IDX 52 76 45 77 46 78 50 79 53 80 47 81 48 82 51 83 49 84 75 85
REMARK SMILES IDX 76 86 84 87 77 88 78 89 82 90 85 91 79 92 80 93 83 94 81 95
REMARK SMILES IDX 60 96 61 97 69 98 62 99 63 100 67 101 70 102 64 103 65 104
REMARK SMILES IDX 68 105 66 106
REMARK H PARENT 18 14 11 19 90 59 58 70
REMARK Flexibility Score: inf
ROOT
ATOM      1  C   UNL A   1      35.799  22.168  23.795  1.00  0.00     0.261 C 
ENDROOT
BRANCH   1   2
ATOM      2  O   UNL A   1      35.316  23.461  24.149  1.00  0.00    -0.460 OA
BRANCH   2   3
ATOM      3  C   UNL A   1      34.540  24.086  23.226  1.00  0.00     0.338 C 
ATOM      4  O   UNL A   1      34.110  23.633  22.186  1.00  0.00    -0.246 OA
BRANCH   3   5
ATOM      5  C   UNL A   1      34.223  25.433  23.747  1.00  0.00     0.060 A 
ATOM      6  C   UNL A   1      33.474  27.961  24.712  1.00  0.00     0.041 A 
ATOM      7  C   UNL A   1      34.022  27.005  25.578  1.00  0.00     0.027 A 
ATOM      8  C   UNL A   1      33.363  27.638  23.368  1.00  0.00     0.027 A 
ATOM      9  C   UNL A   1      34.376  25.733  25.103  1.00  0.00     0.018 A 
ATOM     10  C   UNL A   1      33.756  26.408  22.876  1.00  0.00     0.018 A 
BRANCH   6  11
ATOM     11  N   UNL A   1      33.061  29.186  25.255  1.00  0.00    -0.326 N 
ATOM     12  C   UNL A   1      31.860  29.828  25.305  1.00  0.00     0.224 C 
ATOM     13  O   UNL A   1      31.829  30.907  25.912  1.00  0.00    -0.275 OA
ATOM     14  H   UNL A   1      33.789  29.685  25.690  1.00  0.00     0.169 HD
BRANCH  12  15
ATOM     15  C   UNL A   1      30.571  29.248  24.756  1.00  0.00     0.110 C 
BRANCH  15  16
ATOM     16  C   UNL A   1      30.159  29.493  23.299  1.00  0.00     0.112 C 
BRANCH  16  17
ATOM     17  C   UNL A   1      28.887  28.885  22.700  1.00  0.00     0.240 C 
ATOM     18  N   UNL A   1      28.355  27.709  23.170  1.00  0.00    -0.247 N 
ATOM     19  H   UNL A   1      27.546  27.378  22.717  1.00  0.00     0.193 HD
ATOM     20  O   UNL A   1      28.313  29.459  21.767  1.00  0.00    -0.273 OA
BRANCH  18  21
ATOM     21  N   UNL A   1      28.830  26.958  24.197  1.00  0.00    -0.180 NA
ATOM     22  C   UNL A   1      29.531  25.940  23.822  1.00  0.00     0.148 C 
BRANCH  22  23
ATOM     23  C   UNL A   1      30.412  25.164  24.697  1.00  0.00     0.078 A 
ATOM     24  C   UNL A   1      33.134  19.603  25.311  1.00  0.00     0.044 C 
ATOM     25  C   UNL A   1      32.727  20.989  25.713  1.00  0.00    -0.050 A 
ATOM     26  C   UNL A   1      32.868  21.448  27.031  1.00  0.00     0.007 A 
ATOM     27  C   UNL A   1      32.183  21.841  24.751  1.00  0.00     0.019 A 
ATOM     28  C   UNL A   1      32.468  22.742  27.385  1.00  0.00     0.048 A 
ATOM     29  C   UNL A   1      31.745  23.111  25.125  1.00  0.00     0.066 A 
ATOM     30  C   UNL A   1      31.897  23.575  26.430  1.00  0.00     0.137 A 
ATOM     31  C   UNL A   1      31.017  23.934  24.161  1.00  0.00     0.201 A 
ATOM     32  O   UNL A   1      31.474  24.820  26.833  1.00  0.00    -0.463 OA
ATOM     33  O   UNL A   1      30.874  23.597  22.991  1.00  0.00    -0.288 OA
ATOM     34  C   UNL A   1      30.699  25.538  25.947  1.00  0.00     0.209 A 
ENDBRANCH  22  23
ENDBRANCH  18  21
ENDBRANCH  16  17
ENDBRANCH  15  16
ENDBRANCH  12  15
ENDBRANCH   6  11
ENDBRANCH   3   5
ENDBRANCH   2   3
ENDBRANCH   1   2
BRANCH   1  35
ATOM     35  C   UNL A   1      37.116  21.860  24.509  1.00  0.00     0.202 C 
BRANCH  35  36
ATOM     36  O   UNL A   1      37.103  20.733  25.383  1.00  0.00    -0.374 OA
BRANCH  36  37
ATOM     37  C   UNL A   1      37.842  19.586  24.955  1.00  0.00     0.202 C 
BRANCH  37  38
ATOM     38  C   UNL A   1      39.165  19.340  25.688  1.00  0.00     0.261 C 
BRANCH  38  39
ATOM     39  O   UNL A   1      39.877  20.570  25.914  1.00  0.00    -0.460 OA
BRANCH  39  40
ATOM     40  C   UNL A   1      40.631  20.590  27.037  1.00  0.00     0.338 C 
ATOM     41  O   UNL A   1      41.174  19.647  27.586  1.00  0.00    -0.246 OA
BRANCH  40  42
ATOM     42  C   UNL A   1      40.864  21.986  27.446  1.00  0.00     0.060 A 
ATOM     43  C   UNL A   1      40.100  22.983  26.829  1.00  0.00     0.016 A 
ATOM     44  C   UNL A   1      41.863  22.319  28.363  1.00  0.00     0.016 A 
ATOM     45  C   UNL A   1      40.368  24.326  27.084  1.00  0.00     0.010 A 
ATOM     46  C   UNL A   1      42.135  23.666  28.614  1.00  0.00     0.010 A 
ATOM     47  C   UNL A   1      41.415  24.673  27.946  1.00  0.00    -0.014 A 
BRANCH  47  48
ATOM     48  C   UNL A   1      41.860  26.084  28.044  1.00  0.00     0.031 A 
ATOM     49  C   UNL A   1      43.194  26.465  27.467  1.00  0.00     0.074 A 
ATOM     50  C   UNL A   1      41.086  27.009  28.637  1.00  0.00     0.049 A 
ATOM     51  N   UNL A   1      43.831  27.607  27.524  1.00  0.00    -0.248 NA
ATOM     52  C   UNL A   1      43.913  25.411  26.732  1.00  0.00     0.031 C 
ATOM     53  C   UNL A   1      39.757  26.767  29.192  1.00  0.00     0.029 A 
ATOM     54  N   UNL A   1      41.320  28.339  28.885  1.00  0.00    -0.354 N 
ATOM     55  C   UNL A   1      45.028  27.405  26.848  1.00  0.00     0.074 A 
ATOM     56  C   UNL A   1      45.044  26.024  26.416  1.00  0.00     0.031 C 
ATOM     57  C   UNL A   1      39.297  27.908  29.733  1.00  0.00     0.029 A 
ATOM     58  C   UNL A   1      40.317  28.946  29.600  1.00  0.00     0.049 A 
ATOM     59  H   UNL A   1      42.128  28.811  28.579  1.00  0.00     0.167 HD
ATOM     60  C   UNL A   1      46.018  28.295  26.605  1.00  0.00     0.037 A 
ATOM     61  C   UNL A   1      40.251  30.188  30.117  1.00  0.00     0.037 A 
ATOM     62  C   UNL A   1      45.991  29.668  27.038  1.00  0.00     0.049 A 
ATOM     63  C   UNL A   1      41.404  31.136  29.902  1.00  0.00     0.074 A 
ATOM     64  C   UNL A   1      46.935  30.659  26.826  1.00  0.00     0.029 A 
ATOM     65  N   UNL A   1      44.968  30.243  27.779  1.00  0.00    -0.354 N 
ATOM     66  N   UNL A   1      42.523  30.949  29.244  1.00  0.00    -0.248 NA
ATOM     67  C   UNL A   1      41.284  32.472  30.503  1.00  0.00     0.031 C 
ATOM     68  C   UNL A   1      46.513  31.813  27.493  1.00  0.00     0.029 A 
ATOM     69  C   UNL A   1      45.273  31.566  28.059  1.00  0.00     0.049 A 
ATOM     70  H   UNL A   1      44.148  29.779  28.065  1.00  0.00     0.167 HD
ATOM     71  C   UNL A   1      43.219  32.149  29.319  1.00  0.00     0.074 A 
ATOM     72  C   UNL A   1      42.392  33.063  30.080  1.00  0.00     0.031 C 
ATOM     73  C   UNL A   1      44.431  32.467  28.803  1.00  0.00     0.037 A 
BRANCH  60  74
ATOM     74  C   UNL A   1      47.230  27.808  25.863  1.00  0.00     0.064 A 
ATOM     75  C   UNL A   1      47.272  27.764  24.461  1.00  0.00     0.173 A 
ATOM     76  C   UNL A   1      48.382  27.422  26.564  1.00  0.00     0.173 A 
ATOM     77  F   UNL A   1      46.194  28.112  23.742  1.00  0.00    -0.203 F 
ATOM     78  C   UNL A   1      48.411  27.326  23.792  1.00  0.00     0.198 A 
ATOM     79  C   UNL A   1      49.531  27.017  25.892  1.00  0.00     0.198 A 
ATOM     80  F   UNL A   1      48.399  27.450  27.906  1.00  0.00    -0.203 F 
ATOM     81  F   UNL A   1      48.412  27.245  22.454  1.00  0.00    -0.200 F 
ATOM     82  C   UNL A   1      49.542  26.961  24.506  1.00  0.00     0.200 A 
ATOM     83  F   UNL A   1      50.628  26.680  26.584  1.00  0.00    -0.200 F 
ATOM     84  F   UNL A   1      50.643  26.551  23.860  1.00  0.00    -0.200 F 
ENDBRANCH  60  74
BRANCH  61  85
ATOM     85  C   UNL A   1      39.061  30.605  30.903  1.00  0.00     0.064 A 
ATOM     86  C   UNL A   1      37.975  31.245  30.286  1.00  0.00     0.173 A 
ATOM     87  C   UNL A   1      38.992  30.398  32.289  1.00  0.00     0.173 A 
ATOM     88  F   UNL A   1      38.002  31.487  28.968  1.00  0.00    -0.203 F 
ATOM     89  C   UNL A   1      36.881  31.682  31.030  1.00  0.00     0.198 A 
ATOM     90  C   UNL A   1      37.883  30.805  33.025  1.00  0.00     0.198 A 
ATOM     91  F   UNL A   1      40.004  29.793  32.929  1.00  0.00    -0.203 F 
ATOM     92  F   UNL A   1      35.884  32.340  30.424  1.00  0.00    -0.200 F 
ATOM     93  C   UNL A   1      36.832  31.457  32.397  1.00  0.00     0.200 A 
ATOM     94  F   UNL A   1      37.834  30.573  34.344  1.00  0.00    -0.200 F 
ATOM     95  F   UNL A   1      35.778  31.877  33.110  1.00  0.00    -0.200 F 
ENDBRANCH  61  85
BRANCH  73  96
ATOM     96  C   UNL A   1      44.919  33.877  28.988  1.00  0.00     0.064 A 
ATOM     97  C   UNL A   1      45.731  34.245  30.071  1.00  0.00     0.173 A 
ATOM     98  C   UNL A   1      44.612  34.861  28.035  1.00  0.00     0.173 A 
ATOM     99  F   UNL A   1      46.042  33.347  31.018  1.00  0.00    -0.203 F 
ATOM    100  C   UNL A   1      46.198  35.551  30.204  1.00  0.00     0.198 A 
ATOM    101  C   UNL A   1      45.111  36.155  28.151  1.00  0.00     0.198 A 
ATOM    102  F   UNL A   1      43.846  34.561  26.975  1.00  0.00    -0.203 F 
ATOM    103  F   UNL A   1      46.933  35.892  31.272  1.00  0.00    -0.200 F 
ATOM    104  C   UNL A   1      45.896  36.501  29.240  1.00  0.00     0.200 A 
ATOM    105  F   UNL A   1      44.833  37.067  27.209  1.00  0.00    -0.200 F 
ATOM    106  F   UNL A   1      46.358  37.753  29.362  1.00  0.00    -0.200 F 
ENDBRANCH  73  96
ENDBRANCH  47  48
ENDBRANCH  40  42
ENDBRANCH  39  40
ENDBRANCH  38  39
ENDBRANCH  37  38
ENDBRANCH  36  37
ENDBRANCH  35  36
ENDBRANCH   1  35
TORSDOF 20
ENDMDL
MODEL 2
REMARK VINA RESULT:     -12.1      2.370      8.542
REMARK SMILES Cc1ccc2occ(/C=N/NC(=O)CCC(=O)Nc3ccc(C(=O)OCCOCCOC(=O)c4ccc(-c5c6nc(c(-c7c(F)c(F)c(F)c(F)c7F)c7ccc([nH]7)c(-c7c(F)c(F)c(F)c(F)c7F)c7nc(c(-c8c(F)c(F)c(F)c(F)c8F)c8ccc5[nH]8)C=C7)C=C6)cc4)cc3)c(=O)c2c1
REMARK SMILES IDX 26 1 25 2 23 3 24 4 22 5 19 6 20 7 98 8 21 9 97 10 18 11
REMARK SMILES IDX 16 12 17 13 15 15 14 16 12 17 11 18 13 20 10 21 9 22 8 23
REMARK SMILES IDX 1 24 2 25 3 26 102 27 4 28 101 29 5 30 99 31 6 32 100 33
REMARK SMILES IDX 7 34 27 35 28 36 29 37 30 38 31 39 32 40 33 41 34 42 35 43
REMARK SMILES IDX 96 44 36 45 95 46 37 47 38 48 39 49 89 50 40 51 94 52 88 53
REMARK SMILES IDX 90 54 41 55 93 56 87 57 86 58 42 60 74 61 54 62 73 63 55 64
REMARK SMILES IDX 58 65 72 66 91 67 56 68 57 69 71 71 92 72 59 73 43 74 44 75
REMARK SMILES IDX 52 76 45 77 46 78 50 79 53 80 47 81 48 82 51 83 49 84 75 85
REMARK SMILES IDX 76 86 84 87 77 88 78 89 82 90 85 91 79 92 80 93 83 94 81 95
REMARK SMILES IDX 60 96 61 97 69 98 62 99 63 100 67 101 70 102 64 103 65 104
REMARK SMILES IDX 68 105 66 106
REMARK H PARENT 18 14 11 19 90 59 58 70
REMARK Flexibility Score: inf
ROOT
ATOM      1  C   UNL A   1      34.813  22.034  25.168  1.00  0.00     0.261 C 
ENDROOT
BRANCH   1   2
ATOM      2  O   UNL A   1      34.352  22.415  23.875  1.00  0.00    -0.460 OA
BRANCH   2   3
ATOM      3  C   UNL A   1      33.015  22.311  23.659  1.00  0.00     0.338 C 
ATOM      4  O   UNL A   1      32.297  21.360  23.884  1.00  0.00    -0.246 OA
BRANCH   3   5
ATOM      5  C   UNL A   1      32.539  23.620  23.162  1.00  0.00     0.060 A 
ATOM      6  C   UNL A   1      31.610  26.146  22.361  1.00  0.00     0.041 A 
ATOM      7  C   UNL A   1      32.959  25.801  22.196  1.00  0.00     0.027 A 
ATOM      8  C   UNL A   1      30.750  25.189  22.881  1.00  0.00     0.027 A 
ATOM      9  C   UNL A   1      33.430  24.548  22.616  1.00  0.00     0.018 A 
ATOM     10  C   UNL A   1      31.191  23.933  23.250  1.00  0.00     0.018 A 
BRANCH   6  11
ATOM     11  N   UNL A   1      31.209  27.439  22.001  1.00  0.00    -0.326 N 
ATOM     12  C   UNL A   1      30.767  28.514  22.714  1.00  0.00     0.224 C 
ATOM     13  O   UNL A   1      30.529  29.548  22.077  1.00  0.00    -0.275 OA
ATOM     14  H   UNL A   1      31.257  27.607  21.032  1.00  0.00     0.169 HD
BRANCH  12  15
ATOM     15  C   UNL A   1      30.655  28.532  24.226  1.00  0.00     0.110 C 
BRANCH  15  16
ATOM     16  C   UNL A   1      31.516  29.484  25.065  1.00  0.00     0.112 C 
BRANCH  16  17
ATOM     17  C   UNL A   1      33.032  29.306  25.200  1.00  0.00     0.240 C 
ATOM     18  N   UNL A   1      33.765  30.015  26.120  1.00  0.00    -0.247 N 
ATOM     19  H   UNL A   1      34.737  29.854  26.129  1.00  0.00     0.193 HD
ATOM     20  O   UNL A   1      33.624  28.504  24.468  1.00  0.00    -0.273 OA
BRANCH  18  21
ATOM     21  N   UNL A   1      33.288  30.914  27.019  1.00  0.00    -0.180 NA
ATOM     22  C   UNL A   1      34.207  31.585  27.629  1.00  0.00     0.148 C 
BRANCH  22  23
ATOM     23  C   UNL A   1      33.977  32.814  28.392  1.00  0.00     0.078 A 
ATOM     24  C   UNL A   1      34.779  35.382  34.002  1.00  0.00     0.044 C 
ATOM     25  C   UNL A   1      34.292  35.288  32.587  1.00  0.00    -0.050 A 
ATOM     26  C   UNL A   1      33.337  36.179  32.073  1.00  0.00     0.007 A 
ATOM     27  C   UNL A   1      34.794  34.281  31.762  1.00  0.00     0.019 A 
ATOM     28  C   UNL A   1      32.888  36.063  30.753  1.00  0.00     0.048 A 
ATOM     29  C   UNL A   1      34.305  34.146  30.464  1.00  0.00     0.066 A 
ATOM     30  C   UNL A   1      33.367  35.037  29.946  1.00  0.00     0.137 A 
ATOM     31  C   UNL A   1      34.698  32.989  29.662  1.00  0.00     0.201 A 
ATOM     32  O   UNL A   1      32.862  34.932  28.671  1.00  0.00    -0.463 OA
ATOM     33  O   UNL A   1      35.539  32.183  30.048  1.00  0.00    -0.288 OA
ATOM     34  C   UNL A   1      33.159  33.783  27.971  1.00  0.00     0.209 A 
ENDBRANCH  22  23
ENDBRANCH  18  21
ENDBRANCH  16  17
ENDBRANCH  15  16
ENDBRANCH  12  15
ENDBRANCH   6  11
ENDBRANCH   3   5
ENDBRANCH   2   3
ENDBRANCH   1   2
BRANCH   1  35
ATOM     35  C   UNL A   1      35.868  20.931  25.072  1.00  0.00     0.202 C 
BRANCH  35  36
ATOM     36  O   UNL A   1      37.227  21.364  25.096  1.00  0.00    -0.374 OA
BRANCH  36  37
ATOM     37  C   UNL A   1      38.219  20.342  25.226  1.00  0.00     0.202 C 
BRANCH  37  38
ATOM     38  C   UNL A   1      39.582  20.807  25.751  1.00  0.00     0.261 C 
BRANCH  38  39
ATOM     39  O   UNL A   1      40.237  19.770  26.501  1.00  0.00    -0.460 OA
BRANCH  39  40
ATOM     40  C   UNL A   1      41.530  19.556  26.162  1.00  0.00     0.338 C 
ATOM     41  O   UNL A   1      42.000  18.582  25.599  1.00  0.00    -0.246 OA
BRANCH  40  42
ATOM     42  C   UNL A   1      42.315  20.776  26.422  1.00  0.00     0.060 A 
ATOM     43  C   UNL A   1      42.426  21.209  27.749  1.00  0.00     0.016 A 
ATOM     44  C   UNL A   1      42.869  21.521  25.380  1.00  0.00     0.016 A 
ATOM     45  C   UNL A   1      43.046  22.423  28.036  1.00  0.00     0.010 A 
ATOM     46  C   UNL A   1      43.485  22.740  25.669  1.00  0.00     0.010 A 
ATOM     47  C   UNL A   1      43.541  23.214  26.992  1.00  0.00    -0.014 A 
BRANCH  47  48
ATOM     48  C   UNL A   1      43.988  24.601  27.260  1.00  0.00     0.031 A 
ATOM     49  C   UNL A   1      42.983  25.604  27.752  1.00  0.00     0.074 A 
ATOM     50  C   UNL A   1      45.269  24.960  27.067  1.00  0.00     0.049 A 
ATOM     51  N   UNL A   1      43.119  26.890  27.955  1.00  0.00    -0.248 NA
ATOM     52  C   UNL A   1      41.637  25.088  28.049  1.00  0.00     0.031 C 
ATOM     53  C   UNL A   1      46.340  24.065  26.636  1.00  0.00     0.029 A 
ATOM     54  N   UNL A   1      45.880  26.183  27.194  1.00  0.00    -0.354 N 
ATOM     55  C   UNL A   1      41.878  27.338  28.387  1.00  0.00     0.074 A 
ATOM     56  C   UNL A   1      40.991  26.194  28.387  1.00  0.00     0.031 C 
ATOM     57  C   UNL A   1      47.476  24.773  26.517  1.00  0.00     0.029 A 
ATOM     58  C   UNL A   1      47.200  26.176  26.821  1.00  0.00     0.049 A 
ATOM     59  H   UNL A   1      45.415  26.987  27.522  1.00  0.00     0.167 HD
ATOM     60  C   UNL A   1      41.515  28.589  28.755  1.00  0.00     0.037 A 
ATOM     61  C   UNL A   1      48.074  27.195  26.706  1.00  0.00     0.037 A 
ATOM     62  C   UNL A   1      42.406  29.720  28.753  1.00  0.00     0.049 A 
ATOM     63  C   UNL A   1      47.623  28.593  27.044  1.00  0.00     0.074 A 
ATOM     64  C   UNL A   1      42.144  31.026  29.128  1.00  0.00     0.029 A 
ATOM     65  N   UNL A   1      43.733  29.679  28.348  1.00  0.00    -0.354 N 
ATOM     66  N   UNL A   1      46.455  29.008  27.473  1.00  0.00    -0.248 NA
ATOM     67  C   UNL A   1      48.614  29.666  26.883  1.00  0.00     0.031 C 
ATOM     68  C   UNL A   1      43.291  31.787  28.889  1.00  0.00     0.029 A 
ATOM     69  C   UNL A   1      44.292  30.944  28.434  1.00  0.00     0.049 A 
ATOM     70  H   UNL A   1      44.206  28.871  28.043  1.00  0.00     0.167 HD
ATOM     71  C   UNL A   1      46.582  30.378  27.668  1.00  0.00     0.074 A 
ATOM     72  C   UNL A   1      47.944  30.723  27.320  1.00  0.00     0.031 C 
ATOM     73  C   UNL A   1      45.656  31.268  28.100  1.00  0.00     0.037 A 
BRANCH  60  74
ATOM     74  C   UNL A   1      40.086  28.811  29.164  1.00  0.00     0.064 A 
ATOM     75  C   UNL A   1      39.097  29.167  28.235  1.00  0.00     0.173 A 
ATOM     76  C   UNL A   1      39.694  28.622  30.498  1.00  0.00     0.173 A 
ATOM     77  F   UNL A   1      39.420  29.371  26.949  1.00  0.00    -0.203 F 
ATOM     78  C   UNL A   1      37.775  29.351  28.631  1.00  0.00     0.198 A 
ATOM     79  C   UNL A   1      38.365  28.773  30.885  1.00  0.00     0.198 A 
ATOM     80  F   UNL A   1      40.598  28.276  31.427  1.00  0.00    -0.203 F 
ATOM     81  F   UNL A   1      36.856  29.738  27.736  1.00  0.00    -0.200 F 
ATOM     82  C   UNL A   1      37.409  29.146  29.953  1.00  0.00     0.200 A 
ATOM     83  F   UNL A   1      38.011  28.559  32.159  1.00  0.00    -0.200 F 
ATOM     84  F   UNL A   1      36.133  29.311  30.331  1.00  0.00    -0.200 F 
ENDBRANCH  60  74
BRANCH  61  85
ATOM     85  C   UNL A   1      49.460  26.938  26.232  1.00  0.00     0.064 A 
ATOM     86  C   UNL A   1      49.778  26.992  24.867  1.00  0.00     0.173 A 
ATOM     87  C   UNL A   1      50.488  26.607  27.128  1.00  0.00     0.173 A 
ATOM     88  F   UNL A   1      48.826  27.280  23.968  1.00  0.00    -0.203 F 
ATOM     89  C   UNL A   1      51.065  26.701  24.417  1.00  0.00     0.198 A 
ATOM     90  C   UNL A   1      51.781  26.350  26.679  1.00  0.00     0.198 A 
ATOM     91  F   UNL A   1      50.237  26.540  28.444  1.00  0.00    -0.203 F 
ATOM     92  F   UNL A   1      51.327  26.705  23.103  1.00  0.00    -0.200 F 
ATOM     93  C   UNL A   1      52.066  26.387  25.322  1.00  0.00     0.200 A 
ATOM     94  F   UNL A   1      52.749  26.061  27.559  1.00  0.00    -0.200 F 
ATOM     95  F   UNL A   1      53.303  26.109  24.888  1.00  0.00    -0.200 F 
ENDBRANCH  61  85
BRANCH  73  96
ATOM     96  C   UNL A   1      46.092  32.696  28.278  1.00  0.00     0.064 A 
ATOM     97  C   UNL A   1      45.952  33.648  27.258  1.00  0.00     0.173 A 
ATOM     98  C   UNL A   1      46.607  33.127  29.511  1.00  0.00     0.173 A 
ATOM     99  F   UNL A   1      45.477  33.286  26.057  1.00  0.00    -0.203 F 
ATOM    100  C   UNL A   1      46.333  34.973  27.459  1.00  0.00     0.198 A 
ATOM    101  C   UNL A   1      46.953  34.459  29.719  1.00  0.00     0.198 A 
ATOM    102  F   UNL A   1      46.754  32.260  30.524  1.00  0.00    -0.203 F 
ATOM    103  F   UNL A   1      46.235  35.855  26.454  1.00  0.00    -0.200 F 
ATOM    104  C   UNL A   1      46.823  35.379  28.690  1.00  0.00     0.200 A 
ATOM    105  F   UNL A   1      47.409  34.853  30.916  1.00  0.00    -0.200 F 
ATOM    106  F   UNL A   1      47.176  36.657  28.885  1.00  0.00    -0.200 F 
ENDBRANCH  73  96
ENDBRANCH  47  48
ENDBRANCH  40  42
ENDBRANCH  39  40
ENDBRANCH  38  39
ENDBRANCH  37  38
ENDBRANCH  36  37
ENDBRANCH  35  36
ENDBRANCH   1  35
TORSDOF 20
ENDMDL
MODEL 3
REMARK VINA RESULT:     -12.0      0.729      6.929
REMARK SMILES Cc1ccc2occ(/C=N/NC(=O)CCC(=O)Nc3ccc(C(=O)OCCOCCOC(=O)c4ccc(-c5c6nc(c(-c7c(F)c(F)c(F)c(F)c7F)c7ccc([nH]7)c(-c7c(F)c(F)c(F)c(F)c7F)c7nc(c(-c8c(F)c(F)c(F)c(F)c8F)c8ccc5[nH]8)C=C7)C=C6)cc4)cc3)c(=O)c2c1
REMARK SMILES IDX 26 1 25 2 23 3 24 4 22 5 19 6 20 7 98 8 21 9 97 10 18 11
REMARK SMILES IDX 16 12 17 13 15 15 14 16 12 17 11 18 13 20 10 21 9 22 8 23
REMARK SMILES IDX 1 24 2 25 3 26 102 27 4 28 101 29 5 30 99 31 6 32 100 33
REMARK SMILES IDX 7 34 27 35 28 36 29 37 30 38 31 39 32 40 33 41 34 42 35 43
REMARK SMILES IDX 96 44 36 45 95 46 37 47 38 48 39 49 89 50 40 51 94 52 88 53
REMARK SMILES IDX 90 54 41 55 93 56 87 57 86 58 42 60 74 61 54 62 73 63 55 64
REMARK SMILES IDX 58 65 72 66 91 67 56 68 57 69 71 71 92 72 59 73 43 74 44 75
REMARK SMILES IDX 52 76 45 77 46 78 50 79 53 80 47 81 48 82 51 83 49 84 75 85
REMARK SMILES IDX 76 86 84 87 77 88 78 89 82 90 85 91 79 92 80 93 83 94 81 95
REMARK SMILES IDX 60 96 61 97 69 98 62 99 63 100 67 101 70 102 64 103 65 104
REMARK SMILES IDX 68 105 66 106
REMARK H PARENT 18 14 11 19 90 59 58 70
REMARK Flexibility Score: inf
ROOT
ATOM      1  C   UNL A   1      35.500  22.944  23.502  1.00  0.00     0.261 C 
ENDROOT
BRANCH   1   2
ATOM      2  O   UNL A   1      34.583  23.893  24.038  1.00  0.00    -0.460 OA
BRANCH   2   3
ATOM      3  C   UNL A   1      34.049  24.778  23.156  1.00  0.00     0.338 C 
ATOM      4  O   UNL A   1      33.675  24.564  22.022  1.00  0.00    -0.246 OA
BRANCH   3   5
ATOM      5  C   UNL A   1      33.913  26.076  23.852  1.00  0.00     0.060 A 
ATOM      6  C   UNL A   1      33.508  28.537  25.142  1.00  0.00     0.041 A 
ATOM      7  C   UNL A   1      33.884  27.403  25.877  1.00  0.00     0.027 A 
ATOM      8  C   UNL A   1      33.394  28.414  23.766  1.00  0.00     0.027 A 
ATOM      9  C   UNL A   1      34.066  26.168  25.238  1.00  0.00     0.018 A 
ATOM     10  C   UNL A   1      33.621  27.215  23.116  1.00  0.00     0.018 A 
BRANCH   6  11
ATOM     11  N   UNL A   1      33.261  29.726  25.841  1.00  0.00    -0.326 N 
ATOM     12  C   UNL A   1      32.154  30.508  25.993  1.00  0.00     0.224 C 
ATOM     13  O   UNL A   1      32.266  31.496  26.730  1.00  0.00    -0.275 OA
ATOM     14  H   UNL A   1      34.048  30.066  26.323  1.00  0.00     0.169 HD
BRANCH  12  15
ATOM     15  C   UNL A   1      30.800  30.174  25.398  1.00  0.00     0.110 C 
BRANCH  15  16
ATOM     16  C   UNL A   1      30.511  30.431  23.913  1.00  0.00     0.112 C 
BRANCH  16  17
ATOM     17  C   UNL A   1      29.157  30.100  23.278  1.00  0.00     0.240 C 
ATOM     18  N   UNL A   1      28.861  28.839  22.820  1.00  0.00    -0.247 N 
ATOM     19  H   UNL A   1      27.975  28.715  22.409  1.00  0.00     0.193 HD
ATOM     20  O   UNL A   1      28.297  30.982  23.168  1.00  0.00    -0.273 OA
BRANCH  18  21
ATOM     21  N   UNL A   1      29.664  27.745  22.879  1.00  0.00    -0.180 NA
ATOM     22  C   UNL A   1      29.573  27.086  23.986  1.00  0.00     0.148 C 
BRANCH  22  23
ATOM     23  C   UNL A   1      30.068  25.722  24.189  1.00  0.00     0.078 A 
ATOM     24  C   UNL A   1      33.341  22.178  28.117  1.00  0.00     0.044 C 
ATOM     25  C   UNL A   1      32.592  22.513  26.863  1.00  0.00    -0.050 A 
ATOM     26  C   UNL A   1      32.637  21.684  25.731  1.00  0.00     0.007 A 
ATOM     27  C   UNL A   1      31.839  23.686  26.816  1.00  0.00     0.019 A 
ATOM     28  C   UNL A   1      31.940  22.025  24.566  1.00  0.00     0.048 A 
ATOM     29  C   UNL A   1      31.187  24.039  25.635  1.00  0.00     0.066 A 
ATOM     30  C   UNL A   1      31.218  23.212  24.514  1.00  0.00     0.137 A 
ATOM     31  C   UNL A   1      30.547  25.349  25.529  1.00  0.00     0.201 A 
ATOM     32  O   UNL A   1      30.588  23.530  23.334  1.00  0.00    -0.463 OA
ATOM     33  O   UNL A   1      30.461  26.112  26.485  1.00  0.00    -0.288 OA
ATOM     34  C   UNL A   1      30.084  24.807  23.216  1.00  0.00     0.209 A 
ENDBRANCH  22  23
ENDBRANCH  18  21
ENDBRANCH  16  17
ENDBRANCH  15  16
ENDBRANCH  12  15
ENDBRANCH   6  11
ENDBRANCH   3   5
ENDBRANCH   2   3
ENDBRANCH   1   2
BRANCH   1  35
ATOM     35  C   UNL A   1      36.710  22.771  24.421  1.00  0.00     0.202 C 
BRANCH  35  36
ATOM     36  O   UNL A   1      36.749  21.565  25.181  1.00  0.00    -0.374 OA
BRANCH  36  37
ATOM     37  C   UNL A   1      37.366  20.437  24.554  1.00  0.00     0.202 C 
BRANCH  37  38
ATOM     38  C   UNL A   1      38.533  19.810  25.324  1.00  0.00     0.261 C 
BRANCH  38  39
ATOM     39  O   UNL A   1      38.961  20.653  26.408  1.00  0.00    -0.460 OA
BRANCH  39  40
ATOM     40  C   UNL A   1      40.299  20.682  26.610  1.00  0.00     0.338 C 
ATOM     41  O   UNL A   1      41.114  19.822  26.323  1.00  0.00    -0.246 OA
BRANCH  40  42
ATOM     42  C   UNL A   1      40.694  22.016  27.096  1.00  0.00     0.060 A 
ATOM     43  C   UNL A   1      40.127  23.133  26.470  1.00  0.00     0.016 A 
ATOM     44  C   UNL A   1      41.655  22.170  28.097  1.00  0.00     0.016 A 
ATOM     45  C   UNL A   1      40.561  24.413  26.803  1.00  0.00     0.010 A 
ATOM     46  C   UNL A   1      42.093  23.455  28.426  1.00  0.00     0.010 A 
ATOM     47  C   UNL A   1      41.576  24.578  27.753  1.00  0.00    -0.014 A 
BRANCH  47  48
ATOM     48  C   UNL A   1      42.206  25.905  27.944  1.00  0.00     0.031 A 
ATOM     49  C   UNL A   1      41.440  26.973  28.673  1.00  0.00     0.074 A 
ATOM     50  C   UNL A   1      43.441  26.154  27.475  1.00  0.00     0.049 A 
ATOM     51  N   UNL A   1      41.745  28.231  28.869  1.00  0.00    -0.248 NA
ATOM     52  C   UNL A   1      40.150  26.570  29.254  1.00  0.00     0.031 C 
ATOM     53  C   UNL A   1      44.295  25.185  26.792  1.00  0.00     0.029 A 
ATOM     54  N   UNL A   1      44.183  27.309  27.488  1.00  0.00    -0.354 N 
ATOM     55  C   UNL A   1      40.681  28.771  29.579  1.00  0.00     0.074 A 
ATOM     56  C   UNL A   1      39.708  27.714  29.755  1.00  0.00     0.031 C 
ATOM     57  C   UNL A   1      45.441  25.791  26.436  1.00  0.00     0.029 A 
ATOM     58  C   UNL A   1      45.380  27.198  26.826  1.00  0.00     0.049 A 
ATOM     59  H   UNL A   1      43.884  28.137  27.931  1.00  0.00     0.167 HD
ATOM     60  C   UNL A   1      40.535  30.032  30.049  1.00  0.00     0.037 A 
ATOM     61  C   UNL A   1      46.302  28.137  26.539  1.00  0.00     0.037 A 
ATOM     62  C   UNL A   1      41.510  31.076  29.870  1.00  0.00     0.049 A 
ATOM     63  C   UNL A   1      46.078  29.554  27.002  1.00  0.00     0.074 A 
ATOM     64  C   UNL A   1      41.469  32.383  30.324  1.00  0.00     0.029 A 
ATOM     65  N   UNL A   1      42.703  30.933  29.176  1.00  0.00    -0.354 N 
ATOM     66  N   UNL A   1      45.082  30.055  27.693  1.00  0.00    -0.248 NA
ATOM     67  C   UNL A   1      47.109  30.539  26.645  1.00  0.00     0.031 C 
ATOM     68  C   UNL A   1      42.603  33.046  29.849  1.00  0.00     0.029 A 
ATOM     69  C   UNL A   1      43.390  32.136  29.161  1.00  0.00     0.049 A 
ATOM     70  H   UNL A   1      43.014  30.099  28.753  1.00  0.00     0.167 HD
ATOM     71  C   UNL A   1      45.384  31.398  27.885  1.00  0.00     0.074 A 
ATOM     72  C   UNL A   1      46.662  31.632  27.246  1.00  0.00     0.031 C 
ATOM     73  C   UNL A   1      44.670  32.349  28.535  1.00  0.00     0.037 A 
BRANCH  60  74
ATOM     74  C   UNL A   1      39.263  30.366  30.775  1.00  0.00     0.064 A 
ATOM     75  C   UNL A   1      39.143  30.218  32.164  1.00  0.00     0.173 A 
ATOM     76  C   UNL A   1      38.162  30.881  30.074  1.00  0.00     0.173 A 
ATOM     77  F   UNL A   1      40.160  29.719  32.882  1.00  0.00    -0.203 F 
ATOM     78  C   UNL A   1      37.960  30.550  32.821  1.00  0.00     0.198 A 
ATOM     79  C   UNL A   1      36.993  31.244  30.737  1.00  0.00     0.198 A 
ATOM     80  F   UNL A   1      38.224  31.048  28.743  1.00  0.00    -0.203 F 
ATOM     81  F   UNL A   1      37.851  30.355  34.142  1.00  0.00    -0.200 F 
ATOM     82  C   UNL A   1      36.890  31.070  32.109  1.00  0.00     0.200 A 
ATOM     83  F   UNL A   1      35.967  31.762  30.048  1.00  0.00    -0.200 F 
ATOM     84  F   UNL A   1      35.756  31.400  32.743  1.00  0.00    -0.200 F 
ENDBRANCH  60  74
BRANCH  61  85
ATOM     85  C   UNL A   1      47.515  27.776  25.759  1.00  0.00     0.064 A 
ATOM     86  C   UNL A   1      47.493  27.759  24.357  1.00  0.00     0.173 A 
ATOM     87  C   UNL A   1      48.712  27.415  26.396  1.00  0.00     0.173 A 
ATOM     88  F   UNL A   1      46.367  28.073  23.701  1.00  0.00    -0.203 F 
ATOM     89  C   UNL A   1      48.614  27.372  23.625  1.00  0.00     0.198 A 
ATOM     90  C   UNL A   1      49.841  27.060  25.662  1.00  0.00     0.198 A 
ATOM     91  F   UNL A   1      48.786  27.412  27.735  1.00  0.00    -0.203 F 
ATOM     92  F   UNL A   1      48.548  27.310  22.288  1.00  0.00    -0.200 F 
ATOM     93  C   UNL A   1      49.788  27.028  24.277  1.00  0.00     0.200 A 
ATOM     94  F   UNL A   1      50.978  26.743  26.297  1.00  0.00    -0.200 F 
ATOM     95  F   UNL A   1      50.865  26.657  23.571  1.00  0.00    -0.200 F 
ENDBRANCH  61  85
BRANCH  73  96
ATOM     96  C   UNL A   1      45.274  33.722  28.642  1.00  0.00     0.064 A 
ATOM     97  C   UNL A   1      46.130  34.075  29.696  1.00  0.00     0.173 A 
ATOM     98  C   UNL A   1      45.035  34.678  27.642  1.00  0.00     0.173 A 
ATOM     99  F   UNL A   1      46.381  33.204  30.684  1.00  0.00    -0.203 F 
ATOM    100  C   UNL A   1      46.704  35.343  29.756  1.00  0.00     0.198 A 
ATOM    101  C   UNL A   1      45.640  35.931  27.687  1.00  0.00     0.198 A 
ATOM    102  F   UNL A   1      44.231  34.389  26.608  1.00  0.00    -0.203 F 
ATOM    103  F   UNL A   1      47.480  35.676  30.797  1.00  0.00    -0.200 F 
ATOM    104  C   UNL A   1      46.467  36.265  28.748  1.00  0.00     0.200 A 
ATOM    105  F   UNL A   1      45.423  36.813  26.702  1.00  0.00    -0.200 F 
ATOM    106  F   UNL A   1      47.031  37.479  28.801  1.00  0.00    -0.200 F 
ENDBRANCH  73  96
ENDBRANCH  47  48
ENDBRANCH  40  42
ENDBRANCH  39  40
ENDBRANCH  38  39
ENDBRANCH  37  38
ENDBRANCH  36  37
ENDBRANCH  35  36
ENDBRANCH   1  35
TORSDOF 20
ENDMDL
