MODEL 1
REMARK VINA RESULT:     -12.1      0.000      0.000
REMARK SMILES O=C(OCCOCCOC(=O)[C@H]1[NH2+]CC[C@H]1c1cccc(Oc2ccccc2)c1)c1ccc(-c2c3nc(c(-c4c(F)c(F)c(F)c(F)c4F)c4ccc([nH]4)c(-c4c(F)c(F)c(F)c(F)c4F)c4nc(c(-c5c(F)c(F)c(F)c(F)c5F)c5ccc2[nH]5)C=C4)C=C3)cc1
REMARK SMILES IDX 7 1 6 2 5 3 4 4 3 5 2 6 1 7 30 8 31 9 92 10 32 11 91 12
REMARK SMILES IDX 33 13 34 14 35 15 85 16 36 17 90 18 84 19 86 20 37 21 89 22
REMARK SMILES IDX 83 23 82 24 38 26 70 27 50 28 69 29 51 30 54 31 68 32 87 33
REMARK SMILES IDX 52 34 53 35 67 37 88 38 55 39 39 40 40 41 48 42 41 43 42 44
REMARK SMILES IDX 46 45 49 46 43 47 44 48 47 49 45 50 71 51 72 52 80 53 73 54
REMARK SMILES IDX 74 55 78 56 81 57 75 58 76 59 79 60 77 61 56 62 57 63 65 64
REMARK SMILES IDX 58 65 59 66 63 67 66 68 60 69 61 70 64 71 62 72 8 73 9 74
REMARK SMILES IDX 10 75 11 76 12 77 13 78 16 79 14 80 15 83 17 84 18 85 29 86
REMARK SMILES IDX 19 87 21 88 20 89 22 90 23 91 24 92 28 93 25 94 27 95 26 96
REMARK H PARENT 86 25 54 36 13 81 13 82
REMARK Flexibility Score: inf
ROOT
ATOM      1  C   UNL A   1      40.271  20.966  26.501  1.00  0.00     0.202 C 
ENDROOT
BRANCH   1   2
ATOM      2  O   UNL A   1      41.585  21.465  26.787  1.00  0.00    -0.374 OA
BRANCH   2   3
ATOM      3  C   UNL A   1      42.573  21.284  25.764  1.00  0.00     0.202 C 
BRANCH   3   4
ATOM      4  C   UNL A   1      43.670  22.358  25.628  1.00  0.00     0.261 C 
BRANCH   4   5
ATOM      5  O   UNL A   1      43.168  23.536  24.964  1.00  0.00    -0.460 OA
BRANCH   5   6
ATOM      6  C   UNL A   1      43.599  24.807  25.118  1.00  0.00     0.338 C 
ATOM      7  O   UNL A   1      44.665  25.168  24.625  1.00  0.00    -0.246 OA
BRANCH   6   8
ATOM      8  C   UNL A   1      42.862  25.745  26.004  1.00  0.00     0.060 A 
ATOM      9  C   UNL A   1      43.276  27.050  26.229  1.00  0.00     0.016 A 
ATOM     10  C   UNL A   1      41.702  25.299  26.659  1.00  0.00     0.016 A 
ATOM     11  C   UNL A   1      42.662  27.868  27.138  1.00  0.00     0.010 A 
ATOM     12  C   UNL A   1      41.047  26.125  27.578  1.00  0.00     0.010 A 
ATOM     13  C   UNL A   1      41.574  27.391  27.849  1.00  0.00    -0.014 A 
BRANCH  13  14
ATOM     14  C   UNL A   1      41.258  28.179  29.043  1.00  0.00     0.031 A 
ATOM     15  C   UNL A   1      39.975  28.952  29.023  1.00  0.00     0.074 A 
ATOM     16  C   UNL A   1      41.931  27.918  30.175  1.00  0.00     0.049 A 
ATOM     17  N   UNL A   1      39.428  29.678  29.957  1.00  0.00    -0.248 NA
ATOM     18  C   UNL A   1      39.176  28.869  27.783  1.00  0.00     0.031 C 
ATOM     19  C   UNL A   1      43.042  26.966  30.290  1.00  0.00     0.029 A 
ATOM     20  N   UNL A   1      41.732  28.355  31.450  1.00  0.00    -0.354 N 
ATOM     21  C   UNL A   1      38.260  30.179  29.400  1.00  0.00     0.074 A 
ATOM     22  C   UNL A   1      38.154  29.661  28.059  1.00  0.00     0.031 C 
ATOM     23  C   UNL A   1      43.401  26.867  31.579  1.00  0.00     0.029 A 
ATOM     24  C   UNL A   1      42.609  27.812  32.353  1.00  0.00     0.049 A 
ATOM     25  H   UNL A   1      41.028  28.998  31.698  1.00  0.00     0.167 HD
ATOM     26  C   UNL A   1      37.371  31.021  29.974  1.00  0.00     0.037 A 
ATOM     27  C   UNL A   1      42.768  28.097  33.657  1.00  0.00     0.037 A 
ATOM     28  C   UNL A   1      37.525  31.491  31.323  1.00  0.00     0.049 A 
ATOM     29  C   UNL A   1      41.846  29.131  34.241  1.00  0.00     0.074 A 
ATOM     30  C   UNL A   1      36.781  32.425  32.013  1.00  0.00     0.029 A 
ATOM     31  N   UNL A   1      38.514  31.035  32.191  1.00  0.00    -0.354 N 
ATOM     32  N   UNL A   1      40.821  29.734  33.680  1.00  0.00    -0.248 NA
ATOM     33  C   UNL A   1      42.109  29.547  35.620  1.00  0.00     0.031 C 
ATOM     34  C   UNL A   1      37.353  32.571  33.284  1.00  0.00     0.029 A 
ATOM     35  C   UNL A   1      38.415  31.684  33.407  1.00  0.00     0.049 A 
ATOM     36  H   UNL A   1      39.186  30.349  31.971  1.00  0.00     0.167 HD
ATOM     37  C   UNL A   1      40.306  30.591  34.638  1.00  0.00     0.074 A 
ATOM     38  C   UNL A   1      41.126  30.413  35.824  1.00  0.00     0.031 C 
ATOM     39  C   UNL A   1      39.260  31.452  34.554  1.00  0.00     0.037 A 
BRANCH  26  40
ATOM     40  C   UNL A   1      36.279  31.557  29.094  1.00  0.00     0.064 A 
ATOM     41  C   UNL A   1      36.228  32.899  28.685  1.00  0.00     0.173 A 
ATOM     42  C   UNL A   1      35.208  30.724  28.734  1.00  0.00     0.173 A 
ATOM     43  F   UNL A   1      37.204  33.750  29.036  1.00  0.00    -0.203 F 
ATOM     44  C   UNL A   1      35.126  33.394  27.987  1.00  0.00     0.198 A 
ATOM     45  C   UNL A   1      34.124  31.216  28.012  1.00  0.00     0.198 A 
ATOM     46  F   UNL A   1      35.197  29.437  29.111  1.00  0.00    -0.203 F 
ATOM     47  F   UNL A   1      35.061  34.697  27.678  1.00  0.00    -0.200 F 
ATOM     48  C   UNL A   1      34.077  32.552  27.650  1.00  0.00     0.200 A 
ATOM     49  F   UNL A   1      33.110  30.399  27.690  1.00  0.00    -0.200 F 
ATOM     50  F   UNL A   1      33.009  33.036  27.000  1.00  0.00    -0.200 F 
ENDBRANCH  26  40
BRANCH  27  51
ATOM     51  C   UNL A   1      43.860  27.457  34.436  1.00  0.00     0.064 A 
ATOM     52  C   UNL A   1      45.142  28.014  34.497  1.00  0.00     0.173 A 
ATOM     53  C   UNL A   1      43.631  26.276  35.164  1.00  0.00     0.173 A 
ATOM     54  F   UNL A   1      45.421  29.130  33.808  1.00  0.00    -0.203 F 
ATOM     55  C   UNL A   1      46.153  27.417  35.251  1.00  0.00     0.198 A 
ATOM     56  C   UNL A   1      44.632  25.698  35.943  1.00  0.00     0.198 A 
ATOM     57  F   UNL A   1      42.423  25.694  35.142  1.00  0.00    -0.203 F 
ATOM     58  F   UNL A   1      47.381  27.954  35.267  1.00  0.00    -0.200 F 
ATOM     59  C   UNL A   1      45.895  26.265  35.981  1.00  0.00     0.200 A 
ATOM     60  F   UNL A   1      44.369  24.596  36.658  1.00  0.00    -0.200 F 
ATOM     61  F   UNL A   1      46.863  25.701  36.715  1.00  0.00    -0.200 F 
ENDBRANCH  27  51
BRANCH  39  62
ATOM     62  C   UNL A   1      38.932  32.219  35.795  1.00  0.00     0.064 A 
ATOM     63  C   UNL A   1      38.216  31.638  36.850  1.00  0.00     0.173 A 
ATOM     64  C   UNL A   1      39.384  33.538  35.942  1.00  0.00     0.173 A 
ATOM     65  F   UNL A   1      37.753  30.383  36.742  1.00  0.00    -0.203 F 
ATOM     66  C   UNL A   1      37.942  32.363  38.003  1.00  0.00     0.198 A 
ATOM     67  C   UNL A   1      39.135  34.248  37.110  1.00  0.00     0.198 A 
ATOM     68  F   UNL A   1      40.080  34.129  34.958  1.00  0.00    -0.203 F 
ATOM     69  F   UNL A   1      37.214  31.810  38.983  1.00  0.00    -0.200 F 
ATOM     70  C   UNL A   1      38.408  33.663  38.136  1.00  0.00     0.200 A 
ATOM     71  F   UNL A   1      39.600  35.499  37.242  1.00  0.00    -0.200 F 
ATOM     72  F   UNL A   1      38.150  34.357  39.253  1.00  0.00    -0.200 F 
ENDBRANCH  39  62
ENDBRANCH  13  14
ENDBRANCH   6   8
ENDBRANCH   5   6
ENDBRANCH   4   5
ENDBRANCH   3   4
ENDBRANCH   2   3
ENDBRANCH   1   2
BRANCH   1  73
ATOM     73  C   UNL A   1      39.274  22.075  26.149  1.00  0.00     0.261 C 
BRANCH  73  74
ATOM     74  O   UNL A   1      38.077  21.499  25.603  1.00  0.00    -0.459 OA
BRANCH  74  75
ATOM     75  C   UNL A   1      37.218  22.408  25.091  1.00  0.00     0.365 C 
ATOM     76  O   UNL A   1      37.480  23.599  24.932  1.00  0.00    -0.245 OA
BRANCH  75  77
ATOM     77  C   UNL A   1      35.871  21.797  24.719  1.00  0.00     0.301 C 
ATOM     78  N   UNL A   1      35.283  21.108  25.909  1.00  0.00    -0.334 N 
ATOM     79  C   UNL A   1      34.712  22.559  24.012  1.00  0.00     0.095 C 
ATOM     80  C   UNL A   1      33.836  21.207  25.814  1.00  0.00     0.262 C 
ATOM     81  H   UNL A   1      35.606  21.559  26.764  1.00  0.00     0.347 HD
ATOM     82  H   UNL A   1      35.571  20.129  25.930  1.00  0.00     0.347 HD
ATOM     83  C   UNL A   1      33.569  21.583  24.363  1.00  0.00     0.076 C 
BRANCH  79  84
ATOM     84  C   UNL A   1      34.348  24.035  24.264  1.00  0.00    -0.034 A 
ATOM     85  C   UNL A   1      34.435  24.640  25.534  1.00  0.00     0.004 A 
ATOM     86  C   UNL A   1      33.762  24.812  23.235  1.00  0.00     0.051 A 
ATOM     87  C   UNL A   1      33.952  25.931  25.774  1.00  0.00     0.004 A 
ATOM     88  C   UNL A   1      33.312  26.128  23.457  1.00  0.00     0.127 A 
ATOM     89  C   UNL A   1      33.386  26.668  24.740  1.00  0.00     0.047 A 
BRANCH  88  90
ATOM     90  O   UNL A   1      32.703  26.949  22.527  1.00  0.00    -0.457 OA
BRANCH  90  91
ATOM     91  C   UNL A   1      31.490  27.513  22.833  1.00  0.00     0.127 A 
ATOM     92  C   UNL A   1      30.437  26.695  23.252  1.00  0.00     0.047 A 
ATOM     93  C   UNL A   1      31.261  28.859  22.563  1.00  0.00     0.047 A 
ATOM     94  C   UNL A   1      29.175  27.248  23.490  1.00  0.00     0.004 A 
ATOM     95  C   UNL A   1      30.001  29.411  22.797  1.00  0.00     0.004 A 
ATOM     96  C   UNL A   1      28.962  28.609  23.271  1.00  0.00     0.000 A 
ENDBRANCH  90  91
ENDBRANCH  88  90
ENDBRANCH  79  84
ENDBRANCH  75  77
ENDBRANCH  74  75
ENDBRANCH  73  74
ENDBRANCH   1  73
TORSDOF 17
ENDMDL
MODEL 2
REMARK VINA RESULT:     -12.0      4.451      7.320
REMARK SMILES O=C(OCCOCCOC(=O)[C@H]1[NH2+]CC[C@H]1c1cccc(Oc2ccccc2)c1)c1ccc(-c2c3nc(c(-c4c(F)c(F)c(F)c(F)c4F)c4ccc([nH]4)c(-c4c(F)c(F)c(F)c(F)c4F)c4nc(c(-c5c(F)c(F)c(F)c(F)c5F)c5ccc2[nH]5)C=C4)C=C3)cc1
REMARK SMILES IDX 7 1 6 2 5 3 4 4 3 5 2 6 1 7 30 8 31 9 92 10 32 11 91 12
REMARK SMILES IDX 33 13 34 14 35 15 85 16 36 17 90 18 84 19 86 20 37 21 89 22
REMARK SMILES IDX 83 23 82 24 38 26 70 27 50 28 69 29 51 30 54 31 68 32 87 33
REMARK SMILES IDX 52 34 53 35 67 37 88 38 55 39 39 40 40 41 48 42 41 43 42 44
REMARK SMILES IDX 46 45 49 46 43 47 44 48 47 49 45 50 71 51 72 52 80 53 73 54
REMARK SMILES IDX 74 55 78 56 81 57 75 58 76 59 79 60 77 61 56 62 57 63 65 64
REMARK SMILES IDX 58 65 59 66 63 67 66 68 60 69 61 70 64 71 62 72 8 73 9 74
REMARK SMILES IDX 10 75 11 76 12 77 13 78 16 79 14 80 15 83 17 84 18 85 29 86
REMARK SMILES IDX 19 87 21 88 20 89 22 90 23 91 24 92 28 93 25 94 27 95 26 96
REMARK H PARENT 86 25 54 36 13 81 13 82
REMARK Flexibility Score: inf
ROOT
ATOM      1  C   UNL A   1      35.169  24.134  25.339  1.00  0.00     0.202 C 
ENDROOT
BRANCH   1   2
ATOM      2  O   UNL A   1      35.336  22.744  25.025  1.00  0.00    -0.374 OA
BRANCH   2   3
ATOM      3  C   UNL A   1      36.433  22.413  24.163  1.00  0.00     0.202 C 
BRANCH   3   4
ATOM      4  C   UNL A   1      37.288  21.185  24.530  1.00  0.00     0.261 C 
BRANCH   4   5
ATOM      5  O   UNL A   1      37.850  21.316  25.851  1.00  0.00    -0.460 OA
BRANCH   5   6
ATOM      6  C   UNL A   1      39.148  21.512  26.171  1.00  0.00     0.338 C 
ATOM      7  O   UNL A   1      39.955  20.589  26.097  1.00  0.00    -0.246 OA
BRANCH   6   8
ATOM      8  C   UNL A   1      39.588  22.808  26.751  1.00  0.00     0.060 A 
ATOM      9  C   UNL A   1      39.000  24.019  26.420  1.00  0.00     0.016 A 
ATOM     10  C   UNL A   1      40.656  22.821  27.664  1.00  0.00     0.016 A 
ATOM     11  C   UNL A   1      39.488  25.218  26.863  1.00  0.00     0.010 A 
ATOM     12  C   UNL A   1      41.159  24.034  28.146  1.00  0.00     0.010 A 
ATOM     13  C   UNL A   1      40.598  25.231  27.691  1.00  0.00    -0.014 A 
BRANCH  13  14
ATOM     14  C   UNL A   1      41.257  26.535  27.774  1.00  0.00     0.031 A 
ATOM     15  C   UNL A   1      40.619  27.561  28.660  1.00  0.00     0.074 A 
ATOM     16  C   UNL A   1      42.524  26.638  27.339  1.00  0.00     0.049 A 
ATOM     17  N   UNL A   1      41.018  28.764  28.959  1.00  0.00    -0.248 NA
ATOM     18  C   UNL A   1      39.367  27.160  29.333  1.00  0.00     0.031 C 
ATOM     19  C   UNL A   1      43.277  25.562  26.686  1.00  0.00     0.029 A 
ATOM     20  N   UNL A   1      43.425  27.655  27.454  1.00  0.00    -0.354 N 
ATOM     21  C   UNL A   1      40.044  29.279  29.803  1.00  0.00     0.074 A 
ATOM     22  C   UNL A   1      39.044  28.259  29.994  1.00  0.00     0.031 C 
ATOM     23  C   UNL A   1      44.540  25.968  26.492  1.00  0.00     0.029 A 
ATOM     24  C   UNL A   1      44.652  27.355  26.921  1.00  0.00     0.049 A 
ATOM     25  H   UNL A   1      43.215  28.519  27.877  1.00  0.00     0.167 HD
ATOM     26  C   UNL A   1      39.997  30.517  30.345  1.00  0.00     0.037 A 
ATOM     27  C   UNL A   1      45.726  28.148  26.766  1.00  0.00     0.037 A 
ATOM     28  C   UNL A   1      41.034  31.486  30.128  1.00  0.00     0.049 A 
ATOM     29  C   UNL A   1      45.602  29.560  27.267  1.00  0.00     0.074 A 
ATOM     30  C   UNL A   1      41.087  32.811  30.510  1.00  0.00     0.029 A 
ATOM     31  N   UNL A   1      42.222  31.209  29.457  1.00  0.00    -0.354 N 
ATOM     32  N   UNL A   1      44.617  30.114  27.939  1.00  0.00    -0.248 NA
ATOM     33  C   UNL A   1      46.714  30.466  26.972  1.00  0.00     0.031 C 
ATOM     34  C   UNL A   1      42.287  33.347  30.025  1.00  0.00     0.029 A 
ATOM     35  C   UNL A   1      43.009  32.343  29.394  1.00  0.00     0.049 A 
ATOM     36  H   UNL A   1      42.467  30.332  29.081  1.00  0.00     0.167 HD
ATOM     37  C   UNL A   1      44.991  31.428  28.161  1.00  0.00     0.074 A 
ATOM     38  C   UNL A   1      46.307  31.580  27.564  1.00  0.00     0.031 C 
ATOM     39  C   UNL A   1      44.318  32.424  28.791  1.00  0.00     0.037 A 
BRANCH  26  40
ATOM     40  C   UNL A   1      38.741  30.887  31.080  1.00  0.00     0.064 A 
ATOM     41  C   UNL A   1      37.610  31.407  30.431  1.00  0.00     0.173 A 
ATOM     42  C   UNL A   1      38.709  30.808  32.481  1.00  0.00     0.173 A 
ATOM     43  F   UNL A   1      37.600  31.544  29.096  1.00  0.00    -0.203 F 
ATOM     44  C   UNL A   1      36.515  31.872  31.160  1.00  0.00     0.198 A 
ATOM     45  C   UNL A   1      37.603  31.247  33.203  1.00  0.00     0.198 A 
ATOM     46  F   UNL A   1      39.769  30.335  33.155  1.00  0.00    -0.203 F 
ATOM     47  F   UNL A   1      35.480  32.440  30.523  1.00  0.00    -0.200 F 
ATOM     48  C   UNL A   1      36.512  31.791  32.544  1.00  0.00     0.200 A 
ATOM     49  F   UNL A   1      37.605  31.169  34.542  1.00  0.00    -0.200 F 
ATOM     50  F   UNL A   1      35.469  32.259  33.244  1.00  0.00    -0.200 F 
ENDBRANCH  26  40
BRANCH  27  51
ATOM     51  C   UNL A   1      46.934  27.644  26.063  1.00  0.00     0.064 A 
ATOM     52  C   UNL A   1      47.046  27.693  24.669  1.00  0.00     0.173 A 
ATOM     53  C   UNL A   1      48.023  27.122  26.782  1.00  0.00     0.173 A 
ATOM     54  F   UNL A   1      46.030  28.165  23.931  1.00  0.00    -0.203 F 
ATOM     55  C   UNL A   1      48.196  27.239  24.021  1.00  0.00     0.198 A 
ATOM     56  C   UNL A   1      49.183  26.699  26.137  1.00  0.00     0.198 A 
ATOM     57  F   UNL A   1      47.973  27.048  28.121  1.00  0.00    -0.203 F 
ATOM     58  F   UNL A   1      48.264  27.268  22.683  1.00  0.00    -0.200 F 
ATOM     59  C   UNL A   1      49.267  26.751  24.756  1.00  0.00     0.200 A 
ATOM     60  F   UNL A   1      50.220  26.246  26.856  1.00  0.00    -0.200 F 
ATOM     61  F   UNL A   1      50.375  26.328  24.134  1.00  0.00    -0.200 F 
ENDBRANCH  27  51
BRANCH  39  62
ATOM     62  C   UNL A   1      45.024  33.739  28.896  1.00  0.00     0.064 A 
ATOM     63  C   UNL A   1      44.857  34.742  27.932  1.00  0.00     0.173 A 
ATOM     64  C   UNL A   1      45.841  34.007  30.003  1.00  0.00     0.173 A 
ATOM     65  F   UNL A   1      44.096  34.519  26.850  1.00  0.00    -0.203 F 
ATOM     66  C   UNL A   1      45.506  35.963  28.062  1.00  0.00     0.198 A 
ATOM     67  C   UNL A   1      46.463  35.240  30.145  1.00  0.00     0.198 A 
ATOM     68  F   UNL A   1      46.021  33.075  30.953  1.00  0.00    -0.203 F 
ATOM     69  F   UNL A   1      45.375  36.895  27.108  1.00  0.00    -0.200 F 
ATOM     70  C   UNL A   1      46.301  36.215  29.172  1.00  0.00     0.200 A 
ATOM     71  F   UNL A   1      47.218  35.487  31.225  1.00  0.00    -0.200 F 
ATOM     72  F   UNL A   1      46.919  37.397  29.299  1.00  0.00    -0.200 F 
ENDBRANCH  39  62
ENDBRANCH  13  14
ENDBRANCH   6   8
ENDBRANCH   5   6
ENDBRANCH   4   5
ENDBRANCH   3   4
ENDBRANCH   2   3
ENDBRANCH   1   2
BRANCH   1  73
ATOM     73  C   UNL A   1      33.835  24.434  26.030  1.00  0.00     0.261 C 
BRANCH  73  74
ATOM     74  O   UNL A   1      33.486  25.813  25.839  1.00  0.00    -0.459 OA
BRANCH  74  75
ATOM     75  C   UNL A   1      32.408  26.209  26.551  1.00  0.00     0.365 C 
ATOM     76  O   UNL A   1      31.485  25.466  26.883  1.00  0.00    -0.245 OA
BRANCH  75  77
ATOM     77  C   UNL A   1      32.453  27.690  26.912  1.00  0.00     0.301 C 
ATOM     78  N   UNL A   1      33.867  28.176  26.874  1.00  0.00    -0.334 N 
ATOM     79  C   UNL A   1      31.571  28.794  26.257  1.00  0.00     0.095 C 
ATOM     80  C   UNL A   1      33.849  29.573  26.473  1.00  0.00     0.262 C 
ATOM     81  H   UNL A   1      34.402  27.629  26.200  1.00  0.00     0.347 HD
ATOM     82  H   UNL A   1      34.301  28.076  27.791  1.00  0.00     0.347 HD
ATOM     83  C   UNL A   1      32.409  30.018  26.685  1.00  0.00     0.076 C 
BRANCH  79  84
ATOM     84  C   UNL A   1      31.164  28.827  24.772  1.00  0.00    -0.034 A 
ATOM     85  C   UNL A   1      30.299  29.801  24.235  1.00  0.00     0.004 A 
ATOM     86  C   UNL A   1      31.536  27.769  23.906  1.00  0.00     0.051 A 
ATOM     87  C   UNL A   1      29.816  29.721  22.924  1.00  0.00     0.004 A 
ATOM     88  C   UNL A   1      31.089  27.705  22.572  1.00  0.00     0.127 A 
ATOM     89  C   UNL A   1      30.204  28.672  22.100  1.00  0.00     0.047 A 
BRANCH  88  90
ATOM     90  O   UNL A   1      31.374  26.702  21.665  1.00  0.00    -0.457 OA
BRANCH  90  91
ATOM     91  C   UNL A   1      31.774  25.476  22.134  1.00  0.00     0.127 A 
ATOM     92  C   UNL A   1      32.903  24.862  21.583  1.00  0.00     0.047 A 
ATOM     93  C   UNL A   1      30.968  24.776  23.027  1.00  0.00     0.047 A 
ATOM     94  C   UNL A   1      33.274  23.579  21.997  1.00  0.00     0.004 A 
ATOM     95  C   UNL A   1      31.336  23.494  23.439  1.00  0.00     0.004 A 
ATOM     96  C   UNL A   1      32.493  22.901  22.934  1.00  0.00     0.000 A 
ENDBRANCH  90  91
ENDBRANCH  88  90
ENDBRANCH  79  84
ENDBRANCH  75  77
ENDBRANCH  74  75
ENDBRANCH  73  74
ENDBRANCH   1  73
TORSDOF 17
ENDMDL
MODEL 3
REMARK VINA RESULT:     -12.0      4.517      7.212
REMARK SMILES O=C(OCCOCCOC(=O)[C@H]1[NH2+]CC[C@H]1c1cccc(Oc2ccccc2)c1)c1ccc(-c2c3nc(c(-c4c(F)c(F)c(F)c(F)c4F)c4ccc([nH]4)c(-c4c(F)c(F)c(F)c(F)c4F)c4nc(c(-c5c(F)c(F)c(F)c(F)c5F)c5ccc2[nH]5)C=C4)C=C3)cc1
REMARK SMILES IDX 7 1 6 2 5 3 4 4 3 5 2 6 1 7 30 8 31 9 92 10 32 11 91 12
REMARK SMILES IDX 33 13 34 14 35 15 85 16 36 17 90 18 84 19 86 20 37 21 89 22
REMARK SMILES IDX 83 23 82 24 38 26 70 27 50 28 69 29 51 30 54 31 68 32 87 33
REMARK SMILES IDX 52 34 53 35 67 37 88 38 55 39 39 40 40 41 48 42 41 43 42 44
REMARK SMILES IDX 46 45 49 46 43 47 44 48 47 49 45 50 71 51 72 52 80 53 73 54
REMARK SMILES IDX 74 55 78 56 81 57 75 58 76 59 79 60 77 61 56 62 57 63 65 64
REMARK SMILES IDX 58 65 59 66 63 67 66 68 60 69 61 70 64 71 62 72 8 73 9 74
REMARK SMILES IDX 10 75 11 76 12 77 13 78 16 79 14 80 15 83 17 84 18 85 29 86
REMARK SMILES IDX 19 87 21 88 20 89 22 90 23 91 24 92 28 93 25 94 27 95 26 96
REMARK H PARENT 86 25 54 36 13 81 13 82
REMARK Flexibility Score: inf
ROOT
ATOM      1  C   UNL A   1      34.694  22.273  25.563  1.00  0.00     0.202 C 
ENDROOT
BRANCH   1   2
ATOM      2  O   UNL A   1      35.567  21.220  25.993  1.00  0.00    -0.374 OA
BRANCH   2   3
ATOM      3  C   UNL A   1      36.171  20.430  24.960  1.00  0.00     0.202 C 
BRANCH   3   4
ATOM      4  C   UNL A   1      37.707  20.304  24.959  1.00  0.00     0.261 C 
BRANCH   4   5
ATOM      5  O   UNL A   1      38.330  21.503  25.464  1.00  0.00    -0.460 OA
BRANCH   5   6
ATOM      6  C   UNL A   1      39.459  21.589  26.200  1.00  0.00     0.338 C 
ATOM      7  O   UNL A   1      40.088  20.577  26.498  1.00  0.00    -0.246 OA
BRANCH   6   8
ATOM      8  C   UNL A   1      39.878  22.892  26.778  1.00  0.00     0.060 A 
ATOM      9  C   UNL A   1      39.296  24.098  26.415  1.00  0.00     0.016 A 
ATOM     10  C   UNL A   1      40.918  22.920  27.722  1.00  0.00     0.016 A 
ATOM     11  C   UNL A   1      39.767  25.303  26.858  1.00  0.00     0.010 A 
ATOM     12  C   UNL A   1      41.403  24.140  28.203  1.00  0.00     0.010 A 
ATOM     13  C   UNL A   1      40.852  25.330  27.718  1.00  0.00    -0.014 A 
BRANCH  13  14
ATOM     14  C   UNL A   1      41.504  26.638  27.805  1.00  0.00     0.031 A 
ATOM     15  C   UNL A   1      40.865  27.654  28.701  1.00  0.00     0.074 A 
ATOM     16  C   UNL A   1      42.767  26.751  27.363  1.00  0.00     0.049 A 
ATOM     17  N   UNL A   1      41.260  28.858  29.005  1.00  0.00    -0.248 NA
ATOM     18  C   UNL A   1      39.620  27.242  29.379  1.00  0.00     0.031 C 
ATOM     19  C   UNL A   1      43.522  25.682  26.699  1.00  0.00     0.029 A 
ATOM     20  N   UNL A   1      43.663  27.772  27.478  1.00  0.00    -0.354 N 
ATOM     21  C   UNL A   1      40.288  29.362  29.858  1.00  0.00     0.074 A 
ATOM     22  C   UNL A   1      39.295  28.335  30.049  1.00  0.00     0.031 C 
ATOM     23  C   UNL A   1      44.783  26.097  26.500  1.00  0.00     0.029 A 
ATOM     24  C   UNL A   1      44.889  27.482  26.937  1.00  0.00     0.049 A 
ATOM     25  H   UNL A   1      43.451  28.632  27.908  1.00  0.00     0.167 HD
ATOM     26  C   UNL A   1      40.237  30.596  30.408  1.00  0.00     0.037 A 
ATOM     27  C   UNL A   1      45.957  28.283  26.780  1.00  0.00     0.037 A 
ATOM     28  C   UNL A   1      41.267  31.573  30.190  1.00  0.00     0.049 A 
ATOM     29  C   UNL A   1      45.828  29.690  27.290  1.00  0.00     0.074 A 
ATOM     30  C   UNL A   1      41.314  32.896  30.580  1.00  0.00     0.029 A 
ATOM     31  N   UNL A   1      42.452  31.306  29.510  1.00  0.00    -0.354 N 
ATOM     32  N   UNL A   1      44.844  30.235  27.971  1.00  0.00    -0.248 NA
ATOM     33  C   UNL A   1      46.933  30.604  26.993  1.00  0.00     0.031 C 
ATOM     34  C   UNL A   1      42.509  33.442  30.091  1.00  0.00     0.029 A 
ATOM     35  C   UNL A   1      43.233  32.445  29.449  1.00  0.00     0.049 A 
ATOM     36  H   UNL A   1      42.700  30.433  29.128  1.00  0.00     0.167 HD
ATOM     37  C   UNL A   1      45.213  31.549  28.198  1.00  0.00     0.074 A 
ATOM     38  C   UNL A   1      46.524  31.713  27.594  1.00  0.00     0.031 C 
ATOM     39  C   UNL A   1      44.537  32.538  28.838  1.00  0.00     0.037 A 
BRANCH  26  40
ATOM     40  C   UNL A   1      38.984  30.956  31.152  1.00  0.00     0.064 A 
ATOM     41  C   UNL A   1      37.917  31.642  30.551  1.00  0.00     0.173 A 
ATOM     42  C   UNL A   1      38.894  30.689  32.527  1.00  0.00     0.173 A 
ATOM     43  F   UNL A   1      37.965  31.959  29.248  1.00  0.00    -0.203 F 
ATOM     44  C   UNL A   1      36.830  32.083  31.307  1.00  0.00     0.198 A 
ATOM     45  C   UNL A   1      37.795  31.106  33.273  1.00  0.00     0.198 A 
ATOM     46  F   UNL A   1      39.892  30.051  33.158  1.00  0.00    -0.203 F 
ATOM     47  F   UNL A   1      35.862  32.807  30.727  1.00  0.00    -0.200 F 
ATOM     48  C   UNL A   1      36.770  31.814  32.666  1.00  0.00     0.200 A 
ATOM     49  F   UNL A   1      37.742  30.846  34.588  1.00  0.00    -0.200 F 
ATOM     50  F   UNL A   1      35.737  32.259  33.395  1.00  0.00    -0.200 F 
ENDBRANCH  26  40
BRANCH  27  51
ATOM     51  C   UNL A   1      47.164  27.789  26.066  1.00  0.00     0.064 A 
ATOM     52  C   UNL A   1      48.277  27.300  26.758  1.00  0.00     0.173 A 
ATOM     53  C   UNL A   1      47.216  27.773  24.661  1.00  0.00     0.173 A 
ATOM     54  F   UNL A   1      48.289  27.308  28.099  1.00  0.00    -0.203 F 
ATOM     55  C   UNL A   1      49.395  26.817  26.077  1.00  0.00     0.198 A 
ATOM     56  C   UNL A   1      48.320  27.261  23.982  1.00  0.00     0.198 A 
ATOM     57  F   UNL A   1      46.180  28.232  23.943  1.00  0.00    -0.203 F 
ATOM     58  F   UNL A   1      50.461  26.383  26.765  1.00  0.00    -0.200 F 
ATOM     59  C   UNL A   1      49.412  26.789  24.690  1.00  0.00     0.200 A 
ATOM     60  F   UNL A   1      48.320  27.221  22.642  1.00  0.00    -0.200 F 
ATOM     61  F   UNL A   1      50.480  26.313  24.038  1.00  0.00    -0.200 F 
ENDBRANCH  27  51
BRANCH  39  62
ATOM     62  C   UNL A   1      45.237  33.856  28.948  1.00  0.00     0.064 A 
ATOM     63  C   UNL A   1      46.099  34.143  30.014  1.00  0.00     0.173 A 
ATOM     64  C   UNL A   1      45.074  34.819  27.943  1.00  0.00     0.173 A 
ATOM     65  F   UNL A   1      46.271  33.253  31.003  1.00  0.00    -0.203 F 
ATOM     66  C   UNL A   1      46.756  35.366  30.083  1.00  0.00     0.198 A 
ATOM     67  C   UNL A   1      45.757  36.028  27.999  1.00  0.00     0.198 A 
ATOM     68  F   UNL A   1      44.263  34.580  26.900  1.00  0.00    -0.203 F 
ATOM     69  F   UNL A   1      47.539  35.645  31.134  1.00  0.00    -0.200 F 
ATOM     70  C   UNL A   1      46.591  36.303  29.073  1.00  0.00     0.200 A 
ATOM     71  F   UNL A   1      45.609  36.925  27.015  1.00  0.00    -0.200 F 
ATOM     72  F   UNL A   1      47.232  37.478  29.137  1.00  0.00    -0.200 F 
ENDBRANCH  39  62
ENDBRANCH  13  14
ENDBRANCH   6   8
ENDBRANCH   5   6
ENDBRANCH   4   5
ENDBRANCH   3   4
ENDBRANCH   2   3
ENDBRANCH   1   2
BRANCH   1  73
ATOM     73  C   UNL A   1      34.799  22.561  24.061  1.00  0.00     0.261 C 
BRANCH  73  74
ATOM     74  O   UNL A   1      34.140  23.798  23.754  1.00  0.00    -0.459 OA
BRANCH  74  75
ATOM     75  C   UNL A   1      33.285  23.719  22.710  1.00  0.00     0.365 C 
ATOM     76  O   UNL A   1      33.608  23.375  21.574  1.00  0.00    -0.245 OA
BRANCH  75  77
ATOM     77  C   UNL A   1      31.858  24.101  23.088  1.00  0.00     0.301 C 
ATOM     78  N   UNL A   1      31.578  23.678  24.496  1.00  0.00    -0.334 N 
ATOM     79  C   UNL A   1      31.234  25.515  22.902  1.00  0.00     0.095 C 
ATOM     80  C   UNL A   1      30.635  24.625  25.068  1.00  0.00     0.262 C 
ATOM     81  H   UNL A   1      32.444  23.682  25.036  1.00  0.00     0.347 HD
ATOM     82  H   UNL A   1      31.190  22.736  24.513  1.00  0.00     0.347 HD
ATOM     83  C   UNL A   1      30.043  25.352  23.869  1.00  0.00     0.076 C 
BRANCH  79  84
ATOM     84  C   UNL A   1      31.994  26.842  23.093  1.00  0.00    -0.034 A 
ATOM     85  C   UNL A   1      33.088  27.222  22.290  1.00  0.00     0.004 A 
ATOM     86  C   UNL A   1      31.705  27.677  24.200  1.00  0.00     0.051 A 
ATOM     87  C   UNL A   1      33.862  28.351  22.579  1.00  0.00     0.004 A 
ATOM     88  C   UNL A   1      32.452  28.840  24.473  1.00  0.00     0.127 A 
ATOM     89  C   UNL A   1      33.549  29.152  23.671  1.00  0.00     0.047 A 
BRANCH  88  90
ATOM     90  O   UNL A   1      32.264  29.697  25.541  1.00  0.00    -0.457 OA
BRANCH  90  91
ATOM     91  C   UNL A   1      33.324  29.966  26.370  1.00  0.00     0.127 A 
ATOM     92  C   UNL A   1      34.248  28.957  26.656  1.00  0.00     0.047 A 
ATOM     93  C   UNL A   1      33.381  31.176  27.055  1.00  0.00     0.047 A 
ATOM     94  C   UNL A   1      35.286  29.196  27.562  1.00  0.00     0.004 A 
ATOM     95  C   UNL A   1      34.415  31.415  27.961  1.00  0.00     0.004 A 
ATOM     96  C   UNL A   1      35.373  30.430  28.206  1.00  0.00     0.000 A 
ENDBRANCH  90  91
ENDBRANCH  88  90
ENDBRANCH  79  84
ENDBRANCH  75  77
ENDBRANCH  74  75
ENDBRANCH  73  74
ENDBRANCH   1  73
TORSDOF 17
ENDMDL
