MODEL 1
REMARK VINA RESULT:     -11.5      0.000      0.000
REMARK SMILES Cc1cc(C)c2c(O[C@@H](C)C(=O)OCCOCCOC(=O)c3ccc(-c4c5nc(c(-c6c(F)c(F)c(F)c(F)c6F)c6ccc([nH]6)c(-c6c(F)c(F)c(F)c(F)c6F)c6nc(c(-c7c(F)c(F)c(F)c(F)c7F)c7ccc4[nH]7)C=C6)C=C5)cc3)nsc2n1
REMARK SMILES IDX 16 1 15 2 14 3 13 4 11 5 12 6 9 7 10 8 8 9 7 10 1 11 2 12
REMARK SMILES IDX 3 13 88 14 4 15 87 16 5 17 6 18 86 19 85 20 17 21 18 22
REMARK SMILES IDX 19 23 20 24 21 25 22 26 23 27 84 28 24 29 83 30 25 31 26 32
REMARK SMILES IDX 27 33 77 34 28 35 82 36 76 37 78 38 29 39 81 40 75 41 74 42
REMARK SMILES IDX 30 44 62 45 42 46 61 47 43 48 46 49 60 50 79 51 44 52 45 53
REMARK SMILES IDX 59 55 80 56 47 57 31 58 32 59 40 60 33 61 34 62 38 63 41 64
REMARK SMILES IDX 35 65 36 66 39 67 37 68 63 69 64 70 72 71 65 72 66 73 70 74
REMARK SMILES IDX 73 75 67 76 68 77 71 78 69 79 48 80 49 81 57 82 50 83 51 84
REMARK SMILES IDX 55 85 58 86 52 87 53 88 56 89 54 90
REMARK H PARENT 78 43 46 54
REMARK Flexibility Score: inf
ROOT
ATOM      1  O   UNL A   1      40.048  21.233  26.819  1.00  0.00    -0.374 OA
ENDROOT
BRANCH   1   2
ATOM      2  C   UNL A   1      39.136  22.088  26.131  1.00  0.00     0.202 C 
BRANCH   2   3
ATOM      3  C   UNL A   1      38.052  21.428  25.282  1.00  0.00     0.261 C 
BRANCH   3   4
ATOM      4  O   UNL A   1      36.779  22.090  25.399  1.00  0.00    -0.461 OA
BRANCH   4   5
ATOM      5  C   UNL A   1      36.329  22.735  24.286  1.00  0.00     0.347 C 
ATOM      6  O   UNL A   1      36.780  22.575  23.157  1.00  0.00    -0.248 OA
BRANCH   5   7
ATOM      7  C   UNL A   1      35.153  23.667  24.594  1.00  0.00     0.281 C 
ATOM      8  C   UNL A   1      34.912  23.947  26.076  1.00  0.00     0.066 C 
BRANCH   7   9
ATOM      9  O   UNL A   1      33.949  23.559  23.893  1.00  0.00    -0.462 OA
BRANCH   9  10
ATOM     10  C   UNL A   1      33.381  24.593  23.230  1.00  0.00     0.236 A 
ATOM     11  C   UNL A   1      29.261  28.498  23.029  1.00  0.00     0.067 C 
ATOM     12  C   UNL A   1      30.408  27.551  23.218  1.00  0.00     0.039 A 
ATOM     13  C   UNL A   1      30.858  27.267  24.494  1.00  0.00     0.027 A 
ATOM     14  N   UNL A   1      30.976  27.048  22.119  1.00  0.00    -0.240 NA
ATOM     15  C   UNL A   1      31.947  26.391  24.715  1.00  0.00    -0.034 A 
ATOM     16  C   UNL A   1      31.962  26.162  22.349  1.00  0.00     0.147 A 
ATOM     17  C   UNL A   1      32.411  26.382  26.149  1.00  0.00     0.045 C 
ATOM     18  C   UNL A   1      32.475  25.699  23.574  1.00  0.00     0.078 A 
ATOM     19  S   UNL A   1      32.797  25.482  21.039  1.00  0.00    -0.012 S 
ATOM     20  N   UNL A   1      33.668  24.427  21.938  1.00  0.00    -0.153 NA
ENDBRANCH   9  10
ENDBRANCH   7   9
ENDBRANCH   5   7
ENDBRANCH   4   5
ENDBRANCH   3   4
ENDBRANCH   2   3
ENDBRANCH   1   2
BRANCH   1  21
ATOM     21  C   UNL A   1      40.565  20.088  26.154  1.00  0.00     0.202 C 
BRANCH  21  22
ATOM     22  C   UNL A   1      42.063  19.814  26.242  1.00  0.00     0.261 C 
BRANCH  22  23
ATOM     23  O   UNL A   1      42.762  19.989  25.020  1.00  0.00    -0.460 OA
BRANCH  23  24
ATOM     24  C   UNL A   1      44.082  20.233  25.193  1.00  0.00     0.338 C 
ATOM     25  O   UNL A   1      44.963  19.418  25.405  1.00  0.00    -0.246 OA
BRANCH  24  26
ATOM     26  C   UNL A   1      44.295  21.681  25.271  1.00  0.00     0.060 A 
ATOM     27  C   UNL A   1      45.139  22.132  26.286  1.00  0.00     0.016 A 
ATOM     28  C   UNL A   1      43.431  22.545  24.584  1.00  0.00     0.016 A 
ATOM     29  C   UNL A   1      44.955  23.411  26.757  1.00  0.00     0.010 A 
ATOM     30  C   UNL A   1      43.257  23.829  25.047  1.00  0.00     0.010 A 
ATOM     31  C   UNL A   1      43.950  24.207  26.188  1.00  0.00    -0.014 A 
BRANCH  31  32
ATOM     32  C   UNL A   1      43.639  25.449  26.858  1.00  0.00     0.031 A 
ATOM     33  C   UNL A   1      44.622  26.523  26.626  1.00  0.00     0.074 A 
ATOM     34  C   UNL A   1      42.554  25.610  27.634  1.00  0.00     0.049 A 
ATOM     35  N   UNL A   1      45.455  27.020  27.479  1.00  0.00    -0.248 NA
ATOM     36  C   UNL A   1      44.792  27.002  25.250  1.00  0.00     0.031 C 
ATOM     37  C   UNL A   1      41.371  24.759  27.771  1.00  0.00     0.029 A 
ATOM     38  N   UNL A   1      42.274  26.663  28.445  1.00  0.00    -0.354 N 
ATOM     39  C   UNL A   1      46.165  27.993  26.786  1.00  0.00     0.074 A 
ATOM     40  C   UNL A   1      45.813  27.846  25.397  1.00  0.00     0.031 C 
ATOM     41  C   UNL A   1      40.417  25.433  28.455  1.00  0.00     0.029 A 
ATOM     42  C   UNL A   1      40.975  26.692  28.921  1.00  0.00     0.049 A 
ATOM     43  H   UNL A   1      42.941  27.350  28.675  1.00  0.00     0.167 HD
ATOM     44  C   UNL A   1      46.835  28.973  27.450  1.00  0.00     0.037 A 
ATOM     45  C   UNL A   1      40.406  27.724  29.588  1.00  0.00     0.037 A 
ATOM     46  C   UNL A   1      47.103  28.594  28.815  1.00  0.00     0.049 A 
ATOM     47  C   UNL A   1      41.511  28.525  30.184  1.00  0.00     0.074 A 
ATOM     48  C   UNL A   1      47.817  27.568  29.408  1.00  0.00     0.029 A 
ATOM     49  N   UNL A   1      46.308  29.106  29.811  1.00  0.00    -0.354 N 
ATOM     50  N   UNL A   1      42.274  28.100  31.153  1.00  0.00    -0.248 NA
ATOM     51  C   UNL A   1      42.053  29.625  29.399  1.00  0.00     0.031 C 
ATOM     52  C   UNL A   1      47.061  27.205  30.561  1.00  0.00     0.029 A 
ATOM     53  C   UNL A   1      45.958  28.057  30.622  1.00  0.00     0.049 A 
ATOM     54  H   UNL A   1      46.040  30.047  29.921  1.00  0.00     0.167 HD
ATOM     55  C   UNL A   1      43.539  28.580  30.844  1.00  0.00     0.074 A 
ATOM     56  C   UNL A   1      43.325  29.581  29.803  1.00  0.00     0.031 C 
ATOM     57  C   UNL A   1      44.665  27.928  31.255  1.00  0.00     0.037 A 
BRANCH  44  58
ATOM     58  C   UNL A   1      46.936  30.394  26.962  1.00  0.00     0.064 A 
ATOM     59  C   UNL A   1      48.182  31.049  27.015  1.00  0.00     0.173 A 
ATOM     60  C   UNL A   1      45.821  31.229  26.732  1.00  0.00     0.173 A 
ATOM     61  F   UNL A   1      49.311  30.357  27.238  1.00  0.00    -0.203 F 
ATOM     62  C   UNL A   1      48.289  32.439  26.937  1.00  0.00     0.198 A 
ATOM     63  C   UNL A   1      45.938  32.610  26.600  1.00  0.00     0.198 A 
ATOM     64  F   UNL A   1      44.566  30.768  26.737  1.00  0.00    -0.203 F 
ATOM     65  F   UNL A   1      49.479  33.025  27.128  1.00  0.00    -0.200 F 
ATOM     66  C   UNL A   1      47.166  33.219  26.739  1.00  0.00     0.200 A 
ATOM     67  F   UNL A   1      44.834  33.350  26.422  1.00  0.00    -0.200 F 
ATOM     68  F   UNL A   1      47.256  34.555  26.732  1.00  0.00    -0.200 F 
ENDBRANCH  44  58
BRANCH  45  69
ATOM     69  C   UNL A   1      39.028  28.248  29.435  1.00  0.00     0.064 A 
ATOM     70  C   UNL A   1      38.216  28.472  30.559  1.00  0.00     0.173 A 
ATOM     71  C   UNL A   1      38.580  28.805  28.221  1.00  0.00     0.173 A 
ATOM     72  F   UNL A   1      38.588  28.013  31.763  1.00  0.00    -0.203 F 
ATOM     73  C   UNL A   1      37.048  29.238  30.480  1.00  0.00     0.198 A 
ATOM     74  C   UNL A   1      37.411  29.561  28.141  1.00  0.00     0.198 A 
ATOM     75  F   UNL A   1      39.318  28.714  27.105  1.00  0.00    -0.203 F 
ATOM     76  F   UNL A   1      36.337  29.490  31.588  1.00  0.00    -0.200 F 
ATOM     77  C   UNL A   1      36.653  29.791  29.273  1.00  0.00     0.200 A 
ATOM     78  F   UNL A   1      37.059  30.120  26.974  1.00  0.00    -0.200 F 
ATOM     79  F   UNL A   1      35.571  30.578  29.209  1.00  0.00    -0.200 F 
ENDBRANCH  45  69
BRANCH  57  80
ATOM     80  C   UNL A   1      44.511  26.805  32.241  1.00  0.00     0.064 A 
ATOM     81  C   UNL A   1      44.338  25.460  31.867  1.00  0.00     0.173 A 
ATOM     82  C   UNL A   1      44.721  27.072  33.601  1.00  0.00     0.173 A 
ATOM     83  F   UNL A   1      44.231  25.114  30.578  1.00  0.00    -0.203 F 
ATOM     84  C   UNL A   1      44.345  24.438  32.814  1.00  0.00     0.198 A 
ATOM     85  C   UNL A   1      44.763  26.046  34.541  1.00  0.00     0.198 A 
ATOM     86  F   UNL A   1      44.947  28.330  34.011  1.00  0.00    -0.203 F 
ATOM     87  F   UNL A   1      44.179  23.164  32.429  1.00  0.00    -0.200 F 
ATOM     88  C   UNL A   1      44.568  24.731  34.149  1.00  0.00     0.200 A 
ATOM     89  F   UNL A   1      45.028  26.328  35.824  1.00  0.00    -0.200 F 
ATOM     90  F   UNL A   1      44.627  23.744  35.053  1.00  0.00    -0.200 F 
ENDBRANCH  57  80
ENDBRANCH  31  32
ENDBRANCH  24  26
ENDBRANCH  23  24
ENDBRANCH  22  23
ENDBRANCH  21  22
ENDBRANCH   1  21
TORSDOF 16
ENDMDL
MODEL 2
REMARK VINA RESULT:     -11.4      4.770      9.967
REMARK SMILES Cc1cc(C)c2c(O[C@@H](C)C(=O)OCCOCCOC(=O)c3ccc(-c4c5nc(c(-c6c(F)c(F)c(F)c(F)c6F)c6ccc([nH]6)c(-c6c(F)c(F)c(F)c(F)c6F)c6nc(c(-c7c(F)c(F)c(F)c(F)c7F)c7ccc4[nH]7)C=C6)C=C5)cc3)nsc2n1
REMARK SMILES IDX 16 1 15 2 14 3 13 4 11 5 12 6 9 7 10 8 8 9 7 10 1 11 2 12
REMARK SMILES IDX 3 13 88 14 4 15 87 16 5 17 6 18 86 19 85 20 17 21 18 22
REMARK SMILES IDX 19 23 20 24 21 25 22 26 23 27 84 28 24 29 83 30 25 31 26 32
REMARK SMILES IDX 27 33 77 34 28 35 82 36 76 37 78 38 29 39 81 40 75 41 74 42
REMARK SMILES IDX 30 44 62 45 42 46 61 47 43 48 46 49 60 50 79 51 44 52 45 53
REMARK SMILES IDX 59 55 80 56 47 57 31 58 32 59 40 60 33 61 34 62 38 63 41 64
REMARK SMILES IDX 35 65 36 66 39 67 37 68 63 69 64 70 72 71 65 72 66 73 70 74
REMARK SMILES IDX 73 75 67 76 68 77 71 78 69 79 48 80 49 81 57 82 50 83 51 84
REMARK SMILES IDX 55 85 58 86 52 87 53 88 56 89 54 90
REMARK H PARENT 78 43 46 54
REMARK Flexibility Score: inf
ROOT
ATOM      1  O   UNL A   1      34.336  34.493  28.763  1.00  0.00    -0.374 OA
ENDROOT
BRANCH   1   2
ATOM      2  C   UNL A   1      34.411  33.083  28.963  1.00  0.00     0.202 C 
BRANCH   2   3
ATOM      3  C   UNL A   1      33.578  32.194  28.042  1.00  0.00     0.261 C 
BRANCH   3   4
ATOM      4  O   UNL A   1      34.376  31.216  27.348  1.00  0.00    -0.461 OA
BRANCH   4   5
ATOM      5  C   UNL A   1      33.898  29.941  27.344  1.00  0.00     0.347 C 
ATOM      6  O   UNL A   1      34.533  28.956  27.705  1.00  0.00    -0.248 OA
BRANCH   5   7
ATOM      7  C   UNL A   1      32.442  29.871  26.871  1.00  0.00     0.281 C 
ATOM      8  C   UNL A   1      31.666  28.636  27.325  1.00  0.00     0.066 C 
BRANCH   7   9
ATOM      9  O   UNL A   1      32.092  30.244  25.571  1.00  0.00    -0.462 OA
BRANCH   9  10
ATOM     10  C   UNL A   1      31.577  29.381  24.663  1.00  0.00     0.236 A 
ATOM     11  C   UNL A   1      32.533  25.418  20.709  1.00  0.00     0.067 C 
ATOM     12  C   UNL A   1      32.342  26.352  21.866  1.00  0.00     0.039 A 
ATOM     13  C   UNL A   1      33.235  26.327  22.921  1.00  0.00     0.027 A 
ATOM     14  N   UNL A   1      31.273  27.153  21.838  1.00  0.00    -0.240 NA
ATOM     15  C   UNL A   1      33.081  27.181  24.040  1.00  0.00    -0.034 A 
ATOM     16  C   UNL A   1      31.181  28.007  22.873  1.00  0.00     0.147 A 
ATOM     17  C   UNL A   1      34.028  26.852  25.164  1.00  0.00     0.045 C 
ATOM     18  C   UNL A   1      32.045  28.173  23.971  1.00  0.00     0.078 A 
ATOM     19  S   UNL A   1      29.847  29.049  22.982  1.00  0.00    -0.012 S 
ATOM     20  N   UNL A   1      30.408  29.889  24.269  1.00  0.00    -0.153 NA
ENDBRANCH   9  10
ENDBRANCH   7   9
ENDBRANCH   5   7
ENDBRANCH   4   5
ENDBRANCH   3   4
ENDBRANCH   2   3
ENDBRANCH   1   2
BRANCH   1  21
ATOM     21  C   UNL A   1      33.107  35.167  29.002  1.00  0.00     0.202 C 
BRANCH  21  22
ATOM     22  C   UNL A   1      33.063  36.227  30.099  1.00  0.00     0.261 C 
BRANCH  22  23
ATOM     23  O   UNL A   1      33.976  36.006  31.162  1.00  0.00    -0.460 OA
BRANCH  23  24
ATOM     24  C   UNL A   1      33.522  35.119  32.077  1.00  0.00     0.338 C 
ATOM     25  O   UNL A   1      32.393  35.035  32.528  1.00  0.00    -0.246 OA
BRANCH  24  26
ATOM     26  C   UNL A   1      34.654  34.354  32.606  1.00  0.00     0.060 A 
ATOM     27  C   UNL A   1      35.904  34.973  32.549  1.00  0.00     0.016 A 
ATOM     28  C   UNL A   1      34.517  32.977  32.826  1.00  0.00     0.016 A 
ATOM     29  C   UNL A   1      37.020  34.170  32.497  1.00  0.00     0.010 A 
ATOM     30  C   UNL A   1      35.635  32.176  32.788  1.00  0.00     0.010 A 
ATOM     31  C   UNL A   1      36.857  32.778  32.524  1.00  0.00    -0.014 A 
BRANCH  31  32
ATOM     32  C   UNL A   1      38.023  31.975  32.238  1.00  0.00     0.031 A 
ATOM     33  C   UNL A   1      38.869  31.698  33.414  1.00  0.00     0.074 A 
ATOM     34  C   UNL A   1      38.320  31.527  31.006  1.00  0.00     0.049 A 
ATOM     35  N   UNL A   1      40.047  32.167  33.659  1.00  0.00    -0.248 NA
ATOM     36  C   UNL A   1      38.277  30.921  34.508  1.00  0.00     0.031 C 
ATOM     37  C   UNL A   1      37.489  31.492  29.802  1.00  0.00     0.029 A 
ATOM     38  N   UNL A   1      39.473  30.932  30.605  1.00  0.00    -0.354 N 
ATOM     39  C   UNL A   1      40.421  31.622  34.881  1.00  0.00     0.074 A 
ATOM     40  C   UNL A   1      39.249  30.978  35.418  1.00  0.00     0.031 C 
ATOM     41  C   UNL A   1      38.095  30.720  28.869  1.00  0.00     0.029 A 
ATOM     42  C   UNL A   1      39.408  30.335  29.358  1.00  0.00     0.049 A 
ATOM     43  H   UNL A   1      40.289  30.926  31.156  1.00  0.00     0.167 HD
ATOM     44  C   UNL A   1      41.727  31.579  35.256  1.00  0.00     0.037 A 
ATOM     45  C   UNL A   1      40.356  29.529  28.823  1.00  0.00     0.037 A 
ATOM     46  C   UNL A   1      42.516  32.538  34.523  1.00  0.00     0.049 A 
ATOM     47  C   UNL A   1      41.639  29.841  29.512  1.00  0.00     0.074 A 
ATOM     48  C   UNL A   1      42.494  33.916  34.407  1.00  0.00     0.029 A 
ATOM     49  N   UNL A   1      43.284  32.096  33.474  1.00  0.00    -0.354 N 
ATOM     50  N   UNL A   1      42.281  30.969  29.374  1.00  0.00    -0.248 NA
ATOM     51  C   UNL A   1      41.976  29.072  30.701  1.00  0.00     0.031 C 
ATOM     52  C   UNL A   1      42.819  34.180  33.044  1.00  0.00     0.029 A 
ATOM     53  C   UNL A   1      43.060  32.952  32.426  1.00  0.00     0.049 A 
ATOM     54  H   UNL A   1      43.883  31.315  33.474  1.00  0.00     0.167 HD
ATOM     55  C   UNL A   1      42.780  31.249  30.638  1.00  0.00     0.074 A 
ATOM     56  C   UNL A   1      42.634  30.007  31.392  1.00  0.00     0.031 C 
ATOM     57  C   UNL A   1      43.003  32.533  31.044  1.00  0.00     0.037 A 
BRANCH  44  58
ATOM     58  C   UNL A   1      42.338  30.438  36.028  1.00  0.00     0.064 A 
ATOM     59  C   UNL A   1      43.302  30.720  37.016  1.00  0.00     0.173 A 
ATOM     60  C   UNL A   1      42.244  29.084  35.639  1.00  0.00     0.173 A 
ATOM     61  F   UNL A   1      43.487  31.974  37.456  1.00  0.00    -0.203 F 
ATOM     62  C   UNL A   1      44.166  29.738  37.505  1.00  0.00     0.198 A 
ATOM     63  C   UNL A   1      43.071  28.097  36.169  1.00  0.00     0.198 A 
ATOM     64  F   UNL A   1      41.436  28.674  34.656  1.00  0.00    -0.203 F 
ATOM     65  F   UNL A   1      45.154  30.079  38.342  1.00  0.00    -0.200 F 
ATOM     66  C   UNL A   1      44.056  28.429  37.074  1.00  0.00     0.200 A 
ATOM     67  F   UNL A   1      42.957  26.836  35.728  1.00  0.00    -0.200 F 
ATOM     68  F   UNL A   1      44.925  27.499  37.490  1.00  0.00    -0.200 F 
ENDBRANCH  44  58
BRANCH  45  69
ATOM     69  C   UNL A   1      40.148  28.290  28.037  1.00  0.00     0.064 A 
ATOM     70  C   UNL A   1      40.841  28.078  26.834  1.00  0.00     0.173 A 
ATOM     71  C   UNL A   1      39.491  27.170  28.585  1.00  0.00     0.173 A 
ATOM     72  F   UNL A   1      41.529  29.079  26.266  1.00  0.00    -0.203 F 
ATOM     73  C   UNL A   1      40.902  26.815  26.236  1.00  0.00     0.198 A 
ATOM     74  C   UNL A   1      39.546  25.913  27.982  1.00  0.00     0.198 A 
ATOM     75  F   UNL A   1      38.865  27.247  29.768  1.00  0.00    -0.203 F 
ATOM     76  F   UNL A   1      41.633  26.636  25.126  1.00  0.00    -0.200 F 
ATOM     77  C   UNL A   1      40.264  25.732  26.817  1.00  0.00     0.200 A 
ATOM     78  F   UNL A   1      38.953  24.867  28.575  1.00  0.00    -0.200 F 
ATOM     79  F   UNL A   1      40.377  24.510  26.280  1.00  0.00    -0.200 F 
ENDBRANCH  45  69
BRANCH  57  80
ATOM     80  C   UNL A   1      42.914  33.624  30.015  1.00  0.00     0.064 A 
ATOM     81  C   UNL A   1      43.971  33.965  29.151  1.00  0.00     0.173 A 
ATOM     82  C   UNL A   1      41.669  34.221  29.776  1.00  0.00     0.173 A 
ATOM     83  F   UNL A   1      45.163  33.364  29.252  1.00  0.00    -0.203 F 
ATOM     84  C   UNL A   1      43.794  34.883  28.118  1.00  0.00     0.198 A 
ATOM     85  C   UNL A   1      41.486  35.112  28.720  1.00  0.00     0.198 A 
ATOM     86  F   UNL A   1      40.610  33.893  30.532  1.00  0.00    -0.203 F 
ATOM     87  F   UNL A   1      44.818  35.189  27.309  1.00  0.00    -0.200 F 
ATOM     88  C   UNL A   1      42.549  35.447  27.897  1.00  0.00     0.200 A 
ATOM     89  F   UNL A   1      40.269  35.617  28.480  1.00  0.00    -0.200 F 
ATOM     90  F   UNL A   1      42.365  36.290  26.872  1.00  0.00    -0.200 F 
ENDBRANCH  57  80
ENDBRANCH  31  32
ENDBRANCH  24  26
ENDBRANCH  23  24
ENDBRANCH  22  23
ENDBRANCH  21  22
ENDBRANCH   1  21
TORSDOF 16
ENDMDL
MODEL 3
REMARK VINA RESULT:     -11.3      2.538      3.547
REMARK SMILES Cc1cc(C)c2c(O[C@@H](C)C(=O)OCCOCCOC(=O)c3ccc(-c4c5nc(c(-c6c(F)c(F)c(F)c(F)c6F)c6ccc([nH]6)c(-c6c(F)c(F)c(F)c(F)c6F)c6nc(c(-c7c(F)c(F)c(F)c(F)c7F)c7ccc4[nH]7)C=C6)C=C5)cc3)nsc2n1
REMARK SMILES IDX 16 1 15 2 14 3 13 4 11 5 12 6 9 7 10 8 8 9 7 10 1 11 2 12
REMARK SMILES IDX 3 13 88 14 4 15 87 16 5 17 6 18 86 19 85 20 17 21 18 22
REMARK SMILES IDX 19 23 20 24 21 25 22 26 23 27 84 28 24 29 83 30 25 31 26 32
REMARK SMILES IDX 27 33 77 34 28 35 82 36 76 37 78 38 29 39 81 40 75 41 74 42
REMARK SMILES IDX 30 44 62 45 42 46 61 47 43 48 46 49 60 50 79 51 44 52 45 53
REMARK SMILES IDX 59 55 80 56 47 57 31 58 32 59 40 60 33 61 34 62 38 63 41 64
REMARK SMILES IDX 35 65 36 66 39 67 37 68 63 69 64 70 72 71 65 72 66 73 70 74
REMARK SMILES IDX 73 75 67 76 68 77 71 78 69 79 48 80 49 81 57 82 50 83 51 84
REMARK SMILES IDX 55 85 58 86 52 87 53 88 56 89 54 90
REMARK H PARENT 78 43 46 54
REMARK Flexibility Score: inf
ROOT
ATOM      1  O   UNL A   1      39.940  20.708  25.998  1.00  0.00    -0.374 OA
ENDROOT
BRANCH   1   2
ATOM      2  C   UNL A   1      39.016  21.790  26.096  1.00  0.00     0.202 C 
BRANCH   2   3
ATOM      3  C   UNL A   1      37.820  21.787  25.146  1.00  0.00     0.261 C 
BRANCH   3   4
ATOM      4  O   UNL A   1      37.230  23.092  24.996  1.00  0.00    -0.461 OA
BRANCH   4   5
ATOM      5  C   UNL A   1      36.383  23.253  23.942  1.00  0.00     0.347 C 
ATOM      6  O   UNL A   1      36.666  23.007  22.775  1.00  0.00    -0.248 OA
BRANCH   5   7
ATOM      7  C   UNL A   1      35.000  23.744  24.382  1.00  0.00     0.281 C 
ATOM      8  C   UNL A   1      34.578  23.331  25.791  1.00  0.00     0.066 C 
BRANCH   7   9
ATOM      9  O   UNL A   1      33.917  23.726  23.498  1.00  0.00    -0.462 OA
BRANCH   9  10
ATOM     10  C   UNL A   1      33.391  24.844  22.945  1.00  0.00     0.236 A 
ATOM     11  C   UNL A   1      30.160  29.470  23.593  1.00  0.00     0.067 C 
ATOM     12  C   UNL A   1      31.121  28.320  23.532  1.00  0.00     0.039 A 
ATOM     13  C   UNL A   1      31.839  27.968  24.660  1.00  0.00     0.027 A 
ATOM     14  N   UNL A   1      31.269  27.705  22.356  1.00  0.00    -0.240 NA
ATOM     15  C   UNL A   1      32.767  26.900  24.641  1.00  0.00    -0.034 A 
ATOM     16  C   UNL A   1      32.100  26.648  22.373  1.00  0.00     0.147 A 
ATOM     17  C   UNL A   1      33.591  26.816  25.900  1.00  0.00     0.045 C 
ATOM     18  C   UNL A   1      32.831  26.107  23.446  1.00  0.00     0.078 A 
ATOM     19  S   UNL A   1      32.411  25.805  20.934  1.00  0.00    -0.012 S 
ATOM     20  N   UNL A   1      33.283  24.611  21.636  1.00  0.00    -0.153 NA
ENDBRANCH   9  10
ENDBRANCH   7   9
ENDBRANCH   5   7
ENDBRANCH   4   5
ENDBRANCH   3   4
ENDBRANCH   2   3
ENDBRANCH   1   2
BRANCH   1  21
ATOM     21  C   UNL A   1      41.079  20.684  26.848  1.00  0.00     0.202 C 
BRANCH  21  22
ATOM     22  C   UNL A   1      42.427  21.097  26.266  1.00  0.00     0.261 C 
BRANCH  22  23
ATOM     23  O   UNL A   1      42.959  22.292  26.815  1.00  0.00    -0.460 OA
BRANCH  23  24
ATOM     24  C   UNL A   1      42.643  23.394  26.096  1.00  0.00     0.338 C 
ATOM     25  O   UNL A   1      43.023  23.679  24.973  1.00  0.00    -0.246 OA
BRANCH  24  26
ATOM     26  C   UNL A   1      41.894  24.322  26.947  1.00  0.00     0.060 A 
ATOM     27  C   UNL A   1      40.925  25.102  26.315  1.00  0.00     0.016 A 
ATOM     28  C   UNL A   1      42.376  24.630  28.227  1.00  0.00     0.016 A 
ATOM     29  C   UNL A   1      40.600  26.313  26.882  1.00  0.00     0.010 A 
ATOM     30  C   UNL A   1      42.041  25.835  28.800  1.00  0.00     0.010 A 
ATOM     31  C   UNL A   1      41.236  26.699  28.071  1.00  0.00    -0.014 A 
BRANCH  31  32
ATOM     32  C   UNL A   1      41.041  28.062  28.506  1.00  0.00     0.031 A 
ATOM     33  C   UNL A   1      42.106  28.991  28.083  1.00  0.00     0.074 A 
ATOM     34  C   UNL A   1      39.986  28.452  29.243  1.00  0.00     0.049 A 
ATOM     35  N   UNL A   1      42.991  29.559  28.830  1.00  0.00    -0.248 NA
ATOM     36  C   UNL A   1      42.291  29.199  26.643  1.00  0.00     0.031 C 
ATOM     37  C   UNL A   1      38.740  27.742  29.534  1.00  0.00     0.029 A 
ATOM     38  N   UNL A   1      39.809  29.653  29.851  1.00  0.00    -0.354 N 
ATOM     39  C   UNL A   1      43.768  30.329  27.973  1.00  0.00     0.074 A 
ATOM     40  C   UNL A   1      43.381  29.966  26.633  1.00  0.00     0.031 C 
ATOM     41  C   UNL A   1      37.857  28.607  30.087  1.00  0.00     0.029 A 
ATOM     42  C   UNL A   1      38.525  29.877  30.317  1.00  0.00     0.049 A 
ATOM     43  H   UNL A   1      40.535  30.310  29.953  1.00  0.00     0.167 HD
ATOM     44  C   UNL A   1      44.529  31.351  28.448  1.00  0.00     0.037 A 
ATOM     45  C   UNL A   1      38.056  31.057  30.789  1.00  0.00     0.037 A 
ATOM     46  C   UNL A   1      44.788  31.202  29.858  1.00  0.00     0.049 A 
ATOM     47  C   UNL A   1      39.233  31.854  31.228  1.00  0.00     0.074 A 
ATOM     48  C   UNL A   1      45.424  30.242  30.625  1.00  0.00     0.029 A 
ATOM     49  N   UNL A   1      44.055  31.950  30.747  1.00  0.00    -0.354 N 
ATOM     50  N   UNL A   1      39.976  31.547  32.257  1.00  0.00    -0.248 NA
ATOM     51  C   UNL A   1      39.852  32.745  30.257  1.00  0.00     0.031 C 
ATOM     52  C   UNL A   1      44.661  30.157  31.825  1.00  0.00     0.029 A 
ATOM     53  C   UNL A   1      43.633  31.097  31.735  1.00  0.00     0.049 A 
ATOM     54  H   UNL A   1      43.869  32.915  30.687  1.00  0.00     0.167 HD
ATOM     55  C   UNL A   1      41.270  31.855  31.864  1.00  0.00     0.074 A 
ATOM     56  C   UNL A   1      41.122  32.667  30.660  1.00  0.00     0.031 C 
ATOM     57  C   UNL A   1      42.346  31.193  32.383  1.00  0.00     0.037 A 
BRANCH  44  58
ATOM     58  C   UNL A   1      44.739  32.649  27.712  1.00  0.00     0.064 A 
ATOM     59  C   UNL A   1      45.897  32.809  26.926  1.00  0.00     0.173 A 
ATOM     60  C   UNL A   1      44.018  33.832  27.981  1.00  0.00     0.173 A 
ATOM     61  F   UNL A   1      46.666  31.754  26.614  1.00  0.00    -0.203 F 
ATOM     62  C   UNL A   1      46.345  34.069  26.522  1.00  0.00     0.198 A 
ATOM     63  C   UNL A   1      44.440  35.081  27.531  1.00  0.00     0.198 A 
ATOM     64  F   UNL A   1      42.946  33.855  28.780  1.00  0.00    -0.203 F 
ATOM     65  F   UNL A   1      47.522  34.184  25.892  1.00  0.00    -0.200 F 
ATOM     66  C   UNL A   1      45.621  35.204  26.833  1.00  0.00     0.200 A 
ATOM     67  F   UNL A   1      43.730  36.171  27.855  1.00  0.00    -0.200 F 
ATOM     68  F   UNL A   1      46.084  36.418  26.506  1.00  0.00    -0.200 F 
ENDBRANCH  44  58
BRANCH  45  69
ATOM     69  C   UNL A   1      36.724  31.659  30.547  1.00  0.00     0.064 A 
ATOM     70  C   UNL A   1      35.914  32.066  31.620  1.00  0.00     0.173 A 
ATOM     71  C   UNL A   1      36.338  32.109  29.269  1.00  0.00     0.173 A 
ATOM     72  F   UNL A   1      36.232  31.718  32.875  1.00  0.00    -0.203 F 
ATOM     73  C   UNL A   1      34.808  32.902  31.429  1.00  0.00     0.198 A 
ATOM     74  C   UNL A   1      35.230  32.935  29.079  1.00  0.00     0.198 A 
ATOM     75  F   UNL A   1      37.083  31.840  28.187  1.00  0.00    -0.203 F 
ATOM     76  F   UNL A   1      34.102  33.327  32.486  1.00  0.00    -0.200 F 
ATOM     77  C   UNL A   1      34.475  33.344  30.160  1.00  0.00     0.200 A 
ATOM     78  F   UNL A   1      34.939  33.384  27.849  1.00  0.00    -0.200 F 
ATOM     79  F   UNL A   1      33.456  34.197  29.985  1.00  0.00    -0.200 F 
ENDBRANCH  45  69
BRANCH  57  80
ATOM     80  C   UNL A   1      42.115  30.282  33.556  1.00  0.00     0.064 A 
ATOM     81  C   UNL A   1      41.738  28.934  33.429  1.00  0.00     0.173 A 
ATOM     82  C   UNL A   1      42.458  30.738  34.836  1.00  0.00     0.173 A 
ATOM     83  F   UNL A   1      41.492  28.398  32.228  1.00  0.00    -0.203 F 
ATOM     84  C   UNL A   1      41.678  28.091  34.538  1.00  0.00     0.198 A 
ATOM     85  C   UNL A   1      42.431  29.885  35.938  1.00  0.00     0.198 A 
ATOM     86  F   UNL A   1      42.879  32.000  35.010  1.00  0.00    -0.203 F 
ATOM     87  F   UNL A   1      41.316  26.809  34.389  1.00  0.00    -0.200 F 
ATOM     88  C   UNL A   1      42.035  28.565  35.789  1.00  0.00     0.200 A 
ATOM     89  F   UNL A   1      42.824  30.334  37.137  1.00  0.00    -0.200 F 
ATOM     90  F   UNL A   1      42.028  27.743  36.848  1.00  0.00    -0.200 F 
ENDBRANCH  57  80
ENDBRANCH  31  32
ENDBRANCH  24  26
ENDBRANCH  23  24
ENDBRANCH  22  23
ENDBRANCH  21  22
ENDBRANCH   1  21
TORSDOF 16
ENDMDL
