MODEL 1
REMARK VINA RESULT:     -12.7      0.000      0.000
REMARK SMILES Cc1cccc(-c2ncc(C[NH+]3CCC4(CC3)NC(=O)C[C@H]4C(=O)OCCOCCOC(=O)c3ccc(-c4c5nc(c(-c6c(F)c(F)c(F)c(F)c6F)c6ccc([nH]6)c(-c6c(F)c(F)c(F)c(F)c6F)c6nc(c(-c7c(F)c(F)c(F)c(F)c7F)c7ccc4[nH]7)C=C6)C=C5)cc3)cn2)c1
REMARK SMILES IDX 27 1 26 2 25 3 23 4 24 5 22 6 12 7 13 8 17 9 14 11 16 12
REMARK SMILES IDX 15 13 18 14 19 15 21 17 20 18 11 19 10 20 7 21 8 22 98 23
REMARK SMILES IDX 9 24 97 25 6 26 1 27 2 28 3 29 99 30 4 31 5 32 28 33 29 34
REMARK SMILES IDX 30 35 31 36 32 37 33 38 34 39 35 40 96 41 36 42 95 43 37 44
REMARK SMILES IDX 38 45 39 46 89 47 40 48 94 49 88 50 90 51 41 52 93 53 87 54
REMARK SMILES IDX 86 55 42 57 74 58 54 59 73 60 55 61 58 62 72 63 91 64 56 65
REMARK SMILES IDX 57 66 71 68 92 69 59 70 43 71 44 72 52 73 45 74 46 75 50 76
REMARK SMILES IDX 53 77 47 78 48 79 51 80 49 81 75 82 76 83 84 84 77 85 78 86
REMARK SMILES IDX 82 87 85 88 79 89 80 90 83 91 81 92 60 93 61 94 69 95 62 96
REMARK SMILES IDX 63 97 67 98 70 99 64 100 65 101 68 102 66 103
REMARK H PARENT 12 10 18 16 90 56 58 67
REMARK Flexibility Score: inf
ROOT
ATOM      1  C   UNL A   1      37.772  20.171  24.998  1.00  0.00     0.202 C 
ENDROOT
BRANCH   1   2
ATOM      2  C   UNL A   1      36.414  19.523  24.834  1.00  0.00     0.261 C 
BRANCH   2   3
ATOM      3  O   UNL A   1      35.204  20.339  24.735  1.00  0.00    -0.463 OA
BRANCH   3   4
ATOM      4  C   UNL A   1      34.535  20.820  25.826  1.00  0.00     0.311 C 
ATOM      5  O   UNL A   1      35.065  21.220  26.852  1.00  0.00    -0.252 OA
BRANCH   4   6
ATOM      6  C   UNL A   1      33.004  20.833  25.601  1.00  0.00     0.134 C 
ATOM      7  N   UNL A   1      32.335  24.834  25.118  1.00  0.00    -0.331 N 
ATOM      8  C   UNL A   1      31.155  23.981  25.304  1.00  0.00     0.264 C 
ATOM      9  C   UNL A   1      33.533  24.045  25.293  1.00  0.00     0.264 C 
ATOM     10  H   UNL A   1      32.212  25.523  25.860  1.00  0.00     0.348 HD
ATOM     11  C   UNL A   1      31.153  22.548  24.692  1.00  0.00     0.091 C 
ATOM     12  C   UNL A   1      33.521  22.938  24.268  1.00  0.00     0.091 C 
ATOM     13  C   UNL A   1      32.529  21.842  24.529  1.00  0.00     0.064 C 
ATOM     14  N   UNL A   1      32.448  21.000  23.346  1.00  0.00    -0.349 N 
ATOM     15  C   UNL A   1      32.507  19.649  23.590  1.00  0.00     0.221 C 
ATOM     16  H   UNL A   1      32.358  21.371  22.439  1.00  0.00     0.164 HD
ATOM     17  C   UNL A   1      32.538  19.462  25.083  1.00  0.00     0.117 C 
ATOM     18  O   UNL A   1      32.481  18.787  22.747  1.00  0.00    -0.275 OA
BRANCH   7  19
ATOM     19  C   UNL A   1      32.419  25.817  24.001  1.00  0.00     0.302 C 
BRANCH  19  20
ATOM     20  C   UNL A   1      31.373  26.912  23.924  1.00  0.00     0.043 A 
ATOM     21  C   UNL A   1      30.064  29.226  23.262  1.00  0.00     0.159 A 
ATOM     22  N   UNL A   1      29.902  28.148  22.466  1.00  0.00    -0.236 NA
ATOM     23  N   UNL A   1      30.745  29.209  24.426  1.00  0.00    -0.236 NA
ATOM     24  C   UNL A   1      30.530  27.008  22.835  1.00  0.00     0.124 A 
ATOM     25  C   UNL A   1      31.375  28.044  24.738  1.00  0.00     0.124 A 
BRANCH  21  26
ATOM     26  C   UNL A   1      29.489  30.494  22.776  1.00  0.00     0.019 A 
ATOM     27  C   UNL A   1      27.706  31.910  19.672  1.00  0.00     0.044 C 
ATOM     28  C   UNL A   1      28.296  31.797  21.050  1.00  0.00    -0.050 A 
ATOM     29  C   UNL A   1      28.139  32.845  21.959  1.00  0.00     0.003 A 
ATOM     30  C   UNL A   1      28.972  30.635  21.467  1.00  0.00     0.015 A 
ATOM     31  C   UNL A   1      28.676  32.744  23.242  1.00  0.00     0.001 A 
ATOM     32  C   UNL A   1      29.350  31.586  23.642  1.00  0.00     0.012 A 
ENDBRANCH  21  26
ENDBRANCH  19  20
ENDBRANCH   7  19
ENDBRANCH   4   6
ENDBRANCH   3   4
ENDBRANCH   2   3
ENDBRANCH   1   2
BRANCH   1  33
ATOM     33  O   UNL A   1      37.623  21.545  24.692  1.00  0.00    -0.374 OA
BRANCH  33  34
ATOM     34  C   UNL A   1      37.713  22.492  25.745  1.00  0.00     0.202 C 
BRANCH  34  35
ATOM     35  C   UNL A   1      39.025  22.539  26.545  1.00  0.00     0.261 C 
BRANCH  35  36
ATOM     36  O   UNL A   1      39.822  23.677  26.149  1.00  0.00    -0.460 OA
BRANCH  36  37
ATOM     37  C   UNL A   1      40.597  24.239  27.118  1.00  0.00     0.338 C 
ATOM     38  O   UNL A   1      41.347  23.626  27.858  1.00  0.00    -0.246 OA
BRANCH  37  39
ATOM     39  C   UNL A   1      40.156  25.647  27.348  1.00  0.00     0.060 A 
ATOM     40  C   UNL A   1      40.692  26.692  26.573  1.00  0.00     0.016 A 
ATOM     41  C   UNL A   1      39.547  25.935  28.562  1.00  0.00     0.016 A 
ATOM     42  C   UNL A   1      40.770  27.990  27.103  1.00  0.00     0.010 A 
ATOM     43  C   UNL A   1      39.814  27.148  29.149  1.00  0.00     0.010 A 
ATOM     44  C   UNL A   1      40.426  28.192  28.434  1.00  0.00    -0.014 A 
BRANCH  44  45
ATOM     45  C   UNL A   1      40.657  29.398  29.239  1.00  0.00     0.031 A 
ATOM     46  C   UNL A   1      39.574  30.408  29.202  1.00  0.00     0.074 A 
ATOM     47  C   UNL A   1      41.646  29.509  30.168  1.00  0.00     0.049 A 
ATOM     48  N   UNL A   1      39.654  31.544  29.787  1.00  0.00    -0.248 NA
ATOM     49  C   UNL A   1      38.314  30.251  28.470  1.00  0.00     0.031 C 
ATOM     50  C   UNL A   1      41.713  30.399  31.334  1.00  0.00     0.029 A 
ATOM     51  N   UNL A   1      42.868  28.822  30.267  1.00  0.00    -0.354 N 
ATOM     52  C   UNL A   1      38.404  32.103  29.811  1.00  0.00     0.074 A 
ATOM     53  C   UNL A   1      37.640  31.331  28.870  1.00  0.00     0.031 C 
ATOM     54  C   UNL A   1      42.979  30.441  31.792  1.00  0.00     0.029 A 
ATOM     55  C   UNL A   1      43.800  29.691  30.860  1.00  0.00     0.049 A 
ATOM     56  H   UNL A   1      43.041  27.899  29.974  1.00  0.00     0.167 HD
ATOM     57  C   UNL A   1      38.187  33.088  30.725  1.00  0.00     0.037 A 
ATOM     58  C   UNL A   1      44.875  30.095  30.133  1.00  0.00     0.037 A 
ATOM     59  C   UNL A   1      39.481  33.550  31.284  1.00  0.00     0.049 A 
ATOM     60  C   UNL A   1      44.735  31.564  29.831  1.00  0.00     0.074 A 
ATOM     61  C   UNL A   1      40.127  33.501  32.507  1.00  0.00     0.029 A 
ATOM     62  N   UNL A   1      40.473  33.909  30.375  1.00  0.00    -0.354 N 
ATOM     63  N   UNL A   1      43.752  32.291  30.291  1.00  0.00    -0.248 NA
ATOM     64  C   UNL A   1      45.614  32.326  28.958  1.00  0.00     0.031 C 
ATOM     65  C   UNL A   1      41.518  33.808  32.294  1.00  0.00     0.029 A 
ATOM     66  C   UNL A   1      41.715  34.087  30.950  1.00  0.00     0.049 A 
ATOM     67  H   UNL A   1      40.304  34.026  29.413  1.00  0.00     0.167 HD
ATOM     68  C   UNL A   1      43.792  33.541  29.777  1.00  0.00     0.074 A 
ATOM     69  C   UNL A   1      44.978  33.513  28.927  1.00  0.00     0.031 C 
ATOM     70  C   UNL A   1      42.833  34.472  30.079  1.00  0.00     0.037 A 
BRANCH  57  71
ATOM     71  C   UNL A   1      36.821  33.564  31.187  1.00  0.00     0.064 A 
ATOM     72  C   UNL A   1      36.422  33.363  32.525  1.00  0.00     0.173 A 
ATOM     73  C   UNL A   1      35.823  34.153  30.374  1.00  0.00     0.173 A 
ATOM     74  F   UNL A   1      37.243  32.790  33.415  1.00  0.00    -0.203 F 
ATOM     75  C   UNL A   1      35.153  33.723  33.000  1.00  0.00     0.198 A 
ATOM     76  C   UNL A   1      34.573  34.552  30.858  1.00  0.00     0.198 A 
ATOM     77  F   UNL A   1      35.971  34.332  29.060  1.00  0.00    -0.203 F 
ATOM     78  F   UNL A   1      34.823  33.465  34.273  1.00  0.00    -0.200 F 
ATOM     79  C   UNL A   1      34.233  34.329  32.171  1.00  0.00     0.200 A 
ATOM     80  F   UNL A   1      33.694  35.131  30.026  1.00  0.00    -0.200 F 
ATOM     81  F   UNL A   1      33.023  34.681  32.626  1.00  0.00    -0.200 F 
ENDBRANCH  57  71
BRANCH  58  82
ATOM     82  C   UNL A   1      45.367  28.974  29.261  1.00  0.00     0.064 A 
ATOM     83  C   UNL A   1      46.057  27.918  29.908  1.00  0.00     0.173 A 
ATOM     84  C   UNL A   1      44.761  28.667  28.036  1.00  0.00     0.173 A 
ATOM     85  F   UNL A   1      46.642  28.138  31.096  1.00  0.00    -0.203 F 
ATOM     86  C   UNL A   1      46.002  26.603  29.438  1.00  0.00     0.198 A 
ATOM     87  C   UNL A   1      44.726  27.349  27.559  1.00  0.00     0.198 A 
ATOM     88  F   UNL A   1      44.066  29.603  27.374  1.00  0.00    -0.203 F 
ATOM     89  F   UNL A   1      46.516  25.603  30.168  1.00  0.00    -0.200 F 
ATOM     90  C   UNL A   1      45.300  26.314  28.284  1.00  0.00     0.200 A 
ATOM     91  F   UNL A   1      44.029  27.058  26.450  1.00  0.00    -0.200 F 
ATOM     92  F   UNL A   1      45.115  25.040  27.909  1.00  0.00    -0.200 F 
ENDBRANCH  58  82
BRANCH  70  93
ATOM     93  C   UNL A   1      42.861  35.843  29.466  1.00  0.00     0.064 A 
ATOM     94  C   UNL A   1      42.381  36.086  28.171  1.00  0.00     0.173 A 
ATOM     95  C   UNL A   1      43.395  36.960  30.144  1.00  0.00     0.173 A 
ATOM     96  F   UNL A   1      42.011  35.076  27.371  1.00  0.00    -0.203 F 
ATOM     97  C   UNL A   1      42.276  37.380  27.666  1.00  0.00     0.198 A 
ATOM     98  C   UNL A   1      43.357  38.240  29.607  1.00  0.00     0.198 A 
ATOM     99  F   UNL A   1      43.941  36.870  31.363  1.00  0.00    -0.203 F 
ATOM    100  F   UNL A   1      41.692  37.578  26.476  1.00  0.00    -0.200 F 
ATOM    101  C   UNL A   1      42.756  38.457  28.387  1.00  0.00     0.200 A 
ATOM    102  F   UNL A   1      43.882  39.260  30.298  1.00  0.00    -0.200 F 
ATOM    103  F   UNL A   1      42.641  39.701  27.908  1.00  0.00    -0.200 F 
ENDBRANCH  70  93
ENDBRANCH  44  45
ENDBRANCH  37  39
ENDBRANCH  36  37
ENDBRANCH  35  36
ENDBRANCH  34  35
ENDBRANCH  33  34
ENDBRANCH   1  33
TORSDOF 17
ENDMDL
MODEL 2
REMARK VINA RESULT:     -12.6      2.195      3.078
REMARK SMILES Cc1cccc(-c2ncc(C[NH+]3CCC4(CC3)NC(=O)C[C@H]4C(=O)OCCOCCOC(=O)c3ccc(-c4c5nc(c(-c6c(F)c(F)c(F)c(F)c6F)c6ccc([nH]6)c(-c6c(F)c(F)c(F)c(F)c6F)c6nc(c(-c7c(F)c(F)c(F)c(F)c7F)c7ccc4[nH]7)C=C6)C=C5)cc3)cn2)c1
REMARK SMILES IDX 27 1 26 2 25 3 23 4 24 5 22 6 12 7 13 8 17 9 14 11 16 12
REMARK SMILES IDX 15 13 18 14 19 15 21 17 20 18 11 19 10 20 7 21 8 22 98 23
REMARK SMILES IDX 9 24 97 25 6 26 1 27 2 28 3 29 99 30 4 31 5 32 28 33 29 34
REMARK SMILES IDX 30 35 31 36 32 37 33 38 34 39 35 40 96 41 36 42 95 43 37 44
REMARK SMILES IDX 38 45 39 46 89 47 40 48 94 49 88 50 90 51 41 52 93 53 87 54
REMARK SMILES IDX 86 55 42 57 74 58 54 59 73 60 55 61 58 62 72 63 91 64 56 65
REMARK SMILES IDX 57 66 71 68 92 69 59 70 43 71 44 72 52 73 45 74 46 75 50 76
REMARK SMILES IDX 53 77 47 78 48 79 51 80 49 81 75 82 76 83 84 84 77 85 78 86
REMARK SMILES IDX 82 87 85 88 79 89 80 90 83 91 81 92 60 93 61 94 69 95 62 96
REMARK SMILES IDX 63 97 67 98 70 99 64 100 65 101 68 102 66 103
REMARK H PARENT 12 10 18 16 90 56 58 67
REMARK Flexibility Score: inf
ROOT
ATOM      1  C   UNL A   1      37.770  21.026  25.006  1.00  0.00     0.202 C 
ENDROOT
BRANCH   1   2
ATOM      2  C   UNL A   1      36.477  21.576  24.445  1.00  0.00     0.261 C 
BRANCH   2   3
ATOM      3  O   UNL A   1      35.187  21.042  24.883  1.00  0.00    -0.463 OA
BRANCH   3   4
ATOM      4  C   UNL A   1      34.606  21.375  26.074  1.00  0.00     0.311 C 
ATOM      5  O   UNL A   1      35.179  21.923  27.004  1.00  0.00    -0.252 OA
BRANCH   4   6
ATOM      6  C   UNL A   1      33.103  21.004  26.104  1.00  0.00     0.134 C 
ATOM      7  N   UNL A   1      31.408  24.703  26.468  1.00  0.00    -0.331 N 
ATOM      8  C   UNL A   1      30.530  23.546  26.683  1.00  0.00     0.264 C 
ATOM      9  C   UNL A   1      32.770  24.251  26.302  1.00  0.00     0.264 C 
ATOM     10  H   UNL A   1      31.275  25.228  27.331  1.00  0.00     0.348 HD
ATOM     11  C   UNL A   1      30.750  22.261  25.829  1.00  0.00     0.091 C 
ATOM     12  C   UNL A   1      32.819  23.328  25.109  1.00  0.00     0.091 C 
ATOM     13  C   UNL A   1      32.193  21.981  25.323  1.00  0.00     0.064 C 
ATOM     14  N   UNL A   1      32.080  21.314  24.035  1.00  0.00    -0.349 N 
ATOM     15  C   UNL A   1      32.510  20.009  24.017  1.00  0.00     0.221 C 
ATOM     16  H   UNL A   1      31.722  21.764  23.237  1.00  0.00     0.164 HD
ATOM     17  C   UNL A   1      32.886  19.640  25.428  1.00  0.00     0.117 C 
ATOM     18  O   UNL A   1      32.523  19.293  23.047  1.00  0.00    -0.275 OA
BRANCH   7  19
ATOM     19  C   UNL A   1      31.026  25.813  25.549  1.00  0.00     0.302 C 
BRANCH  19  20
ATOM     20  C   UNL A   1      31.374  27.233  25.950  1.00  0.00     0.043 A 
ATOM     21  C   UNL A   1      32.773  29.445  26.761  1.00  0.00     0.159 A 
ATOM     22  N   UNL A   1      32.736  29.158  25.443  1.00  0.00    -0.236 NA
ATOM     23  N   UNL A   1      32.074  28.773  27.699  1.00  0.00    -0.236 NA
ATOM     24  C   UNL A   1      32.009  28.081  25.065  1.00  0.00     0.124 A 
ATOM     25  C   UNL A   1      31.378  27.686  27.268  1.00  0.00     0.124 A 
BRANCH  21  26
ATOM     26  C   UNL A   1      33.678  30.534  27.171  1.00  0.00     0.019 A 
ATOM     27  C   UNL A   1      33.517  34.150  28.481  1.00  0.00     0.044 C 
ATOM     28  C   UNL A   1      34.049  32.810  28.055  1.00  0.00    -0.050 A 
ATOM     29  C   UNL A   1      35.404  32.518  28.220  1.00  0.00     0.003 A 
ATOM     30  C   UNL A   1      33.202  31.816  27.528  1.00  0.00     0.015 A 
ATOM     31  C   UNL A   1      35.904  31.274  27.836  1.00  0.00     0.001 A 
ATOM     32  C   UNL A   1      35.052  30.298  27.309  1.00  0.00     0.012 A 
ENDBRANCH  21  26
ENDBRANCH  19  20
ENDBRANCH   7  19
ENDBRANCH   4   6
ENDBRANCH   3   4
ENDBRANCH   2   3
ENDBRANCH   1   2
BRANCH   1  33
ATOM     33  O   UNL A   1      38.449  22.098  25.630  1.00  0.00    -0.374 OA
BRANCH  33  34
ATOM     34  C   UNL A   1      39.487  21.805  26.553  1.00  0.00     0.202 C 
BRANCH  34  35
ATOM     35  C   UNL A   1      40.746  22.686  26.505  1.00  0.00     0.261 C 
BRANCH  35  36
ATOM     36  O   UNL A   1      40.393  24.084  26.581  1.00  0.00    -0.460 OA
BRANCH  36  37
ATOM     37  C   UNL A   1      41.425  24.961  26.729  1.00  0.00     0.338 C 
ATOM     38  O   UNL A   1      42.604  24.682  26.604  1.00  0.00    -0.246 OA
BRANCH  37  39
ATOM     39  C   UNL A   1      40.921  26.212  27.372  1.00  0.00     0.060 A 
ATOM     40  C   UNL A   1      40.759  27.383  26.610  1.00  0.00     0.016 A 
ATOM     41  C   UNL A   1      41.007  26.297  28.755  1.00  0.00     0.016 A 
ATOM     42  C   UNL A   1      40.864  28.641  27.226  1.00  0.00     0.010 A 
ATOM     43  C   UNL A   1      41.314  27.516  29.310  1.00  0.00     0.010 A 
ATOM     44  C   UNL A   1      41.248  28.703  28.560  1.00  0.00    -0.014 A 
BRANCH  44  45
ATOM     45  C   UNL A   1      41.642  29.898  29.317  1.00  0.00     0.031 A 
ATOM     46  C   UNL A   1      40.533  30.792  29.723  1.00  0.00     0.074 A 
ATOM     47  C   UNL A   1      42.879  30.077  29.856  1.00  0.00     0.049 A 
ATOM     48  N   UNL A   1      40.715  31.910  30.320  1.00  0.00    -0.248 NA
ATOM     49  C   UNL A   1      39.115  30.533  29.458  1.00  0.00     0.031 C 
ATOM     50  C   UNL A   1      43.272  30.928  30.986  1.00  0.00     0.029 A 
ATOM     51  N   UNL A   1      44.113  29.517  29.483  1.00  0.00    -0.354 N 
ATOM     52  C   UNL A   1      39.509  32.337  30.809  1.00  0.00     0.074 A 
ATOM     53  C   UNL A   1      38.534  31.524  30.138  1.00  0.00     0.031 C 
ATOM     54  C   UNL A   1      44.611  31.084  30.984  1.00  0.00     0.029 A 
ATOM     55  C   UNL A   1      45.116  30.454  29.778  1.00  0.00     0.049 A 
ATOM     56  H   UNL A   1      44.250  28.626  29.087  1.00  0.00     0.167 HD
ATOM     57  C   UNL A   1      39.543  33.262  31.807  1.00  0.00     0.037 A 
ATOM     58  C   UNL A   1      45.833  30.992  28.756  1.00  0.00     0.037 A 
ATOM     59  C   UNL A   1      40.907  33.835  31.919  1.00  0.00     0.049 A 
ATOM     60  C   UNL A   1      45.474  32.449  28.621  1.00  0.00     0.074 A 
ATOM     61  C   UNL A   1      41.939  33.810  32.840  1.00  0.00     0.029 A 
ATOM     62  N   UNL A   1      41.487  34.325  30.751  1.00  0.00    -0.354 N 
ATOM     63  N   UNL A   1      44.656  33.055  29.438  1.00  0.00    -0.248 NA
ATOM     64  C   UNL A   1      45.927  33.326  27.553  1.00  0.00     0.031 C 
ATOM     65  C   UNL A   1      43.138  34.265  32.184  1.00  0.00     0.029 A 
ATOM     66  C   UNL A   1      42.831  34.609  30.876  1.00  0.00     0.049 A 
ATOM     67  H   UNL A   1      40.984  34.457  29.915  1.00  0.00     0.167 HD
ATOM     68  C   UNL A   1      44.408  34.319  29.028  1.00  0.00     0.074 A 
ATOM     69  C   UNL A   1      45.223  34.442  27.823  1.00  0.00     0.031 C 
ATOM     70  C   UNL A   1      43.540  35.136  29.703  1.00  0.00     0.037 A 
BRANCH  57  71
ATOM     71  C   UNL A   1      38.387  33.580  32.740  1.00  0.00     0.064 A 
ATOM     72  C   UNL A   1      38.422  33.135  34.078  1.00  0.00     0.173 A 
ATOM     73  C   UNL A   1      37.187  34.243  32.388  1.00  0.00     0.173 A 
ATOM     74  F   UNL A   1      39.478  32.465  34.560  1.00  0.00    -0.203 F 
ATOM     75  C   UNL A   1      37.364  33.341  34.974  1.00  0.00     0.198 A 
ATOM     76  C   UNL A   1      36.149  34.487  33.294  1.00  0.00     0.198 A 
ATOM     77  F   UNL A   1      36.921  34.649  31.146  1.00  0.00    -0.203 F 
ATOM     78  F   UNL A   1      37.445  32.855  36.220  1.00  0.00    -0.200 F 
ATOM     79  C   UNL A   1      36.233  34.028  34.586  1.00  0.00     0.200 A 
ATOM     80  F   UNL A   1      35.057  35.150  32.885  1.00  0.00    -0.200 F 
ATOM     81  F   UNL A   1      35.224  34.233  35.443  1.00  0.00    -0.200 F 
ENDBRANCH  57  71
BRANCH  58  82
ATOM     82  C   UNL A   1      46.084  29.958  27.694  1.00  0.00     0.064 A 
ATOM     83  C   UNL A   1      47.125  29.029  27.942  1.00  0.00     0.173 A 
ATOM     84  C   UNL A   1      45.081  29.551  26.804  1.00  0.00     0.173 A 
ATOM     85  F   UNL A   1      48.107  29.346  28.801  1.00  0.00    -0.203 F 
ATOM     86  C   UNL A   1      47.077  27.719  27.457  1.00  0.00     0.198 A 
ATOM     87  C   UNL A   1      45.048  28.241  26.305  1.00  0.00     0.198 A 
ATOM     88  F   UNL A   1      44.046  30.361  26.538  1.00  0.00    -0.203 F 
ATOM     89  F   UNL A   1      47.985  26.817  27.854  1.00  0.00    -0.200 F 
ATOM     90  C   UNL A   1      46.014  27.315  26.672  1.00  0.00     0.200 A 
ATOM     91  F   UNL A   1      44.009  27.838  25.558  1.00  0.00    -0.200 F 
ATOM     92  F   UNL A   1      45.881  26.025  26.328  1.00  0.00    -0.200 F 
ENDBRANCH  58  82
BRANCH  70  93
ATOM     93  C   UNL A   1      43.237  36.523  29.212  1.00  0.00     0.064 A 
ATOM     94  C   UNL A   1      43.740  37.664  29.853  1.00  0.00     0.173 A 
ATOM     95  C   UNL A   1      42.408  36.760  28.094  1.00  0.00     0.173 A 
ATOM     96  F   UNL A   1      44.394  37.568  31.019  1.00  0.00    -0.203 F 
ATOM     97  C   UNL A   1      43.576  38.935  29.309  1.00  0.00     0.198 A 
ATOM     98  C   UNL A   1      42.185  38.038  27.596  1.00  0.00     0.198 A 
ATOM     99  F   UNL A   1      41.811  35.772  27.416  1.00  0.00    -0.203 F 
ATOM    100  F   UNL A   1      44.183  39.982  29.885  1.00  0.00    -0.200 F 
ATOM    101  C   UNL A   1      42.806  39.121  28.177  1.00  0.00     0.200 A 
ATOM    102  F   UNL A   1      41.386  38.200  26.533  1.00  0.00    -0.200 F 
ATOM    103  F   UNL A   1      42.661  40.340  27.645  1.00  0.00    -0.200 F 
ENDBRANCH  70  93
ENDBRANCH  44  45
ENDBRANCH  37  39
ENDBRANCH  36  37
ENDBRANCH  35  36
ENDBRANCH  34  35
ENDBRANCH  33  34
ENDBRANCH   1  33
TORSDOF 17
ENDMDL
MODEL 3
REMARK VINA RESULT:     -12.4      5.575     11.276
REMARK SMILES Cc1cccc(-c2ncc(C[NH+]3CCC4(CC3)NC(=O)C[C@H]4C(=O)OCCOCCOC(=O)c3ccc(-c4c5nc(c(-c6c(F)c(F)c(F)c(F)c6F)c6ccc([nH]6)c(-c6c(F)c(F)c(F)c(F)c6F)c6nc(c(-c7c(F)c(F)c(F)c(F)c7F)c7ccc4[nH]7)C=C6)C=C5)cc3)cn2)c1
REMARK SMILES IDX 27 1 26 2 25 3 23 4 24 5 22 6 12 7 13 8 17 9 14 11 16 12
REMARK SMILES IDX 15 13 18 14 19 15 21 17 20 18 11 19 10 20 7 21 8 22 98 23
REMARK SMILES IDX 9 24 97 25 6 26 1 27 2 28 3 29 99 30 4 31 5 32 28 33 29 34
REMARK SMILES IDX 30 35 31 36 32 37 33 38 34 39 35 40 96 41 36 42 95 43 37 44
REMARK SMILES IDX 38 45 39 46 89 47 40 48 94 49 88 50 90 51 41 52 93 53 87 54
REMARK SMILES IDX 86 55 42 57 74 58 54 59 73 60 55 61 58 62 72 63 91 64 56 65
REMARK SMILES IDX 57 66 71 68 92 69 59 70 43 71 44 72 52 73 45 74 46 75 50 76
REMARK SMILES IDX 53 77 47 78 48 79 51 80 49 81 75 82 76 83 84 84 77 85 78 86
REMARK SMILES IDX 82 87 85 88 79 89 80 90 83 91 81 92 60 93 61 94 69 95 62 96
REMARK SMILES IDX 63 97 67 98 70 99 64 100 65 101 68 102 66 103
REMARK H PARENT 12 10 18 16 90 56 58 67
REMARK Flexibility Score: inf
ROOT
ATOM      1  C   UNL A   1      35.494  33.928  34.590  1.00  0.00     0.202 C 
ENDROOT
BRANCH   1   2
ATOM      2  C   UNL A   1      36.103  34.447  33.306  1.00  0.00     0.261 C 
BRANCH   2   3
ATOM      3  O   UNL A   1      35.323  34.477  32.068  1.00  0.00    -0.463 OA
BRANCH   3   4
ATOM      4  C   UNL A   1      34.964  33.350  31.383  1.00  0.00     0.311 C 
ATOM      5  O   UNL A   1      34.097  32.564  31.735  1.00  0.00    -0.252 OA
BRANCH   4   6
ATOM      6  C   UNL A   1      35.769  33.195  30.070  1.00  0.00     0.134 C 
ATOM      7  N   UNL A   1      38.940  30.975  31.375  1.00  0.00    -0.331 N 
ATOM      8  C   UNL A   1      39.050  31.567  30.036  1.00  0.00     0.264 C 
ATOM      9  C   UNL A   1      37.734  31.448  32.014  1.00  0.00     0.264 C 
ATOM     10  H   UNL A   1      39.784  31.327  31.828  1.00  0.00     0.348 HD
ATOM     11  C   UNL A   1      37.773  31.669  29.148  1.00  0.00     0.091 C 
ATOM     12  C   UNL A   1      36.558  31.037  31.164  1.00  0.00     0.091 C 
ATOM     13  C   UNL A   1      36.407  31.799  29.879  1.00  0.00     0.064 C 
ATOM     14  N   UNL A   1      35.410  31.129  29.059  1.00  0.00    -0.349 N 
ATOM     15  C   UNL A   1      34.463  31.956  28.504  1.00  0.00     0.221 C 
ATOM     16  H   UNL A   1      35.414  30.156  28.912  1.00  0.00     0.164 HD
ATOM     17  C   UNL A   1      34.837  33.370  28.860  1.00  0.00     0.117 C 
ATOM     18  O   UNL A   1      33.541  31.596  27.815  1.00  0.00    -0.275 OA
BRANCH   7  19
ATOM     19  C   UNL A   1      39.224  29.531  31.617  1.00  0.00     0.302 C 
BRANCH  19  20
ATOM     20  C   UNL A   1      39.585  28.659  30.430  1.00  0.00     0.043 A 
ATOM     21  C   UNL A   1      40.210  26.482  28.889  1.00  0.00     0.159 A 
ATOM     22  N   UNL A   1      38.908  26.787  29.068  1.00  0.00    -0.236 NA
ATOM     23  N   UNL A   1      41.232  27.243  29.333  1.00  0.00    -0.236 NA
ATOM     24  C   UNL A   1      38.627  27.888  29.803  1.00  0.00     0.124 A 
ATOM     25  C   UNL A   1      40.894  28.325  30.085  1.00  0.00     0.124 A 
BRANCH  21  26
ATOM     26  C   UNL A   1      40.498  25.207  28.206  1.00  0.00     0.019 A 
ATOM     27  C   UNL A   1      38.693  22.518  26.124  1.00  0.00     0.044 C 
ATOM     28  C   UNL A   1      39.777  23.297  26.817  1.00  0.00    -0.050 A 
ATOM     29  C   UNL A   1      41.111  22.915  26.663  1.00  0.00     0.003 A 
ATOM     30  C   UNL A   1      39.485  24.437  27.590  1.00  0.00     0.015 A 
ATOM     31  C   UNL A   1      42.123  23.636  27.294  1.00  0.00     0.001 A 
ATOM     32  C   UNL A   1      41.819  24.763  28.064  1.00  0.00     0.012 A 
ENDBRANCH  21  26
ENDBRANCH  19  20
ENDBRANCH   7  19
ENDBRANCH   4   6
ENDBRANCH   3   4
ENDBRANCH   2   3
ENDBRANCH   1   2
BRANCH   1  33
ATOM     33  O   UNL A   1      36.432  33.044  35.174  1.00  0.00    -0.374 OA
BRANCH  33  34
ATOM     34  C   UNL A   1      37.258  33.522  36.225  1.00  0.00     0.202 C 
BRANCH  34  35
ATOM     35  C   UNL A   1      38.664  32.914  36.352  1.00  0.00     0.261 C 
BRANCH  35  36
ATOM     36  O   UNL A   1      39.406  33.088  35.125  1.00  0.00    -0.460 OA
BRANCH  36  37
ATOM     37  C   UNL A   1      40.493  33.908  35.188  1.00  0.00     0.338 C 
ATOM     38  O   UNL A   1      41.049  34.255  36.215  1.00  0.00    -0.246 OA
BRANCH  37  39
ATOM     39  C   UNL A   1      40.696  34.560  33.860  1.00  0.00     0.060 A 
ATOM     40  C   UNL A   1      39.816  34.289  32.796  1.00  0.00     0.016 A 
ATOM     41  C   UNL A   1      41.952  35.089  33.594  1.00  0.00     0.016 A 
ATOM     42  C   UNL A   1      40.266  34.385  31.470  1.00  0.00     0.010 A 
ATOM     43  C   UNL A   1      42.443  34.979  32.316  1.00  0.00     0.010 A 
ATOM     44  C   UNL A   1      41.615  34.628  31.237  1.00  0.00    -0.014 A 
BRANCH  44  45
ATOM     45  C   UNL A   1      42.327  34.532  29.956  1.00  0.00     0.031 A 
ATOM     46  C   UNL A   1      42.910  33.206  29.648  1.00  0.00     0.074 A 
ATOM     47  C   UNL A   1      42.255  35.476  28.979  1.00  0.00     0.049 A 
ATOM     48  N   UNL A   1      43.625  32.977  28.610  1.00  0.00    -0.248 NA
ATOM     49  C   UNL A   1      42.780  32.020  30.500  1.00  0.00     0.031 C 
ATOM     50  C   UNL A   1      42.490  35.324  27.538  1.00  0.00     0.029 A 
ATOM     51  N   UNL A   1      41.954  36.846  29.072  1.00  0.00    -0.354 N 
ATOM     52  C   UNL A   1      43.755  31.621  28.469  1.00  0.00     0.074 A 
ATOM     53  C   UNL A   1      43.331  31.079  29.730  1.00  0.00     0.031 C 
ATOM     54  C   UNL A   1      42.652  36.540  26.980  1.00  0.00     0.029 A 
ATOM     55  C   UNL A   1      42.664  37.510  28.059  1.00  0.00     0.049 A 
ATOM     56  H   UNL A   1      41.353  37.265  29.729  1.00  0.00     0.167 HD
ATOM     57  C   UNL A   1      44.110  31.163  27.237  1.00  0.00     0.037 A 
ATOM     58  C   UNL A   1      43.628  38.403  28.409  1.00  0.00     0.037 A 
ATOM     59  C   UNL A   1      44.588  32.289  26.398  1.00  0.00     0.049 A 
ATOM     60  C   UNL A   1      44.974  37.842  28.031  1.00  0.00     0.074 A 
ATOM     61  C   UNL A   1      44.155  32.959  25.268  1.00  0.00     0.029 A 
ATOM     62  N   UNL A   1      45.575  33.109  26.940  1.00  0.00    -0.354 N 
ATOM     63  N   UNL A   1      45.115  36.708  27.399  1.00  0.00    -0.248 NA
ATOM     64  C   UNL A   1      46.254  38.441  28.371  1.00  0.00     0.031 C 
ATOM     65  C   UNL A   1      44.884  34.199  25.174  1.00  0.00     0.029 A 
ATOM     66  C   UNL A   1      45.791  34.267  26.220  1.00  0.00     0.049 A 
ATOM     67  H   UNL A   1      46.072  32.884  27.759  1.00  0.00     0.167 HD
ATOM     68  C   UNL A   1      46.422  36.375  27.289  1.00  0.00     0.074 A 
ATOM     69  C   UNL A   1      47.105  37.493  27.932  1.00  0.00     0.031 C 
ATOM     70  C   UNL A   1      46.816  35.201  26.702  1.00  0.00     0.037 A 
BRANCH  57  71
ATOM     71  C   UNL A   1      43.937  29.732  26.757  1.00  0.00     0.064 A 
ATOM     72  C   UNL A   1      45.073  28.943  26.480  1.00  0.00     0.173 A 
ATOM     73  C   UNL A   1      42.709  29.089  26.473  1.00  0.00     0.173 A 
ATOM     74  F   UNL A   1      46.312  29.417  26.669  1.00  0.00    -0.203 F 
ATOM     75  C   UNL A   1      44.985  27.637  25.977  1.00  0.00     0.198 A 
ATOM     76  C   UNL A   1      42.620  27.771  26.011  1.00  0.00     0.198 A 
ATOM     77  F   UNL A   1      41.529  29.703  26.572  1.00  0.00    -0.203 F 
ATOM     78  F   UNL A   1      46.105  26.957  25.696  1.00  0.00    -0.200 F 
ATOM     79  C   UNL A   1      43.759  27.046  25.754  1.00  0.00     0.200 A 
ATOM     80  F   UNL A   1      41.413  27.226  25.796  1.00  0.00    -0.200 F 
ATOM     81  F   UNL A   1      43.673  25.796  25.281  1.00  0.00    -0.200 F 
ENDBRANCH  57  71
BRANCH  58  82
ATOM     82  C   UNL A   1      43.210  39.167  29.636  1.00  0.00     0.064 A 
ATOM     83  C   UNL A   1      43.802  38.775  30.863  1.00  0.00     0.173 A 
ATOM     84  C   UNL A   1      42.732  40.481  29.562  1.00  0.00     0.173 A 
ATOM     85  F   UNL A   1      44.301  37.536  30.993  1.00  0.00    -0.203 F 
ATOM     86  C   UNL A   1      44.045  39.692  31.890  1.00  0.00     0.198 A 
ATOM     87  C   UNL A   1      42.961  41.391  30.604  1.00  0.00     0.198 A 
ATOM     88  F   UNL A   1      42.184  40.937  28.427  1.00  0.00    -0.203 F 
ATOM     89  F   UNL A   1      44.763  39.329  32.962  1.00  0.00    -0.200 F 
ATOM     90  C   UNL A   1      43.660  41.010  31.741  1.00  0.00     0.200 A 
ATOM     91  F   UNL A   1      42.608  42.677  30.458  1.00  0.00    -0.200 F 
ATOM     92  F   UNL A   1      44.022  41.925  32.652  1.00  0.00    -0.200 F 
ENDBRANCH  58  82
BRANCH  70  93
ATOM     93  C   UNL A   1      48.266  34.819  26.627  1.00  0.00     0.064 A 
ATOM     94  C   UNL A   1      48.937  34.238  27.712  1.00  0.00     0.173 A 
ATOM     95  C   UNL A   1      49.046  35.048  25.472  1.00  0.00     0.173 A 
ATOM     96  F   UNL A   1      48.348  34.131  28.911  1.00  0.00    -0.203 F 
ATOM     97  C   UNL A   1      50.238  33.754  27.588  1.00  0.00     0.198 A 
ATOM     98  C   UNL A   1      50.367  34.632  25.377  1.00  0.00     0.198 A 
ATOM     99  F   UNL A   1      48.557  35.647  24.380  1.00  0.00    -0.203 F 
ATOM    100  F   UNL A   1      50.795  33.090  28.610  1.00  0.00    -0.200 F 
ATOM    101  C   UNL A   1      50.949  33.944  26.419  1.00  0.00     0.200 A 
ATOM    102  F   UNL A   1      51.056  34.879  24.255  1.00  0.00    -0.200 F 
ATOM    103  F   UNL A   1      52.193  33.466  26.294  1.00  0.00    -0.200 F 
ENDBRANCH  70  93
ENDBRANCH  44  45
ENDBRANCH  37  39
ENDBRANCH  36  37
ENDBRANCH  35  36
ENDBRANCH  34  35
ENDBRANCH  33  34
ENDBRANCH   1  33
TORSDOF 17
ENDMDL
