MODEL 1
REMARK VINA RESULT:     -12.6      0.000      0.000
REMARK SMILES Cc1ccc(-c2cc(C(=O)OCCOCCOC(=O)c3ccc(-c4c5nc(c(-c6c(F)c(F)c(F)c(F)c6F)c6ccc([nH]6)c(-c6c(F)c(F)c(F)c(F)c6F)c6nc(c(-c7c(F)c(F)c(F)c(F)c7F)c7ccc4[nH]7)C=C6)C=C5)cc3)c3cc(C)ccc3n2)c(C)c1
REMARK SMILES IDX 15 1 14 2 13 3 12 4 11 5 9 6 10 7 8 8 6 9 7 10 90 11 89 12
REMARK SMILES IDX 83 13 88 14 84 15 87 16 85 17 86 18 5 19 1 20 2 21 3 22
REMARK SMILES IDX 93 23 4 24 91 25 92 26 16 27 17 28 18 29 19 30 20 31 21 32
REMARK SMILES IDX 82 33 22 34 81 35 23 36 24 37 25 38 75 39 26 40 80 41 74 42
REMARK SMILES IDX 76 43 27 44 79 45 73 46 72 47 28 49 60 50 40 51 59 52 41 53
REMARK SMILES IDX 44 54 58 55 77 56 42 57 43 58 57 60 78 61 45 62 29 63 30 64
REMARK SMILES IDX 38 65 31 66 32 67 36 68 39 69 33 70 34 71 37 72 35 73 61 74
REMARK SMILES IDX 62 75 70 76 63 77 64 78 68 79 71 80 65 81 66 82 69 83 67 84
REMARK SMILES IDX 46 85 47 86 55 87 48 88 49 89 53 90 56 91 50 92 51 93 54 94
REMARK SMILES IDX 52 95
REMARK H PARENT 76 48 44 59
REMARK Flexibility Score: inf
ROOT
ATOM      1  C   UNL A   1      31.392  31.958  26.812  1.00  0.00     0.202 C 
ENDROOT
BRANCH   1   2
ATOM      2  O   UNL A   1      32.076  30.818  26.289  1.00  0.00    -0.374 OA
BRANCH   2   3
ATOM      3  C   UNL A   1      32.898  30.076  27.192  1.00  0.00     0.202 C 
BRANCH   3   4
ATOM      4  C   UNL A   1      34.158  29.468  26.575  1.00  0.00     0.261 C 
BRANCH   4   5
ATOM      5  O   UNL A   1      33.851  28.173  26.031  1.00  0.00    -0.460 OA
BRANCH   5   6
ATOM      6  C   UNL A   1      33.572  28.148  24.710  1.00  0.00     0.338 C 
ATOM      7  O   UNL A   1      34.254  28.620  23.814  1.00  0.00    -0.246 OA
BRANCH   6   8
ATOM      8  C   UNL A   1      32.408  27.272  24.445  1.00  0.00     0.071 A 
ATOM      9  C   UNL A   1      31.669  25.008  24.275  1.00  0.00     0.072 A 
ATOM     10  C   UNL A   1      32.678  25.906  24.560  1.00  0.00     0.045 A 
ATOM     11  N   UNL A   1      30.437  25.408  23.893  1.00  0.00    -0.248 NA
ATOM     12  C   UNL A   1      30.175  26.722  23.787  1.00  0.00     0.072 A 
ATOM     13  C   UNL A   1      31.123  27.728  24.068  1.00  0.00     0.015 A 
ATOM     14  C   UNL A   1      28.907  27.090  23.364  1.00  0.00     0.029 A 
ATOM     15  C   UNL A   1      30.728  29.087  23.936  1.00  0.00     0.014 A 
ATOM     16  C   UNL A   1      28.529  28.427  23.233  1.00  0.00     0.005 A 
ATOM     17  C   UNL A   1      29.436  29.440  23.527  1.00  0.00    -0.050 A 
ATOM     18  C   UNL A   1      29.028  30.882  23.459  1.00  0.00     0.044 C 
BRANCH   9  19
ATOM     19  C   UNL A   1      31.911  23.563  24.294  1.00  0.00     0.003 A 
ATOM     20  C   UNL A   1      32.460  19.267  24.202  1.00  0.00     0.044 C 
ATOM     21  C   UNL A   1      32.285  20.756  24.221  1.00  0.00    -0.051 A 
ATOM     22  C   UNL A   1      32.502  21.526  23.077  1.00  0.00     0.004 A 
ATOM     23  C   UNL A   1      31.894  21.395  25.403  1.00  0.00     0.007 A 
ATOM     24  C   UNL A   1      32.319  22.911  23.115  1.00  0.00     0.011 A 
ATOM     25  C   UNL A   1      31.699  22.787  25.454  1.00  0.00    -0.041 A 
ATOM     26  C   UNL A   1      31.286  23.388  26.772  1.00  0.00     0.045 C 
ENDBRANCH   9  19
ENDBRANCH   6   8
ENDBRANCH   5   6
ENDBRANCH   4   5
ENDBRANCH   3   4
ENDBRANCH   2   3
ENDBRANCH   1   2
BRANCH   1  27
ATOM     27  C   UNL A   1      32.204  33.257  26.874  1.00  0.00     0.261 C 
BRANCH  27  28
ATOM     28  O   UNL A   1      32.457  33.679  28.226  1.00  0.00    -0.460 OA
BRANCH  28  29
ATOM     29  C   UNL A   1      33.579  34.415  28.391  1.00  0.00     0.338 C 
ATOM     30  O   UNL A   1      33.671  35.635  28.417  1.00  0.00    -0.246 OA
BRANCH  29  31
ATOM     31  C   UNL A   1      34.719  33.538  28.709  1.00  0.00     0.060 A 
ATOM     32  C   UNL A   1      34.461  32.385  29.461  1.00  0.00     0.016 A 
ATOM     33  C   UNL A   1      36.028  33.874  28.354  1.00  0.00     0.016 A 
ATOM     34  C   UNL A   1      35.514  31.589  29.904  1.00  0.00     0.010 A 
ATOM     35  C   UNL A   1      37.085  33.079  28.808  1.00  0.00     0.010 A 
ATOM     36  C   UNL A   1      36.836  31.953  29.613  1.00  0.00    -0.014 A 
BRANCH  36  37
ATOM     37  C   UNL A   1      37.953  31.239  30.276  1.00  0.00     0.031 A 
ATOM     38  C   UNL A   1      38.261  31.543  31.717  1.00  0.00     0.074 A 
ATOM     39  C   UNL A   1      38.661  30.305  29.616  1.00  0.00     0.049 A 
ATOM     40  N   UNL A   1      39.209  31.067  32.484  1.00  0.00    -0.248 NA
ATOM     41  C   UNL A   1      37.379  32.515  32.383  1.00  0.00     0.031 C 
ATOM     42  C   UNL A   1      38.426  29.887  28.236  1.00  0.00     0.029 A 
ATOM     43  N   UNL A   1      39.726  29.542  30.025  1.00  0.00    -0.354 N 
ATOM     44  C   UNL A   1      39.035  31.675  33.720  1.00  0.00     0.074 A 
ATOM     45  C   UNL A   1      37.915  32.582  33.593  1.00  0.00     0.031 C 
ATOM     46  C   UNL A   1      39.326  28.944  27.909  1.00  0.00     0.029 A 
ATOM     47  C   UNL A   1      40.219  28.718  29.044  1.00  0.00     0.049 A 
ATOM     48  H   UNL A   1      40.100  29.581  30.935  1.00  0.00     0.167 HD
ATOM     49  C   UNL A   1      39.738  31.484  34.862  1.00  0.00     0.037 A 
ATOM     50  C   UNL A   1      41.284  27.892  29.060  1.00  0.00     0.037 A 
ATOM     51  C   UNL A   1      40.856  30.587  34.987  1.00  0.00     0.049 A 
ATOM     52  C   UNL A   1      42.106  27.769  30.317  1.00  0.00     0.074 A 
ATOM     53  C   UNL A   1      41.639  30.331  36.099  1.00  0.00     0.029 A 
ATOM     54  N   UNL A   1      41.352  29.799  33.960  1.00  0.00    -0.354 N 
ATOM     55  N   UNL A   1      41.929  28.339  31.483  1.00  0.00    -0.248 NA
ATOM     56  C   UNL A   1      43.279  26.884  30.257  1.00  0.00     0.031 C 
ATOM     57  C   UNL A   1      42.635  29.420  35.733  1.00  0.00     0.029 A 
ATOM     58  C   UNL A   1      42.443  29.071  34.406  1.00  0.00     0.049 A 
ATOM     59  H   UNL A   1      40.984  29.763  33.047  1.00  0.00     0.167 HD
ATOM     60  C   UNL A   1      42.941  27.857  32.303  1.00  0.00     0.074 A 
ATOM     61  C   UNL A   1      43.724  26.939  31.503  1.00  0.00     0.031 C 
ATOM     62  C   UNL A   1      43.200  28.147  33.602  1.00  0.00     0.037 A 
BRANCH  49  63
ATOM     63  C   UNL A   1      39.326  32.276  36.068  1.00  0.00     0.064 A 
ATOM     64  C   UNL A   1      39.849  33.554  36.319  1.00  0.00     0.173 A 
ATOM     65  C   UNL A   1      38.369  31.771  36.962  1.00  0.00     0.173 A 
ATOM     66  F   UNL A   1      40.776  34.075  35.502  1.00  0.00    -0.203 F 
ATOM     67  C   UNL A   1      39.445  34.286  37.432  1.00  0.00     0.198 A 
ATOM     68  C   UNL A   1      37.948  32.517  38.058  1.00  0.00     0.198 A 
ATOM     69  F   UNL A   1      37.836  30.556  36.764  1.00  0.00    -0.203 F 
ATOM     70  F   UNL A   1      39.988  35.487  37.675  1.00  0.00    -0.200 F 
ATOM     71  C   UNL A   1      38.490  33.771  38.296  1.00  0.00     0.200 A 
ATOM     72  F   UNL A   1      37.017  32.023  38.886  1.00  0.00    -0.200 F 
ATOM     73  F   UNL A   1      38.097  34.481  39.362  1.00  0.00    -0.200 F 
ENDBRANCH  49  63
BRANCH  50  74
ATOM     74  C   UNL A   1      41.649  27.120  27.842  1.00  0.00     0.064 A 
ATOM     75  C   UNL A   1      41.197  25.807  27.656  1.00  0.00     0.173 A 
ATOM     76  C   UNL A   1      42.490  27.665  26.861  1.00  0.00     0.173 A 
ATOM     77  F   UNL A   1      40.412  25.232  28.581  1.00  0.00    -0.203 F 
ATOM     78  C   UNL A   1      41.591  25.060  26.548  1.00  0.00     0.198 A 
ATOM     79  C   UNL A   1      42.860  26.928  25.739  1.00  0.00     0.198 A 
ATOM     80  F   UNL A   1      42.953  28.917  26.992  1.00  0.00    -0.203 F 
ATOM     81  F   UNL A   1      41.187  23.788  26.423  1.00  0.00    -0.200 F 
ATOM     82  C   UNL A   1      42.419  25.622  25.588  1.00  0.00     0.200 A 
ATOM     83  F   UNL A   1      43.652  27.479  24.809  1.00  0.00    -0.200 F 
ATOM     84  F   UNL A   1      42.801  24.902  24.525  1.00  0.00    -0.200 F 
ENDBRANCH  50  74
BRANCH  62  85
ATOM     85  C   UNL A   1      44.345  27.429  34.255  1.00  0.00     0.064 A 
ATOM     86  C   UNL A   1      45.628  27.992  34.319  1.00  0.00     0.173 A 
ATOM     87  C   UNL A   1      44.145  26.180  34.862  1.00  0.00     0.173 A 
ATOM     88  F   UNL A   1      45.874  29.178  33.741  1.00  0.00    -0.203 F 
ATOM     89  C   UNL A   1      46.675  27.317  34.942  1.00  0.00     0.198 A 
ATOM     90  C   UNL A   1      45.186  25.521  35.509  1.00  0.00     0.198 A 
ATOM     91  F   UNL A   1      42.934  25.601  34.835  1.00  0.00    -0.203 F 
ATOM     92  F   UNL A   1      47.904  27.852  34.950  1.00  0.00    -0.200 F 
ATOM     93  C   UNL A   1      46.452  26.087  35.542  1.00  0.00     0.200 A 
ATOM     94  F   UNL A   1      44.965  24.339  36.100  1.00  0.00    -0.200 F 
ATOM     95  F   UNL A   1      47.459  25.442  36.148  1.00  0.00    -0.200 F 
ENDBRANCH  62  85
ENDBRANCH  36  37
ENDBRANCH  29  31
ENDBRANCH  28  29
ENDBRANCH  27  28
ENDBRANCH   1  27
TORSDOF 15
ENDMDL
MODEL 2
REMARK VINA RESULT:     -12.5      3.368      8.832
REMARK SMILES Cc1ccc(-c2cc(C(=O)OCCOCCOC(=O)c3ccc(-c4c5nc(c(-c6c(F)c(F)c(F)c(F)c6F)c6ccc([nH]6)c(-c6c(F)c(F)c(F)c(F)c6F)c6nc(c(-c7c(F)c(F)c(F)c(F)c7F)c7ccc4[nH]7)C=C6)C=C5)cc3)c3cc(C)ccc3n2)c(C)c1
REMARK SMILES IDX 15 1 14 2 13 3 12 4 11 5 9 6 10 7 8 8 6 9 7 10 90 11 89 12
REMARK SMILES IDX 83 13 88 14 84 15 87 16 85 17 86 18 5 19 1 20 2 21 3 22
REMARK SMILES IDX 93 23 4 24 91 25 92 26 16 27 17 28 18 29 19 30 20 31 21 32
REMARK SMILES IDX 82 33 22 34 81 35 23 36 24 37 25 38 75 39 26 40 80 41 74 42
REMARK SMILES IDX 76 43 27 44 79 45 73 46 72 47 28 49 60 50 40 51 59 52 41 53
REMARK SMILES IDX 44 54 58 55 77 56 42 57 43 58 57 60 78 61 45 62 29 63 30 64
REMARK SMILES IDX 38 65 31 66 32 67 36 68 39 69 33 70 34 71 37 72 35 73 61 74
REMARK SMILES IDX 62 75 70 76 63 77 64 78 68 79 71 80 65 81 66 82 69 83 67 84
REMARK SMILES IDX 46 85 47 86 55 87 48 88 49 89 53 90 56 91 50 92 51 93 54 94
REMARK SMILES IDX 52 95
REMARK H PARENT 76 48 44 59
REMARK Flexibility Score: inf
ROOT
ATOM      1  C   UNL A   1      41.714  20.812  26.120  1.00  0.00     0.202 C 
ENDROOT
BRANCH   1   2
ATOM      2  O   UNL A   1      40.681  21.206  27.024  1.00  0.00    -0.374 OA
BRANCH   2   3
ATOM      3  C   UNL A   1      39.671  22.084  26.523  1.00  0.00     0.202 C 
BRANCH   3   4
ATOM      4  C   UNL A   1      38.541  21.403  25.750  1.00  0.00     0.261 C 
BRANCH   4   5
ATOM      5  O   UNL A   1      37.410  22.287  25.674  1.00  0.00    -0.460 OA
BRANCH   5   6
ATOM      6  C   UNL A   1      36.855  22.417  24.450  1.00  0.00     0.338 C 
ATOM      7  O   UNL A   1      37.402  22.207  23.378  1.00  0.00    -0.246 OA
BRANCH   6   8
ATOM      8  C   UNL A   1      35.398  22.651  24.566  1.00  0.00     0.071 A 
ATOM      9  C   UNL A   1      33.700  24.317  24.768  1.00  0.00     0.072 A 
ATOM     10  C   UNL A   1      35.033  23.999  24.604  1.00  0.00     0.045 A 
ATOM     11  N   UNL A   1      32.744  23.370  24.890  1.00  0.00    -0.248 NA
ATOM     12  C   UNL A   1      33.094  22.074  24.848  1.00  0.00     0.072 A 
ATOM     13  C   UNL A   1      34.421  21.633  24.670  1.00  0.00     0.015 A 
ATOM     14  C   UNL A   1      32.087  21.134  25.007  1.00  0.00     0.029 A 
ATOM     15  C   UNL A   1      34.671  20.234  24.626  1.00  0.00     0.014 A 
ATOM     16  C   UNL A   1      32.341  19.762  24.967  1.00  0.00     0.005 A 
ATOM     17  C   UNL A   1      33.637  19.298  24.767  1.00  0.00    -0.050 A 
ATOM     18  C   UNL A   1      33.921  17.830  24.652  1.00  0.00     0.044 C 
BRANCH   9  19
ATOM     19  C   UNL A   1      33.263  25.709  24.901  1.00  0.00     0.003 A 
ATOM     20  C   UNL A   1      31.770  29.749  25.368  1.00  0.00     0.044 C 
ATOM     21  C   UNL A   1      32.296  28.352  25.224  1.00  0.00    -0.051 A 
ATOM     22  C   UNL A   1      32.446  27.517  26.332  1.00  0.00     0.004 A 
ATOM     23  C   UNL A   1      32.643  27.868  23.957  1.00  0.00     0.007 A 
ATOM     24  C   UNL A   1      32.925  26.214  26.171  1.00  0.00     0.011 A 
ATOM     25  C   UNL A   1      33.118  26.555  23.780  1.00  0.00    -0.041 A 
ATOM     26  C   UNL A   1      33.474  26.123  22.382  1.00  0.00     0.045 C 
ENDBRANCH   9  19
ENDBRANCH   6   8
ENDBRANCH   5   6
ENDBRANCH   4   5
ENDBRANCH   3   4
ENDBRANCH   2   3
ENDBRANCH   1   2
BRANCH   1  27
ATOM     27  C   UNL A   1      42.895  21.780  25.987  1.00  0.00     0.261 C 
BRANCH  27  28
ATOM     28  O   UNL A   1      42.654  22.803  25.004  1.00  0.00    -0.460 OA
BRANCH  28  29
ATOM     29  C   UNL A   1      43.438  23.898  25.120  1.00  0.00     0.338 C 
ATOM     30  O   UNL A   1      44.468  24.145  24.506  1.00  0.00    -0.246 OA
BRANCH  29  31
ATOM     31  C   UNL A   1      42.797  24.890  26.002  1.00  0.00     0.060 A 
ATOM     32  C   UNL A   1      43.513  26.058  26.292  1.00  0.00     0.016 A 
ATOM     33  C   UNL A   1      41.559  24.649  26.602  1.00  0.00     0.016 A 
ATOM     34  C   UNL A   1      43.018  26.969  27.222  1.00  0.00     0.010 A 
ATOM     35  C   UNL A   1      41.067  25.560  27.543  1.00  0.00     0.010 A 
ATOM     36  C   UNL A   1      41.810  26.705  27.882  1.00  0.00    -0.014 A 
BRANCH  36  37
ATOM     37  C   UNL A   1      41.404  27.553  29.029  1.00  0.00     0.031 A 
ATOM     38  C   UNL A   1      42.187  27.470  30.310  1.00  0.00     0.074 A 
ATOM     39  C   UNL A   1      40.377  28.414  28.919  1.00  0.00     0.049 A 
ATOM     40  N   UNL A   1      41.991  28.090  31.447  1.00  0.00    -0.248 NA
ATOM     41  C   UNL A   1      43.347  26.566  30.311  1.00  0.00     0.031 C 
ATOM     42  C   UNL A   1      39.576  28.623  27.715  1.00  0.00     0.029 A 
ATOM     43  N   UNL A   1      39.832  29.273  29.841  1.00  0.00    -0.354 N 
ATOM     44  C   UNL A   1      43.003  27.657  32.293  1.00  0.00     0.074 A 
ATOM     45  C   UNL A   1      43.790  26.693  31.553  1.00  0.00     0.031 C 
ATOM     46  C   UNL A   1      38.635  29.547  27.974  1.00  0.00     0.029 A 
ATOM     47  C   UNL A   1      38.748  29.970  29.369  1.00  0.00     0.049 A 
ATOM     48  H   UNL A   1      40.186  29.379  30.754  1.00  0.00     0.167 HD
ATOM     49  C   UNL A   1      43.262  28.037  33.566  1.00  0.00     0.037 A 
ATOM     50  C   UNL A   1      37.930  30.834  30.001  1.00  0.00     0.037 A 
ATOM     51  C   UNL A   1      42.476  28.990  34.304  1.00  0.00     0.049 A 
ATOM     52  C   UNL A   1      38.185  31.169  31.448  1.00  0.00     0.074 A 
ATOM     53  C   UNL A   1      42.651  29.434  35.603  1.00  0.00     0.029 A 
ATOM     54  N   UNL A   1      41.360  29.645  33.806  1.00  0.00    -0.354 N 
ATOM     55  N   UNL A   1      39.149  30.763  32.237  1.00  0.00    -0.248 NA
ATOM     56  C   UNL A   1      37.234  32.087  32.093  1.00  0.00     0.031 C 
ATOM     57  C   UNL A   1      41.617  30.326  35.905  1.00  0.00     0.029 A 
ATOM     58  C   UNL A   1      40.825  30.475  34.777  1.00  0.00     0.049 A 
ATOM     59  H   UNL A   1      41.000  29.535  32.895  1.00  0.00     0.167 HD
ATOM     60  C   UNL A   1      38.943  31.399  33.454  1.00  0.00     0.074 A 
ATOM     61  C   UNL A   1      37.767  32.227  33.298  1.00  0.00     0.031 C 
ATOM     62  C   UNL A   1      39.664  31.308  34.599  1.00  0.00     0.037 A 
BRANCH  49  63
ATOM     63  C   UNL A   1      44.439  27.407  34.251  1.00  0.00     0.064 A 
ATOM     64  C   UNL A   1      44.317  26.197  34.953  1.00  0.00     0.173 A 
ATOM     65  C   UNL A   1      45.710  27.996  34.174  1.00  0.00     0.173 A 
ATOM     66  F   UNL A   1      43.121  25.602  35.067  1.00  0.00    -0.203 F 
ATOM     67  C   UNL A   1      45.420  25.613  35.568  1.00  0.00     0.198 A 
ATOM     68  C   UNL A   1      46.816  27.395  34.768  1.00  0.00     0.198 A 
ATOM     69  F   UNL A   1      45.880  29.150  33.511  1.00  0.00    -0.203 F 
ATOM     70  F   UNL A   1      45.273  24.480  36.268  1.00  0.00    -0.200 F 
ATOM     71  C   UNL A   1      46.669  26.208  35.470  1.00  0.00     0.200 A 
ATOM     72  F   UNL A   1      48.024  27.965  34.662  1.00  0.00    -0.200 F 
ATOM     73  F   UNL A   1      47.732  25.640  36.057  1.00  0.00    -0.200 F 
ENDBRANCH  49  63
BRANCH  50  74
ATOM     74  C   UNL A   1      36.781  31.441  29.279  1.00  0.00     0.064 A 
ATOM     75  C   UNL A   1      36.780  32.799  28.933  1.00  0.00     0.173 A 
ATOM     76  C   UNL A   1      35.644  30.685  28.956  1.00  0.00     0.173 A 
ATOM     77  F   UNL A   1      37.833  33.570  29.245  1.00  0.00    -0.203 F 
ATOM     78  C   UNL A   1      35.677  33.384  28.314  1.00  0.00     0.198 A 
ATOM     79  C   UNL A   1      34.554  31.264  28.311  1.00  0.00     0.198 A 
ATOM     80  F   UNL A   1      35.593  29.382  29.267  1.00  0.00    -0.203 F 
ATOM     81  F   UNL A   1      35.681  34.696  28.044  1.00  0.00    -0.200 F 
ATOM     82  C   UNL A   1      34.566  32.615  28.000  1.00  0.00     0.200 A 
ATOM     83  F   UNL A   1      33.487  30.515  28.001  1.00  0.00    -0.200 F 
ATOM     84  F   UNL A   1      33.505  33.179  27.409  1.00  0.00    -0.200 F 
ENDBRANCH  50  74
BRANCH  62  85
ATOM     85  C   UNL A   1      39.231  32.159  35.757  1.00  0.00     0.064 A 
ATOM     86  C   UNL A   1      39.693  33.472  35.922  1.00  0.00     0.173 A 
ATOM     87  C   UNL A   1      38.308  31.665  36.693  1.00  0.00     0.173 A 
ATOM     88  F   UNL A   1      40.588  33.985  35.063  1.00  0.00    -0.203 F 
ATOM     89  C   UNL A   1      39.268  34.251  36.995  1.00  0.00     0.198 A 
ATOM     90  C   UNL A   1      37.863  32.457  37.747  1.00  0.00     0.198 A 
ATOM     91  F   UNL A   1      37.829  30.417  36.576  1.00  0.00    -0.203 F 
ATOM     92  F   UNL A   1      39.760  35.487  37.159  1.00  0.00    -0.200 F 
ATOM     93  C   UNL A   1      38.349  33.745  37.903  1.00  0.00     0.200 A 
ATOM     94  F   UNL A   1      36.964  31.971  38.615  1.00  0.00    -0.200 F 
ATOM     95  F   UNL A   1      37.936  34.499  38.931  1.00  0.00    -0.200 F 
ENDBRANCH  62  85
ENDBRANCH  36  37
ENDBRANCH  29  31
ENDBRANCH  28  29
ENDBRANCH  27  28
ENDBRANCH   1  27
TORSDOF 15
ENDMDL
MODEL 3
REMARK VINA RESULT:     -12.4      1.295      2.126
REMARK SMILES Cc1ccc(-c2cc(C(=O)OCCOCCOC(=O)c3ccc(-c4c5nc(c(-c6c(F)c(F)c(F)c(F)c6F)c6ccc([nH]6)c(-c6c(F)c(F)c(F)c(F)c6F)c6nc(c(-c7c(F)c(F)c(F)c(F)c7F)c7ccc4[nH]7)C=C6)C=C5)cc3)c3cc(C)ccc3n2)c(C)c1
REMARK SMILES IDX 15 1 14 2 13 3 12 4 11 5 9 6 10 7 8 8 6 9 7 10 90 11 89 12
REMARK SMILES IDX 83 13 88 14 84 15 87 16 85 17 86 18 5 19 1 20 2 21 3 22
REMARK SMILES IDX 93 23 4 24 91 25 92 26 16 27 17 28 18 29 19 30 20 31 21 32
REMARK SMILES IDX 82 33 22 34 81 35 23 36 24 37 25 38 75 39 26 40 80 41 74 42
REMARK SMILES IDX 76 43 27 44 79 45 73 46 72 47 28 49 60 50 40 51 59 52 41 53
REMARK SMILES IDX 44 54 58 55 77 56 42 57 43 58 57 60 78 61 45 62 29 63 30 64
REMARK SMILES IDX 38 65 31 66 32 67 36 68 39 69 33 70 34 71 37 72 35 73 61 74
REMARK SMILES IDX 62 75 70 76 63 77 64 78 68 79 71 80 65 81 66 82 69 83 67 84
REMARK SMILES IDX 46 85 47 86 55 87 48 88 49 89 53 90 56 91 50 92 51 93 54 94
REMARK SMILES IDX 52 95
REMARK H PARENT 76 48 44 59
REMARK Flexibility Score: inf
ROOT
ATOM      1  C   UNL A   1      31.576  32.511  26.892  1.00  0.00     0.202 C 
ENDROOT
BRANCH   1   2
ATOM      2  O   UNL A   1      31.894  31.119  26.856  1.00  0.00    -0.374 OA
BRANCH   2   3
ATOM      3  C   UNL A   1      33.227  30.742  27.204  1.00  0.00     0.202 C 
BRANCH   3   4
ATOM      4  C   UNL A   1      33.766  29.510  26.476  1.00  0.00     0.261 C 
BRANCH   4   5
ATOM      5  O   UNL A   1      33.623  28.353  27.318  1.00  0.00    -0.460 OA
BRANCH   5   6
ATOM      6  C   UNL A   1      32.471  27.665  27.171  1.00  0.00     0.338 C 
ATOM      7  O   UNL A   1      31.447  27.816  27.820  1.00  0.00    -0.246 OA
BRANCH   6   8
ATOM      8  C   UNL A   1      32.524  26.822  25.956  1.00  0.00     0.071 A 
ATOM      9  C   UNL A   1      33.509  24.885  24.966  1.00  0.00     0.072 A 
ATOM     10  C   UNL A   1      33.351  25.702  26.068  1.00  0.00     0.045 A 
ATOM     11  N   UNL A   1      32.890  25.134  23.792  1.00  0.00    -0.248 NA
ATOM     12  C   UNL A   1      32.090  26.209  23.685  1.00  0.00     0.072 A 
ATOM     13  C   UNL A   1      31.843  27.102  24.747  1.00  0.00     0.015 A 
ATOM     14  C   UNL A   1      31.498  26.445  22.454  1.00  0.00     0.029 A 
ATOM     15  C   UNL A   1      30.966  28.197  24.522  1.00  0.00     0.014 A 
ATOM     16  C   UNL A   1      30.640  27.525  22.240  1.00  0.00     0.005 A 
ATOM     17  C   UNL A   1      30.359  28.409  23.277  1.00  0.00    -0.050 A 
ATOM     18  C   UNL A   1      29.387  29.535  23.087  1.00  0.00     0.044 C 
BRANCH   9  19
ATOM     19  C   UNL A   1      34.428  23.744  24.993  1.00  0.00     0.003 A 
ATOM     20  C   UNL A   1      37.164  20.388  24.847  1.00  0.00     0.044 C 
ATOM     21  C   UNL A   1      36.232  21.562  24.903  1.00  0.00    -0.051 A 
ATOM     22  C   UNL A   1      36.651  22.838  24.525  1.00  0.00     0.004 A 
ATOM     23  C   UNL A   1      34.913  21.382  25.338  1.00  0.00     0.007 A 
ATOM     24  C   UNL A   1      35.760  23.915  24.572  1.00  0.00     0.011 A 
ATOM     25  C   UNL A   1      34.004  22.455  25.383  1.00  0.00    -0.041 A 
ATOM     26  C   UNL A   1      32.609  22.169  25.872  1.00  0.00     0.045 C 
ENDBRANCH   9  19
ENDBRANCH   6   8
ENDBRANCH   5   6
ENDBRANCH   4   5
ENDBRANCH   3   4
ENDBRANCH   2   3
ENDBRANCH   1   2
BRANCH   1  27
ATOM     27  C   UNL A   1      32.734  33.455  27.237  1.00  0.00     0.261 C 
BRANCH  27  28
ATOM     28  O   UNL A   1      32.453  34.264  28.393  1.00  0.00    -0.460 OA
BRANCH  28  29
ATOM     29  C   UNL A   1      33.505  34.973  28.860  1.00  0.00     0.338 C 
ATOM     30  O   UNL A   1      33.531  36.161  29.154  1.00  0.00    -0.246 OA
BRANCH  29  31
ATOM     31  C   UNL A   1      34.638  34.074  29.141  1.00  0.00     0.060 A 
ATOM     32  C   UNL A   1      34.367  32.886  29.833  1.00  0.00     0.016 A 
ATOM     33  C   UNL A   1      35.951  34.419  28.811  1.00  0.00     0.016 A 
ATOM     34  C   UNL A   1      35.413  32.062  30.241  1.00  0.00     0.010 A 
ATOM     35  C   UNL A   1      37.000  33.596  29.232  1.00  0.00     0.010 A 
ATOM     36  C   UNL A   1      36.738  32.432  29.978  1.00  0.00    -0.014 A 
BRANCH  36  37
ATOM     37  C   UNL A   1      37.847  31.679  30.610  1.00  0.00     0.031 A 
ATOM     38  C   UNL A   1      38.197  31.963  32.045  1.00  0.00     0.074 A 
ATOM     39  C   UNL A   1      38.510  30.727  29.929  1.00  0.00     0.049 A 
ATOM     40  N   UNL A   1      39.146  31.451  32.788  1.00  0.00    -0.248 NA
ATOM     41  C   UNL A   1      37.362  32.957  32.738  1.00  0.00     0.031 C 
ATOM     42  C   UNL A   1      38.230  30.325  28.552  1.00  0.00     0.029 A 
ATOM     43  N   UNL A   1      39.559  29.927  30.309  1.00  0.00    -0.354 N 
ATOM     44  C   UNL A   1      39.020  32.056  34.032  1.00  0.00     0.074 A 
ATOM     45  C   UNL A   1      37.927  33.000  33.935  1.00  0.00     0.031 C 
ATOM     46  C   UNL A   1      39.093  29.357  28.199  1.00  0.00     0.029 A 
ATOM     47  C   UNL A   1      40.003  29.094  29.312  1.00  0.00     0.049 A 
ATOM     48  H   UNL A   1      39.954  29.948  31.210  1.00  0.00     0.167 HD
ATOM     49  C   UNL A   1      39.741  31.835  35.156  1.00  0.00     0.037 A 
ATOM     50  C   UNL A   1      41.041  28.235  29.299  1.00  0.00     0.037 A 
ATOM     51  C   UNL A   1      40.833  30.902  35.250  1.00  0.00     0.049 A 
ATOM     52  C   UNL A   1      41.887  28.077  30.536  1.00  0.00     0.074 A 
ATOM     53  C   UNL A   1      41.632  30.614  36.343  1.00  0.00     0.029 A 
ATOM     54  N   UNL A   1      41.280  30.106  34.207  1.00  0.00    -0.354 N 
ATOM     55  N   UNL A   1      41.755  28.645  31.710  1.00  0.00    -0.248 NA
ATOM     56  C   UNL A   1      43.029  27.156  30.444  1.00  0.00     0.031 C 
ATOM     57  C   UNL A   1      42.590  29.674  35.949  1.00  0.00     0.029 A 
ATOM     58  C   UNL A   1      42.358  29.341  34.624  1.00  0.00     0.049 A 
ATOM     59  H   UNL A   1      40.891  30.088  33.303  1.00  0.00     0.167 HD
ATOM     60  C   UNL A   1      42.769  28.126  32.503  1.00  0.00     0.074 A 
ATOM     61  C   UNL A   1      43.504  27.189  31.681  1.00  0.00     0.031 C 
ATOM     62  C   UNL A   1      43.066  28.398  33.798  1.00  0.00     0.037 A 
BRANCH  49  63
ATOM     63  C   UNL A   1      39.382  32.632  36.376  1.00  0.00     0.064 A 
ATOM     64  C   UNL A   1      38.443  32.163  37.307  1.00  0.00     0.173 A 
ATOM     65  C   UNL A   1      40.011  33.859  36.638  1.00  0.00     0.173 A 
ATOM     66  F   UNL A   1      37.805  31.003  37.095  1.00  0.00    -0.203 F 
ATOM     67  C   UNL A   1      38.132  32.903  38.444  1.00  0.00     0.198 A 
ATOM     68  C   UNL A   1      39.716  34.584  37.789  1.00  0.00     0.198 A 
ATOM     69  F   UNL A   1      40.919  34.349  35.780  1.00  0.00    -0.203 F 
ATOM     70  F   UNL A   1      37.203  32.456  39.299  1.00  0.00    -0.200 F 
ATOM     71  C   UNL A   1      38.774  34.108  38.688  1.00  0.00     0.200 A 
ATOM     72  F   UNL A   1      40.345  35.742  38.029  1.00  0.00    -0.200 F 
ATOM     73  F   UNL A   1      38.478  34.816  39.787  1.00  0.00    -0.200 F 
ENDBRANCH  49  63
BRANCH  50  74
ATOM     74  C   UNL A   1      41.354  27.460  28.068  1.00  0.00     0.064 A 
ATOM     75  C   UNL A   1      40.776  26.204  27.839  1.00  0.00     0.173 A 
ATOM     76  C   UNL A   1      42.267  27.941  27.119  1.00  0.00     0.173 A 
ATOM     77  F   UNL A   1      39.917  25.690  28.732  1.00  0.00    -0.203 F 
ATOM     78  C   UNL A   1      41.117  25.449  26.719  1.00  0.00     0.198 A 
ATOM     79  C   UNL A   1      42.586  27.198  25.985  1.00  0.00     0.198 A 
ATOM     80  F   UNL A   1      42.851  29.136  27.292  1.00  0.00    -0.203 F 
ATOM     81  F   UNL A   1      40.591  24.227  26.553  1.00  0.00    -0.200 F 
ATOM     82  C   UNL A   1      42.019  25.947  25.791  1.00  0.00     0.200 A 
ATOM     83  F   UNL A   1      43.450  27.688  25.086  1.00  0.00    -0.200 F 
ATOM     84  F   UNL A   1      42.350  25.218  24.718  1.00  0.00    -0.200 F 
ENDBRANCH  50  74
BRANCH  62  85
ATOM     85  C   UNL A   1      44.202  27.640  34.420  1.00  0.00     0.064 A 
ATOM     86  C   UNL A   1      44.014  26.384  35.013  1.00  0.00     0.173 A 
ATOM     87  C   UNL A   1      45.505  28.162  34.385  1.00  0.00     0.173 A 
ATOM     88  F   UNL A   1      42.786  25.848  35.085  1.00  0.00    -0.203 F 
ATOM     89  C   UNL A   1      45.085  25.690  35.572  1.00  0.00     0.198 A 
ATOM     90  C   UNL A   1      46.577  27.453  34.919  1.00  0.00     0.198 A 
ATOM     91  F   UNL A   1      45.739  29.358  33.822  1.00  0.00    -0.203 F 
ATOM     92  F   UNL A   1      44.874  24.512  36.176  1.00  0.00    -0.200 F 
ATOM     93  C   UNL A   1      46.365  26.221  35.519  1.00  0.00     0.200 A 
ATOM     94  F   UNL A   1      47.815  27.962  34.854  1.00  0.00    -0.200 F 
ATOM     95  F   UNL A   1      47.394  25.548  36.051  1.00  0.00    -0.200 F 
ENDBRANCH  62  85
ENDBRANCH  36  37
ENDBRANCH  29  31
ENDBRANCH  28  29
ENDBRANCH  27  28
ENDBRANCH   1  27
TORSDOF 15
ENDMDL
