MODEL 1
REMARK VINA RESULT:     -10.5      0.000      0.000
REMARK SMILES CC(C)[C@H](NC(=O)[C@H](C)NC(=O)CNC(=O)OCc1ccccc1)C(=O)OCCOCCOC(=O)c1ccc(-c2c3nc(c(-c4c(F)c(F)c(F)c(F)c4F)c4ccc([nH]4)c(-c4c(F)c(F)c(F)c(F)c4F)c4nc(c(-c5c(F)c(F)c(F)c(F)c5F)c5ccc2[nH]5)C=C4)C=C3)cc1
REMARK SMILES IDX 27 1 25 2 26 3 4 4 2 5 1 6 3 7 5 8 6 9 7 11 8 12 9 13 10 14
REMARK SMILES IDX 11 15 12 17 13 18 14 19 15 20 16 22 17 23 18 24 19 25 20 26
REMARK SMILES IDX 24 27 21 28 23 29 22 30 28 31 29 32 30 33 31 34 32 35 33 36
REMARK SMILES IDX 34 37 35 38 36 39 37 40 98 41 38 42 97 43 39 44 40 45 41 46
REMARK SMILES IDX 91 47 42 48 96 49 90 50 92 51 43 52 95 53 89 54 88 55 44 57
REMARK SMILES IDX 76 58 56 59 75 60 57 61 60 62 74 63 93 64 58 65 59 66 73 68
REMARK SMILES IDX 94 69 61 70 45 71 46 72 54 73 47 74 48 75 52 76 55 77 49 78
REMARK SMILES IDX 50 79 53 80 51 81 77 82 78 83 86 84 79 85 80 86 84 87 87 88
REMARK SMILES IDX 81 89 82 90 85 91 83 92 62 93 63 94 71 95 64 96 65 97 69 98
REMARK SMILES IDX 72 99 66 100 67 101 70 102 68 103
REMARK H PARENT 5 10 10 16 14 21 92 56 60 67
REMARK Flexibility Score: inf
ROOT
ATOM      1  O   UNL A   1      35.361  24.065  24.379  1.00  0.00    -0.462 OA
ENDROOT
BRANCH   1   2
ATOM      2  C   UNL A   1      34.511  23.977  23.310  1.00  0.00     0.328 C 
ATOM      3  O   UNL A   1      34.713  23.298  22.311  1.00  0.00    -0.250 OA
BRANCH   2   4
ATOM      4  C   UNL A   1      33.377  25.000  23.422  1.00  0.00     0.194 C 
BRANCH   4   5
ATOM      5  C   UNL A   1      33.502  25.882  22.168  1.00  0.00     0.017 C 
ATOM      6  C   UNL A   1      32.349  25.755  21.170  1.00  0.00     0.010 C 
ATOM      7  C   UNL A   1      33.681  27.359  22.542  1.00  0.00     0.010 C 
ENDBRANCH   4   5
BRANCH   4   8
ATOM      8  N   UNL A   1      33.401  25.746  24.697  1.00  0.00    -0.341 N 
ATOM      9  C   UNL A   1      32.448  25.881  25.674  1.00  0.00     0.242 C 
ATOM     10  H   UNL A   1      34.242  26.227  24.875  1.00  0.00     0.164 HD
ATOM     11  O   UNL A   1      32.836  26.229  26.792  1.00  0.00    -0.273 OA
BRANCH   9  12
ATOM     12  C   UNL A   1      30.940  25.734  25.344  1.00  0.00     0.168 C 
ATOM     13  C   UNL A   1      30.300  27.073  24.971  1.00  0.00     0.041 C 
BRANCH  12  14
ATOM     14  N   UNL A   1      30.158  25.099  26.394  1.00  0.00    -0.343 N 
ATOM     15  C   UNL A   1      30.012  23.779  26.703  1.00  0.00     0.240 C 
ATOM     16  H   UNL A   1      29.657  25.719  26.973  1.00  0.00     0.164 HD
ATOM     17  O   UNL A   1      29.214  23.508  27.607  1.00  0.00    -0.273 OA
BRANCH  15  18
ATOM     18  C   UNL A   1      30.906  22.674  26.103  1.00  0.00     0.219 C 
BRANCH  18  19
ATOM     19  N   UNL A   1      32.139  22.358  26.796  1.00  0.00    -0.312 N 
ATOM     20  C   UNL A   1      33.253  21.730  26.322  1.00  0.00     0.407 C 
ATOM     21  H   UNL A   1      32.179  22.637  27.740  1.00  0.00     0.167 HD
ATOM     22  O   UNL A   1      34.203  21.501  27.061  1.00  0.00    -0.225 OA
BRANCH  20  23
ATOM     23  O   UNL A   1      33.159  21.335  25.030  1.00  0.00    -0.445 OA
BRANCH  23  24
ATOM     24  C   UNL A   1      32.296  20.213  24.761  1.00  0.00     0.270 C 
BRANCH  24  25
ATOM     25  C   UNL A   1      33.104  19.051  24.251  1.00  0.00    -0.011 A 
ATOM     26  C   UNL A   1      32.525  18.161  23.341  1.00  0.00     0.007 A 
ATOM     27  C   UNL A   1      34.403  18.796  24.712  1.00  0.00     0.007 A 
ATOM     28  C   UNL A   1      33.207  17.014  22.943  1.00  0.00     0.000 A 
ATOM     29  C   UNL A   1      35.079  17.640  24.327  1.00  0.00     0.000 A 
ATOM     30  C   UNL A   1      34.475  16.742  23.451  1.00  0.00     0.000 A 
ENDBRANCH  24  25
ENDBRANCH  23  24
ENDBRANCH  20  23
ENDBRANCH  18  19
ENDBRANCH  15  18
ENDBRANCH  12  14
ENDBRANCH   9  12
ENDBRANCH   4   8
ENDBRANCH   2   4
ENDBRANCH   1   2
BRANCH   1  31
ATOM     31  C   UNL A   1      36.300  22.990  24.446  1.00  0.00     0.261 C 
BRANCH  31  32
ATOM     32  C   UNL A   1      37.459  23.226  25.416  1.00  0.00     0.202 C 
BRANCH  32  33
ATOM     33  O   UNL A   1      38.392  22.182  25.642  1.00  0.00    -0.374 OA
BRANCH  33  34
ATOM     34  C   UNL A   1      38.052  20.835  25.326  1.00  0.00     0.202 C 
BRANCH  34  35
ATOM     35  C   UNL A   1      39.028  19.695  25.641  1.00  0.00     0.261 C 
BRANCH  35  36
ATOM     36  O   UNL A   1      40.365  19.905  25.155  1.00  0.00    -0.460 OA
BRANCH  36  37
ATOM     37  C   UNL A   1      41.336  19.613  26.058  1.00  0.00     0.338 C 
ATOM     38  O   UNL A   1      41.641  18.516  26.494  1.00  0.00    -0.246 OA
BRANCH  37  39
ATOM     39  C   UNL A   1      42.118  20.814  26.375  1.00  0.00     0.060 A 
ATOM     40  C   UNL A   1      42.370  21.114  27.720  1.00  0.00     0.016 A 
ATOM     41  C   UNL A   1      42.454  21.714  25.365  1.00  0.00     0.016 A 
ATOM     42  C   UNL A   1      42.946  22.335  28.063  1.00  0.00     0.010 A 
ATOM     43  C   UNL A   1      43.022  22.942  25.712  1.00  0.00     0.010 A 
ATOM     44  C   UNL A   1      43.247  23.267  27.062  1.00  0.00    -0.014 A 
BRANCH  44  45
ATOM     45  C   UNL A   1      43.710  24.627  27.423  1.00  0.00     0.031 A 
ATOM     46  C   UNL A   1      42.721  25.630  27.941  1.00  0.00     0.074 A 
ATOM     47  C   UNL A   1      45.004  24.960  27.274  1.00  0.00     0.049 A 
ATOM     48  N   UNL A   1      42.885  26.901  28.202  1.00  0.00    -0.248 NA
ATOM     49  C   UNL A   1      41.362  25.131  28.199  1.00  0.00     0.031 C 
ATOM     50  C   UNL A   1      46.061  24.052  26.836  1.00  0.00     0.029 A 
ATOM     51  N   UNL A   1      45.641  26.160  27.460  1.00  0.00    -0.354 N 
ATOM     52  C   UNL A   1      41.651  27.359  28.643  1.00  0.00     0.074 A 
ATOM     53  C   UNL A   1      40.740  26.234  28.589  1.00  0.00     0.031 C 
ATOM     54  C   UNL A   1      47.217  24.733  26.770  1.00  0.00     0.029 A 
ATOM     55  C   UNL A   1      46.968  26.131  27.112  1.00  0.00     0.049 A 
ATOM     56  H   UNL A   1      45.190  26.963  27.808  1.00  0.00     0.167 HD
ATOM     57  C   UNL A   1      41.314  28.603  29.060  1.00  0.00     0.037 A 
ATOM     58  C   UNL A   1      47.867  27.131  27.042  1.00  0.00     0.037 A 
ATOM     59  C   UNL A   1      42.228  29.716  29.097  1.00  0.00     0.049 A 
ATOM     60  C   UNL A   1      47.438  28.532  27.397  1.00  0.00     0.074 A 
ATOM     61  C   UNL A   1      41.992  31.015  29.512  1.00  0.00     0.029 A 
ATOM     62  N   UNL A   1      43.554  29.662  28.690  1.00  0.00    -0.354 N 
ATOM     63  N   UNL A   1      46.276  28.958  27.829  1.00  0.00    -0.248 NA
ATOM     64  C   UNL A   1      48.446  29.590  27.247  1.00  0.00     0.031 C 
ATOM     65  C   UNL A   1      43.155  31.761  29.295  1.00  0.00     0.029 A 
ATOM     66  C   UNL A   1      44.137  30.913  28.807  1.00  0.00     0.049 A 
ATOM     67  H   UNL A   1      44.012  28.854  28.364  1.00  0.00     0.167 HD
ATOM     68  C   UNL A   1      46.420  30.325  28.031  1.00  0.00     0.074 A 
ATOM     69  C   UNL A   1      47.787  30.655  27.685  1.00  0.00     0.031 C 
ATOM     70  C   UNL A   1      45.503  31.225  28.464  1.00  0.00     0.037 A 
BRANCH  57  71
ATOM     71  C   UNL A   1      39.888  28.834  29.473  1.00  0.00     0.064 A 
ATOM     72  C   UNL A   1      38.908  29.243  28.555  1.00  0.00     0.173 A 
ATOM     73  C   UNL A   1      39.490  28.621  30.801  1.00  0.00     0.173 A 
ATOM     74  F   UNL A   1      39.235  29.471  27.274  1.00  0.00    -0.203 F 
ATOM     75  C   UNL A   1      37.593  29.465  28.961  1.00  0.00     0.198 A 
ATOM     76  C   UNL A   1      38.168  28.811  31.196  1.00  0.00     0.198 A 
ATOM     77  F   UNL A   1      40.383  28.222  31.720  1.00  0.00    -0.203 F 
ATOM     78  F   UNL A   1      36.688  29.911  28.077  1.00  0.00    -0.200 F 
ATOM     79  C   UNL A   1      37.224  29.244  30.278  1.00  0.00     0.200 A 
ATOM     80  F   UNL A   1      37.809  28.580  32.466  1.00  0.00    -0.200 F 
ATOM     81  F   UNL A   1      35.958  29.454  30.665  1.00  0.00    -0.200 F 
ENDBRANCH  57  71
BRANCH  58  82
ATOM     82  C   UNL A   1      49.258  26.848  26.600  1.00  0.00     0.064 A 
ATOM     83  C   UNL A   1      49.628  26.998  25.258  1.00  0.00     0.173 A 
ATOM     84  C   UNL A   1      50.240  26.418  27.504  1.00  0.00     0.173 A 
ATOM     85  F   UNL A   1      48.718  27.384  24.351  1.00  0.00    -0.203 F 
ATOM     86  C   UNL A   1      50.925  26.714  24.833  1.00  0.00     0.198 A 
ATOM     87  C   UNL A   1      51.544  26.164  27.084  1.00  0.00     0.198 A 
ATOM     88  F   UNL A   1      49.937  26.258  28.801  1.00  0.00    -0.203 F 
ATOM     89  F   UNL A   1      51.241  26.824  23.535  1.00  0.00    -0.200 F 
ATOM     90  C   UNL A   1      51.883  26.305  25.748  1.00  0.00     0.200 A 
ATOM     91  F   UNL A   1      52.470  25.783  27.974  1.00  0.00    -0.200 F 
ATOM     92  F   UNL A   1      53.132  26.041  25.339  1.00  0.00    -0.200 F 
ENDBRANCH  58  82
BRANCH  70  93
ATOM     93  C   UNL A   1      45.954  32.650  28.627  1.00  0.00     0.064 A 
ATOM     94  C   UNL A   1      46.573  33.099  29.802  1.00  0.00     0.173 A 
ATOM     95  C   UNL A   1      45.816  33.562  27.569  1.00  0.00     0.173 A 
ATOM     96  F   UNL A   1      46.714  32.271  30.848  1.00  0.00    -0.203 F 
ATOM     97  C   UNL A   1      47.020  34.412  29.920  1.00  0.00     0.198 A 
ATOM     98  C   UNL A   1      46.294  34.865  27.678  1.00  0.00     0.198 A 
ATOM     99  F   UNL A   1      45.236  33.183  26.420  1.00  0.00    -0.203 F 
ATOM    100  F   UNL A   1      47.568  34.831  31.069  1.00  0.00    -0.200 F 
ATOM    101  C   UNL A   1      46.889  35.291  28.855  1.00  0.00     0.200 A 
ATOM    102  F   UNL A   1      46.181  35.708  26.641  1.00  0.00    -0.200 F 
ATOM    103  F   UNL A   1      47.333  36.550  28.965  1.00  0.00    -0.200 F 
ENDBRANCH  70  93
ENDBRANCH  44  45
ENDBRANCH  37  39
ENDBRANCH  36  37
ENDBRANCH  35  36
ENDBRANCH  34  35
ENDBRANCH  33  34
ENDBRANCH  32  33
ENDBRANCH  31  32
ENDBRANCH   1  31
TORSDOF 23
ENDMDL
MODEL 2
REMARK VINA RESULT:     -10.2      4.704      8.079
REMARK SMILES CC(C)[C@H](NC(=O)[C@H](C)NC(=O)CNC(=O)OCc1ccccc1)C(=O)OCCOCCOC(=O)c1ccc(-c2c3nc(c(-c4c(F)c(F)c(F)c(F)c4F)c4ccc([nH]4)c(-c4c(F)c(F)c(F)c(F)c4F)c4nc(c(-c5c(F)c(F)c(F)c(F)c5F)c5ccc2[nH]5)C=C4)C=C3)cc1
REMARK SMILES IDX 27 1 25 2 26 3 4 4 2 5 1 6 3 7 5 8 6 9 7 11 8 12 9 13 10 14
REMARK SMILES IDX 11 15 12 17 13 18 14 19 15 20 16 22 17 23 18 24 19 25 20 26
REMARK SMILES IDX 24 27 21 28 23 29 22 30 28 31 29 32 30 33 31 34 32 35 33 36
REMARK SMILES IDX 34 37 35 38 36 39 37 40 98 41 38 42 97 43 39 44 40 45 41 46
REMARK SMILES IDX 91 47 42 48 96 49 90 50 92 51 43 52 95 53 89 54 88 55 44 57
REMARK SMILES IDX 76 58 56 59 75 60 57 61 60 62 74 63 93 64 58 65 59 66 73 68
REMARK SMILES IDX 94 69 61 70 45 71 46 72 54 73 47 74 48 75 52 76 55 77 49 78
REMARK SMILES IDX 50 79 53 80 51 81 77 82 78 83 86 84 79 85 80 86 84 87 87 88
REMARK SMILES IDX 81 89 82 90 85 91 83 92 62 93 63 94 71 95 64 96 65 97 69 98
REMARK SMILES IDX 72 99 66 100 67 101 70 102 68 103
REMARK H PARENT 5 10 10 16 14 21 92 56 60 67
REMARK Flexibility Score: inf
ROOT
ATOM      1  O   UNL A   1      38.569  23.236  26.502  1.00  0.00    -0.462 OA
ENDROOT
BRANCH   1   2
ATOM      2  C   UNL A   1      37.318  23.194  25.950  1.00  0.00     0.328 C 
ATOM      3  O   UNL A   1      36.691  24.173  25.564  1.00  0.00    -0.250 OA
BRANCH   2   4
ATOM      4  C   UNL A   1      36.708  21.795  26.074  1.00  0.00     0.194 C 
BRANCH   4   5
ATOM      5  C   UNL A   1      36.485  21.321  24.628  1.00  0.00     0.017 C 
ATOM      6  C   UNL A   1      36.951  22.299  23.547  1.00  0.00     0.010 C 
ATOM      7  C   UNL A   1      37.139  19.955  24.383  1.00  0.00     0.010 C 
ENDBRANCH   4   5
BRANCH   4   8
ATOM      8  N   UNL A   1      35.495  21.770  26.917  1.00  0.00    -0.341 N 
ATOM      9  C   UNL A   1      34.176  21.962  26.595  1.00  0.00     0.242 C 
ATOM     10  H   UNL A   1      35.663  21.585  27.870  1.00  0.00     0.164 HD
ATOM     11  O   UNL A   1      33.336  21.520  27.384  1.00  0.00    -0.273 OA
BRANCH   9  12
ATOM     12  C   UNL A   1      33.770  22.814  25.366  1.00  0.00     0.168 C 
ATOM     13  C   UNL A   1      33.094  24.125  25.773  1.00  0.00     0.041 C 
BRANCH  12  14
ATOM     14  N   UNL A   1      32.932  22.115  24.404  1.00  0.00    -0.343 N 
ATOM     15  C   UNL A   1      32.714  22.368  23.082  1.00  0.00     0.240 C 
ATOM     16  H   UNL A   1      32.447  21.337  24.764  1.00  0.00     0.164 HD
ATOM     17  O   UNL A   1      31.882  21.654  22.513  1.00  0.00    -0.273 OA
BRANCH  15  18
ATOM     18  C   UNL A   1      33.569  23.360  22.267  1.00  0.00     0.219 C 
BRANCH  18  19
ATOM     19  N   UNL A   1      32.896  24.150  21.254  1.00  0.00    -0.312 N 
ATOM     20  C   UNL A   1      32.469  25.444  21.319  1.00  0.00     0.407 C 
ATOM     21  H   UNL A   1      32.724  23.689  20.401  1.00  0.00     0.167 HD
ATOM     22  O   UNL A   1      31.873  25.953  20.377  1.00  0.00    -0.225 OA
BRANCH  20  23
ATOM     23  O   UNL A   1      32.695  26.044  22.512  1.00  0.00    -0.445 OA
BRANCH  23  24
ATOM     24  C   UNL A   1      31.561  26.675  23.139  1.00  0.00     0.270 C 
BRANCH  24  25
ATOM     25  C   UNL A   1      31.949  27.201  24.494  1.00  0.00    -0.011 A 
ATOM     26  C   UNL A   1      33.277  27.570  24.732  1.00  0.00     0.007 A 
ATOM     27  C   UNL A   1      31.030  27.271  25.550  1.00  0.00     0.007 A 
ATOM     28  C   UNL A   1      33.689  27.947  26.007  1.00  0.00     0.000 A 
ATOM     29  C   UNL A   1      31.445  27.632  26.831  1.00  0.00     0.000 A 
ATOM     30  C   UNL A   1      32.778  27.959  27.061  1.00  0.00     0.000 A 
ENDBRANCH  24  25
ENDBRANCH  23  24
ENDBRANCH  20  23
ENDBRANCH  18  19
ENDBRANCH  15  18
ENDBRANCH  12  14
ENDBRANCH   9  12
ENDBRANCH   4   8
ENDBRANCH   2   4
ENDBRANCH   1   2
BRANCH   1  31
ATOM     31  C   UNL A   1      39.369  22.097  26.178  1.00  0.00     0.261 C 
BRANCH  31  32
ATOM     32  C   UNL A   1      40.862  22.277  26.457  1.00  0.00     0.202 C 
BRANCH  32  33
ATOM     33  O   UNL A   1      41.800  21.895  25.464  1.00  0.00    -0.374 OA
BRANCH  33  34
ATOM     34  C   UNL A   1      43.175  22.237  25.607  1.00  0.00     0.202 C 
BRANCH  34  35
ATOM     35  C   UNL A   1      43.797  23.332  24.731  1.00  0.00     0.261 C 
BRANCH  35  36
ATOM     36  O   UNL A   1      43.073  24.574  24.726  1.00  0.00    -0.460 OA
BRANCH  36  37
ATOM     37  C   UNL A   1      43.790  25.636  25.172  1.00  0.00     0.338 C 
ATOM     38  O   UNL A   1      44.857  26.045  24.747  1.00  0.00    -0.246 OA
BRANCH  37  39
ATOM     39  C   UNL A   1      43.038  26.368  26.198  1.00  0.00     0.060 A 
ATOM     40  C   UNL A   1      43.467  27.653  26.556  1.00  0.00     0.016 A 
ATOM     41  C   UNL A   1      42.024  25.728  26.910  1.00  0.00     0.016 A 
ATOM     42  C   UNL A   1      42.893  28.298  27.648  1.00  0.00     0.010 A 
ATOM     43  C   UNL A   1      41.457  26.373  28.011  1.00  0.00     0.010 A 
ATOM     44  C   UNL A   1      41.905  27.648  28.399  1.00  0.00    -0.014 A 
BRANCH  44  45
ATOM     45  C   UNL A   1      41.400  28.255  29.653  1.00  0.00     0.031 A 
ATOM     46  C   UNL A   1      40.188  29.140  29.608  1.00  0.00     0.074 A 
ATOM     47  C   UNL A   1      42.032  28.023  30.816  1.00  0.00     0.049 A 
ATOM     48  N   UNL A   1      39.652  29.862  30.557  1.00  0.00    -0.248 NA
ATOM     49  C   UNL A   1      39.488  29.221  28.318  1.00  0.00     0.031 C 
ATOM     50  C   UNL A   1      43.180  27.136  30.987  1.00  0.00     0.029 A 
ATOM     51  N   UNL A   1      41.804  28.530  32.069  1.00  0.00    -0.354 N 
ATOM     52  C   UNL A   1      38.559  30.494  29.979  1.00  0.00     0.074 A 
ATOM     53  C   UNL A   1      38.525  30.089  28.589  1.00  0.00     0.031 C 
ATOM     54  C   UNL A   1      43.569  27.173  32.272  1.00  0.00     0.029 A 
ATOM     55  C   UNL A   1      42.729  28.123  32.998  1.00  0.00     0.049 A 
ATOM     56  H   UNL A   1      41.051  29.127  32.282  1.00  0.00     0.167 HD
ATOM     57  C   UNL A   1      37.665  31.329  30.560  1.00  0.00     0.037 A 
ATOM     58  C   UNL A   1      42.899  28.508  34.277  1.00  0.00     0.037 A 
ATOM     59  C   UNL A   1      37.718  31.733  31.942  1.00  0.00     0.049 A 
ATOM     60  C   UNL A   1      41.962  29.529  34.868  1.00  0.00     0.074 A 
ATOM     61  C   UNL A   1      36.855  32.565  32.633  1.00  0.00     0.029 A 
ATOM     62  N   UNL A   1      38.699  31.340  32.841  1.00  0.00    -0.354 N 
ATOM     63  N   UNL A   1      40.921  30.112  34.325  1.00  0.00    -0.248 NA
ATOM     64  C   UNL A   1      42.231  29.952  36.250  1.00  0.00     0.031 C 
ATOM     65  C   UNL A   1      37.351  32.728  33.931  1.00  0.00     0.029 A 
ATOM     66  C   UNL A   1      38.485  31.944  34.070  1.00  0.00     0.049 A 
ATOM     67  H   UNL A   1      39.439  30.723  32.636  1.00  0.00     0.167 HD
ATOM     68  C   UNL A   1      40.393  30.944  35.303  1.00  0.00     0.074 A 
ATOM     69  C   UNL A   1      41.223  30.782  36.479  1.00  0.00     0.031 C 
ATOM     70  C   UNL A   1      39.318  31.768  35.234  1.00  0.00     0.037 A 
BRANCH  57  71
ATOM     71  C   UNL A   1      36.575  31.892  29.691  1.00  0.00     0.064 A 
ATOM     72  C   UNL A   1      36.571  33.235  29.285  1.00  0.00     0.173 A 
ATOM     73  C   UNL A   1      35.531  31.070  29.239  1.00  0.00     0.173 A 
ATOM     74  F   UNL A   1      37.539  34.068  29.695  1.00  0.00    -0.203 F 
ATOM     75  C   UNL A   1      35.544  33.741  28.490  1.00  0.00     0.198 A 
ATOM     76  C   UNL A   1      34.525  31.571  28.418  1.00  0.00     0.198 A 
ATOM     77  F   UNL A   1      35.489  29.776  29.590  1.00  0.00    -0.203 F 
ATOM     78  F   UNL A   1      35.532  35.041  28.163  1.00  0.00    -0.200 F 
ATOM     79  C   UNL A   1      34.526  32.908  28.053  1.00  0.00     0.200 A 
ATOM     80  F   UNL A   1      33.551  30.759  27.983  1.00  0.00    -0.200 F 
ATOM     81  F   UNL A   1      33.541  33.396  27.286  1.00  0.00    -0.200 F 
ENDBRANCH  57  71
BRANCH  58  82
ATOM     82  C   UNL A   1      44.012  27.937  35.081  1.00  0.00     0.064 A 
ATOM     83  C   UNL A   1      45.273  28.547  35.094  1.00  0.00     0.173 A 
ATOM     84  C   UNL A   1      43.842  26.773  35.844  1.00  0.00     0.173 A 
ATOM     85  F   UNL A   1      45.491  29.649  34.360  1.00  0.00    -0.203 F 
ATOM     86  C   UNL A   1      46.326  28.006  35.828  1.00  0.00     0.198 A 
ATOM     87  C   UNL A   1      44.887  26.250  36.603  1.00  0.00     0.198 A 
ATOM     88  F   UNL A   1      42.654  26.150  35.866  1.00  0.00    -0.203 F 
ATOM     89  F   UNL A   1      47.534  28.585  35.788  1.00  0.00    -0.200 F 
ATOM     90  C   UNL A   1      46.130  26.863  36.588  1.00  0.00     0.200 A 
ATOM     91  F   UNL A   1      44.689  25.153  37.347  1.00  0.00    -0.200 F 
ATOM     92  F   UNL A   1      47.142  26.348  37.301  1.00  0.00    -0.200 F 
ENDBRANCH  58  82
BRANCH  70  93
ATOM     93  C   UNL A   1      38.950  32.532  36.475  1.00  0.00     0.064 A 
ATOM     94  C   UNL A   1      38.091  31.995  37.446  1.00  0.00     0.173 A 
ATOM     95  C   UNL A   1      39.510  33.795  36.723  1.00  0.00     0.173 A 
ATOM     96  F   UNL A   1      37.517  30.798  37.250  1.00  0.00    -0.203 F 
ATOM     97  C   UNL A   1      37.793  32.701  38.608  1.00  0.00     0.198 A 
ATOM     98  C   UNL A   1      39.236  34.483  37.901  1.00  0.00     0.198 A 
ATOM     99  F   UNL A   1      40.342  34.352  35.830  1.00  0.00    -0.203 F 
ATOM    100  F   UNL A   1      36.935  32.187  39.500  1.00  0.00    -0.200 F 
ATOM    101  C   UNL A   1      38.373  33.939  38.839  1.00  0.00     0.200 A 
ATOM    102  F   UNL A   1      39.810  35.673  38.130  1.00  0.00    -0.200 F 
ATOM    103  F   UNL A   1      38.096  34.611  39.965  1.00  0.00    -0.200 F 
ENDBRANCH  70  93
ENDBRANCH  44  45
ENDBRANCH  37  39
ENDBRANCH  36  37
ENDBRANCH  35  36
ENDBRANCH  34  35
ENDBRANCH  33  34
ENDBRANCH  32  33
ENDBRANCH  31  32
ENDBRANCH   1  31
TORSDOF 23
ENDMDL
MODEL 3
REMARK VINA RESULT:     -10.1      4.506      9.371
REMARK SMILES CC(C)[C@H](NC(=O)[C@H](C)NC(=O)CNC(=O)OCc1ccccc1)C(=O)OCCOCCOC(=O)c1ccc(-c2c3nc(c(-c4c(F)c(F)c(F)c(F)c4F)c4ccc([nH]4)c(-c4c(F)c(F)c(F)c(F)c4F)c4nc(c(-c5c(F)c(F)c(F)c(F)c5F)c5ccc2[nH]5)C=C4)C=C3)cc1
REMARK SMILES IDX 27 1 25 2 26 3 4 4 2 5 1 6 3 7 5 8 6 9 7 11 8 12 9 13 10 14
REMARK SMILES IDX 11 15 12 17 13 18 14 19 15 20 16 22 17 23 18 24 19 25 20 26
REMARK SMILES IDX 24 27 21 28 23 29 22 30 28 31 29 32 30 33 31 34 32 35 33 36
REMARK SMILES IDX 34 37 35 38 36 39 37 40 98 41 38 42 97 43 39 44 40 45 41 46
REMARK SMILES IDX 91 47 42 48 96 49 90 50 92 51 43 52 95 53 89 54 88 55 44 57
REMARK SMILES IDX 76 58 56 59 75 60 57 61 60 62 74 63 93 64 58 65 59 66 73 68
REMARK SMILES IDX 94 69 61 70 45 71 46 72 54 73 47 74 48 75 52 76 55 77 49 78
REMARK SMILES IDX 50 79 53 80 51 81 77 82 78 83 86 84 79 85 80 86 84 87 87 88
REMARK SMILES IDX 81 89 82 90 85 91 83 92 62 93 63 94 71 95 64 96 65 97 69 98
REMARK SMILES IDX 72 99 66 100 67 101 70 102 68 103
REMARK H PARENT 5 10 10 16 14 21 92 56 60 67
REMARK Flexibility Score: inf
ROOT
ATOM      1  O   UNL A   1      38.351  23.031  26.556  1.00  0.00    -0.462 OA
ENDROOT
BRANCH   1   2
ATOM      2  C   UNL A   1      37.115  23.282  26.026  1.00  0.00     0.328 C 
ATOM      3  O   UNL A   1      36.750  24.366  25.589  1.00  0.00    -0.250 OA
BRANCH   2   4
ATOM      4  C   UNL A   1      36.169  22.097  26.245  1.00  0.00     0.194 C 
BRANCH   4   5
ATOM      5  C   UNL A   1      35.607  21.766  24.852  1.00  0.00     0.017 C 
ATOM      6  C   UNL A   1      36.539  22.089  23.683  1.00  0.00     0.010 C 
ATOM      7  C   UNL A   1      35.178  20.296  24.760  1.00  0.00     0.010 C 
ENDBRANCH   4   5
BRANCH   4   8
ATOM      8  N   UNL A   1      35.141  22.365  27.270  1.00  0.00    -0.341 N 
ATOM      9  C   UNL A   1      33.852  22.815  27.150  1.00  0.00     0.242 C 
ATOM     10  H   UNL A   1      35.431  22.192  28.196  1.00  0.00     0.164 HD
ATOM     11  O   UNL A   1      33.089  22.596  28.095  1.00  0.00    -0.273 OA
BRANCH   9  12
ATOM     12  C   UNL A   1      33.417  23.678  25.937  1.00  0.00     0.168 C 
ATOM     13  C   UNL A   1      32.843  25.030  26.369  1.00  0.00     0.041 C 
BRANCH  12  14
ATOM     14  N   UNL A   1      32.481  23.019  25.039  1.00  0.00    -0.343 N 
ATOM     15  C   UNL A   1      32.303  23.165  23.696  1.00  0.00     0.240 C 
ATOM     16  H   UNL A   1      31.882  22.366  25.469  1.00  0.00     0.164 HD
ATOM     17  O   UNL A   1      31.371  22.531  23.189  1.00  0.00    -0.273 OA
BRANCH  15  18
ATOM     18  C   UNL A   1      33.299  23.926  22.796  1.00  0.00     0.219 C 
BRANCH  18  19
ATOM     19  N   UNL A   1      32.784  24.524  21.580  1.00  0.00    -0.312 N 
ATOM     20  C   UNL A   1      32.108  25.698  21.421  1.00  0.00     0.407 C 
ATOM     21  H   UNL A   1      32.944  24.011  20.754  1.00  0.00     0.167 HD
ATOM     22  O   UNL A   1      31.702  26.039  20.317  1.00  0.00    -0.225 OA
BRANCH  20  23
ATOM     23  O   UNL A   1      31.880  26.367  22.576  1.00  0.00    -0.445 OA
BRANCH  23  24
ATOM     24  C   UNL A   1      30.547  26.279  23.117  1.00  0.00     0.270 C 
BRANCH  24  25
ATOM     25  C   UNL A   1      29.839  27.597  22.959  1.00  0.00    -0.011 A 
ATOM     26  C   UNL A   1      28.496  27.703  23.336  1.00  0.00     0.007 A 
ATOM     27  C   UNL A   1      30.468  28.708  22.381  1.00  0.00     0.007 A 
ATOM     28  C   UNL A   1      27.784  28.874  23.092  1.00  0.00     0.000 A 
ATOM     29  C   UNL A   1      29.751  29.875  22.120  1.00  0.00     0.000 A 
ATOM     30  C   UNL A   1      28.404  29.953  22.466  1.00  0.00     0.000 A 
ENDBRANCH  24  25
ENDBRANCH  23  24
ENDBRANCH  20  23
ENDBRANCH  18  19
ENDBRANCH  15  18
ENDBRANCH  12  14
ENDBRANCH   9  12
ENDBRANCH   4   8
ENDBRANCH   2   4
ENDBRANCH   1   2
BRANCH   1  31
ATOM     31  C   UNL A   1      38.975  21.867  26.011  1.00  0.00     0.261 C 
BRANCH  31  32
ATOM     32  C   UNL A   1      40.140  21.329  26.841  1.00  0.00     0.202 C 
BRANCH  32  33
ATOM     33  O   UNL A   1      41.064  20.437  26.239  1.00  0.00    -0.374 OA
BRANCH  33  34
ATOM     34  C   UNL A   1      42.463  20.616  26.429  1.00  0.00     0.202 C 
BRANCH  34  35
ATOM     35  C   UNL A   1      43.263  21.528  25.492  1.00  0.00     0.261 C 
BRANCH  35  36
ATOM     36  O   UNL A   1      42.688  22.832  25.295  1.00  0.00    -0.460 OA
BRANCH  36  37
ATOM     37  C   UNL A   1      43.590  23.845  25.313  1.00  0.00     0.338 C 
ATOM     38  O   UNL A   1      44.381  24.154  24.438  1.00  0.00    -0.246 OA
BRANCH  37  39
ATOM     39  C   UNL A   1      43.415  24.665  26.518  1.00  0.00     0.060 A 
ATOM     40  C   UNL A   1      42.463  24.268  27.466  1.00  0.00     0.016 A 
ATOM     41  C   UNL A   1      44.064  25.894  26.626  1.00  0.00     0.016 A 
ATOM     42  C   UNL A   1      42.141  25.116  28.524  1.00  0.00     0.010 A 
ATOM     43  C   UNL A   1      43.733  26.746  27.682  1.00  0.00     0.010 A 
ATOM     44  C   UNL A   1      42.753  26.372  28.620  1.00  0.00    -0.014 A 
BRANCH  44  45
ATOM     45  C   UNL A   1      42.307  27.344  29.644  1.00  0.00     0.031 A 
ATOM     46  C   UNL A   1      43.045  27.434  30.948  1.00  0.00     0.074 A 
ATOM     47  C   UNL A   1      41.241  28.128  29.409  1.00  0.00     0.049 A 
ATOM     48  N   UNL A   1      42.756  28.123  32.021  1.00  0.00    -0.248 NA
ATOM     49  C   UNL A   1      44.276  26.637  31.055  1.00  0.00     0.031 C 
ATOM     50  C   UNL A   1      40.485  28.169  28.160  1.00  0.00     0.029 A 
ATOM     51  N   UNL A   1      40.602  29.029  30.222  1.00  0.00    -0.354 N 
ATOM     52  C   UNL A   1      43.760  27.836  32.936  1.00  0.00     0.074 A 
ATOM     53  C   UNL A   1      44.652  26.888  32.300  1.00  0.00     0.031 C 
ATOM     54  C   UNL A   1      39.471  29.039  28.295  1.00  0.00     0.029 A 
ATOM     55  C   UNL A   1      39.479  29.576  29.653  1.00  0.00     0.049 A 
ATOM     56  H   UNL A   1      40.918  29.260  31.126  1.00  0.00     0.167 HD
ATOM     57  C   UNL A   1      43.922  28.325  34.189  1.00  0.00     0.037 A 
ATOM     58  C   UNL A   1      38.545  30.386  30.186  1.00  0.00     0.037 A 
ATOM     59  C   UNL A   1      43.020  29.259  34.813  1.00  0.00     0.049 A 
ATOM     60  C   UNL A   1      38.684  30.823  31.622  1.00  0.00     0.074 A 
ATOM     61  C   UNL A   1      43.098  29.825  36.073  1.00  0.00     0.029 A 
ATOM     62  N   UNL A   1      41.865  29.753  34.225  1.00  0.00    -0.354 N 
ATOM     63  N   UNL A   1      39.642  30.564  32.479  1.00  0.00    -0.248 NA
ATOM     64  C   UNL A   1      37.606  31.661  32.165  1.00  0.00     0.031 C 
ATOM     65  C   UNL A   1      41.957  30.610  36.271  1.00  0.00     0.029 A 
ATOM     66  C   UNL A   1      41.201  30.587  35.110  1.00  0.00     0.049 A 
ATOM     67  H   UNL A   1      41.561  29.542  33.312  1.00  0.00     0.167 HD
ATOM     68  C   UNL A   1      39.299  31.228  33.649  1.00  0.00     0.074 A 
ATOM     69  C   UNL A   1      38.050  31.913  33.389  1.00  0.00     0.031 C 
ATOM     70  C   UNL A   1      39.960  31.268  34.833  1.00  0.00     0.037 A 
BRANCH  57  71
ATOM     71  C   UNL A   1      45.099  27.829  34.980  1.00  0.00     0.064 A 
ATOM     72  C   UNL A   1      46.355  28.453  34.911  1.00  0.00     0.173 A 
ATOM     73  C   UNL A   1      44.965  26.726  35.838  1.00  0.00     0.173 A 
ATOM     74  F   UNL A   1      46.542  29.505  34.100  1.00  0.00    -0.203 F 
ATOM     75  C   UNL A   1      47.438  27.970  35.642  1.00  0.00     0.198 A 
ATOM     76  C   UNL A   1      46.041  26.267  36.593  1.00  0.00     0.198 A 
ATOM     77  F   UNL A   1      43.786  26.096  35.949  1.00  0.00    -0.203 F 
ATOM     78  F   UNL A   1      48.641  28.548  35.515  1.00  0.00    -0.200 F 
ATOM     79  C   UNL A   1      47.279  26.882  36.486  1.00  0.00     0.200 A 
ATOM     80  F   UNL A   1      45.880  25.225  37.420  1.00  0.00    -0.200 F 
ATOM     81  F   UNL A   1      48.321  26.420  37.191  1.00  0.00    -0.200 F 
ENDBRANCH  57  71
BRANCH  58  82
ATOM     82  C   UNL A   1      37.387  30.823  29.364  1.00  0.00     0.064 A 
ATOM     83  C   UNL A   1      36.346  29.936  29.063  1.00  0.00     0.173 A 
ATOM     84  C   UNL A   1      37.299  32.129  28.858  1.00  0.00     0.173 A 
ATOM     85  F   UNL A   1      36.397  28.670  29.503  1.00  0.00    -0.203 F 
ATOM     86  C   UNL A   1      35.267  30.332  28.275  1.00  0.00     0.198 A 
ATOM     87  C   UNL A   1      36.205  32.534  28.097  1.00  0.00     0.198 A 
ATOM     88  F   UNL A   1      38.269  33.018  29.117  1.00  0.00    -0.203 F 
ATOM     89  F   UNL A   1      34.307  29.451  27.966  1.00  0.00    -0.200 F 
ATOM     90  C   UNL A   1      35.194  31.633  27.799  1.00  0.00     0.200 A 
ATOM     91  F   UNL A   1      36.131  33.795  27.650  1.00  0.00    -0.200 F 
ATOM     92  F   UNL A   1      34.151  32.015  27.048  1.00  0.00    -0.200 F 
ENDBRANCH  58  82
BRANCH  70  93
ATOM     93  C   UNL A   1      39.368  32.108  35.929  1.00  0.00     0.064 A 
ATOM     94  C   UNL A   1      38.425  31.590  36.829  1.00  0.00     0.173 A 
ATOM     95  C   UNL A   1      39.793  33.433  36.116  1.00  0.00     0.173 A 
ATOM     96  F   UNL A   1      37.973  30.335  36.685  1.00  0.00    -0.203 F 
ATOM     97  C   UNL A   1      37.916  32.372  37.863  1.00  0.00     0.198 A 
ATOM     98  C   UNL A   1      39.307  34.200  37.171  1.00  0.00     0.198 A 
ATOM     99  F   UNL A   1      40.697  33.976  35.287  1.00  0.00    -0.203 F 
ATOM    100  F   UNL A   1      36.983  31.869  38.683  1.00  0.00    -0.200 F 
ATOM    101  C   UNL A   1      38.365  33.672  38.039  1.00  0.00     0.200 A 
ATOM    102  F   UNL A   1      39.755  35.452  37.349  1.00  0.00    -0.200 F 
ATOM    103  F   UNL A   1      37.885  34.418  39.044  1.00  0.00    -0.200 F 
ENDBRANCH  70  93
ENDBRANCH  44  45
ENDBRANCH  37  39
ENDBRANCH  36  37
ENDBRANCH  35  36
ENDBRANCH  34  35
ENDBRANCH  33  34
ENDBRANCH  32  33
ENDBRANCH  31  32
ENDBRANCH   1  31
TORSDOF 23
ENDMDL
