MODEL 1
REMARK VINA RESULT:     -10.3      0.000      0.000
REMARK SMILES COc1ccc2cc([C@H](C)C(=O)OCCOCCOC(=O)c3ccc(-c4c5nc(c(-c6c(F)c(F)c(F)c(F)c6F)c6ccc([nH]6)c(-c6c(F)c(F)c(F)c(F)c6F)c6nc(c(-c7c(F)c(F)c(F)c(F)c7F)c7ccc4[nH]7)C=C6)C=C5)cc3)ccc2c1
REMARK SMILES IDX 16 1 15 2 14 3 13 4 11 5 12 6 9 7 10 8 8 9 3 10 4 11 88 12
REMARK SMILES IDX 5 13 87 14 6 15 86 16 7 17 85 18 2 19 1 20 17 21 18 22 19 23
REMARK SMILES IDX 20 24 21 25 22 26 23 27 84 28 24 29 83 30 25 31 26 32 27 33
REMARK SMILES IDX 77 34 28 35 82 36 76 37 78 38 29 39 81 40 75 41 74 42 30 44
REMARK SMILES IDX 62 45 42 46 61 47 43 48 46 49 60 50 79 51 44 52 45 53 59 55
REMARK SMILES IDX 80 56 47 57 31 58 32 59 40 60 33 61 34 62 38 63 41 64 35 65
REMARK SMILES IDX 36 66 39 67 37 68 63 69 64 70 72 71 65 72 66 73 70 74 73 75
REMARK SMILES IDX 67 76 68 77 71 78 69 79 48 80 49 81 57 82 50 83 51 84 55 85
REMARK SMILES IDX 58 86 52 87 53 88 56 89 54 90
REMARK H PARENT 78 43 46 54
REMARK Flexibility Score: inf
ROOT
ATOM      1  O   UNL A   1      32.587  36.028  29.075  1.00  0.00    -0.374 OA
ENDROOT
BRANCH   1   2
ATOM      2  C   UNL A   1      33.054  36.821  30.165  1.00  0.00     0.202 C 
BRANCH   2   3
ATOM      3  C   UNL A   1      32.596  36.418  31.569  1.00  0.00     0.261 C 
BRANCH   3   4
ATOM      4  O   UNL A   1      33.358  35.319  32.096  1.00  0.00    -0.463 OA
BRANCH   4   5
ATOM      5  C   UNL A   1      34.330  35.655  32.990  1.00  0.00     0.313 C 
ATOM      6  O   UNL A   1      34.641  36.803  33.289  1.00  0.00    -0.252 OA
BRANCH   5   7
ATOM      7  C   UNL A   1      35.040  34.431  33.565  1.00  0.00     0.126 C 
ATOM      8  C   UNL A   1      34.372  33.109  33.180  1.00  0.00     0.025 C 
BRANCH   7   9
ATOM      9  C   UNL A   1      36.524  34.534  33.273  1.00  0.00    -0.033 A 
ATOM     10  C   UNL A   1      40.984  34.476  30.856  1.00  0.00     0.119 A 
ATOM     11  C   UNL A   1      40.006  34.446  29.865  1.00  0.00     0.047 A 
ATOM     12  C   UNL A   1      40.611  34.500  32.203  1.00  0.00     0.055 A 
ATOM     13  C   UNL A   1      38.657  34.478  30.218  1.00  0.00     0.012 A 
ATOM     14  C   UNL A   1      39.259  34.531  32.573  1.00  0.00    -0.015 A 
ATOM     15  C   UNL A   1      38.274  34.524  31.565  1.00  0.00    -0.018 A 
ATOM     16  C   UNL A   1      38.861  34.556  33.919  1.00  0.00     0.009 A 
ATOM     17  C   UNL A   1      36.925  34.539  31.925  1.00  0.00     0.013 A 
ATOM     18  C   UNL A   1      37.508  34.550  34.267  1.00  0.00     0.005 A 
BRANCH  10  19
ATOM     19  O   UNL A   1      42.331  34.439  30.618  1.00  0.00    -0.497 OA
ATOM     20  C   UNL A   1      42.860  33.133  30.421  1.00  0.00     0.278 C 
ENDBRANCH  10  19
ENDBRANCH   7   9
ENDBRANCH   5   7
ENDBRANCH   4   5
ENDBRANCH   3   4
ENDBRANCH   2   3
ENDBRANCH   1   2
BRANCH   1  21
ATOM     21  C   UNL A   1      33.516  35.154  28.439  1.00  0.00     0.202 C 
BRANCH  21  22
ATOM     22  C   UNL A   1      33.010  33.756  28.064  1.00  0.00     0.261 C 
BRANCH  22  23
ATOM     23  O   UNL A   1      33.801  32.708  28.653  1.00  0.00    -0.460 OA
BRANCH  23  24
ATOM     24  C   UNL A   1      34.073  31.677  27.819  1.00  0.00     0.338 C 
ATOM     25  O   UNL A   1      33.397  31.283  26.878  1.00  0.00    -0.246 OA
BRANCH  24  26
ATOM     26  C   UNL A   1      35.421  31.142  28.080  1.00  0.00     0.060 A 
ATOM     27  C   UNL A   1      35.533  29.761  28.289  1.00  0.00     0.016 A 
ATOM     28  C   UNL A   1      36.531  31.976  28.229  1.00  0.00     0.016 A 
ATOM     29  C   UNL A   1      36.743  29.215  28.711  1.00  0.00     0.010 A 
ATOM     30  C   UNL A   1      37.743  31.427  28.660  1.00  0.00     0.010 A 
ATOM     31  C   UNL A   1      37.841  30.052  28.943  1.00  0.00    -0.014 A 
BRANCH  31  32
ATOM     32  C   UNL A   1      39.029  29.507  29.642  1.00  0.00     0.031 A 
ATOM     33  C   UNL A   1      39.350  29.999  31.026  1.00  0.00     0.074 A 
ATOM     34  C   UNL A   1      39.783  28.550  29.075  1.00  0.00     0.049 A 
ATOM     35  N   UNL A   1      40.325  29.655  31.828  1.00  0.00    -0.248 NA
ATOM     36  C   UNL A   1      38.444  31.017  31.581  1.00  0.00     0.031 C 
ATOM     37  C   UNL A   1      39.545  27.958  27.762  1.00  0.00     0.029 A 
ATOM     38  N   UNL A   1      40.901  27.906  29.542  1.00  0.00    -0.354 N 
ATOM     39  C   UNL A   1      40.154  30.414  32.977  1.00  0.00     0.074 A 
ATOM     40  C   UNL A   1      39.000  31.261  32.758  1.00  0.00     0.031 C 
ATOM     41  C   UNL A   1      40.490  27.031  27.526  1.00  0.00     0.029 A 
ATOM     42  C   UNL A   1      41.412  26.987  28.661  1.00  0.00     0.049 A 
ATOM     43  H   UNL A   1      41.298  28.086  30.425  1.00  0.00     0.167 HD
ATOM     44  C   UNL A   1      40.885  30.400  34.118  1.00  0.00     0.037 A 
ATOM     45  C   UNL A   1      42.507  26.208  28.758  1.00  0.00     0.037 A 
ATOM     46  C   UNL A   1      42.033  29.559  34.335  1.00  0.00     0.049 A 
ATOM     47  C   UNL A   1      43.354  26.272  30.001  1.00  0.00     0.074 A 
ATOM     48  C   UNL A   1      42.824  29.452  35.465  1.00  0.00     0.029 A 
ATOM     49  N   UNL A   1      42.558  28.686  33.394  1.00  0.00    -0.354 N 
ATOM     50  N   UNL A   1      43.171  26.972  31.094  1.00  0.00    -0.248 NA
ATOM     51  C   UNL A   1      44.562  25.434  30.020  1.00  0.00     0.031 C 
ATOM     52  C   UNL A   1      43.860  28.551  35.188  1.00  0.00     0.029 A 
ATOM     53  C   UNL A   1      43.684  28.060  33.904  1.00  0.00     0.049 A 
ATOM     54  H   UNL A   1      42.185  28.534  32.495  1.00  0.00     0.167 HD
ATOM     55  C   UNL A   1      44.221  26.642  31.940  1.00  0.00     0.074 A 
ATOM     56  C   UNL A   1      45.035  25.672  31.236  1.00  0.00     0.031 C 
ATOM     57  C   UNL A   1      44.485  27.098  33.190  1.00  0.00     0.037 A 
BRANCH  44  58
ATOM     58  C   UNL A   1      40.478  31.353  35.203  1.00  0.00     0.064 A 
ATOM     59  C   UNL A   1      41.227  32.504  35.494  1.00  0.00     0.173 A 
ATOM     60  C   UNL A   1      39.325  31.110  35.965  1.00  0.00     0.173 A 
ATOM     61  F   UNL A   1      42.345  32.774  34.804  1.00  0.00    -0.203 F 
ATOM     62  C   UNL A   1      40.855  33.357  36.531  1.00  0.00     0.198 A 
ATOM     63  C   UNL A   1      38.941  31.980  36.983  1.00  0.00     0.198 A 
ATOM     64  F   UNL A   1      38.573  30.025  35.726  1.00  0.00    -0.203 F 
ATOM     65  F   UNL A   1      41.615  34.420  36.828  1.00  0.00    -0.200 F 
ATOM     66  C   UNL A   1      39.711  33.096  37.272  1.00  0.00     0.200 A 
ATOM     67  F   UNL A   1      37.831  31.731  37.691  1.00  0.00    -0.200 F 
ATOM     68  F   UNL A   1      39.357  33.914  38.272  1.00  0.00    -0.200 F 
ENDBRANCH  44  58
BRANCH  45  69
ATOM     69  C   UNL A   1      42.858  25.293  27.644  1.00  0.00     0.064 A 
ATOM     70  C   UNL A   1      43.795  25.668  26.672  1.00  0.00     0.173 A 
ATOM     71  C   UNL A   1      42.273  24.023  27.532  1.00  0.00     0.173 A 
ATOM     72  F   UNL A   1      44.362  26.882  26.724  1.00  0.00    -0.203 F 
ATOM     73  C   UNL A   1      44.131  24.809  25.629  1.00  0.00     0.198 A 
ATOM     74  C   UNL A   1      42.626  23.156  26.501  1.00  0.00     0.198 A 
ATOM     75  F   UNL A   1      41.366  23.621  28.435  1.00  0.00    -0.203 F 
ATOM     76  F   UNL A   1      45.008  25.204  24.695  1.00  0.00    -0.200 F 
ATOM     77  C   UNL A   1      43.553  23.551  25.548  1.00  0.00     0.200 A 
ATOM     78  F   UNL A   1      42.071  21.939  26.432  1.00  0.00    -0.200 F 
ATOM     79  F   UNL A   1      43.883  22.723  24.548  1.00  0.00    -0.200 F 
ENDBRANCH  45  69
BRANCH  57  80
ATOM     80  C   UNL A   1      45.687  26.534  33.890  1.00  0.00     0.064 A 
ATOM     81  C   UNL A   1      45.612  25.355  34.647  1.00  0.00     0.173 A 
ATOM     82  C   UNL A   1      46.937  27.160  33.770  1.00  0.00     0.173 A 
ATOM     83  F   UNL A   1      44.436  24.728  34.805  1.00  0.00    -0.203 F 
ATOM     84  C   UNL A   1      46.742  24.835  35.273  1.00  0.00     0.198 A 
ATOM     85  C   UNL A   1      48.069  26.622  34.375  1.00  0.00     0.198 A 
ATOM     86  F   UNL A   1      47.064  28.286  33.053  1.00  0.00    -0.203 F 
ATOM     87  F   UNL A   1      46.639  23.730  36.026  1.00  0.00    -0.200 F 
ATOM     88  C   UNL A   1      47.970  25.463  35.131  1.00  0.00     0.200 A 
ATOM     89  F   UNL A   1      49.257  27.224  34.227  1.00  0.00    -0.200 F 
ATOM     90  F   UNL A   1      49.057  24.958  35.730  1.00  0.00    -0.200 F 
ENDBRANCH  57  80
ENDBRANCH  31  32
ENDBRANCH  24  26
ENDBRANCH  23  24
ENDBRANCH  22  23
ENDBRANCH  21  22
ENDBRANCH   1  21
TORSDOF 16
ENDMDL
MODEL 2
REMARK VINA RESULT:     -10.3      0.512      2.027
REMARK SMILES COc1ccc2cc([C@H](C)C(=O)OCCOCCOC(=O)c3ccc(-c4c5nc(c(-c6c(F)c(F)c(F)c(F)c6F)c6ccc([nH]6)c(-c6c(F)c(F)c(F)c(F)c6F)c6nc(c(-c7c(F)c(F)c(F)c(F)c7F)c7ccc4[nH]7)C=C6)C=C5)cc3)ccc2c1
REMARK SMILES IDX 16 1 15 2 14 3 13 4 11 5 12 6 9 7 10 8 8 9 3 10 4 11 88 12
REMARK SMILES IDX 5 13 87 14 6 15 86 16 7 17 85 18 2 19 1 20 17 21 18 22 19 23
REMARK SMILES IDX 20 24 21 25 22 26 23 27 84 28 24 29 83 30 25 31 26 32 27 33
REMARK SMILES IDX 77 34 28 35 82 36 76 37 78 38 29 39 81 40 75 41 74 42 30 44
REMARK SMILES IDX 62 45 42 46 61 47 43 48 46 49 60 50 79 51 44 52 45 53 59 55
REMARK SMILES IDX 80 56 47 57 31 58 32 59 40 60 33 61 34 62 38 63 41 64 35 65
REMARK SMILES IDX 36 66 39 67 37 68 63 69 64 70 72 71 65 72 66 73 70 74 73 75
REMARK SMILES IDX 67 76 68 77 71 78 69 79 48 80 49 81 57 82 50 83 51 84 55 85
REMARK SMILES IDX 58 86 52 87 53 88 56 89 54 90
REMARK H PARENT 78 43 46 54
REMARK Flexibility Score: inf
ROOT
ATOM      1  O   UNL A   1      32.581  35.152  29.557  1.00  0.00    -0.374 OA
ENDROOT
BRANCH   1   2
ATOM      2  C   UNL A   1      32.869  36.261  30.407  1.00  0.00     0.202 C 
BRANCH   2   3
ATOM      3  C   UNL A   1      32.506  36.121  31.887  1.00  0.00     0.261 C 
BRANCH   3   4
ATOM      4  O   UNL A   1      33.072  34.939  32.478  1.00  0.00    -0.463 OA
BRANCH   4   5
ATOM      5  C   UNL A   1      34.319  35.088  33.007  1.00  0.00     0.313 C 
ATOM      6  O   UNL A   1      34.797  36.151  33.387  1.00  0.00    -0.252 OA
BRANCH   5   7
ATOM      7  C   UNL A   1      35.097  33.774  33.041  1.00  0.00     0.126 C 
ATOM      8  C   UNL A   1      34.535  32.715  32.090  1.00  0.00     0.025 C 
BRANCH   7   9
ATOM      9  C   UNL A   1      36.578  34.069  32.904  1.00  0.00    -0.033 A 
ATOM     10  C   UNL A   1      41.232  34.614  30.962  1.00  0.00     0.119 A 
ATOM     11  C   UNL A   1      40.373  34.475  29.874  1.00  0.00     0.047 A 
ATOM     12  C   UNL A   1      40.723  34.571  32.262  1.00  0.00     0.055 A 
ATOM     13  C   UNL A   1      39.002  34.330  30.086  1.00  0.00     0.012 A 
ATOM     14  C   UNL A   1      39.348  34.425  32.491  1.00  0.00    -0.015 A 
ATOM     15  C   UNL A   1      38.481  34.307  31.386  1.00  0.00    -0.018 A 
ATOM     16  C   UNL A   1      38.814  34.379  33.789  1.00  0.00     0.009 A 
ATOM     17  C   UNL A   1      37.110  34.145  31.605  1.00  0.00     0.013 A 
ATOM     18  C   UNL A   1      37.445  34.195  33.994  1.00  0.00     0.005 A 
BRANCH  10  19
ATOM     19  O   UNL A   1      42.590  34.752  30.864  1.00  0.00    -0.497 OA
ATOM     20  C   UNL A   1      43.167  35.625  31.829  1.00  0.00     0.278 C 
ENDBRANCH  10  19
ENDBRANCH   7   9
ENDBRANCH   5   7
ENDBRANCH   4   5
ENDBRANCH   3   4
ENDBRANCH   2   3
ENDBRANCH   1   2
BRANCH   1  21
ATOM     21  C   UNL A   1      33.463  34.899  28.467  1.00  0.00     0.202 C 
BRANCH  21  22
ATOM     22  C   UNL A   1      33.312  33.554  27.748  1.00  0.00     0.261 C 
BRANCH  22  23
ATOM     23  O   UNL A   1      33.979  32.482  28.439  1.00  0.00    -0.460 OA
BRANCH  23  24
ATOM     24  C   UNL A   1      34.253  31.404  27.668  1.00  0.00     0.338 C 
ATOM     25  O   UNL A   1      33.579  30.957  26.749  1.00  0.00    -0.246 OA
BRANCH  24  26
ATOM     26  C   UNL A   1      35.599  30.883  27.964  1.00  0.00     0.060 A 
ATOM     27  C   UNL A   1      35.733  29.495  28.104  1.00  0.00     0.016 A 
ATOM     28  C   UNL A   1      36.682  31.731  28.209  1.00  0.00     0.016 A 
ATOM     29  C   UNL A   1      36.933  28.952  28.554  1.00  0.00     0.010 A 
ATOM     30  C   UNL A   1      37.885  31.183  28.668  1.00  0.00     0.010 A 
ATOM     31  C   UNL A   1      38.000  29.798  28.882  1.00  0.00    -0.014 A 
BRANCH  31  32
ATOM     32  C   UNL A   1      39.166  29.239  29.607  1.00  0.00     0.031 A 
ATOM     33  C   UNL A   1      39.486  29.757  30.982  1.00  0.00     0.074 A 
ATOM     34  C   UNL A   1      39.901  28.250  29.072  1.00  0.00     0.049 A 
ATOM     35  N   UNL A   1      40.444  29.409  31.803  1.00  0.00    -0.248 NA
ATOM     36  C   UNL A   1      38.601  30.811  31.502  1.00  0.00     0.031 C 
ATOM     37  C   UNL A   1      39.662  27.632  27.771  1.00  0.00     0.029 A 
ATOM     38  N   UNL A   1      40.997  27.589  29.566  1.00  0.00    -0.354 N 
ATOM     39  C   UNL A   1      40.280  30.200  32.931  1.00  0.00     0.074 A 
ATOM     40  C   UNL A   1      39.151  31.070  32.679  1.00  0.00     0.031 C 
ATOM     41  C   UNL A   1      40.585  26.676  27.568  1.00  0.00     0.029 A 
ATOM     42  C   UNL A   1      41.493  26.636  28.713  1.00  0.00     0.049 A 
ATOM     43  H   UNL A   1      41.390  27.781  30.449  1.00  0.00     0.167 HD
ATOM     44  C   UNL A   1      40.998  30.195  34.080  1.00  0.00     0.037 A 
ATOM     45  C   UNL A   1      42.567  25.832  28.841  1.00  0.00     0.037 A 
ATOM     46  C   UNL A   1      42.122  29.331  34.330  1.00  0.00     0.049 A 
ATOM     47  C   UNL A   1      43.403  25.905  30.092  1.00  0.00     0.074 A 
ATOM     48  C   UNL A   1      42.899  29.231  35.471  1.00  0.00     0.029 A 
ATOM     49  N   UNL A   1      42.634  28.422  33.416  1.00  0.00    -0.354 N 
ATOM     50  N   UNL A   1      43.227  26.636  31.165  1.00  0.00    -0.248 NA
ATOM     51  C   UNL A   1      44.589  25.038  30.145  1.00  0.00     0.031 C 
ATOM     52  C   UNL A   1      43.914  28.297  35.227  1.00  0.00     0.029 A 
ATOM     53  C   UNL A   1      43.738  27.780  33.954  1.00  0.00     0.049 A 
ATOM     54  H   UNL A   1      42.267  28.257  32.517  1.00  0.00     0.167 HD
ATOM     55  C   UNL A   1      44.259  26.300  32.030  1.00  0.00     0.074 A 
ATOM     56  C   UNL A   1      45.055  25.293  31.359  1.00  0.00     0.031 C 
ATOM     57  C   UNL A   1      44.522  26.780  33.272  1.00  0.00     0.037 A 
BRANCH  44  58
ATOM     58  C   UNL A   1      40.606  31.184  35.137  1.00  0.00     0.064 A 
ATOM     59  C   UNL A   1      39.446  31.018  35.911  1.00  0.00     0.173 A 
ATOM     60  C   UNL A   1      41.399  32.316  35.378  1.00  0.00     0.173 A 
ATOM     61  F   UNL A   1      38.647  29.960  35.709  1.00  0.00    -0.203 F 
ATOM     62  C   UNL A   1      39.078  31.968  36.861  1.00  0.00     0.198 A 
ATOM     63  C   UNL A   1      41.042  33.249  36.348  1.00  0.00     0.198 A 
ATOM     64  F   UNL A   1      42.519  32.521  34.668  1.00  0.00    -0.203 F 
ATOM     65  F   UNL A   1      37.938  31.817  37.549  1.00  0.00    -0.200 F 
ATOM     66  C   UNL A   1      39.877  33.080  37.082  1.00  0.00     0.200 A 
ATOM     67  F   UNL A   1      41.819  34.319  36.566  1.00  0.00    -0.200 F 
ATOM     68  F   UNL A   1      39.519  33.995  37.992  1.00  0.00    -0.200 F 
ENDBRANCH  44  58
BRANCH  45  69
ATOM     69  C   UNL A   1      42.905  24.882  27.753  1.00  0.00     0.064 A 
ATOM     70  C   UNL A   1      42.418  23.568  27.769  1.00  0.00     0.173 A 
ATOM     71  C   UNL A   1      43.712  25.268  26.673  1.00  0.00     0.173 A 
ATOM     72  F   UNL A   1      41.664  23.147  28.794  1.00  0.00    -0.203 F 
ATOM     73  C   UNL A   1      42.729  22.675  26.746  1.00  0.00     0.198 A 
ATOM     74  C   UNL A   1      44.004  24.381  25.639  1.00  0.00     0.198 A 
ATOM     75  F   UNL A   1      44.205  26.514  26.616  1.00  0.00    -0.203 F 
ATOM     76  F   UNL A   1      42.276  21.414  26.800  1.00  0.00    -0.200 F 
ATOM     77  C   UNL A   1      43.514  23.083  25.679  1.00  0.00     0.200 A 
ATOM     78  F   UNL A   1      44.755  24.783  24.606  1.00  0.00    -0.200 F 
ATOM     79  F   UNL A   1      43.805  22.226  24.692  1.00  0.00    -0.200 F 
ENDBRANCH  45  69
BRANCH  57  80
ATOM     80  C   UNL A   1      45.702  26.203  33.999  1.00  0.00     0.064 A 
ATOM     81  C   UNL A   1      46.948  26.846  34.005  1.00  0.00     0.173 A 
ATOM     82  C   UNL A   1      45.572  25.012  34.730  1.00  0.00     0.173 A 
ATOM     83  F   UNL A   1      47.126  27.978  33.307  1.00  0.00    -0.203 F 
ATOM     84  C   UNL A   1      48.027  26.307  34.701  1.00  0.00     0.198 A 
ATOM     85  C   UNL A   1      46.646  24.491  35.447  1.00  0.00     0.198 A 
ATOM     86  F   UNL A   1      44.400  24.361  34.762  1.00  0.00    -0.203 F 
ATOM     87  F   UNL A   1      49.221  26.916  34.658  1.00  0.00    -0.200 F 
ATOM     88  C   UNL A   1      47.874  25.136  35.427  1.00  0.00     0.200 A 
ATOM     89  F   UNL A   1      46.493  23.365  36.158  1.00  0.00    -0.200 F 
ATOM     90  F   UNL A   1      48.912  24.622  36.101  1.00  0.00    -0.200 F 
ENDBRANCH  57  80
ENDBRANCH  31  32
ENDBRANCH  24  26
ENDBRANCH  23  24
ENDBRANCH  22  23
ENDBRANCH  21  22
ENDBRANCH   1  21
TORSDOF 16
ENDMDL
MODEL 3
REMARK VINA RESULT:     -10.2      4.921     11.737
REMARK SMILES COc1ccc2cc([C@H](C)C(=O)OCCOCCOC(=O)c3ccc(-c4c5nc(c(-c6c(F)c(F)c(F)c(F)c6F)c6ccc([nH]6)c(-c6c(F)c(F)c(F)c(F)c6F)c6nc(c(-c7c(F)c(F)c(F)c(F)c7F)c7ccc4[nH]7)C=C6)C=C5)cc3)ccc2c1
REMARK SMILES IDX 16 1 15 2 14 3 13 4 11 5 12 6 9 7 10 8 8 9 3 10 4 11 88 12
REMARK SMILES IDX 5 13 87 14 6 15 86 16 7 17 85 18 2 19 1 20 17 21 18 22 19 23
REMARK SMILES IDX 20 24 21 25 22 26 23 27 84 28 24 29 83 30 25 31 26 32 27 33
REMARK SMILES IDX 77 34 28 35 82 36 76 37 78 38 29 39 81 40 75 41 74 42 30 44
REMARK SMILES IDX 62 45 42 46 61 47 43 48 46 49 60 50 79 51 44 52 45 53 59 55
REMARK SMILES IDX 80 56 47 57 31 58 32 59 40 60 33 61 34 62 38 63 41 64 35 65
REMARK SMILES IDX 36 66 39 67 37 68 63 69 64 70 72 71 65 72 66 73 70 74 73 75
REMARK SMILES IDX 67 76 68 77 71 78 69 79 48 80 49 81 57 82 50 83 51 84 55 85
REMARK SMILES IDX 58 86 52 87 53 88 56 89 54 90
REMARK H PARENT 78 43 46 54
REMARK Flexibility Score: inf
ROOT
ATOM      1  O   UNL A   1      42.206  19.694  25.447  1.00  0.00    -0.374 OA
ENDROOT
BRANCH   1   2
ATOM      2  C   UNL A   1      43.414  18.937  25.494  1.00  0.00     0.202 C 
BRANCH   2   3
ATOM      3  C   UNL A   1      44.431  19.173  24.374  1.00  0.00     0.261 C 
BRANCH   3   4
ATOM      4  O   UNL A   1      44.552  20.563  24.031  1.00  0.00    -0.463 OA
BRANCH   4   5
ATOM      5  C   UNL A   1      45.434  21.278  24.785  1.00  0.00     0.313 C 
ATOM      6  O   UNL A   1      46.400  20.804  25.372  1.00  0.00    -0.252 OA
BRANCH   5   7
ATOM      7  C   UNL A   1      45.065  22.758  24.864  1.00  0.00     0.126 C 
ATOM      8  C   UNL A   1      43.699  23.074  24.251  1.00  0.00     0.025 C 
BRANCH   7   9
ATOM      9  C   UNL A   1      45.287  23.252  26.280  1.00  0.00    -0.033 A 
ATOM     10  C   UNL A   1      44.528  24.431  31.155  1.00  0.00     0.119 A 
ATOM     11  C   UNL A   1      43.461  23.618  30.783  1.00  0.00     0.047 A 
ATOM     12  C   UNL A   1      45.513  24.760  30.220  1.00  0.00     0.055 A 
ATOM     13  C   UNL A   1      43.397  23.105  29.488  1.00  0.00     0.012 A 
ATOM     14  C   UNL A   1      45.462  24.251  28.914  1.00  0.00    -0.015 A 
ATOM     15  C   UNL A   1      44.391  23.411  28.550  1.00  0.00    -0.018 A 
ATOM     16  C   UNL A   1      46.441  24.567  27.958  1.00  0.00     0.009 A 
ATOM     17  C   UNL A   1      44.324  22.912  27.247  1.00  0.00     0.013 A 
ATOM     18  C   UNL A   1      46.351  24.079  26.653  1.00  0.00     0.005 A 
BRANCH  10  19
ATOM     19  O   UNL A   1      44.680  24.994  32.393  1.00  0.00    -0.497 OA
ATOM     20  C   UNL A   1      45.759  24.464  33.155  1.00  0.00     0.278 C 
ENDBRANCH  10  19
ENDBRANCH   7   9
ENDBRANCH   5   7
ENDBRANCH   4   5
ENDBRANCH   3   4
ENDBRANCH   2   3
ENDBRANCH   1   2
BRANCH   1  21
ATOM     21  C   UNL A   1      41.313  19.597  26.554  1.00  0.00     0.202 C 
BRANCH  21  22
ATOM     22  C   UNL A   1      40.996  20.893  27.309  1.00  0.00     0.261 C 
BRANCH  22  23
ATOM     23  O   UNL A   1      40.870  22.025  26.429  1.00  0.00    -0.460 OA
BRANCH  23  24
ATOM     24  C   UNL A   1      39.627  22.558  26.378  1.00  0.00     0.338 C 
ATOM     25  O   UNL A   1      38.582  21.983  26.103  1.00  0.00    -0.246 OA
BRANCH  24  26
ATOM     26  C   UNL A   1      39.639  23.949  26.864  1.00  0.00     0.060 A 
ATOM     27  C   UNL A   1      40.200  24.918  26.022  1.00  0.00     0.016 A 
ATOM     28  C   UNL A   1      39.216  24.285  28.153  1.00  0.00     0.016 A 
ATOM     29  C   UNL A   1      40.401  26.214  26.487  1.00  0.00     0.010 A 
ATOM     30  C   UNL A   1      39.426  25.586  28.620  1.00  0.00     0.010 A 
ATOM     31  C   UNL A   1      40.057  26.543  27.804  1.00  0.00    -0.014 A 
BRANCH  31  32
ATOM     32  C   UNL A   1      40.518  27.833  28.370  1.00  0.00     0.031 A 
ATOM     33  C   UNL A   1      41.990  28.054  28.578  1.00  0.00     0.074 A 
ATOM     34  C   UNL A   1      39.643  28.815  28.647  1.00  0.00     0.049 A 
ATOM     35  N   UNL A   1      42.619  29.103  29.044  1.00  0.00    -0.248 NA
ATOM     36  C   UNL A   1      42.874  26.938  28.207  1.00  0.00     0.031 C 
ATOM     37  C   UNL A   1      38.199  28.739  28.443  1.00  0.00     0.029 A 
ATOM     38  N   UNL A   1      39.850  30.072  29.156  1.00  0.00    -0.354 N 
ATOM     39  C   UNL A   1      43.967  28.774  29.025  1.00  0.00     0.074 A 
ATOM     40  C   UNL A   1      44.065  27.416  28.533  1.00  0.00     0.031 C 
ATOM     41  C   UNL A   1      37.646  29.904  28.822  1.00  0.00     0.029 A 
ATOM     42  C   UNL A   1      38.695  30.794  29.319  1.00  0.00     0.049 A 
ATOM     43  H   UNL A   1      40.741  30.423  29.383  1.00  0.00     0.167 HD
ATOM     44  C   UNL A   1      45.029  29.538  29.377  1.00  0.00     0.037 A 
ATOM     45  C   UNL A   1      38.508  32.029  29.824  1.00  0.00     0.037 A 
ATOM     46  C   UNL A   1      44.931  30.887  29.868  1.00  0.00     0.049 A 
ATOM     47  C   UNL A   1      39.697  32.828  30.289  1.00  0.00     0.074 A 
ATOM     48  C   UNL A   1      45.949  31.754  30.226  1.00  0.00     0.029 A 
ATOM     49  N   UNL A   1      43.738  31.563  30.079  1.00  0.00    -0.354 N 
ATOM     50  N   UNL A   1      40.970  32.521  30.244  1.00  0.00    -0.248 NA
ATOM     51  C   UNL A   1      39.418  34.146  30.876  1.00  0.00     0.031 C 
ATOM     52  C   UNL A   1      45.369  32.935  30.702  1.00  0.00     0.029 A 
ATOM     53  C   UNL A   1      43.992  32.824  30.595  1.00  0.00     0.049 A 
ATOM     54  H   UNL A   1      42.842  31.200  29.890  1.00  0.00     0.167 HD
ATOM     55  C   UNL A   1      41.646  33.614  30.769  1.00  0.00     0.074 A 
ATOM     56  C   UNL A   1      40.641  34.596  31.121  1.00  0.00     0.031 C 
ATOM     57  C   UNL A   1      42.980  33.790  30.941  1.00  0.00     0.037 A 
BRANCH  44  58
ATOM     58  C   UNL A   1      46.388  28.910  29.273  1.00  0.00     0.064 A 
ATOM     59  C   UNL A   1      47.206  29.099  28.149  1.00  0.00     0.173 A 
ATOM     60  C   UNL A   1      46.877  28.104  30.313  1.00  0.00     0.173 A 
ATOM     61  F   UNL A   1      46.778  29.849  27.122  1.00  0.00    -0.203 F 
ATOM     62  C   UNL A   1      48.448  28.477  28.054  1.00  0.00     0.198 A 
ATOM     63  C   UNL A   1      48.132  27.505  30.226  1.00  0.00     0.198 A 
ATOM     64  F   UNL A   1      46.136  27.892  31.411  1.00  0.00    -0.203 F 
ATOM     65  F   UNL A   1      49.189  28.627  26.947  1.00  0.00    -0.200 F 
ATOM     66  C   UNL A   1      48.912  27.684  29.094  1.00  0.00     0.200 A 
ATOM     67  F   UNL A   1      48.581  26.746  31.235  1.00  0.00    -0.200 F 
ATOM     68  F   UNL A   1      50.105  27.081  28.999  1.00  0.00    -0.200 F 
ENDBRANCH  44  58
BRANCH  45  69
ATOM     69  C   UNL A   1      37.136  32.588  29.906  1.00  0.00     0.064 A 
ATOM     70  C   UNL A   1      36.335  32.366  31.034  1.00  0.00     0.173 A 
ATOM     71  C   UNL A   1      36.602  33.364  28.867  1.00  0.00     0.173 A 
ATOM     72  F   UNL A   1      36.794  31.610  32.042  1.00  0.00    -0.203 F 
ATOM     73  C   UNL A   1      35.049  32.895  31.117  1.00  0.00     0.198 A 
ATOM     74  C   UNL A   1      35.324  33.910  28.960  1.00  0.00     0.198 A 
ATOM     75  F   UNL A   1      37.329  33.601  27.765  1.00  0.00    -0.203 F 
ATOM     76  F   UNL A   1      34.291  32.642  32.194  1.00  0.00    -0.200 F 
ATOM     77  C   UNL A   1      34.547  33.673  30.085  1.00  0.00     0.200 A 
ATOM     78  F   UNL A   1      34.847  34.669  27.964  1.00  0.00    -0.200 F 
ATOM     79  F   UNL A   1      33.313  34.188  30.169  1.00  0.00    -0.200 F 
ENDBRANCH  45  69
BRANCH  57  80
ATOM     80  C   UNL A   1      43.435  35.103  31.509  1.00  0.00     0.064 A 
ATOM     81  C   UNL A   1      43.731  36.199  30.684  1.00  0.00     0.173 A 
ATOM     82  C   UNL A   1      43.536  35.279  32.898  1.00  0.00     0.173 A 
ATOM     83  F   UNL A   1      43.664  36.076  29.350  1.00  0.00    -0.203 F 
ATOM     84  C   UNL A   1      44.132  37.416  31.230  1.00  0.00     0.198 A 
ATOM     85  C   UNL A   1      43.912  36.505  33.439  1.00  0.00     0.198 A 
ATOM     86  F   UNL A   1      43.259  34.265  33.730  1.00  0.00    -0.203 F 
ATOM     87  F   UNL A   1      44.451  38.437  30.421  1.00  0.00    -0.200 F 
ATOM     88  C   UNL A   1      44.214  37.570  32.605  1.00  0.00     0.200 A 
ATOM     89  F   UNL A   1      43.979  36.656  34.769  1.00  0.00    -0.200 F 
ATOM     90  F   UNL A   1      44.595  38.745  33.128  1.00  0.00    -0.200 F 
ENDBRANCH  57  80
ENDBRANCH  31  32
ENDBRANCH  24  26
ENDBRANCH  23  24
ENDBRANCH  22  23
ENDBRANCH  21  22
ENDBRANCH   1  21
TORSDOF 16
ENDMDL
