MODEL 1
REMARK VINA RESULT:      -9.8      0.000      0.000
REMARK SMILES C=CCN(CC(=O)OCCOCCOC(=O)c1ccc(-c2c3nc(c(-c4c(F)c(F)c(F)c(F)c4F)c4ccc([nH]4)c(-c4c(F)c(F)c(F)c(F)c4F)c4nc(c(-c5c(F)c(F)c(F)c(F)c5F)c5ccc2[nH]5)C=C4)C=C3)cc1)C(=O)NCC(C)C
REMARK SMILES IDX 10 1 9 2 8 3 6 4 7 5 5 6 4 7 3 8 2 9 1 10 80 11 81 12 82 13
REMARK SMILES IDX 83 15 84 16 85 17 86 18 11 19 12 20 13 21 14 22 15 23 16 24
REMARK SMILES IDX 17 25 18 26 79 27 19 28 78 29 20 30 21 31 22 32 72 33 23 34
REMARK SMILES IDX 77 35 71 36 73 37 24 38 76 39 70 40 69 41 25 43 57 44 37 45
REMARK SMILES IDX 56 46 38 47 41 48 55 49 74 50 39 51 40 52 54 54 75 55 42 56
REMARK SMILES IDX 26 57 27 58 35 59 28 60 29 61 33 62 36 63 30 64 31 65 34 66
REMARK SMILES IDX 32 67 58 68 59 69 67 70 60 71 61 72 65 73 68 74 62 75 63 76
REMARK SMILES IDX 66 77 64 78 43 79 44 80 52 81 45 82 46 83 50 84 53 85 47 86
REMARK SMILES IDX 48 87 51 88 49 89
REMARK H PARENT 82 14 73 42 41 53
REMARK Flexibility Score: inf
ROOT
ATOM      1  C   UNL A   1      37.424  22.282  24.841  1.00  0.00     0.202 C 
ENDROOT
BRANCH   1   2
ATOM      2  C   UNL A   1      36.456  23.200  24.072  1.00  0.00     0.261 C 
BRANCH   2   3
ATOM      3  O   UNL A   1      35.284  22.502  23.600  1.00  0.00    -0.462 OA
BRANCH   3   4
ATOM      4  C   UNL A   1      34.171  23.266  23.404  1.00  0.00     0.325 C 
ATOM      5  O   UNL A   1      33.946  23.896  22.374  1.00  0.00    -0.250 OA
BRANCH   4   6
ATOM      6  C   UNL A   1      33.277  23.398  24.650  1.00  0.00     0.244 C 
BRANCH   6   7
ATOM      7  N   UNL A   1      32.971  22.209  25.456  1.00  0.00    -0.310 N 
BRANCH   7   8
ATOM      8  C   UNL A   1      31.544  21.923  25.640  1.00  0.00     0.149 C 
BRANCH   8   9
ATOM      9  C   UNL A   1      30.864  23.079  26.323  1.00  0.00    -0.013 C 
ATOM     10  C   UNL A   1      29.811  22.945  27.143  1.00  0.00     0.006 C 
ENDBRANCH   8   9
ENDBRANCH   7   8
BRANCH   7  11
ATOM     11  C   UNL A   1      33.850  21.331  26.034  1.00  0.00     0.318 C 
ATOM     12  O   UNL A   1      34.443  21.611  27.082  1.00  0.00    -0.249 OA
ATOM     13  N   UNL A   1      34.210  20.143  25.516  1.00  0.00    -0.338 N 
ATOM     14  H   UNL A   1      34.787  19.660  26.152  1.00  0.00     0.165 HD
BRANCH  13  15
ATOM     15  C   UNL A   1      34.016  19.343  24.308  1.00  0.00     0.120 C 
BRANCH  15  16
ATOM     16  C   UNL A   1      33.768  17.848  24.597  1.00  0.00     0.002 C 
ATOM     17  C   UNL A   1      32.532  17.588  25.461  1.00  0.00     0.009 C 
ATOM     18  C   UNL A   1      33.690  17.052  23.296  1.00  0.00     0.009 C 
ENDBRANCH  15  16
ENDBRANCH  13  15
ENDBRANCH   7  11
ENDBRANCH   6   7
ENDBRANCH   4   6
ENDBRANCH   3   4
ENDBRANCH   2   3
ENDBRANCH   1   2
BRANCH   1  19
ATOM     19  O   UNL A   1      37.119  20.889  24.843  1.00  0.00    -0.374 OA
BRANCH  19  20
ATOM     20  C   UNL A   1      38.224  20.064  25.227  1.00  0.00     0.202 C 
BRANCH  20  21
ATOM     21  C   UNL A   1      39.389  20.861  25.822  1.00  0.00     0.261 C 
BRANCH  21  22
ATOM     22  O   UNL A   1      40.162  19.990  26.644  1.00  0.00    -0.460 OA
BRANCH  22  23
ATOM     23  C   UNL A   1      41.399  19.781  26.141  1.00  0.00     0.338 C 
ATOM     24  O   UNL A   1      41.759  18.861  25.436  1.00  0.00    -0.246 OA
BRANCH  23  25
ATOM     25  C   UNL A   1      42.187  21.003  26.410  1.00  0.00     0.060 A 
ATOM     26  C   UNL A   1      42.326  21.400  27.744  1.00  0.00     0.016 A 
ATOM     27  C   UNL A   1      42.829  21.706  25.381  1.00  0.00     0.016 A 
ATOM     28  C   UNL A   1      43.033  22.555  28.046  1.00  0.00     0.010 A 
ATOM     29  C   UNL A   1      43.554  22.848  25.683  1.00  0.00     0.010 A 
ATOM     30  C   UNL A   1      43.602  23.302  27.009  1.00  0.00    -0.014 A 
BRANCH  30  31
ATOM     31  C   UNL A   1      44.056  24.679  27.261  1.00  0.00     0.031 A 
ATOM     32  C   UNL A   1      43.031  25.669  27.728  1.00  0.00     0.074 A 
ATOM     33  C   UNL A   1      45.336  25.020  27.054  1.00  0.00     0.049 A 
ATOM     34  N   UNL A   1      43.151  26.952  27.943  1.00  0.00    -0.248 NA
ATOM     35  C   UNL A   1      41.676  25.142  27.970  1.00  0.00     0.031 C 
ATOM     36  C   UNL A   1      46.392  24.107  26.622  1.00  0.00     0.029 A 
ATOM     37  N   UNL A   1      45.958  26.232  27.169  1.00  0.00    -0.354 N 
ATOM     38  C   UNL A   1      41.889  27.383  28.329  1.00  0.00     0.074 A 
ATOM     39  C   UNL A   1      41.006  26.241  28.275  1.00  0.00     0.031 C 
ATOM     40  C   UNL A   1      47.539  24.796  26.505  1.00  0.00     0.029 A 
ATOM     41  C   UNL A   1      47.283  26.200  26.817  1.00  0.00     0.049 A 
ATOM     42  H   UNL A   1      45.499  27.048  27.475  1.00  0.00     0.167 HD
ATOM     43  C   UNL A   1      41.511  28.626  28.705  1.00  0.00     0.037 A 
ATOM     44  C   UNL A   1      48.170  27.208  26.741  1.00  0.00     0.037 A 
ATOM     45  C   UNL A   1      42.415  29.743  28.744  1.00  0.00     0.049 A 
ATOM     46  C   UNL A   1      47.707  28.598  27.099  1.00  0.00     0.074 A 
ATOM     47  C   UNL A   1      42.165  31.044  29.132  1.00  0.00     0.029 A 
ATOM     48  N   UNL A   1      43.750  29.681  28.364  1.00  0.00    -0.354 N 
ATOM     49  N   UNL A   1      46.526  28.998  27.507  1.00  0.00    -0.248 NA
ATOM     50  C   UNL A   1      48.700  29.673  26.987  1.00  0.00     0.031 C 
ATOM     51  C   UNL A   1      43.332  31.786  28.924  1.00  0.00     0.029 A 
ATOM     52  C   UNL A   1      44.330  30.932  28.476  1.00  0.00     0.049 A 
ATOM     53  H   UNL A   1      44.214  28.867  28.060  1.00  0.00     0.167 HD
ATOM     54  C   UNL A   1      46.642  30.362  27.738  1.00  0.00     0.074 A 
ATOM     55  C   UNL A   1      48.012  30.718  27.427  1.00  0.00     0.031 C 
ATOM     56  C   UNL A   1      45.706  31.242  28.173  1.00  0.00     0.037 A 
BRANCH  43  57
ATOM     57  C   UNL A   1      40.068  28.834  29.064  1.00  0.00     0.064 A 
ATOM     58  C   UNL A   1      39.588  28.633  30.369  1.00  0.00     0.173 A 
ATOM     59  C   UNL A   1      39.146  29.235  28.086  1.00  0.00     0.173 A 
ATOM     60  F   UNL A   1      40.422  28.232  31.341  1.00  0.00    -0.203 F 
ATOM     61  C   UNL A   1      38.238  28.787  30.670  1.00  0.00     0.198 A 
ATOM     62  C   UNL A   1      37.802  29.424  28.398  1.00  0.00     0.198 A 
ATOM     63  F   UNL A   1      39.546  29.440  26.822  1.00  0.00    -0.203 F 
ATOM     64  F   UNL A   1      37.794  28.526  31.908  1.00  0.00    -0.200 F 
ATOM     65  C   UNL A   1      37.347  29.189  29.686  1.00  0.00     0.200 A 
ATOM     66  F   UNL A   1      36.945  29.825  27.449  1.00  0.00    -0.200 F 
ATOM     67  F   UNL A   1      36.047  29.339  29.978  1.00  0.00    -0.200 F 
ENDBRANCH  43  57
BRANCH  44  68
ATOM     68  C   UNL A   1      49.571  26.937  26.327  1.00  0.00     0.064 A 
ATOM     69  C   UNL A   1      50.554  26.632  27.279  1.00  0.00     0.173 A 
ATOM     70  C   UNL A   1      49.957  26.971  24.979  1.00  0.00     0.173 A 
ATOM     71  F   UNL A   1      50.237  26.602  28.582  1.00  0.00    -0.203 F 
ATOM     72  C   UNL A   1      51.873  26.390  26.900  1.00  0.00     0.198 A 
ATOM     73  C   UNL A   1      51.271  26.699  24.599  1.00  0.00     0.198 A 
ATOM     74  F   UNL A   1      49.056  27.250  24.027  1.00  0.00    -0.203 F 
ATOM     75  F   UNL A   1      52.800  26.142  27.835  1.00  0.00    -0.200 F 
ATOM     76  C   UNL A   1      52.229  26.418  25.560  1.00  0.00     0.200 A 
ATOM     77  F   UNL A   1      51.606  26.708  23.301  1.00  0.00    -0.200 F 
ATOM     78  F   UNL A   1      53.496  26.178  25.197  1.00  0.00    -0.200 F 
ENDBRANCH  44  68
BRANCH  56  79
ATOM     79  C   UNL A   1      46.143  32.662  28.390  1.00  0.00     0.064 A 
ATOM     80  C   UNL A   1      46.089  33.616  27.365  1.00  0.00     0.173 A 
ATOM     81  C   UNL A   1      46.548  33.084  29.665  1.00  0.00     0.173 A 
ATOM     82  F   UNL A   1      45.722  33.258  26.125  1.00  0.00    -0.203 F 
ATOM     83  C   UNL A   1      46.444  34.941  27.607  1.00  0.00     0.198 A 
ATOM     84  C   UNL A   1      46.866  34.415  29.911  1.00  0.00     0.198 A 
ATOM     85  F   UNL A   1      46.607  32.209  30.681  1.00  0.00    -0.203 F 
ATOM     86  F   UNL A   1      46.426  35.829  26.603  1.00  0.00    -0.200 F 
ATOM     87  C   UNL A   1      46.819  35.341  28.880  1.00  0.00     0.200 A 
ATOM     88  F   UNL A   1      47.209  34.803  31.147  1.00  0.00    -0.200 F 
ATOM     89  F   UNL A   1      47.140  36.621  29.114  1.00  0.00    -0.200 F 
ENDBRANCH  56  79
ENDBRANCH  30  31
ENDBRANCH  23  25
ENDBRANCH  22  23
ENDBRANCH  21  22
ENDBRANCH  20  21
ENDBRANCH  19  20
ENDBRANCH   1  19
TORSDOF 20
ENDMDL
MODEL 2
REMARK VINA RESULT:      -9.7      0.960      7.629
REMARK SMILES C=CCN(CC(=O)OCCOCCOC(=O)c1ccc(-c2c3nc(c(-c4c(F)c(F)c(F)c(F)c4F)c4ccc([nH]4)c(-c4c(F)c(F)c(F)c(F)c4F)c4nc(c(-c5c(F)c(F)c(F)c(F)c5F)c5ccc2[nH]5)C=C4)C=C3)cc1)C(=O)NCC(C)C
REMARK SMILES IDX 10 1 9 2 8 3 6 4 7 5 5 6 4 7 3 8 2 9 1 10 80 11 81 12 82 13
REMARK SMILES IDX 83 15 84 16 85 17 86 18 11 19 12 20 13 21 14 22 15 23 16 24
REMARK SMILES IDX 17 25 18 26 79 27 19 28 78 29 20 30 21 31 22 32 72 33 23 34
REMARK SMILES IDX 77 35 71 36 73 37 24 38 76 39 70 40 69 41 25 43 57 44 37 45
REMARK SMILES IDX 56 46 38 47 41 48 55 49 74 50 39 51 40 52 54 54 75 55 42 56
REMARK SMILES IDX 26 57 27 58 35 59 28 60 29 61 33 62 36 63 30 64 31 65 34 66
REMARK SMILES IDX 32 67 58 68 59 69 67 70 60 71 61 72 65 73 68 74 62 75 63 76
REMARK SMILES IDX 66 77 64 78 43 79 44 80 52 81 45 82 46 83 50 84 53 85 47 86
REMARK SMILES IDX 48 87 51 88 49 89
REMARK H PARENT 82 14 73 42 41 53
REMARK Flexibility Score: inf
ROOT
ATOM      1  C   UNL A   1      38.068  23.101  25.730  1.00  0.00     0.202 C 
ENDROOT
BRANCH   1   2
ATOM      2  C   UNL A   1      36.680  23.067  25.064  1.00  0.00     0.261 C 
BRANCH   2   3
ATOM      3  O   UNL A   1      35.797  24.092  25.568  1.00  0.00    -0.462 OA
BRANCH   3   4
ATOM      4  C   UNL A   1      34.523  24.077  25.079  1.00  0.00     0.325 C 
ATOM      5  O   UNL A   1      33.765  25.043  25.113  1.00  0.00    -0.250 OA
BRANCH   4   6
ATOM      6  C   UNL A   1      34.051  22.688  24.611  1.00  0.00     0.244 C 
BRANCH   6   7
ATOM      7  N   UNL A   1      33.159  21.896  25.468  1.00  0.00    -0.310 N 
BRANCH   7   8
ATOM      8  C   UNL A   1      31.726  22.032  25.182  1.00  0.00     0.149 C 
BRANCH   8   9
ATOM      9  C   UNL A   1      31.026  22.706  26.331  1.00  0.00    -0.013 C 
ATOM     10  C   UNL A   1      30.664  23.998  26.328  1.00  0.00     0.006 C 
ENDBRANCH   8   9
ENDBRANCH   7   8
BRANCH   7  11
ATOM     11  C   UNL A   1      33.502  21.035  26.478  1.00  0.00     0.318 C 
ATOM     12  O   UNL A   1      34.116  21.428  27.476  1.00  0.00    -0.249 OA
ATOM     13  N   UNL A   1      33.283  19.708  26.472  1.00  0.00    -0.338 N 
ATOM     14  H   UNL A   1      33.542  19.321  27.339  1.00  0.00     0.165 HD
BRANCH  13  15
ATOM     15  C   UNL A   1      32.784  18.660  25.584  1.00  0.00     0.120 C 
BRANCH  15  16
ATOM     16  C   UNL A   1      33.441  18.676  24.189  1.00  0.00     0.002 C 
ATOM     17  C   UNL A   1      34.214  17.397  23.861  1.00  0.00     0.009 C 
ATOM     18  C   UNL A   1      32.404  18.968  23.106  1.00  0.00     0.009 C 
ENDBRANCH  15  16
ENDBRANCH  13  15
ENDBRANCH   7  11
ENDBRANCH   6   7
ENDBRANCH   4   6
ENDBRANCH   3   4
ENDBRANCH   2   3
ENDBRANCH   1   2
BRANCH   1  19
ATOM     19  O   UNL A   1      38.612  21.848  26.141  1.00  0.00    -0.374 OA
BRANCH  19  20
ATOM     20  C   UNL A   1      38.227  20.756  25.299  1.00  0.00     0.202 C 
BRANCH  20  21
ATOM     21  C   UNL A   1      39.213  19.585  25.348  1.00  0.00     0.261 C 
BRANCH  21  22
ATOM     22  O   UNL A   1      40.033  19.730  26.505  1.00  0.00    -0.460 OA
BRANCH  22  23
ATOM     23  C   UNL A   1      41.346  19.593  26.217  1.00  0.00     0.338 C 
ATOM     24  O   UNL A   1      41.888  18.640  25.696  1.00  0.00    -0.246 OA
BRANCH  23  25
ATOM     25  C   UNL A   1      41.977  20.912  26.437  1.00  0.00     0.060 A 
ATOM     26  C   UNL A   1      42.304  21.259  27.752  1.00  0.00     0.016 A 
ATOM     27  C   UNL A   1      42.301  21.760  25.369  1.00  0.00     0.016 A 
ATOM     28  C   UNL A   1      42.873  22.498  28.013  1.00  0.00     0.010 A 
ATOM     29  C   UNL A   1      42.889  22.989  25.626  1.00  0.00     0.010 A 
ATOM     30  C   UNL A   1      43.117  23.378  26.953  1.00  0.00    -0.014 A 
BRANCH  30  31
ATOM     31  C   UNL A   1      43.396  24.797  27.228  1.00  0.00     0.031 A 
ATOM     32  C   UNL A   1      44.788  25.290  26.968  1.00  0.00     0.074 A 
ATOM     33  C   UNL A   1      42.434  25.596  27.710  1.00  0.00     0.049 A 
ATOM     34  N   UNL A   1      45.312  26.463  27.200  1.00  0.00    -0.248 NA
ATOM     35  C   UNL A   1      45.727  24.317  26.382  1.00  0.00     0.031 C 
ATOM     36  C   UNL A   1      41.052  25.192  27.966  1.00  0.00     0.029 A 
ATOM     37  N   UNL A   1      42.481  26.910  28.083  1.00  0.00    -0.354 N 
ATOM     38  C   UNL A   1      46.638  26.363  26.803  1.00  0.00     0.074 A 
ATOM     39  C   UNL A   1      46.856  25.006  26.359  1.00  0.00     0.031 C 
ATOM     40  C   UNL A   1      40.378  26.245  28.459  1.00  0.00     0.029 A 
ATOM     41  C   UNL A   1      41.293  27.376  28.588  1.00  0.00     0.049 A 
ATOM     42  H   UNL A   1      43.287  27.468  27.998  1.00  0.00     0.167 HD
ATOM     43  C   UNL A   1      47.583  27.330  26.801  1.00  0.00     0.037 A 
ATOM     44  C   UNL A   1      41.002  28.582  29.109  1.00  0.00     0.037 A 
ATOM     45  C   UNL A   1      47.335  28.671  27.253  1.00  0.00     0.049 A 
ATOM     46  C   UNL A   1      42.093  29.622  29.160  1.00  0.00     0.074 A 
ATOM     47  C   UNL A   1      48.198  29.750  27.278  1.00  0.00     0.029 A 
ATOM     48  N   UNL A   1      46.123  29.108  27.775  1.00  0.00    -0.354 N 
ATOM     49  N   UNL A   1      43.334  29.542  28.743  1.00  0.00    -0.248 NA
ATOM     50  C   UNL A   1      41.741  30.918  29.753  1.00  0.00     0.031 C 
ATOM     51  C   UNL A   1      47.528  30.822  27.876  1.00  0.00     0.029 A 
ATOM     52  C   UNL A   1      46.226  30.434  28.157  1.00  0.00     0.049 A 
ATOM     53  H   UNL A   1      45.313  28.556  27.861  1.00  0.00     0.167 HD
ATOM     54  C   UNL A   1      43.902  30.785  28.986  1.00  0.00     0.074 A 
ATOM     55  C   UNL A   1      42.864  31.602  29.584  1.00  0.00     0.031 C 
ATOM     56  C   UNL A   1      45.162  31.219  28.734  1.00  0.00     0.037 A 
BRANCH  43  57
ATOM     57  C   UNL A   1      48.960  26.955  26.330  1.00  0.00     0.064 A 
ATOM     58  C   UNL A   1      49.359  27.113  24.993  1.00  0.00     0.173 A 
ATOM     59  C   UNL A   1      49.894  26.421  27.231  1.00  0.00     0.173 A 
ATOM     60  F   UNL A   1      48.500  27.602  24.085  1.00  0.00    -0.203 F 
ATOM     61  C   UNL A   1      50.624  26.716  24.569  1.00  0.00     0.198 A 
ATOM     62  C   UNL A   1      51.172  26.058  26.811  1.00  0.00     0.198 A 
ATOM     63  F   UNL A   1      49.568  26.245  28.520  1.00  0.00    -0.203 F 
ATOM     64  F   UNL A   1      50.958  26.816  23.275  1.00  0.00    -0.200 F 
ATOM     65  C   UNL A   1      51.532  26.196  25.479  1.00  0.00     0.200 A 
ATOM     66  F   UNL A   1      52.052  25.568  27.695  1.00  0.00    -0.200 F 
ATOM     67  F   UNL A   1      52.750  25.816  25.070  1.00  0.00    -0.200 F 
ENDBRANCH  43  57
BRANCH  44  68
ATOM     68  C   UNL A   1      39.631  28.867  29.604  1.00  0.00     0.064 A 
ATOM     69  C   UNL A   1      38.663  29.421  28.756  1.00  0.00     0.173 A 
ATOM     70  C   UNL A   1      39.256  28.589  30.928  1.00  0.00     0.173 A 
ATOM     71  F   UNL A   1      38.977  29.717  27.486  1.00  0.00    -0.203 F 
ATOM     72  C   UNL A   1      37.378  29.704  29.217  1.00  0.00     0.198 A 
ATOM     73  C   UNL A   1      37.962  28.845  31.378  1.00  0.00     0.198 A 
ATOM     74  F   UNL A   1      40.141  28.052  31.780  1.00  0.00    -0.203 F 
ATOM     75  F   UNL A   1      36.486  30.272  28.395  1.00  0.00    -0.200 F 
ATOM     76  C   UNL A   1      37.027  29.410  30.525  1.00  0.00     0.200 A 
ATOM     77  F   UNL A   1      37.622  28.542  32.639  1.00  0.00    -0.200 F 
ATOM     78  F   UNL A   1      35.790  29.676  30.965  1.00  0.00    -0.200 F 
ENDBRANCH  44  68
BRANCH  56  79
ATOM     79  C   UNL A   1      45.474  32.652  29.053  1.00  0.00     0.064 A 
ATOM     80  C   UNL A   1      45.204  33.685  28.147  1.00  0.00     0.173 A 
ATOM     81  C   UNL A   1      45.979  32.995  30.317  1.00  0.00     0.173 A 
ATOM     82  F   UNL A   1      44.735  33.406  26.921  1.00  0.00    -0.203 F 
ATOM     83  C   UNL A   1      45.447  35.013  28.489  1.00  0.00     0.198 A 
ATOM     84  C   UNL A   1      46.185  34.325  30.667  1.00  0.00     0.198 A 
ATOM     85  F   UNL A   1      46.244  32.041  31.223  1.00  0.00    -0.203 F 
ATOM     86  F   UNL A   1      45.222  35.985  27.592  1.00  0.00    -0.200 F 
ATOM     87  C   UNL A   1      45.924  35.332  29.751  1.00  0.00     0.200 A 
ATOM     88  F   UNL A   1      46.627  34.632  31.895  1.00  0.00    -0.200 F 
ATOM     89  F   UNL A   1      46.137  36.613  30.084  1.00  0.00    -0.200 F 
ENDBRANCH  56  79
ENDBRANCH  30  31
ENDBRANCH  23  25
ENDBRANCH  22  23
ENDBRANCH  21  22
ENDBRANCH  20  21
ENDBRANCH  19  20
ENDBRANCH   1  19
TORSDOF 20
ENDMDL
MODEL 3
REMARK VINA RESULT:      -9.7      5.468      9.090
REMARK SMILES C=CCN(CC(=O)OCCOCCOC(=O)c1ccc(-c2c3nc(c(-c4c(F)c(F)c(F)c(F)c4F)c4ccc([nH]4)c(-c4c(F)c(F)c(F)c(F)c4F)c4nc(c(-c5c(F)c(F)c(F)c(F)c5F)c5ccc2[nH]5)C=C4)C=C3)cc1)C(=O)NCC(C)C
REMARK SMILES IDX 10 1 9 2 8 3 6 4 7 5 5 6 4 7 3 8 2 9 1 10 80 11 81 12 82 13
REMARK SMILES IDX 83 15 84 16 85 17 86 18 11 19 12 20 13 21 14 22 15 23 16 24
REMARK SMILES IDX 17 25 18 26 79 27 19 28 78 29 20 30 21 31 22 32 72 33 23 34
REMARK SMILES IDX 77 35 71 36 73 37 24 38 76 39 70 40 69 41 25 43 57 44 37 45
REMARK SMILES IDX 56 46 38 47 41 48 55 49 74 50 39 51 40 52 54 54 75 55 42 56
REMARK SMILES IDX 26 57 27 58 35 59 28 60 29 61 33 62 36 63 30 64 31 65 34 66
REMARK SMILES IDX 32 67 58 68 59 69 67 70 60 71 61 72 65 73 68 74 62 75 63 76
REMARK SMILES IDX 66 77 64 78 43 79 44 80 52 81 45 82 46 83 50 84 53 85 47 86
REMARK SMILES IDX 48 87 51 88 49 89
REMARK H PARENT 82 14 73 42 41 53
REMARK Flexibility Score: inf
ROOT
ATOM      1  C   UNL A   1      32.936  30.101  26.297  1.00  0.00     0.202 C 
ENDROOT
BRANCH   1   2
ATOM      2  C   UNL A   1      31.996  29.247  25.426  1.00  0.00     0.261 C 
BRANCH   2   3
ATOM      3  O   UNL A   1      32.110  27.834  25.706  1.00  0.00    -0.462 OA
BRANCH   3   4
ATOM      4  C   UNL A   1      33.163  27.192  25.121  1.00  0.00     0.325 C 
ATOM      5  O   UNL A   1      34.024  26.581  25.747  1.00  0.00    -0.250 OA
BRANCH   4   6
ATOM      6  C   UNL A   1      33.271  27.425  23.604  1.00  0.00     0.244 C 
BRANCH   6   7
ATOM      7  N   UNL A   1      32.633  26.482  22.675  1.00  0.00    -0.310 N 
BRANCH   7   8
ATOM      8  C   UNL A   1      31.198  26.694  22.450  1.00  0.00     0.149 C 
BRANCH   8   9
ATOM      9  C   UNL A   1      30.395  25.664  23.196  1.00  0.00    -0.013 C 
ATOM     10  C   UNL A   1      29.610  25.948  24.246  1.00  0.00     0.006 C 
ENDBRANCH   8   9
ENDBRANCH   7   8
BRANCH   7  11
ATOM     11  C   UNL A   1      33.215  25.452  21.985  1.00  0.00     0.318 C 
ATOM     12  O   UNL A   1      33.280  25.461  20.750  1.00  0.00    -0.249 OA
ATOM     13  N   UNL A   1      33.701  24.327  22.538  1.00  0.00    -0.338 N 
ATOM     14  H   UNL A   1      34.141  23.777  21.850  1.00  0.00     0.165 HD
BRANCH  13  15
ATOM     15  C   UNL A   1      33.782  23.662  23.837  1.00  0.00     0.120 C 
BRANCH  15  16
ATOM     16  C   UNL A   1      33.216  22.227  23.827  1.00  0.00     0.002 C 
ATOM     17  C   UNL A   1      34.058  21.231  24.627  1.00  0.00     0.009 C 
ATOM     18  C   UNL A   1      31.767  22.214  24.308  1.00  0.00     0.009 C 
ENDBRANCH  15  16
ENDBRANCH  13  15
ENDBRANCH   7  11
ENDBRANCH   6   7
ENDBRANCH   4   6
ENDBRANCH   3   4
ENDBRANCH   2   3
ENDBRANCH   1   2
BRANCH   1  19
ATOM     19  O   UNL A   1      32.318  30.955  27.258  1.00  0.00    -0.374 OA
BRANCH  19  20
ATOM     20  C   UNL A   1      31.653  32.081  26.676  1.00  0.00     0.202 C 
BRANCH  20  21
ATOM     21  C   UNL A   1      32.198  33.423  27.174  1.00  0.00     0.261 C 
BRANCH  21  22
ATOM     22  O   UNL A   1      33.169  33.171  28.187  1.00  0.00    -0.460 OA
BRANCH  22  23
ATOM     23  C   UNL A   1      34.294  33.897  28.005  1.00  0.00     0.338 C 
ATOM     24  O   UNL A   1      34.371  35.078  27.739  1.00  0.00    -0.246 OA
BRANCH  23  25
ATOM     25  C   UNL A   1      35.430  33.045  28.419  1.00  0.00     0.060 A 
ATOM     26  C   UNL A   1      35.155  31.709  28.726  1.00  0.00     0.016 A 
ATOM     27  C   UNL A   1      36.744  33.531  28.442  1.00  0.00     0.016 A 
ATOM     28  C   UNL A   1      36.182  30.876  29.147  1.00  0.00     0.010 A 
ATOM     29  C   UNL A   1      37.775  32.695  28.841  1.00  0.00     0.010 A 
ATOM     30  C   UNL A   1      37.481  31.387  29.250  1.00  0.00    -0.014 A 
BRANCH  30  31
ATOM     31  C   UNL A   1      38.504  30.642  30.001  1.00  0.00     0.031 A 
ATOM     32  C   UNL A   1      38.683  30.981  31.450  1.00  0.00     0.074 A 
ATOM     33  C   UNL A   1      39.251  29.713  29.387  1.00  0.00     0.049 A 
ATOM     34  N   UNL A   1      39.561  30.534  32.307  1.00  0.00    -0.248 NA
ATOM     35  C   UNL A   1      37.753  31.980  32.007  1.00  0.00     0.031 C 
ATOM     36  C   UNL A   1      39.119  29.313  27.987  1.00  0.00     0.029 A 
ATOM     37  N   UNL A   1      40.279  28.948  29.866  1.00  0.00    -0.354 N 
ATOM     38  C   UNL A   1      39.297  31.205  33.494  1.00  0.00     0.074 A 
ATOM     39  C   UNL A   1      38.211  32.124  33.239  1.00  0.00     0.031 C 
ATOM     40  C   UNL A   1      40.039  28.372  27.717  1.00  0.00     0.029 A 
ATOM     41  C   UNL A   1      40.843  28.137  28.913  1.00  0.00     0.049 A 
ATOM     42  H   UNL A   1      40.584  28.976  30.801  1.00  0.00     0.167 HD
ATOM     43  C   UNL A   1      39.906  31.054  34.691  1.00  0.00     0.037 A 
ATOM     44  C   UNL A   1      41.905  27.317  29.012  1.00  0.00     0.037 A 
ATOM     45  C   UNL A   1      40.987  30.133  34.910  1.00  0.00     0.049 A 
ATOM     46  C   UNL A   1      42.612  27.217  30.340  1.00  0.00     0.074 A 
ATOM     47  C   UNL A   1      41.672  29.865  36.080  1.00  0.00     0.029 A 
ATOM     48  N   UNL A   1      41.548  29.336  33.919  1.00  0.00    -0.354 N 
ATOM     49  N   UNL A   1      42.334  27.817  31.474  1.00  0.00    -0.248 NA
ATOM     50  C   UNL A   1      43.776  26.326  30.403  1.00  0.00     0.031 C 
ATOM     51  C   UNL A   1      42.690  28.954  35.782  1.00  0.00     0.029 A 
ATOM     52  C   UNL A   1      42.595  28.599  34.444  1.00  0.00     0.049 A 
ATOM     53  H   UNL A   1      41.246  29.302  32.983  1.00  0.00     0.167 HD
ATOM     54  C   UNL A   1      43.263  27.349  32.393  1.00  0.00     0.074 A 
ATOM     55  C   UNL A   1      44.109  26.411  31.683  1.00  0.00     0.031 C 
ATOM     56  C   UNL A   1      43.404  27.660  33.706  1.00  0.00     0.037 A 
BRANCH  43  57
ATOM     57  C   UNL A   1      39.437  31.921  35.824  1.00  0.00     0.064 A 
ATOM     58  C   UNL A   1      40.009  33.176  36.087  1.00  0.00     0.173 A 
ATOM     59  C   UNL A   1      38.401  31.488  36.665  1.00  0.00     0.173 A 
ATOM     60  F   UNL A   1      41.015  33.634  35.326  1.00  0.00    -0.203 F 
ATOM     61  C   UNL A   1      39.590  33.944  37.171  1.00  0.00     0.198 A 
ATOM     62  C   UNL A   1      37.959  32.274  37.726  1.00  0.00     0.198 A 
ATOM     63  F   UNL A   1      37.818  30.296  36.463  1.00  0.00    -0.203 F 
ATOM     64  F   UNL A   1      40.197  35.109  37.440  1.00  0.00    -0.200 F 
ATOM     65  C   UNL A   1      38.561  33.496  37.985  1.00  0.00     0.200 A 
ATOM     66  F   UNL A   1      36.956  31.845  38.504  1.00  0.00    -0.200 F 
ATOM     67  F   UNL A   1      38.157  34.237  39.026  1.00  0.00    -0.200 F 
ENDBRANCH  43  57
BRANCH  44  68
ATOM     68  C   UNL A   1      42.347  26.526  27.835  1.00  0.00     0.064 A 
ATOM     69  C   UNL A   1      41.777  25.276  27.555  1.00  0.00     0.173 A 
ATOM     70  C   UNL A   1      43.338  27.001  26.962  1.00  0.00     0.173 A 
ATOM     71  F   UNL A   1      40.836  24.774  28.367  1.00  0.00    -0.203 F 
ATOM     72  C   UNL A   1      42.196  24.523  26.459  1.00  0.00     0.198 A 
ATOM     73  C   UNL A   1      43.734  26.259  25.850  1.00  0.00     0.198 A 
ATOM     74  F   UNL A   1      43.911  28.194  27.178  1.00  0.00    -0.203 F 
ATOM     75  F   UNL A   1      41.663  23.313  26.241  1.00  0.00    -0.200 F 
ATOM     76  C   UNL A   1      43.169  25.018  25.605  1.00  0.00     0.200 A 
ATOM     77  F   UNL A   1      44.662  26.750  25.016  1.00  0.00    -0.200 F 
ATOM     78  F   UNL A   1      43.566  24.295  24.549  1.00  0.00    -0.200 F 
ENDBRANCH  44  68
BRANCH  56  79
ATOM     79  C   UNL A   1      44.475  26.940  34.473  1.00  0.00     0.064 A 
ATOM     80  C   UNL A   1      44.248  25.690  35.062  1.00  0.00     0.173 A 
ATOM     81  C   UNL A   1      45.767  27.482  34.549  1.00  0.00     0.173 A 
ATOM     82  F   UNL A   1      43.026  25.137  35.029  1.00  0.00    -0.203 F 
ATOM     83  C   UNL A   1      45.275  25.014  35.717  1.00  0.00     0.198 A 
ATOM     84  C   UNL A   1      46.798  26.787  35.171  1.00  0.00     0.198 A 
ATOM     85  F   UNL A   1      46.036  28.673  33.991  1.00  0.00    -0.203 F 
ATOM     86  F   UNL A   1      45.027  23.838  36.311  1.00  0.00    -0.200 F 
ATOM     87  C   UNL A   1      46.550  25.557  35.760  1.00  0.00     0.200 A 
ATOM     88  F   UNL A   1      48.035  27.305  35.194  1.00  0.00    -0.200 F 
ATOM     89  F   UNL A   1      47.541  24.895  36.373  1.00  0.00    -0.200 F 
ENDBRANCH  56  79
ENDBRANCH  30  31
ENDBRANCH  23  25
ENDBRANCH  22  23
ENDBRANCH  21  22
ENDBRANCH  20  21
ENDBRANCH  19  20
ENDBRANCH   1  19
TORSDOF 20
ENDMDL
