MODEL 1
REMARK VINA RESULT:     -11.3      0.000      0.000
REMARK SMILES Cc1cc(C)nc(N2CCCC[C@H]2C(=O)OCCOCCOC(=O)c2ccc(-c3c4nc(c(-c5c(F)c(F)c(F)c(F)c5F)c5ccc([nH]5)c(-c5c(F)c(F)c(F)c(F)c5F)c5nc(c(-c6c(F)c(F)c(F)c(F)c6F)c6ccc3[nH]6)C=C5)C=C4)cc2)n1
REMARK SMILES IDX 20 1 19 2 18 3 17 4 16 5 14 6 15 7 13 8 8 9 9 10 10 11 12 12
REMARK SMILES IDX 11 13 7 14 1 15 2 16 3 17 88 18 4 19 5 20 6 21 21 22 22 23
REMARK SMILES IDX 23 24 24 25 25 26 26 27 87 28 27 29 86 30 28 31 29 32 30 33
REMARK SMILES IDX 80 34 31 35 85 36 79 37 81 38 32 39 84 40 78 41 77 42 33 44
REMARK SMILES IDX 65 45 45 46 64 47 46 48 49 49 63 50 82 51 47 52 48 53 62 55
REMARK SMILES IDX 83 56 50 57 34 58 35 59 43 60 36 61 37 62 41 63 44 64 38 65
REMARK SMILES IDX 39 66 42 67 40 68 66 69 67 70 75 71 68 72 69 73 73 74 76 75
REMARK SMILES IDX 70 76 71 77 74 78 72 79 51 80 52 81 60 82 53 83 54 84 58 85
REMARK SMILES IDX 61 86 55 87 56 88 59 89 57 90
REMARK H PARENT 81 43 49 54
REMARK Flexibility Score: inf
ROOT
ATOM      1  C   UNL A   1      32.586  29.704  25.252  1.00  0.00     0.202 C 
ENDROOT
BRANCH   1   2
ATOM      2  O   UNL A   1      31.830  28.510  25.047  1.00  0.00    -0.374 OA
BRANCH   2   3
ATOM      3  C   UNL A   1      31.405  27.771  26.191  1.00  0.00     0.202 C 
BRANCH   3   4
ATOM      4  C   UNL A   1      31.898  26.328  26.313  1.00  0.00     0.261 C 
BRANCH   4   5
ATOM      5  O   UNL A   1      32.883  26.035  25.318  1.00  0.00    -0.462 OA
BRANCH   5   6
ATOM      6  C   UNL A   1      33.528  24.841  25.466  1.00  0.00     0.328 C 
ATOM      7  O   UNL A   1      33.355  24.075  26.408  1.00  0.00    -0.250 OA
BRANCH   6   8
ATOM      8  C   UNL A   1      34.437  24.554  24.257  1.00  0.00     0.195 C 
ATOM      9  N   UNL A   1      34.755  23.139  24.122  1.00  0.00    -0.327 N 
ATOM     10  C   UNL A   1      33.673  22.210  23.858  1.00  0.00     0.120 C 
ATOM     11  C   UNL A   1      32.878  22.655  22.624  1.00  0.00     0.022 C 
ATOM     12  C   UNL A   1      33.797  25.007  22.936  1.00  0.00     0.037 C 
ATOM     13  C   UNL A   1      32.588  24.156  22.548  1.00  0.00     0.005 C 
BRANCH   9  14
ATOM     14  C   UNL A   1      35.872  22.695  24.786  1.00  0.00     0.226 A 
ATOM     15  C   UNL A   1      38.739  24.205  26.500  1.00  0.00     0.067 C 
ATOM     16  C   UNL A   1      37.860  23.175  25.857  1.00  0.00     0.043 A 
ATOM     17  C   UNL A   1      38.268  21.864  25.754  1.00  0.00     0.047 A 
ATOM     18  N   UNL A   1      36.686  23.600  25.354  1.00  0.00    -0.218 NA
ATOM     19  C   UNL A   1      37.385  21.000  25.143  1.00  0.00     0.043 A 
ATOM     20  C   UNL A   1      37.778  19.575  24.890  1.00  0.00     0.067 C 
ATOM     21  N   UNL A   1      36.176  21.393  24.695  1.00  0.00    -0.218 NA
ENDBRANCH   9  14
ENDBRANCH   6   8
ENDBRANCH   5   6
ENDBRANCH   4   5
ENDBRANCH   3   4
ENDBRANCH   2   3
ENDBRANCH   1   2
BRANCH   1  22
ATOM     22  C   UNL A   1      32.023  30.758  26.213  1.00  0.00     0.261 C 
BRANCH  22  23
ATOM     23  O   UNL A   1      32.718  30.789  27.473  1.00  0.00    -0.460 OA
BRANCH  23  24
ATOM     24  C   UNL A   1      33.571  31.827  27.621  1.00  0.00     0.338 C 
ATOM     25  O   UNL A   1      33.301  33.022  27.625  1.00  0.00    -0.246 OA
BRANCH  24  26
ATOM     26  C   UNL A   1      34.916  31.339  27.957  1.00  0.00     0.060 A 
ATOM     27  C   UNL A   1      35.071  29.964  28.182  1.00  0.00     0.016 A 
ATOM     28  C   UNL A   1      35.974  32.222  28.176  1.00  0.00     0.016 A 
ATOM     29  C   UNL A   1      36.275  29.471  28.675  1.00  0.00     0.010 A 
ATOM     30  C   UNL A   1      37.179  31.727  28.686  1.00  0.00     0.010 A 
ATOM     31  C   UNL A   1      37.318  30.356  28.974  1.00  0.00    -0.014 A 
BRANCH  31  32
ATOM     32  C   UNL A   1      38.485  29.864  29.740  1.00  0.00     0.031 A 
ATOM     33  C   UNL A   1      38.695  30.358  31.144  1.00  0.00     0.074 A 
ATOM     34  C   UNL A   1      39.318  28.954  29.208  1.00  0.00     0.049 A 
ATOM     35  N   UNL A   1      39.644  30.067  31.996  1.00  0.00    -0.248 NA
ATOM     36  C   UNL A   1      37.698  31.312  31.656  1.00  0.00     0.031 C 
ATOM     37  C   UNL A   1      39.185  28.366  27.877  1.00  0.00     0.029 A 
ATOM     38  N   UNL A   1      40.443  28.368  29.729  1.00  0.00    -0.354 N 
ATOM     39  C   UNL A   1      39.364  30.805  33.138  1.00  0.00     0.074 A 
ATOM     40  C   UNL A   1      38.172  31.577  32.864  1.00  0.00     0.031 C 
ATOM     41  C   UNL A   1      40.194  27.499  27.684  1.00  0.00     0.029 A 
ATOM     42  C   UNL A   1      41.056  27.496  28.865  1.00  0.00     0.049 A 
ATOM     43  H   UNL A   1      40.779  28.554  30.636  1.00  0.00     0.167 HD
ATOM     44  C   UNL A   1      40.040  30.830  34.312  1.00  0.00     0.037 A 
ATOM     45  C   UNL A   1      42.192  26.788  29.011  1.00  0.00     0.037 A 
ATOM     46  C   UNL A   1      41.222  30.056  34.583  1.00  0.00     0.049 A 
ATOM     47  C   UNL A   1      42.965  26.889  30.300  1.00  0.00     0.074 A 
ATOM     48  C   UNL A   1      41.961  29.986  35.751  1.00  0.00     0.029 A 
ATOM     49  N   UNL A   1      41.844  29.223  33.665  1.00  0.00    -0.354 N 
ATOM     50  N   UNL A   1      42.680  27.566  31.386  1.00  0.00    -0.248 NA
ATOM     51  C   UNL A   1      44.219  26.126  30.382  1.00  0.00     0.031 C 
ATOM     52  C   UNL A   1      43.059  29.150  35.522  1.00  0.00     0.029 A 
ATOM     53  C   UNL A   1      42.977  28.659  34.228  1.00  0.00     0.049 A 
ATOM     54  H   UNL A   1      41.527  29.057  32.747  1.00  0.00     0.167 HD
ATOM     55  C   UNL A   1      43.700  27.291  32.288  1.00  0.00     0.074 A 
ATOM     56  C   UNL A   1      44.608  26.379  31.624  1.00  0.00     0.031 C 
ATOM     57  C   UNL A   1      43.868  27.750  33.552  1.00  0.00     0.037 A 
BRANCH  44  58
ATOM     58  C   UNL A   1      39.530  31.753  35.381  1.00  0.00     0.064 A 
ATOM     59  C   UNL A   1      38.606  31.330  36.346  1.00  0.00     0.173 A 
ATOM     60  C   UNL A   1      39.988  33.078  35.446  1.00  0.00     0.173 A 
ATOM     61  F   UNL A   1      38.126  30.078  36.317  1.00  0.00    -0.203 F 
ATOM     62  C   UNL A   1      38.136  32.208  37.321  1.00  0.00     0.198 A 
ATOM     63  C   UNL A   1      39.537  33.945  36.437  1.00  0.00     0.198 A 
ATOM     64  F   UNL A   1      40.875  33.532  34.547  1.00  0.00    -0.203 F 
ATOM     65  F   UNL A   1      37.215  31.796  38.203  1.00  0.00    -0.200 F 
ATOM     66  C   UNL A   1      38.606  33.512  37.368  1.00  0.00     0.200 A 
ATOM     67  F   UNL A   1      39.999  35.202  36.487  1.00  0.00    -0.200 F 
ATOM     68  F   UNL A   1      38.153  34.355  38.307  1.00  0.00    -0.200 F 
ENDBRANCH  44  58
BRANCH  45  69
ATOM     69  C   UNL A   1      42.668  25.919  27.904  1.00  0.00     0.064 A 
ATOM     70  C   UNL A   1      42.220  24.598  27.781  1.00  0.00     0.173 A 
ATOM     71  C   UNL A   1      43.581  26.392  26.950  1.00  0.00     0.173 A 
ATOM     72  F   UNL A   1      41.366  24.093  28.686  1.00  0.00    -0.203 F 
ATOM     73  C   UNL A   1      42.674  23.777  26.752  1.00  0.00     0.198 A 
ATOM     74  C   UNL A   1      44.015  25.579  25.906  1.00  0.00     0.198 A 
ATOM     75  F   UNL A   1      44.042  27.649  27.027  1.00  0.00    -0.203 F 
ATOM     76  F   UNL A   1      42.258  22.506  26.677  1.00  0.00    -0.200 F 
ATOM     77  C   UNL A   1      43.566  24.270  25.811  1.00  0.00     0.200 A 
ATOM     78  F   UNL A   1      44.870  26.063  24.995  1.00  0.00    -0.200 F 
ATOM     79  F   UNL A   1      43.998  23.484  24.816  1.00  0.00    -0.200 F 
ENDBRANCH  45  69
BRANCH  57  80
ATOM     80  C   UNL A   1      45.062  27.250  34.313  1.00  0.00     0.064 A 
ATOM     81  C   UNL A   1      45.011  26.066  35.063  1.00  0.00     0.173 A 
ATOM     82  C   UNL A   1      46.281  27.941  34.256  1.00  0.00     0.173 A 
ATOM     83  F   UNL A   1      43.864  25.378  35.161  1.00  0.00    -0.203 F 
ATOM     84  C   UNL A   1      46.134  25.605  35.746  1.00  0.00     0.198 A 
ATOM     85  C   UNL A   1      47.408  27.462  34.917  1.00  0.00     0.198 A 
ATOM     86  F   UNL A   1      46.383  29.076  33.546  1.00  0.00    -0.203 F 
ATOM     87  F   UNL A   1      46.052  24.494  36.492  1.00  0.00    -0.200 F 
ATOM     88  C   UNL A   1      47.332  26.298  35.667  1.00  0.00     0.200 A 
ATOM     89  F   UNL A   1      48.569  28.128  34.828  1.00  0.00    -0.200 F 
ATOM     90  F   UNL A   1      48.413  25.849  36.319  1.00  0.00    -0.200 F 
ENDBRANCH  57  80
ENDBRANCH  31  32
ENDBRANCH  24  26
ENDBRANCH  23  24
ENDBRANCH  22  23
ENDBRANCH   1  22
TORSDOF 15
ENDMDL
MODEL 2
REMARK VINA RESULT:     -11.2      0.675      7.436
REMARK SMILES Cc1cc(C)nc(N2CCCC[C@H]2C(=O)OCCOCCOC(=O)c2ccc(-c3c4nc(c(-c5c(F)c(F)c(F)c(F)c5F)c5ccc([nH]5)c(-c5c(F)c(F)c(F)c(F)c5F)c5nc(c(-c6c(F)c(F)c(F)c(F)c6F)c6ccc3[nH]6)C=C5)C=C4)cc2)n1
REMARK SMILES IDX 20 1 19 2 18 3 17 4 16 5 14 6 15 7 13 8 8 9 9 10 10 11 12 12
REMARK SMILES IDX 11 13 7 14 1 15 2 16 3 17 88 18 4 19 5 20 6 21 21 22 22 23
REMARK SMILES IDX 23 24 24 25 25 26 26 27 87 28 27 29 86 30 28 31 29 32 30 33
REMARK SMILES IDX 80 34 31 35 85 36 79 37 81 38 32 39 84 40 78 41 77 42 33 44
REMARK SMILES IDX 65 45 45 46 64 47 46 48 49 49 63 50 82 51 47 52 48 53 62 55
REMARK SMILES IDX 83 56 50 57 34 58 35 59 43 60 36 61 37 62 41 63 44 64 38 65
REMARK SMILES IDX 39 66 42 67 40 68 66 69 67 70 75 71 68 72 69 73 73 74 76 75
REMARK SMILES IDX 70 76 71 77 74 78 72 79 51 80 52 81 60 82 53 83 54 84 58 85
REMARK SMILES IDX 61 86 55 87 56 88 59 89 57 90
REMARK H PARENT 81 43 49 54
REMARK Flexibility Score: inf
ROOT
ATOM      1  C   UNL A   1      31.774  29.537  25.107  1.00  0.00     0.202 C 
ENDROOT
BRANCH   1   2
ATOM      2  O   UNL A   1      32.220  28.343  25.751  1.00  0.00    -0.374 OA
BRANCH   2   3
ATOM      3  C   UNL A   1      33.052  27.446  25.017  1.00  0.00     0.202 C 
BRANCH   3   4
ATOM      4  C   UNL A   1      33.714  26.310  25.798  1.00  0.00     0.261 C 
BRANCH   4   5
ATOM      5  O   UNL A   1      32.788  25.249  26.049  1.00  0.00    -0.462 OA
BRANCH   5   6
ATOM      6  C   UNL A   1      33.284  23.987  25.886  1.00  0.00     0.328 C 
ATOM      7  O   UNL A   1      33.197  23.097  26.725  1.00  0.00    -0.250 OA
BRANCH   6   8
ATOM      8  C   UNL A   1      33.895  23.815  24.483  1.00  0.00     0.195 C 
ATOM      9  N   UNL A   1      34.462  22.487  24.283  1.00  0.00    -0.327 N 
ATOM     10  C   UNL A   1      33.571  21.344  24.319  1.00  0.00     0.120 C 
ATOM     11  C   UNL A   1      32.412  21.538  23.333  1.00  0.00     0.022 C 
ATOM     12  C   UNL A   1      32.858  24.043  23.373  1.00  0.00     0.037 C 
ATOM     13  C   UNL A   1      31.800  22.941  23.323  1.00  0.00     0.005 C 
BRANCH   9  14
ATOM     14  C   UNL A   1      35.779  22.323  24.634  1.00  0.00     0.226 A 
ATOM     15  C   UNL A   1      38.132  19.530  24.948  1.00  0.00     0.067 C 
ATOM     16  C   UNL A   1      37.552  20.907  25.060  1.00  0.00     0.043 A 
ATOM     17  C   UNL A   1      38.246  21.916  25.688  1.00  0.00     0.047 A 
ATOM     18  N   UNL A   1      36.317  21.094  24.560  1.00  0.00    -0.218 NA
ATOM     19  C   UNL A   1      37.621  23.144  25.739  1.00  0.00     0.043 A 
ATOM     20  C   UNL A   1      38.248  24.279  26.491  1.00  0.00     0.067 C 
ATOM     21  N   UNL A   1      36.413  23.367  25.183  1.00  0.00    -0.218 NA
ENDBRANCH   9  14
ENDBRANCH   6   8
ENDBRANCH   5   6
ENDBRANCH   4   5
ENDBRANCH   3   4
ENDBRANCH   2   3
ENDBRANCH   1   2
BRANCH   1  22
ATOM     22  C   UNL A   1      31.674  30.815  25.948  1.00  0.00     0.261 C 
BRANCH  22  23
ATOM     23  O   UNL A   1      32.460  30.753  27.152  1.00  0.00    -0.460 OA
BRANCH  23  24
ATOM     24  C   UNL A   1      33.246  31.832  27.368  1.00  0.00     0.338 C 
ATOM     25  O   UNL A   1      32.914  33.012  27.360  1.00  0.00    -0.246 OA
BRANCH  24  26
ATOM     26  C   UNL A   1      34.586  31.411  27.798  1.00  0.00     0.060 A 
ATOM     27  C   UNL A   1      34.769  30.061  28.127  1.00  0.00     0.016 A 
ATOM     28  C   UNL A   1      35.607  32.340  28.002  1.00  0.00     0.016 A 
ATOM     29  C   UNL A   1      35.962  29.641  28.707  1.00  0.00     0.010 A 
ATOM     30  C   UNL A   1      36.800  31.920  28.600  1.00  0.00     0.010 A 
ATOM     31  C   UNL A   1      36.963  30.577  28.990  1.00  0.00    -0.014 A 
BRANCH  31  32
ATOM     32  C   UNL A   1      38.106  30.175  29.841  1.00  0.00     0.031 A 
ATOM     33  C   UNL A   1      39.125  29.219  29.287  1.00  0.00     0.074 A 
ATOM     34  C   UNL A   1      38.256  30.690  31.073  1.00  0.00     0.049 A 
ATOM     35  N   UNL A   1      40.200  28.730  29.851  1.00  0.00    -0.248 NA
ATOM     36  C   UNL A   1      38.901  28.753  27.910  1.00  0.00     0.031 C 
ATOM     37  C   UNL A   1      37.360  31.662  31.695  1.00  0.00     0.029 A 
ATOM     38  N   UNL A   1      39.223  30.464  32.019  1.00  0.00    -0.354 N 
ATOM     39  C   UNL A   1      40.774  27.894  28.902  1.00  0.00     0.074 A 
ATOM     40  C   UNL A   1      39.918  27.922  27.736  1.00  0.00     0.031 C 
ATOM     41  C   UNL A   1      37.819  31.950  32.925  1.00  0.00     0.029 A 
ATOM     42  C   UNL A   1      39.023  31.160  33.184  1.00  0.00     0.049 A 
ATOM     43  H   UNL A   1      39.987  29.860  31.876  1.00  0.00     0.167 HD
ATOM     44  C   UNL A   1      41.918  27.173  28.995  1.00  0.00     0.037 A 
ATOM     45  C   UNL A   1      39.727  31.148  34.332  1.00  0.00     0.037 A 
ATOM     46  C   UNL A   1      42.770  27.154  30.155  1.00  0.00     0.049 A 
ATOM     47  C   UNL A   1      40.955  30.282  34.435  1.00  0.00     0.074 A 
ATOM     48  C   UNL A   1      43.966  26.482  30.336  1.00  0.00     0.029 A 
ATOM     49  N   UNL A   1      42.507  27.831  31.336  1.00  0.00    -0.354 N 
ATOM     50  N   UNL A   1      41.508  29.516  33.526  1.00  0.00    -0.248 NA
ATOM     51  C   UNL A   1      41.655  30.279  35.728  1.00  0.00     0.031 C 
ATOM     52  C   UNL A   1      44.400  26.713  31.646  1.00  0.00     0.029 A 
ATOM     53  C   UNL A   1      43.502  27.569  32.264  1.00  0.00     0.049 A 
ATOM     54  H   UNL A   1      41.728  28.414  31.492  1.00  0.00     0.167 HD
ATOM     55  C   UNL A   1      42.633  28.963  34.124  1.00  0.00     0.074 A 
ATOM     56  C   UNL A   1      42.688  29.488  35.473  1.00  0.00     0.031 C 
ATOM     57  C   UNL A   1      43.541  28.102  33.602  1.00  0.00     0.037 A 
BRANCH  44  58
ATOM     58  C   UNL A   1      42.292  26.320  27.819  1.00  0.00     0.064 A 
ATOM     59  C   UNL A   1      43.208  26.754  26.851  1.00  0.00     0.173 A 
ATOM     60  C   UNL A   1      41.735  25.041  27.669  1.00  0.00     0.173 A 
ATOM     61  F   UNL A   1      43.757  27.975  26.940  1.00  0.00    -0.203 F 
ATOM     62  C   UNL A   1      43.531  25.951  25.759  1.00  0.00     0.198 A 
ATOM     63  C   UNL A   1      42.080  24.230  26.591  1.00  0.00     0.198 A 
ATOM     64  F   UNL A   1      40.855  24.577  28.570  1.00  0.00    -0.203 F 
ATOM     65  F   UNL A   1      44.371  26.406  24.819  1.00  0.00    -0.200 F 
ATOM     66  C   UNL A   1      42.970  24.688  25.634  1.00  0.00     0.200 A 
ATOM     67  F   UNL A   1      41.545  23.007  26.477  1.00  0.00    -0.200 F 
ATOM     68  F   UNL A   1      43.283  23.917  24.583  1.00  0.00    -0.200 F 
ENDBRANCH  44  58
BRANCH  45  69
ATOM     69  C   UNL A   1      39.287  31.986  35.476  1.00  0.00     0.064 A 
ATOM     70  C   UNL A   1      38.449  31.466  36.471  1.00  0.00     0.173 A 
ATOM     71  C   UNL A   1      39.694  33.323  35.597  1.00  0.00     0.173 A 
ATOM     72  F   UNL A   1      38.013  30.199  36.384  1.00  0.00    -0.203 F 
ATOM     73  C   UNL A   1      38.026  32.254  37.539  1.00  0.00     0.198 A 
ATOM     74  C   UNL A   1      39.290  34.103  36.678  1.00  0.00     0.198 A 
ATOM     75  F   UNL A   1      40.493  33.868  34.668  1.00  0.00    -0.203 F 
ATOM     76  F   UNL A   1      37.196  31.742  38.458  1.00  0.00    -0.200 F 
ATOM     77  C   UNL A   1      38.452  33.569  37.646  1.00  0.00     0.200 A 
ATOM     78  F   UNL A   1      39.712  35.370  36.781  1.00  0.00    -0.200 F 
ATOM     79  F   UNL A   1      38.050  34.325  38.676  1.00  0.00    -0.200 F 
ENDBRANCH  45  69
BRANCH  57  80
ATOM     80  C   UNL A   1      44.688  27.695  34.481  1.00  0.00     0.064 A 
ATOM     81  C   UNL A   1      44.639  26.529  35.259  1.00  0.00     0.173 A 
ATOM     82  C   UNL A   1      45.865  28.457  34.510  1.00  0.00     0.173 A 
ATOM     83  F   UNL A   1      43.530  25.775  35.277  1.00  0.00    -0.203 F 
ATOM     84  C   UNL A   1      45.721  26.156  36.053  1.00  0.00     0.198 A 
ATOM     85  C   UNL A   1      46.954  28.065  35.283  1.00  0.00     0.198 A 
ATOM     86  F   UNL A   1      45.963  29.577  33.777  1.00  0.00    -0.203 F 
ATOM     87  F   UNL A   1      45.637  25.061  36.822  1.00  0.00    -0.200 F 
ATOM     88  C   UNL A   1      46.879  26.918  36.059  1.00  0.00     0.200 A 
ATOM     89  F   UNL A   1      48.077  28.798  35.276  1.00  0.00    -0.200 F 
ATOM     90  F   UNL A   1      47.921  26.552  36.817  1.00  0.00    -0.200 F 
ENDBRANCH  57  80
ENDBRANCH  31  32
ENDBRANCH  24  26
ENDBRANCH  23  24
ENDBRANCH  22  23
ENDBRANCH   1  22
TORSDOF 15
ENDMDL
MODEL 3
REMARK VINA RESULT:     -11.1      2.271      4.165
REMARK SMILES Cc1cc(C)nc(N2CCCC[C@H]2C(=O)OCCOCCOC(=O)c2ccc(-c3c4nc(c(-c5c(F)c(F)c(F)c(F)c5F)c5ccc([nH]5)c(-c5c(F)c(F)c(F)c(F)c5F)c5nc(c(-c6c(F)c(F)c(F)c(F)c6F)c6ccc3[nH]6)C=C5)C=C4)cc2)n1
REMARK SMILES IDX 20 1 19 2 18 3 17 4 16 5 14 6 15 7 13 8 8 9 9 10 10 11 12 12
REMARK SMILES IDX 11 13 7 14 1 15 2 16 3 17 88 18 4 19 5 20 6 21 21 22 22 23
REMARK SMILES IDX 23 24 24 25 25 26 26 27 87 28 27 29 86 30 28 31 29 32 30 33
REMARK SMILES IDX 80 34 31 35 85 36 79 37 81 38 32 39 84 40 78 41 77 42 33 44
REMARK SMILES IDX 65 45 45 46 64 47 46 48 49 49 63 50 82 51 47 52 48 53 62 55
REMARK SMILES IDX 83 56 50 57 34 58 35 59 43 60 36 61 37 62 41 63 44 64 38 65
REMARK SMILES IDX 39 66 42 67 40 68 66 69 67 70 75 71 68 72 69 73 73 74 76 75
REMARK SMILES IDX 70 76 71 77 74 78 72 79 51 80 52 81 60 82 53 83 54 84 58 85
REMARK SMILES IDX 61 86 55 87 56 88 59 89 57 90
REMARK H PARENT 81 43 49 54
REMARK Flexibility Score: inf
ROOT
ATOM      1  C   UNL A   1      31.338  31.549  26.477  1.00  0.00     0.202 C 
ENDROOT
BRANCH   1   2
ATOM      2  O   UNL A   1      32.328  30.525  26.386  1.00  0.00    -0.374 OA
BRANCH   2   3
ATOM      3  C   UNL A   1      32.116  29.309  27.101  1.00  0.00     0.202 C 
BRANCH   3   4
ATOM      4  C   UNL A   1      32.301  28.002  26.329  1.00  0.00     0.261 C 
BRANCH   4   5
ATOM      5  O   UNL A   1      31.396  27.925  25.224  1.00  0.00    -0.462 OA
BRANCH   5   6
ATOM      6  C   UNL A   1      31.176  26.669  24.734  1.00  0.00     0.328 C 
ATOM      7  O   UNL A   1      30.974  25.681  25.433  1.00  0.00    -0.250 OA
BRANCH   6   8
ATOM      8  C   UNL A   1      31.137  26.679  23.195  1.00  0.00     0.195 C 
ATOM      9  N   UNL A   1      31.142  28.029  22.647  1.00  0.00    -0.327 N 
ATOM     10  C   UNL A   1      32.304  28.866  22.883  1.00  0.00     0.120 C 
ATOM     11  C   UNL A   1      33.580  28.146  22.429  1.00  0.00     0.022 C 
ATOM     12  C   UNL A   1      32.334  25.933  22.586  1.00  0.00     0.037 C 
ATOM     13  C   UNL A   1      33.657  26.665  22.808  1.00  0.00     0.005 C 
BRANCH   9  14
ATOM     14  C   UNL A   1      29.917  28.620  22.460  1.00  0.00     0.226 A 
ATOM     15  C   UNL A   1      28.662  31.851  21.266  1.00  0.00     0.067 C 
ATOM     16  C   UNL A   1      28.686  30.489  21.891  1.00  0.00     0.043 A 
ATOM     17  C   UNL A   1      27.550  29.948  22.447  1.00  0.00     0.047 A 
ATOM     18  N   UNL A   1      29.870  29.849  21.919  1.00  0.00    -0.218 NA
ATOM     19  C   UNL A   1      27.682  28.691  22.998  1.00  0.00     0.043 A 
ATOM     20  C   UNL A   1      26.530  28.058  23.719  1.00  0.00     0.067 C 
ATOM     21  N   UNL A   1      28.843  28.006  22.974  1.00  0.00    -0.218 NA
ENDBRANCH   9  14
ENDBRANCH   6   8
ENDBRANCH   5   6
ENDBRANCH   4   5
ENDBRANCH   3   4
ENDBRANCH   2   3
ENDBRANCH   1   2
BRANCH   1  22
ATOM     22  C   UNL A   1      31.771  32.928  26.989  1.00  0.00     0.261 C 
BRANCH  22  23
ATOM     23  O   UNL A   1      33.193  33.133  26.901  1.00  0.00    -0.460 OA
BRANCH  23  24
ATOM     24  C   UNL A   1      33.768  33.591  28.036  1.00  0.00     0.338 C 
ATOM     25  O   UNL A   1      33.311  34.405  28.829  1.00  0.00    -0.246 OA
BRANCH  24  26
ATOM     26  C   UNL A   1      35.003  32.847  28.320  1.00  0.00     0.060 A 
ATOM     27  C   UNL A   1      34.880  31.502  28.692  1.00  0.00     0.016 A 
ATOM     28  C   UNL A   1      36.243  33.486  28.351  1.00  0.00     0.016 A 
ATOM     29  C   UNL A   1      35.993  30.800  29.143  1.00  0.00     0.010 A 
ATOM     30  C   UNL A   1      37.358  32.784  28.820  1.00  0.00     0.010 A 
ATOM     31  C   UNL A   1      37.227  31.451  29.254  1.00  0.00    -0.014 A 
BRANCH  31  32
ATOM     32  C   UNL A   1      38.332  30.784  29.980  1.00  0.00     0.031 A 
ATOM     33  C   UNL A   1      38.550  31.108  31.431  1.00  0.00     0.074 A 
ATOM     34  C   UNL A   1      39.101  29.871  29.364  1.00  0.00     0.049 A 
ATOM     35  N   UNL A   1      39.452  30.650  32.260  1.00  0.00    -0.248 NA
ATOM     36  C   UNL A   1      37.622  32.081  32.028  1.00  0.00     0.031 C 
ATOM     37  C   UNL A   1      38.951  29.440  27.976  1.00  0.00     0.029 A 
ATOM     38  N   UNL A   1      40.162  29.140  29.834  1.00  0.00    -0.354 N 
ATOM     39  C   UNL A   1      39.206  31.283  33.471  1.00  0.00     0.074 A 
ATOM     40  C   UNL A   1      38.087  32.176  33.265  1.00  0.00     0.031 C 
ATOM     41  C   UNL A   1      39.890  28.517  27.705  1.00  0.00     0.029 A 
ATOM     42  C   UNL A   1      40.722  28.318  28.891  1.00  0.00     0.049 A 
ATOM     43  H   UNL A   1      40.491  29.200  30.761  1.00  0.00     0.167 HD
ATOM     44  C   UNL A   1      39.855  31.127  34.651  1.00  0.00     0.037 A 
ATOM     45  C   UNL A   1      41.793  27.506  28.975  1.00  0.00     0.037 A 
ATOM     46  C   UNL A   1      40.963  30.232  34.853  1.00  0.00     0.049 A 
ATOM     47  C   UNL A   1      42.541  27.405  30.279  1.00  0.00     0.074 A 
ATOM     48  C   UNL A   1      41.667  29.977  36.017  1.00  0.00     0.029 A 
ATOM     49  N   UNL A   1      41.537  29.453  33.859  1.00  0.00    -0.354 N 
ATOM     50  N   UNL A   1      42.288  27.984  31.427  1.00  0.00    -0.248 NA
ATOM     51  C   UNL A   1      43.728  26.536  30.296  1.00  0.00     0.031 C 
ATOM     52  C   UNL A   1      42.699  29.081  35.715  1.00  0.00     0.029 A 
ATOM     53  C   UNL A   1      42.607  28.740  34.375  1.00  0.00     0.049 A 
ATOM     54  H   UNL A   1      41.228  29.412  32.924  1.00  0.00     0.167 HD
ATOM     55  C   UNL A   1      43.261  27.531  32.308  1.00  0.00     0.074 A 
ATOM     56  C   UNL A   1      44.106  26.621  31.563  1.00  0.00     0.031 C 
ATOM     57  C   UNL A   1      43.437  27.837  33.618  1.00  0.00     0.037 A 
BRANCH  44  58
ATOM     58  C   UNL A   1      39.397  31.970  35.805  1.00  0.00     0.064 A 
ATOM     59  C   UNL A   1      38.425  31.522  36.710  1.00  0.00     0.173 A 
ATOM     60  C   UNL A   1      39.954  33.241  36.015  1.00  0.00     0.173 A 
ATOM     61  F   UNL A   1      37.851  30.321  36.544  1.00  0.00    -0.203 F 
ATOM     62  C   UNL A   1      38.005  32.327  37.767  1.00  0.00     0.198 A 
ATOM     63  C   UNL A   1      39.552  34.032  37.087  1.00  0.00     0.198 A 
ATOM     64  F   UNL A   1      40.890  33.715  35.178  1.00  0.00    -0.203 F 
ATOM     65  F   UNL A   1      37.039  31.899  38.591  1.00  0.00    -0.200 F 
ATOM     66  C   UNL A   1      38.573  33.579  37.957  1.00  0.00     0.200 A 
ATOM     67  F   UNL A   1      40.108  35.236  37.274  1.00  0.00    -0.200 F 
ATOM     68  F   UNL A   1      38.168  34.351  38.975  1.00  0.00    -0.200 F 
ENDBRANCH  44  58
BRANCH  45  69
ATOM     69  C   UNL A   1      42.222  26.723  27.788  1.00  0.00     0.064 A 
ATOM     70  C   UNL A   1      43.177  27.228  26.897  1.00  0.00     0.173 A 
ATOM     71  C   UNL A   1      41.684  25.455  27.521  1.00  0.00     0.173 A 
ATOM     72  F   UNL A   1      43.701  28.448  27.098  1.00  0.00    -0.203 F 
ATOM     73  C   UNL A   1      43.571  26.501  25.777  1.00  0.00     0.198 A 
ATOM     74  C   UNL A   1      42.097  24.718  26.415  1.00  0.00     0.198 A 
ATOM     75  F   UNL A   1      40.764  24.929  28.343  1.00  0.00    -0.203 F 
ATOM     76  F   UNL A   1      44.460  27.023  24.921  1.00  0.00    -0.200 F 
ATOM     77  C   UNL A   1      43.036  25.244  25.540  1.00  0.00     0.200 A 
ATOM     78  F   UNL A   1      41.584  23.500  26.195  1.00  0.00    -0.200 F 
ATOM     79  F   UNL A   1      43.420  24.541  24.466  1.00  0.00    -0.200 F 
ENDBRANCH  45  69
BRANCH  57  80
ATOM     80  C   UNL A   1      44.568  27.161  34.337  1.00  0.00     0.064 A 
ATOM     81  C   UNL A   1      44.407  25.907  34.943  1.00  0.00     0.173 A 
ATOM     82  C   UNL A   1      45.837  27.757  34.382  1.00  0.00     0.173 A 
ATOM     83  F   UNL A   1      43.209  25.304  34.940  1.00  0.00    -0.203 F 
ATOM     84  C   UNL A   1      45.473  25.284  35.588  1.00  0.00     0.198 A 
ATOM     85  C   UNL A   1      46.906  27.118  35.004  1.00  0.00     0.198 A 
ATOM     86  F   UNL A   1      46.043  28.953  33.811  1.00  0.00    -0.203 F 
ATOM     87  F   UNL A   1      45.286  24.105  36.198  1.00  0.00    -0.200 F 
ATOM     88  C   UNL A   1      46.722  25.886  35.612  1.00  0.00     0.200 A 
ATOM     89  F   UNL A   1      48.116  27.697  35.014  1.00  0.00    -0.200 F 
ATOM     90  F   UNL A   1      47.747  25.281  36.227  1.00  0.00    -0.200 F 
ENDBRANCH  57  80
ENDBRANCH  31  32
ENDBRANCH  24  26
ENDBRANCH  23  24
ENDBRANCH  22  23
ENDBRANCH   1  22
TORSDOF 15
ENDMDL
