MODEL 1
REMARK VINA RESULT:      -9.4      0.000      0.000
REMARK SMILES COC(=O)c1cc(F)cc(-c2ccc(C(=O)OCCOCCOC(=O)c3ccc(-c4c5nc(c(-c6c(F)c(F)c(F)c(F)c6F)c6ccc([nH]6)c(-c6c(F)c(F)c(F)c(F)c6F)c6nc(c(-c7c(F)c(F)c(F)c(F)c7F)c7ccc4[nH]7)C=C6)C=C5)cc3)cc2C)c1
REMARK SMILES IDX 19 1 18 2 17 3 15 4 16 5 14 6 11 7 12 8 90 9 13 10 89 11
REMARK SMILES IDX 91 12 10 13 5 14 6 15 92 16 7 17 8 18 9 19 3 20 4 21 2 22
REMARK SMILES IDX 1 23 20 24 21 25 22 26 23 27 24 28 25 29 26 30 27 31 88 32
REMARK SMILES IDX 28 33 87 34 29 35 30 36 31 37 81 38 32 39 86 40 80 41 82 42
REMARK SMILES IDX 33 43 85 44 79 45 78 46 34 48 66 49 46 50 65 51 47 52 50 53
REMARK SMILES IDX 64 54 83 55 48 56 49 57 63 59 84 60 51 61 35 62 36 63 44 64
REMARK SMILES IDX 37 65 38 66 42 67 45 68 39 69 40 70 43 71 41 72 67 73 68 74
REMARK SMILES IDX 76 75 69 76 70 77 74 78 77 79 71 80 72 81 75 82 73 83 52 84
REMARK SMILES IDX 53 85 61 86 54 87 55 88 59 89 62 90 56 91 57 92 60 93 58 94
REMARK H PARENT 82 47 50 58
REMARK Flexibility Score: inf
ROOT
ATOM      1  C   UNL A   1      35.409  33.629  30.965  1.00  0.00     0.202 C 
ENDROOT
BRANCH   1   2
ATOM      2  C   UNL A   1      35.344  33.023  32.366  1.00  0.00     0.261 C 
BRANCH   2   3
ATOM      3  O   UNL A   1      36.344  31.998  32.448  1.00  0.00    -0.460 OA
BRANCH   3   4
ATOM      4  C   UNL A   1      37.000  31.935  33.633  1.00  0.00     0.338 C 
ATOM      5  O   UNL A   1      36.653  32.455  34.684  1.00  0.00    -0.246 OA
BRANCH   4   6
ATOM      6  C   UNL A   1      38.157  31.011  33.488  1.00  0.00     0.060 A 
ATOM      7  C   UNL A   1      40.291  29.183  33.311  1.00  0.00    -0.015 A 
ATOM      8  C   UNL A   1      40.502  30.506  33.742  1.00  0.00     0.010 A 
ATOM      9  C   UNL A   1      39.011  28.813  32.845  1.00  0.00    -0.042 A 
ATOM     10  C   UNL A   1      39.450  31.407  33.840  1.00  0.00     0.016 A 
ATOM     11  C   UNL A   1      37.954  29.741  32.934  1.00  0.00     0.019 A 
ATOM     12  C   UNL A   1      38.719  27.464  32.242  1.00  0.00     0.045 C 
BRANCH   7  13
ATOM     13  C   UNL A   1      41.352  28.212  33.595  1.00  0.00    -0.014 A 
ATOM     14  C   UNL A   1      42.204  26.533  35.157  1.00  0.00     0.063 A 
ATOM     15  C   UNL A   1      43.295  26.302  34.323  1.00  0.00     0.055 A 
ATOM     16  C   UNL A   1      41.240  27.470  34.784  1.00  0.00     0.024 A 
ATOM     17  C   UNL A   1      43.402  27.025  33.137  1.00  0.00     0.124 A 
ATOM     18  F   UNL A   1      44.443  26.796  32.326  1.00  0.00    -0.207 F 
ATOM     19  C   UNL A   1      42.453  27.982  32.769  1.00  0.00     0.048 A 
BRANCH  14  20
ATOM     20  C   UNL A   1      41.995  25.829  36.442  1.00  0.00     0.337 C 
ATOM     21  O   UNL A   1      42.852  25.749  37.307  1.00  0.00    -0.246 OA
BRANCH  20  22
ATOM     22  O   UNL A   1      40.782  25.229  36.455  1.00  0.00    -0.465 OA
ATOM     23  C   UNL A   1      40.182  25.203  37.751  1.00  0.00     0.282 C 
ENDBRANCH  20  22
ENDBRANCH  14  20
ENDBRANCH   7  13
ENDBRANCH   4   6
ENDBRANCH   3   4
ENDBRANCH   2   3
ENDBRANCH   1   2
BRANCH   1  24
ATOM     24  O   UNL A   1      34.061  33.859  30.553  1.00  0.00    -0.374 OA
BRANCH  24  25
ATOM     25  C   UNL A   1      33.857  34.073  29.169  1.00  0.00     0.202 C 
BRANCH  25  26
ATOM     26  C   UNL A   1      34.441  32.993  28.258  1.00  0.00     0.261 C 
BRANCH  26  27
ATOM     27  O   UNL A   1      33.810  31.706  28.391  1.00  0.00    -0.460 OA
BRANCH  27  28
ATOM     28  C   UNL A   1      34.285  30.586  27.782  1.00  0.00     0.338 C 
ATOM     29  O   UNL A   1      33.528  29.796  27.226  1.00  0.00    -0.246 OA
BRANCH  28  30
ATOM     30  C   UNL A   1      35.658  30.132  28.144  1.00  0.00     0.060 A 
ATOM     31  C   UNL A   1      36.612  30.078  27.112  1.00  0.00     0.016 A 
ATOM     32  C   UNL A   1      36.038  29.771  29.438  1.00  0.00     0.016 A 
ATOM     33  C   UNL A   1      37.913  29.627  27.360  1.00  0.00     0.010 A 
ATOM     34  C   UNL A   1      37.321  29.267  29.678  1.00  0.00     0.010 A 
ATOM     35  C   UNL A   1      38.277  29.216  28.649  1.00  0.00    -0.014 A 
BRANCH  35  36
ATOM     36  C   UNL A   1      39.703  29.038  29.016  1.00  0.00     0.031 A 
ATOM     37  C   UNL A   1      40.533  30.111  29.648  1.00  0.00     0.074 A 
ATOM     38  C   UNL A   1      40.257  27.865  28.656  1.00  0.00     0.049 A 
ATOM     39  N   UNL A   1      41.802  30.079  29.976  1.00  0.00    -0.248 NA
ATOM     40  C   UNL A   1      39.868  31.383  29.952  1.00  0.00     0.031 C 
ATOM     41  C   UNL A   1      39.528  26.768  28.012  1.00  0.00     0.029 A 
ATOM     42  N   UNL A   1      41.546  27.413  28.730  1.00  0.00    -0.354 N 
ATOM     43  C   UNL A   1      42.085  31.317  30.541  1.00  0.00     0.074 A 
ATOM     44  C   UNL A   1      40.861  32.090  30.484  1.00  0.00     0.031 C 
ATOM     45  C   UNL A   1      40.389  25.790  27.707  1.00  0.00     0.029 A 
ATOM     46  C   UNL A   1      41.724  26.192  28.131  1.00  0.00     0.049 A 
ATOM     47  H   UNL A   1      42.271  27.912  29.170  1.00  0.00     0.167 HD
ATOM     48  C   UNL A   1      43.261  31.750  31.059  1.00  0.00     0.037 A 
ATOM     49  C   UNL A   1      42.844  25.473  27.932  1.00  0.00     0.037 A 
ATOM     50  C   UNL A   1      44.476  30.968  31.065  1.00  0.00     0.049 A 
ATOM     51  C   UNL A   1      44.138  25.990  28.479  1.00  0.00     0.074 A 
ATOM     52  C   UNL A   1      45.705  31.286  31.618  1.00  0.00     0.029 A 
ATOM     53  N   UNL A   1      44.622  29.725  30.463  1.00  0.00    -0.354 N 
ATOM     54  N   UNL A   1      44.372  27.115  29.108  1.00  0.00    -0.248 NA
ATOM     55  C   UNL A   1      45.317  25.131  28.317  1.00  0.00     0.031 C 
ATOM     56  C   UNL A   1      46.609  30.270  31.294  1.00  0.00     0.029 A 
ATOM     57  C   UNL A   1      45.930  29.281  30.600  1.00  0.00     0.049 A 
ATOM     58  H   UNL A   1      43.904  29.231  30.006  1.00  0.00     0.167 HD
ATOM     59  C   UNL A   1      45.716  27.093  29.442  1.00  0.00     0.074 A 
ATOM     60  C   UNL A   1      46.245  25.833  28.955  1.00  0.00     0.031 C 
ATOM     61  C   UNL A   1      46.443  28.029  30.099  1.00  0.00     0.037 A 
BRANCH  48  62
ATOM     62  C   UNL A   1      43.319  33.122  31.676  1.00  0.00     0.064 A 
ATOM     63  C   UNL A   1      43.143  33.296  33.059  1.00  0.00     0.173 A 
ATOM     64  C   UNL A   1      43.413  34.277  30.883  1.00  0.00     0.173 A 
ATOM     65  F   UNL A   1      43.027  32.230  33.865  1.00  0.00    -0.203 F 
ATOM     66  C   UNL A   1      43.039  34.568  33.619  1.00  0.00     0.198 A 
ATOM     67  C   UNL A   1      43.336  35.548  31.449  1.00  0.00     0.198 A 
ATOM     68  F   UNL A   1      43.575  34.173  29.555  1.00  0.00    -0.203 F 
ATOM     69  F   UNL A   1      42.821  34.705  34.934  1.00  0.00    -0.200 F 
ATOM     70  C   UNL A   1      43.137  35.693  32.815  1.00  0.00     0.200 A 
ATOM     71  F   UNL A   1      43.441  36.635  30.672  1.00  0.00    -0.200 F 
ATOM     72  F   UNL A   1      43.031  36.916  33.353  1.00  0.00    -0.200 F 
ENDBRANCH  48  62
BRANCH  49  73
ATOM     73  C   UNL A   1      42.737  24.168  27.237  1.00  0.00     0.064 A 
ATOM     74  C   UNL A   1      42.401  22.995  27.932  1.00  0.00     0.173 A 
ATOM     75  C   UNL A   1      43.077  24.052  25.883  1.00  0.00     0.173 A 
ATOM     76  F   UNL A   1      42.091  23.052  29.236  1.00  0.00    -0.203 F 
ATOM     77  C   UNL A   1      42.436  21.753  27.304  1.00  0.00     0.198 A 
ATOM     78  C   UNL A   1      43.086  22.812  25.249  1.00  0.00     0.198 A 
ATOM     79  F   UNL A   1      43.400  25.147  25.180  1.00  0.00    -0.203 F 
ATOM     80  F   UNL A   1      42.164  20.642  28.002  1.00  0.00    -0.200 F 
ATOM     81  C   UNL A   1      42.777  21.663  25.962  1.00  0.00     0.200 A 
ATOM     82  F   UNL A   1      43.403  22.731  23.950  1.00  0.00    -0.200 F 
ATOM     83  F   UNL A   1      42.814  20.468  25.357  1.00  0.00    -0.200 F 
ENDBRANCH  49  73
BRANCH  61  84
ATOM     84  C   UNL A   1      47.893  27.730  30.342  1.00  0.00     0.064 A 
ATOM     85  C   UNL A   1      48.299  27.094  31.524  1.00  0.00     0.173 A 
ATOM     86  C   UNL A   1      48.886  28.136  29.439  1.00  0.00     0.173 A 
ATOM     87  F   UNL A   1      47.389  26.690  32.423  1.00  0.00    -0.203 F 
ATOM     88  C   UNL A   1      49.648  26.893  31.803  1.00  0.00     0.198 A 
ATOM     89  C   UNL A   1      50.232  27.904  29.705  1.00  0.00     0.198 A 
ATOM     90  F   UNL A   1      48.547  28.732  28.285  1.00  0.00    -0.203 F 
ATOM     91  F   UNL A   1      50.014  26.318  32.957  1.00  0.00    -0.200 F 
ATOM     92  C   UNL A   1      50.612  27.295  30.891  1.00  0.00     0.200 A 
ATOM     93  F   UNL A   1      51.162  28.268  28.811  1.00  0.00    -0.200 F 
ATOM     94  F   UNL A   1      51.911  27.092  31.155  1.00  0.00    -0.200 F 
ENDBRANCH  61  84
ENDBRANCH  35  36
ENDBRANCH  28  30
ENDBRANCH  27  28
ENDBRANCH  26  27
ENDBRANCH  25  26
ENDBRANCH  24  25
ENDBRANCH   1  24
TORSDOF 17
ENDMDL
MODEL 2
REMARK VINA RESULT:      -9.3      3.843      9.575
REMARK SMILES COC(=O)c1cc(F)cc(-c2ccc(C(=O)OCCOCCOC(=O)c3ccc(-c4c5nc(c(-c6c(F)c(F)c(F)c(F)c6F)c6ccc([nH]6)c(-c6c(F)c(F)c(F)c(F)c6F)c6nc(c(-c7c(F)c(F)c(F)c(F)c7F)c7ccc4[nH]7)C=C6)C=C5)cc3)cc2C)c1
REMARK SMILES IDX 19 1 18 2 17 3 15 4 16 5 14 6 11 7 12 8 90 9 13 10 89 11
REMARK SMILES IDX 91 12 10 13 5 14 6 15 92 16 7 17 8 18 9 19 3 20 4 21 2 22
REMARK SMILES IDX 1 23 20 24 21 25 22 26 23 27 24 28 25 29 26 30 27 31 88 32
REMARK SMILES IDX 28 33 87 34 29 35 30 36 31 37 81 38 32 39 86 40 80 41 82 42
REMARK SMILES IDX 33 43 85 44 79 45 78 46 34 48 66 49 46 50 65 51 47 52 50 53
REMARK SMILES IDX 64 54 83 55 48 56 49 57 63 59 84 60 51 61 35 62 36 63 44 64
REMARK SMILES IDX 37 65 38 66 42 67 45 68 39 69 40 70 43 71 41 72 67 73 68 74
REMARK SMILES IDX 76 75 69 76 70 77 74 78 77 79 71 80 72 81 75 82 73 83 52 84
REMARK SMILES IDX 53 85 61 86 54 87 55 88 59 89 62 90 56 91 57 92 60 93 58 94
REMARK H PARENT 82 47 50 58
REMARK Flexibility Score: inf
ROOT
ATOM      1  C   UNL A   1      44.160  22.730  24.460  1.00  0.00     0.202 C 
ENDROOT
BRANCH   1   2
ATOM      2  C   UNL A   1      45.615  22.262  24.499  1.00  0.00     0.261 C 
BRANCH   2   3
ATOM      3  O   UNL A   1      46.115  22.495  25.822  1.00  0.00    -0.460 OA
BRANCH   3   4
ATOM      4  C   UNL A   1      46.444  23.784  26.089  1.00  0.00     0.338 C 
ATOM      5  O   UNL A   1      46.908  24.593  25.298  1.00  0.00    -0.246 OA
BRANCH   4   6
ATOM      6  C   UNL A   1      46.023  24.105  27.479  1.00  0.00     0.060 A 
ATOM      7  C   UNL A   1      45.124  24.790  30.057  1.00  0.00    -0.015 A 
ATOM      8  C   UNL A   1      46.390  25.197  29.598  1.00  0.00     0.010 A 
ATOM      9  C   UNL A   1      44.353  23.922  29.253  1.00  0.00    -0.042 A 
ATOM     10  C   UNL A   1      46.832  24.870  28.323  1.00  0.00     0.016 A 
ATOM     11  C   UNL A   1      44.819  23.583  27.968  1.00  0.00     0.019 A 
ATOM     12  C   UNL A   1      43.048  23.327  29.713  1.00  0.00     0.045 C 
BRANCH   7  13
ATOM     13  C   UNL A   1      44.587  25.481  31.234  1.00  0.00    -0.014 A 
ATOM     14  C   UNL A   1      43.334  27.414  32.059  1.00  0.00     0.063 A 
ATOM     15  C   UNL A   1      43.485  26.960  33.367  1.00  0.00     0.055 A 
ATOM     16  C   UNL A   1      43.871  26.670  31.007  1.00  0.00     0.024 A 
ATOM     17  C   UNL A   1      44.181  25.774  33.594  1.00  0.00     0.124 A 
ATOM     18  F   UNL A   1      44.315  25.328  34.849  1.00  0.00    -0.207 F 
ATOM     19  C   UNL A   1      44.741  25.037  32.548  1.00  0.00     0.048 A 
BRANCH  14  20
ATOM     20  C   UNL A   1      42.622  28.661  31.703  1.00  0.00     0.337 C 
ATOM     21  O   UNL A   1      41.424  28.704  31.475  1.00  0.00    -0.246 OA
BRANCH  20  22
ATOM     22  O   UNL A   1      43.501  29.683  31.577  1.00  0.00    -0.465 OA
ATOM     23  C   UNL A   1      43.497  30.568  32.698  1.00  0.00     0.282 C 
ENDBRANCH  20  22
ENDBRANCH  14  20
ENDBRANCH   7  13
ENDBRANCH   4   6
ENDBRANCH   3   4
ENDBRANCH   2   3
ENDBRANCH   1   2
BRANCH   1  24
ATOM     24  O   UNL A   1      43.373  21.672  25.006  1.00  0.00    -0.374 OA
BRANCH  24  25
ATOM     25  C   UNL A   1      42.340  22.055  25.896  1.00  0.00     0.202 C 
BRANCH  25  26
ATOM     26  C   UNL A   1      41.254  21.000  26.111  1.00  0.00     0.261 C 
BRANCH  26  27
ATOM     27  O   UNL A   1      40.157  21.442  26.931  1.00  0.00    -0.460 OA
BRANCH  27  28
ATOM     28  C   UNL A   1      39.297  22.423  26.545  1.00  0.00     0.338 C 
ATOM     29  O   UNL A   1      38.430  22.212  25.702  1.00  0.00    -0.246 OA
BRANCH  28  30
ATOM     30  C   UNL A   1      39.674  23.832  26.852  1.00  0.00     0.060 A 
ATOM     31  C   UNL A   1      39.686  24.216  28.205  1.00  0.00     0.016 A 
ATOM     32  C   UNL A   1      40.017  24.772  25.877  1.00  0.00     0.016 A 
ATOM     33  C   UNL A   1      39.992  25.530  28.575  1.00  0.00     0.010 A 
ATOM     34  C   UNL A   1      40.269  26.099  26.240  1.00  0.00     0.010 A 
ATOM     35  C   UNL A   1      40.285  26.484  27.592  1.00  0.00    -0.014 A 
BRANCH  35  36
ATOM     36  C   UNL A   1      40.913  27.779  27.952  1.00  0.00     0.031 A 
ATOM     37  C   UNL A   1      42.391  28.015  27.925  1.00  0.00     0.074 A 
ATOM     38  C   UNL A   1      40.075  28.727  28.408  1.00  0.00     0.049 A 
ATOM     39  N   UNL A   1      43.054  29.096  28.258  1.00  0.00    -0.248 NA
ATOM     40  C   UNL A   1      43.240  26.908  27.473  1.00  0.00     0.031 C 
ATOM     41  C   UNL A   1      38.619  28.576  28.492  1.00  0.00     0.029 A 
ATOM     42  N   UNL A   1      40.313  29.972  28.925  1.00  0.00    -0.354 N 
ATOM     43  C   UNL A   1      44.396  28.808  28.039  1.00  0.00     0.074 A 
ATOM     44  C   UNL A   1      44.456  27.437  27.574  1.00  0.00     0.031 C 
ATOM     45  C   UNL A   1      38.098  29.664  29.071  1.00  0.00     0.029 A 
ATOM     46  C   UNL A   1      39.180  30.584  29.399  1.00  0.00     0.049 A 
ATOM     47  H   UNL A   1      41.205  30.387  28.952  1.00  0.00     0.167 HD
ATOM     48  C   UNL A   1      45.465  29.624  28.213  1.00  0.00     0.037 A 
ATOM     49  C   UNL A   1      39.026  31.756  30.042  1.00  0.00     0.037 A 
ATOM     50  C   UNL A   1      45.375  30.975  28.717  1.00  0.00     0.049 A 
ATOM     51  C   UNL A   1      40.227  32.623  30.255  1.00  0.00     0.074 A 
ATOM     52  C   UNL A   1      46.386  31.908  28.872  1.00  0.00     0.029 A 
ATOM     53  N   UNL A   1      44.209  31.574  29.176  1.00  0.00    -0.354 N 
ATOM     54  N   UNL A   1      41.478  32.384  29.946  1.00  0.00    -0.248 NA
ATOM     55  C   UNL A   1      39.998  33.932  30.880  1.00  0.00     0.031 C 
ATOM     56  C   UNL A   1      45.847  33.042  29.485  1.00  0.00     0.029 A 
ATOM     57  C   UNL A   1      44.484  32.849  29.648  1.00  0.00     0.049 A 
ATOM     58  H   UNL A   1      43.318  31.156  29.167  1.00  0.00     0.167 HD
ATOM     59  C   UNL A   1      42.185  33.518  30.311  1.00  0.00     0.074 A 
ATOM     60  C   UNL A   1      41.219  34.452  30.856  1.00  0.00     0.031 C 
ATOM     61  C   UNL A   1      43.512  33.763  30.198  1.00  0.00     0.037 A 
BRANCH  48  62
ATOM     62  C   UNL A   1      46.834  29.109  27.854  1.00  0.00     0.064 A 
ATOM     63  C   UNL A   1      47.221  28.974  26.510  1.00  0.00     0.173 A 
ATOM     64  C   UNL A   1      47.712  28.623  28.835  1.00  0.00     0.173 A 
ATOM     65  F   UNL A   1      46.414  29.402  25.527  1.00  0.00    -0.203 F 
ATOM     66  C   UNL A   1      48.421  28.356  26.163  1.00  0.00     0.198 A 
ATOM     67  C   UNL A   1      48.924  28.029  28.486  1.00  0.00     0.198 A 
ATOM     68  F   UNL A   1      47.392  28.718  30.134  1.00  0.00    -0.203 F 
ATOM     69  F   UNL A   1      48.743  28.195  24.872  1.00  0.00    -0.200 F 
ATOM     70  C   UNL A   1      49.272  27.885  27.151  1.00  0.00     0.200 A 
ATOM     71  F   UNL A   1      49.751  27.583  29.442  1.00  0.00    -0.200 F 
ATOM     72  F   UNL A   1      50.423  27.284  26.817  1.00  0.00    -0.200 F 
ENDBRANCH  48  62
BRANCH  49  73
ATOM     73  C   UNL A   1      37.662  32.169  30.451  1.00  0.00     0.064 A 
ATOM     74  C   UNL A   1      36.846  32.935  29.605  1.00  0.00     0.173 A 
ATOM     75  C   UNL A   1      37.193  31.896  31.742  1.00  0.00     0.173 A 
ATOM     76  F   UNL A   1      37.262  33.243  28.366  1.00  0.00    -0.203 F 
ATOM     77  C   UNL A   1      35.624  33.435  30.045  1.00  0.00     0.198 A 
ATOM     78  C   UNL A   1      35.958  32.374  32.173  1.00  0.00     0.198 A 
ATOM     79  F   UNL A   1      37.938  31.163  32.582  1.00  0.00    -0.203 F 
ATOM     80  F   UNL A   1      34.886  34.209  29.237  1.00  0.00    -0.200 F 
ATOM     81  C   UNL A   1      35.180  33.152  31.329  1.00  0.00     0.200 A 
ATOM     82  F   UNL A   1      35.528  32.088  33.408  1.00  0.00    -0.200 F 
ATOM     83  F   UNL A   1      34.005  33.636  31.755  1.00  0.00    -0.200 F 
ENDBRANCH  49  73
BRANCH  61  84
ATOM     84  C   UNL A   1      44.008  35.101  30.664  1.00  0.00     0.064 A 
ATOM     85  C   UNL A   1      44.347  35.303  32.011  1.00  0.00     0.173 A 
ATOM     86  C   UNL A   1      44.081  36.199  29.795  1.00  0.00     0.173 A 
ATOM     87  F   UNL A   1      44.289  34.285  32.883  1.00  0.00    -0.203 F 
ATOM     88  C   UNL A   1      44.721  36.561  32.474  1.00  0.00     0.198 A 
ATOM     89  C   UNL A   1      44.487  37.448  30.256  1.00  0.00     0.198 A 
ATOM     90  F   UNL A   1      43.786  36.052  28.495  1.00  0.00    -0.203 F 
ATOM     91  F   UNL A   1      45.001  36.739  33.772  1.00  0.00    -0.200 F 
ATOM     92  C   UNL A   1      44.793  37.631  31.595  1.00  0.00     0.200 A 
ATOM     93  F   UNL A   1      44.584  38.475  29.400  1.00  0.00    -0.200 F 
ATOM     94  F   UNL A   1      45.164  38.840  32.040  1.00  0.00    -0.200 F 
ENDBRANCH  61  84
ENDBRANCH  35  36
ENDBRANCH  28  30
ENDBRANCH  27  28
ENDBRANCH  26  27
ENDBRANCH  25  26
ENDBRANCH  24  25
ENDBRANCH   1  24
TORSDOF 17
ENDMDL
MODEL 3
REMARK VINA RESULT:      -9.1      3.487      9.294
REMARK SMILES COC(=O)c1cc(F)cc(-c2ccc(C(=O)OCCOCCOC(=O)c3ccc(-c4c5nc(c(-c6c(F)c(F)c(F)c(F)c6F)c6ccc([nH]6)c(-c6c(F)c(F)c(F)c(F)c6F)c6nc(c(-c7c(F)c(F)c(F)c(F)c7F)c7ccc4[nH]7)C=C6)C=C5)cc3)cc2C)c1
REMARK SMILES IDX 19 1 18 2 17 3 15 4 16 5 14 6 11 7 12 8 90 9 13 10 89 11
REMARK SMILES IDX 91 12 10 13 5 14 6 15 92 16 7 17 8 18 9 19 3 20 4 21 2 22
REMARK SMILES IDX 1 23 20 24 21 25 22 26 23 27 24 28 25 29 26 30 27 31 88 32
REMARK SMILES IDX 28 33 87 34 29 35 30 36 31 37 81 38 32 39 86 40 80 41 82 42
REMARK SMILES IDX 33 43 85 44 79 45 78 46 34 48 66 49 46 50 65 51 47 52 50 53
REMARK SMILES IDX 64 54 83 55 48 56 49 57 63 59 84 60 51 61 35 62 36 63 44 64
REMARK SMILES IDX 37 65 38 66 42 67 45 68 39 69 40 70 43 71 41 72 67 73 68 74
REMARK SMILES IDX 76 75 69 76 70 77 74 78 77 79 71 80 72 81 75 82 73 83 52 84
REMARK SMILES IDX 53 85 61 86 54 87 55 88 59 89 62 90 56 91 57 92 60 93 58 94
REMARK H PARENT 82 47 50 58
REMARK Flexibility Score: inf
ROOT
ATOM      1  C   UNL A   1      33.336  35.141  29.367  1.00  0.00     0.202 C 
ENDROOT
BRANCH   1   2
ATOM      2  C   UNL A   1      34.382  34.385  28.547  1.00  0.00     0.261 C 
BRANCH   2   3
ATOM      3  O   UNL A   1      33.764  33.195  28.039  1.00  0.00    -0.460 OA
BRANCH   3   4
ATOM      4  C   UNL A   1      34.179  32.043  28.624  1.00  0.00     0.338 C 
ATOM      5  O   UNL A   1      34.513  31.901  29.792  1.00  0.00    -0.246 OA
BRANCH   4   6
ATOM      6  C   UNL A   1      34.037  30.934  27.643  1.00  0.00     0.060 A 
ATOM      7  C   UNL A   1      33.670  28.780  25.868  1.00  0.00    -0.015 A 
ATOM      8  C   UNL A   1      34.887  28.958  26.550  1.00  0.00     0.010 A 
ATOM      9  C   UNL A   1      32.669  29.769  25.986  1.00  0.00    -0.042 A 
ATOM     10  C   UNL A   1      35.068  30.014  27.435  1.00  0.00     0.016 A 
ATOM     11  C   UNL A   1      32.870  30.845  26.874  1.00  0.00     0.019 A 
ATOM     12  C   UNL A   1      31.388  29.735  25.194  1.00  0.00     0.045 C 
BRANCH   7  13
ATOM     13  C   UNL A   1      33.429  27.465  25.265  1.00  0.00    -0.014 A 
ATOM     14  C   UNL A   1      32.830  25.126  25.665  1.00  0.00     0.063 A 
ATOM     15  C   UNL A   1      32.934  24.861  24.302  1.00  0.00     0.055 A 
ATOM     16  C   UNL A   1      33.064  26.420  26.133  1.00  0.00     0.024 A 
ATOM     17  C   UNL A   1      33.282  25.897  23.438  1.00  0.00     0.124 A 
ATOM     18  F   UNL A   1      33.369  25.648  22.125  1.00  0.00    -0.207 F 
ATOM     19  C   UNL A   1      33.541  27.189  23.902  1.00  0.00     0.048 A 
BRANCH  14  20
ATOM     20  C   UNL A   1      32.476  24.103  26.673  1.00  0.00     0.337 C 
ATOM     21  O   UNL A   1      31.396  24.073  27.243  1.00  0.00    -0.246 OA
BRANCH  20  22
ATOM     22  O   UNL A   1      33.538  23.302  26.921  1.00  0.00    -0.465 OA
ATOM     23  C   UNL A   1      33.251  21.915  26.738  1.00  0.00     0.282 C 
ENDBRANCH  20  22
ENDBRANCH  14  20
ENDBRANCH   7  13
ENDBRANCH   4   6
ENDBRANCH   3   4
ENDBRANCH   2   3
ENDBRANCH   1   2
BRANCH   1  24
ATOM     24  O   UNL A   1      33.313  34.538  30.661  1.00  0.00    -0.374 OA
BRANCH  24  25
ATOM     25  C   UNL A   1      34.007  35.226  31.686  1.00  0.00     0.202 C 
BRANCH  25  26
ATOM     26  C   UNL A   1      34.712  34.325  32.700  1.00  0.00     0.261 C 
BRANCH  26  27
ATOM     27  O   UNL A   1      35.868  33.644  32.179  1.00  0.00    -0.460 OA
BRANCH  27  28
ATOM     28  C   UNL A   1      36.389  32.528  32.757  1.00  0.00     0.338 C 
ATOM     29  O   UNL A   1      36.292  32.333  33.964  1.00  0.00    -0.246 OA
BRANCH  28  30
ATOM     30  C   UNL A   1      37.411  31.764  31.986  1.00  0.00     0.060 A 
ATOM     31  C   UNL A   1      37.360  31.855  30.583  1.00  0.00     0.016 A 
ATOM     32  C   UNL A   1      38.405  30.983  32.579  1.00  0.00     0.016 A 
ATOM     33  C   UNL A   1      38.260  31.139  29.784  1.00  0.00     0.010 A 
ATOM     34  C   UNL A   1      39.269  30.223  31.783  1.00  0.00     0.010 A 
ATOM     35  C   UNL A   1      39.223  30.315  30.382  1.00  0.00    -0.014 A 
BRANCH  35  36
ATOM     36  C   UNL A   1      40.374  29.801  29.599  1.00  0.00     0.031 A 
ATOM     37  C   UNL A   1      40.477  28.390  29.112  1.00  0.00     0.074 A 
ATOM     38  C   UNL A   1      41.393  30.663  29.426  1.00  0.00     0.049 A 
ATOM     39  N   UNL A   1      41.456  27.820  28.452  1.00  0.00    -0.248 NA
ATOM     40  C   UNL A   1      39.348  27.497  29.397  1.00  0.00     0.031 C 
ATOM     41  C   UNL A   1      41.390  32.054  29.888  1.00  0.00     0.029 A 
ATOM     42  N   UNL A   1      42.631  30.499  28.866  1.00  0.00    -0.354 N 
ATOM     43  C   UNL A   1      41.056  26.508  28.227  1.00  0.00     0.074 A 
ATOM     44  C   UNL A   1      39.756  26.357  28.848  1.00  0.00     0.031 C 
ATOM     45  C   UNL A   1      42.585  32.602  29.637  1.00  0.00     0.029 A 
ATOM     46  C   UNL A   1      43.434  31.603  29.000  1.00  0.00     0.049 A 
ATOM     47  H   UNL A   1      42.916  29.673  28.413  1.00  0.00     0.167 HD
ATOM     48  C   UNL A   1      41.723  25.535  27.558  1.00  0.00     0.037 A 
ATOM     49  C   UNL A   1      44.721  31.792  28.659  1.00  0.00     0.037 A 
ATOM     50  C   UNL A   1      43.038  25.707  26.983  1.00  0.00     0.049 A 
ATOM     51  C   UNL A   1      45.448  30.690  27.955  1.00  0.00     0.074 A 
ATOM     52  C   UNL A   1      43.776  24.808  26.233  1.00  0.00     0.029 A 
ATOM     53  N   UNL A   1      43.821  26.845  27.123  1.00  0.00    -0.354 N 
ATOM     54  N   UNL A   1      45.022  29.488  27.651  1.00  0.00    -0.248 NA
ATOM     55  C   UNL A   1      46.822  30.972  27.521  1.00  0.00     0.031 C 
ATOM     56  C   UNL A   1      45.028  25.374  25.976  1.00  0.00     0.029 A 
ATOM     57  C   UNL A   1      45.049  26.655  26.503  1.00  0.00     0.049 A 
ATOM     58  H   UNL A   1      43.547  27.666  27.591  1.00  0.00     0.167 HD
ATOM     59  C   UNL A   1      46.060  28.877  26.968  1.00  0.00     0.074 A 
ATOM     60  C   UNL A   1      47.136  29.847  26.891  1.00  0.00     0.031 C 
ATOM     61  C   UNL A   1      46.113  27.628  26.446  1.00  0.00     0.037 A 
BRANCH  48  62
ATOM     62  C   UNL A   1      41.063  24.192  27.388  1.00  0.00     0.064 A 
ATOM     63  C   UNL A   1      41.587  23.050  28.016  1.00  0.00     0.173 A 
ATOM     64  C   UNL A   1      39.994  24.011  26.498  1.00  0.00     0.173 A 
ATOM     65  F   UNL A   1      42.622  23.158  28.862  1.00  0.00    -0.203 F 
ATOM     66  C   UNL A   1      41.081  21.780  27.744  1.00  0.00     0.198 A 
ATOM     67  C   UNL A   1      39.471  22.743  26.247  1.00  0.00     0.198 A 
ATOM     68  F   UNL A   1      39.457  25.065  25.864  1.00  0.00    -0.203 F 
ATOM     69  F   UNL A   1      41.631  20.702  28.317  1.00  0.00    -0.200 F 
ATOM     70  C   UNL A   1      40.022  21.628  26.861  1.00  0.00     0.200 A 
ATOM     71  F   UNL A   1      38.441  22.598  25.402  1.00  0.00    -0.200 F 
ATOM     72  F   UNL A   1      39.540  20.406  26.594  1.00  0.00    -0.200 F 
ENDBRANCH  48  62
BRANCH  49  73
ATOM     73  C   UNL A   1      45.344  33.109  28.934  1.00  0.00     0.064 A 
ATOM     74  C   UNL A   1      45.293  34.152  27.996  1.00  0.00     0.173 A 
ATOM     75  C   UNL A   1      46.096  33.311  30.097  1.00  0.00     0.173 A 
ATOM     76  F   UNL A   1      44.603  33.997  26.855  1.00  0.00    -0.203 F 
ATOM     77  C   UNL A   1      45.994  35.337  28.200  1.00  0.00     0.198 A 
ATOM     78  C   UNL A   1      46.776  34.508  30.313  1.00  0.00     0.198 A 
ATOM     79  F   UNL A   1      46.169  32.344  31.023  1.00  0.00    -0.203 F 
ATOM     80  F   UNL A   1      45.974  36.297  27.265  1.00  0.00    -0.200 F 
ATOM     81  C   UNL A   1      46.734  35.515  29.360  1.00  0.00     0.200 A 
ATOM     82  F   UNL A   1      47.479  34.679  31.441  1.00  0.00    -0.200 F 
ATOM     83  F   UNL A   1      47.413  36.653  29.557  1.00  0.00    -0.200 F 
ENDBRANCH  49  73
BRANCH  61  84
ATOM     84  C   UNL A   1      47.373  27.231  25.734  1.00  0.00     0.064 A 
ATOM     85  C   UNL A   1      48.453  26.691  26.449  1.00  0.00     0.173 A 
ATOM     86  C   UNL A   1      47.538  27.450  24.359  1.00  0.00     0.173 A 
ATOM     87  F   UNL A   1      48.348  26.466  27.767  1.00  0.00    -0.203 F 
ATOM     88  C   UNL A   1      49.659  26.404  25.816  1.00  0.00     0.198 A 
ATOM     89  C   UNL A   1      48.735  27.132  23.723  1.00  0.00     0.198 A 
ATOM     90  F   UNL A   1      46.529  27.947  23.628  1.00  0.00    -0.203 F 
ATOM     91  F   UNL A   1      50.690  25.926  26.526  1.00  0.00    -0.200 F 
ATOM     92  C   UNL A   1      49.797  26.622  24.453  1.00  0.00     0.200 A 
ATOM     93  F   UNL A   1      48.858  27.316  22.401  1.00  0.00    -0.200 F 
ATOM     94  F   UNL A   1      50.955  26.335  23.843  1.00  0.00    -0.200 F 
ENDBRANCH  61  84
ENDBRANCH  35  36
ENDBRANCH  28  30
ENDBRANCH  27  28
ENDBRANCH  26  27
ENDBRANCH  25  26
ENDBRANCH  24  25
ENDBRANCH   1  24
TORSDOF 17
ENDMDL
