MODEL 1
REMARK VINA RESULT:     -12.1      0.000      0.000
REMARK SMILES Cc1cc(Cl)cc2c1O[C@H](C(F)(F)F)C(C(=O)OCCOCCOC(=O)c1ccc(-c3c4nc(c(-c5c(F)c(F)c(F)c(F)c5F)c5ccc([nH]5)c(-c5c(F)c(F)c(F)c(F)c5F)c5nc(c(-c6c(F)c(F)c(F)c(F)c6F)c6ccc3[nH]6)C=C5)C=C4)cc1)=C2
REMARK SMILES IDX 22 1 21 2 20 3 19 4 18 5 16 6 17 7 15 8 1 9 2 10 3 11 8 12
REMARK SMILES IDX 4 13 7 14 9 15 5 16 6 17 90 18 10 19 11 20 12 21 13 22 14 23
REMARK SMILES IDX 23 24 24 25 25 26 26 27 27 28 28 29 89 30 29 31 88 32 30 33
REMARK SMILES IDX 31 34 32 35 82 36 33 37 87 38 81 39 83 40 34 41 86 42 80 43
REMARK SMILES IDX 79 44 35 46 67 47 47 48 66 49 48 50 51 51 65 52 84 53 49 54
REMARK SMILES IDX 50 55 64 57 85 58 52 59 36 60 37 61 45 62 38 63 39 64 43 65
REMARK SMILES IDX 46 66 40 67 41 68 44 69 42 70 68 71 69 72 77 73 70 74 71 75
REMARK SMILES IDX 75 76 78 77 72 78 73 79 76 80 74 81 53 82 54 83 62 84 55 85
REMARK SMILES IDX 56 86 60 87 63 88 57 89 58 90 61 91 59 92
REMARK H PARENT 83 45 51 56
REMARK Flexibility Score: inf
ROOT
ATOM      1  C   UNL A   1      31.439  29.033  25.319  1.00  0.00     0.202 C 
ENDROOT
BRANCH   1   2
ATOM      2  O   UNL A   1      31.085  28.859  23.946  1.00  0.00    -0.374 OA
BRANCH   2   3
ATOM      3  C   UNL A   1      30.597  27.580  23.546  1.00  0.00     0.202 C 
BRANCH   3   4
ATOM      4  C   UNL A   1      31.057  27.082  22.174  1.00  0.00     0.261 C 
BRANCH   4   5
ATOM      5  O   UNL A   1      31.379  25.682  22.207  1.00  0.00    -0.460 OA
BRANCH   5   6
ATOM      6  C   UNL A   1      32.624  25.379  21.773  1.00  0.00     0.338 C 
ATOM      7  O   UNL A   1      33.251  25.948  20.890  1.00  0.00    -0.246 OA
BRANCH   6   8
ATOM      8  C   UNL A   1      33.200  24.305  22.602  1.00  0.00     0.087 C 
ATOM      9  C   UNL A   1      35.442  21.476  26.283  1.00  0.00     0.048 C 
ATOM     10  C   UNL A   1      34.456  21.252  25.170  1.00  0.00    -0.007 A 
ATOM     11  C   UNL A   1      33.831  19.996  25.078  1.00  0.00     0.027 A 
ATOM     12  C   UNL A   1      34.098  22.261  24.260  1.00  0.00     0.131 A 
ATOM     13  C   UNL A   1      32.879  19.752  24.089  1.00  0.00     0.042 A 
ATOM     14  C   UNL A   1      33.116  22.018  23.293  1.00  0.00     0.019 A 
ATOM     15  O   UNL A   1      34.750  23.459  24.363  1.00  0.00    -0.475 OA
ATOM     16  Cl  UNL A   1      32.125  18.210  23.989  1.00  0.00    -0.084 Cl
ATOM     17  C   UNL A   1      32.518  20.756  23.198  1.00  0.00     0.032 A 
ATOM     18  C   UNL A   1      32.665  23.091  22.427  1.00  0.00     0.027 C 
ATOM     19  C   UNL A   1      34.297  24.601  23.585  1.00  0.00     0.316 C 
BRANCH  19  20
ATOM     20  C   UNL A   1      33.934  25.729  24.561  1.00  0.00     0.430 C 
ATOM     21  F   UNL A   1      34.778  25.747  25.623  1.00  0.00    -0.167 F 
ATOM     22  F   UNL A   1      34.023  26.948  23.981  1.00  0.00    -0.167 F 
ATOM     23  F   UNL A   1      32.677  25.599  25.043  1.00  0.00    -0.167 F 
ENDBRANCH  19  20
ENDBRANCH   6   8
ENDBRANCH   5   6
ENDBRANCH   4   5
ENDBRANCH   3   4
ENDBRANCH   2   3
ENDBRANCH   1   2
BRANCH   1  24
ATOM     24  C   UNL A   1      31.808  30.454  25.758  1.00  0.00     0.261 C 
BRANCH  24  25
ATOM     25  O   UNL A   1      32.513  30.463  27.014  1.00  0.00    -0.460 OA
BRANCH  25  26
ATOM     26  C   UNL A   1      33.244  31.576  27.250  1.00  0.00     0.338 C 
ATOM     27  O   UNL A   1      32.861  32.739  27.215  1.00  0.00    -0.246 OA
BRANCH  26  28
ATOM     28  C   UNL A   1      34.580  31.210  27.747  1.00  0.00     0.060 A 
ATOM     29  C   UNL A   1      34.803  29.867  28.080  1.00  0.00     0.016 A 
ATOM     30  C   UNL A   1      35.565  32.173  27.974  1.00  0.00     0.016 A 
ATOM     31  C   UNL A   1      35.997  29.489  28.687  1.00  0.00     0.010 A 
ATOM     32  C   UNL A   1      36.760  31.793  28.598  1.00  0.00     0.010 A 
ATOM     33  C   UNL A   1      36.965  30.457  28.988  1.00  0.00    -0.014 A 
BRANCH  33  34
ATOM     34  C   UNL A   1      38.113  30.090  29.851  1.00  0.00     0.031 A 
ATOM     35  C   UNL A   1      39.159  29.154  29.311  1.00  0.00     0.074 A 
ATOM     36  C   UNL A   1      38.250  30.624  31.077  1.00  0.00     0.049 A 
ATOM     37  N   UNL A   1      40.238  28.693  29.890  1.00  0.00    -0.248 NA
ATOM     38  C   UNL A   1      38.966  28.679  27.931  1.00  0.00     0.031 C 
ATOM     39  C   UNL A   1      37.332  31.584  31.687  1.00  0.00     0.029 A 
ATOM     40  N   UNL A   1      39.223  30.437  32.027  1.00  0.00    -0.354 N 
ATOM     41  C   UNL A   1      40.854  27.884  28.945  1.00  0.00     0.074 A 
ATOM     42  C   UNL A   1      40.016  27.887  27.767  1.00  0.00     0.031 C 
ATOM     43  C   UNL A   1      37.784  31.902  32.912  1.00  0.00     0.029 A 
ATOM     44  C   UNL A   1      39.006  31.146  33.183  1.00  0.00     0.049 A 
ATOM     45  H   UNL A   1      40.001  29.849  31.893  1.00  0.00     0.167 HD
ATOM     46  C   UNL A   1      42.024  27.209  29.049  1.00  0.00     0.037 A 
ATOM     47  C   UNL A   1      39.709  31.168  34.333  1.00  0.00     0.037 A 
ATOM     48  C   UNL A   1      42.857  27.205  30.220  1.00  0.00     0.049 A 
ATOM     49  C   UNL A   1      40.958  30.333  34.454  1.00  0.00     0.074 A 
ATOM     50  C   UNL A   1      44.060  26.551  30.420  1.00  0.00     0.029 A 
ATOM     51  N   UNL A   1      42.573  27.888  31.393  1.00  0.00    -0.354 N 
ATOM     52  N   UNL A   1      41.536  29.575  33.554  1.00  0.00    -0.248 NA
ATOM     53  C   UNL A   1      41.650  30.355  35.751  1.00  0.00     0.031 C 
ATOM     54  C   UNL A   1      44.484  26.803  31.728  1.00  0.00     0.029 A 
ATOM     55  C   UNL A   1      43.567  27.652  32.328  1.00  0.00     0.049 A 
ATOM     56  H   UNL A   1      41.783  28.457  31.540  1.00  0.00     0.167 HD
ATOM     57  C   UNL A   1      42.668  29.051  34.166  1.00  0.00     0.074 A 
ATOM     58  C   UNL A   1      42.703  29.586  35.511  1.00  0.00     0.031 C 
ATOM     59  C   UNL A   1      43.593  28.200  33.659  1.00  0.00     0.037 A 
BRANCH  46  60
ATOM     60  C   UNL A   1      42.477  26.410  27.865  1.00  0.00     0.064 A 
ATOM     61  C   UNL A   1      42.001  25.111  27.634  1.00  0.00     0.173 A 
ATOM     62  C   UNL A   1      43.336  26.977  26.911  1.00  0.00     0.173 A 
ATOM     63  F   UNL A   1      41.189  24.522  28.524  1.00  0.00    -0.203 F 
ATOM     64  C   UNL A   1      42.373  24.407  26.492  1.00  0.00     0.198 A 
ATOM     65  C   UNL A   1      43.687  26.278  25.760  1.00  0.00     0.198 A 
ATOM     66  F   UNL A   1      43.815  28.218  27.085  1.00  0.00    -0.203 F 
ATOM     67  F   UNL A   1      41.924  23.158  26.302  1.00  0.00    -0.200 F 
ATOM     68  C   UNL A   1      43.207  24.994  25.552  1.00  0.00     0.200 A 
ATOM     69  F   UNL A   1      44.483  26.851  24.846  1.00  0.00    -0.200 F 
ATOM     70  F   UNL A   1      43.548  24.322  24.444  1.00  0.00    -0.200 F 
ENDBRANCH  46  60
BRANCH  47  71
ATOM     71  C   UNL A   1      39.247  32.008  35.468  1.00  0.00     0.064 A 
ATOM     72  C   UNL A   1      38.419  31.479  36.468  1.00  0.00     0.173 A 
ATOM     73  C   UNL A   1      39.610  33.359  35.569  1.00  0.00     0.173 A 
ATOM     74  F   UNL A   1      38.022  30.200  36.400  1.00  0.00    -0.203 F 
ATOM     75  C   UNL A   1      37.964  32.272  37.519  1.00  0.00     0.198 A 
ATOM     76  C   UNL A   1      39.175  34.145  36.635  1.00  0.00     0.198 A 
ATOM     77  F   UNL A   1      40.395  33.915  34.635  1.00  0.00    -0.203 F 
ATOM     78  F   UNL A   1      37.141  31.751  38.439  1.00  0.00    -0.200 F 
ATOM     79  C   UNL A   1      38.347  33.601  37.605  1.00  0.00     0.200 A 
ATOM     80  F   UNL A   1      39.555  35.426  36.718  1.00  0.00    -0.200 F 
ATOM     81  F   UNL A   1      37.911  34.362  38.619  1.00  0.00    -0.200 F 
ENDBRANCH  47  71
BRANCH  59  82
ATOM     82  C   UNL A   1      44.737  27.804  34.546  1.00  0.00     0.064 A 
ATOM     83  C   UNL A   1      45.904  28.577  34.623  1.00  0.00     0.173 A 
ATOM     84  C   UNL A   1      44.630  26.686  35.387  1.00  0.00     0.173 A 
ATOM     85  F   UNL A   1      46.058  29.648  33.830  1.00  0.00    -0.203 F 
ATOM     86  C   UNL A   1      46.928  28.238  35.503  1.00  0.00     0.198 A 
ATOM     87  C   UNL A   1      45.645  26.366  36.285  1.00  0.00     0.198 A 
ATOM     88  F   UNL A   1      43.528  25.920  35.358  1.00  0.00    -0.203 F 
ATOM     89  F   UNL A   1      48.048  28.974  35.539  1.00  0.00    -0.200 F 
ATOM     90  C   UNL A   1      46.793  27.140  36.339  1.00  0.00     0.200 A 
ATOM     91  F   UNL A   1      45.506  25.314  37.103  1.00  0.00    -0.200 F 
ATOM     92  F   UNL A   1      47.773  26.826  37.199  1.00  0.00    -0.200 F 
ENDBRANCH  59  82
ENDBRANCH  33  34
ENDBRANCH  26  28
ENDBRANCH  25  26
ENDBRANCH  24  25
ENDBRANCH   1  24
TORSDOF 15
ENDMDL
MODEL 2
REMARK VINA RESULT:     -12.0      1.618      7.580
REMARK SMILES Cc1cc(Cl)cc2c1O[C@H](C(F)(F)F)C(C(=O)OCCOCCOC(=O)c1ccc(-c3c4nc(c(-c5c(F)c(F)c(F)c(F)c5F)c5ccc([nH]5)c(-c5c(F)c(F)c(F)c(F)c5F)c5nc(c(-c6c(F)c(F)c(F)c(F)c6F)c6ccc3[nH]6)C=C5)C=C4)cc1)=C2
REMARK SMILES IDX 22 1 21 2 20 3 19 4 18 5 16 6 17 7 15 8 1 9 2 10 3 11 8 12
REMARK SMILES IDX 4 13 7 14 9 15 5 16 6 17 90 18 10 19 11 20 12 21 13 22 14 23
REMARK SMILES IDX 23 24 24 25 25 26 26 27 27 28 28 29 89 30 29 31 88 32 30 33
REMARK SMILES IDX 31 34 32 35 82 36 33 37 87 38 81 39 83 40 34 41 86 42 80 43
REMARK SMILES IDX 79 44 35 46 67 47 47 48 66 49 48 50 51 51 65 52 84 53 49 54
REMARK SMILES IDX 50 55 64 57 85 58 52 59 36 60 37 61 45 62 38 63 39 64 43 65
REMARK SMILES IDX 46 66 40 67 41 68 44 69 42 70 68 71 69 72 77 73 70 74 71 75
REMARK SMILES IDX 75 76 78 77 72 78 73 79 76 80 74 81 53 82 54 83 62 84 55 85
REMARK SMILES IDX 56 86 60 87 63 88 57 89 58 90 61 91 59 92
REMARK H PARENT 83 45 51 56
REMARK Flexibility Score: inf
ROOT
ATOM      1  C   UNL A   1      31.084  31.757  26.430  1.00  0.00     0.202 C 
ENDROOT
BRANCH   1   2
ATOM      2  O   UNL A   1      31.757  30.548  26.787  1.00  0.00    -0.374 OA
BRANCH   2   3
ATOM      3  C   UNL A   1      32.569  29.925  25.794  1.00  0.00     0.202 C 
BRANCH   3   4
ATOM      4  C   UNL A   1      31.941  28.740  25.055  1.00  0.00     0.261 C 
BRANCH   4   5
ATOM      5  O   UNL A   1      32.628  27.514  25.355  1.00  0.00    -0.460 OA
BRANCH   5   6
ATOM      6  C   UNL A   1      31.923  26.644  26.114  1.00  0.00     0.338 C 
ATOM      7  O   UNL A   1      31.005  26.913  26.876  1.00  0.00    -0.246 OA
BRANCH   6   8
ATOM      8  C   UNL A   1      32.341  25.262  25.815  1.00  0.00     0.087 C 
ATOM      9  C   UNL A   1      32.898  20.495  23.933  1.00  0.00     0.048 C 
ATOM     10  C   UNL A   1      33.757  21.507  24.639  1.00  0.00    -0.007 A 
ATOM     11  C   UNL A   1      35.127  21.229  24.788  1.00  0.00     0.027 A 
ATOM     12  C   UNL A   1      33.256  22.735  25.104  1.00  0.00     0.131 A 
ATOM     13  C   UNL A   1      35.973  22.152  25.398  1.00  0.00     0.042 A 
ATOM     14  C   UNL A   1      34.120  23.671  25.684  1.00  0.00     0.019 A 
ATOM     15  O   UNL A   1      31.912  22.955  24.969  1.00  0.00    -0.475 OA
ATOM     16  Cl  UNL A   1      37.647  21.796  25.573  1.00  0.00    -0.084 Cl
ATOM     17  C   UNL A   1      35.477  23.371  25.846  1.00  0.00     0.032 A 
ATOM     18  C   UNL A   1      33.626  24.982  26.061  1.00  0.00     0.027 C 
ATOM     19  C   UNL A   1      31.362  24.272  25.250  1.00  0.00     0.316 C 
BRANCH  19  20
ATOM     20  C   UNL A   1      30.669  24.780  23.978  1.00  0.00     0.430 C 
ATOM     21  F   UNL A   1      30.179  23.750  23.244  1.00  0.00    -0.167 F 
ATOM     22  F   UNL A   1      29.616  25.582  24.262  1.00  0.00    -0.167 F 
ATOM     23  F   UNL A   1      31.511  25.479  23.185  1.00  0.00    -0.167 F 
ENDBRANCH  19  20
ENDBRANCH   6   8
ENDBRANCH   5   6
ENDBRANCH   4   5
ENDBRANCH   3   4
ENDBRANCH   2   3
ENDBRANCH   1   2
BRANCH   1  24
ATOM     24  C   UNL A   1      31.856  33.062  26.654  1.00  0.00     0.261 C 
BRANCH  24  25
ATOM     25  O   UNL A   1      32.489  33.097  27.947  1.00  0.00    -0.460 OA
BRANCH  25  26
ATOM     26  C   UNL A   1      33.550  33.930  28.040  1.00  0.00     0.338 C 
ATOM     27  O   UNL A   1      33.541  35.155  28.008  1.00  0.00    -0.246 OA
BRANCH  26  28
ATOM     28  C   UNL A   1      34.765  33.168  28.373  1.00  0.00     0.060 A 
ATOM     29  C   UNL A   1      34.601  31.858  28.841  1.00  0.00     0.016 A 
ATOM     30  C   UNL A   1      36.032  33.751  28.319  1.00  0.00     0.016 A 
ATOM     31  C   UNL A   1      35.700  31.141  29.305  1.00  0.00     0.010 A 
ATOM     32  C   UNL A   1      37.135  33.034  28.799  1.00  0.00     0.010 A 
ATOM     33  C   UNL A   1      36.966  31.740  29.326  1.00  0.00    -0.014 A 
BRANCH  33  34
ATOM     34  C   UNL A   1      38.075  31.068  30.045  1.00  0.00     0.031 A 
ATOM     35  C   UNL A   1      38.309  31.399  31.493  1.00  0.00     0.074 A 
ATOM     36  C   UNL A   1      38.828  30.138  29.433  1.00  0.00     0.049 A 
ATOM     37  N   UNL A   1      39.221  30.942  32.313  1.00  0.00    -0.248 NA
ATOM     38  C   UNL A   1      37.387  32.373  32.102  1.00  0.00     0.031 C 
ATOM     39  C   UNL A   1      38.661  29.693  28.051  1.00  0.00     0.029 A 
ATOM     40  N   UNL A   1      39.882  29.395  29.902  1.00  0.00    -0.354 N 
ATOM     41  C   UNL A   1      38.979  31.563  33.530  1.00  0.00     0.074 A 
ATOM     42  C   UNL A   1      37.857  32.456  33.339  1.00  0.00     0.031 C 
ATOM     43  C   UNL A   1      39.582  28.753  27.781  1.00  0.00     0.029 A 
ATOM     44  C   UNL A   1      40.423  28.552  28.962  1.00  0.00     0.049 A 
ATOM     45  H   UNL A   1      40.220  29.461  30.824  1.00  0.00     0.167 HD
ATOM     46  C   UNL A   1      39.627  31.393  34.706  1.00  0.00     0.037 A 
ATOM     47  C   UNL A   1      41.483  27.726  29.044  1.00  0.00     0.037 A 
ATOM     48  C   UNL A   1      40.742  30.505  34.897  1.00  0.00     0.049 A 
ATOM     49  C   UNL A   1      42.246  27.625  30.340  1.00  0.00     0.074 A 
ATOM     50  C   UNL A   1      41.465  30.266  36.052  1.00  0.00     0.029 A 
ATOM     51  N   UNL A   1      41.299  29.713  33.904  1.00  0.00    -0.354 N 
ATOM     52  N   UNL A   1      42.007  28.211  31.488  1.00  0.00    -0.248 NA
ATOM     53  C   UNL A   1      43.427  26.750  30.352  1.00  0.00     0.031 C 
ATOM     54  C   UNL A   1      42.486  29.360  35.749  1.00  0.00     0.029 A 
ATOM     55  C   UNL A   1      42.371  29.001  34.416  1.00  0.00     0.049 A 
ATOM     56  H   UNL A   1      40.980  29.663  32.974  1.00  0.00     0.167 HD
ATOM     57  C   UNL A   1      42.988  27.760  32.361  1.00  0.00     0.074 A 
ATOM     58  C   UNL A   1      43.821  26.841  31.614  1.00  0.00     0.031 C 
ATOM     59  C   UNL A   1      43.184  28.081  33.662  1.00  0.00     0.037 A 
BRANCH  46  60
ATOM     60  C   UNL A   1      39.153  32.183  35.888  1.00  0.00     0.064 A 
ATOM     61  C   UNL A   1      38.286  31.626  36.839  1.00  0.00     0.173 A 
ATOM     62  C   UNL A   1      39.631  33.483  36.112  1.00  0.00     0.173 A 
ATOM     63  F   UNL A   1      37.792  30.391  36.660  1.00  0.00    -0.203 F 
ATOM     64  C   UNL A   1      37.910  32.344  37.971  1.00  0.00     0.198 A 
ATOM     65  C   UNL A   1      39.270  34.189  37.256  1.00  0.00     0.198 A 
ATOM     66  F   UNL A   1      40.465  34.058  35.233  1.00  0.00    -0.203 F 
ATOM     67  F   UNL A   1      37.063  31.802  38.856  1.00  0.00    -0.200 F 
ATOM     68  C   UNL A   1      38.411  33.621  38.183  1.00  0.00     0.200 A 
ATOM     69  F   UNL A   1      39.764  35.418  37.466  1.00  0.00    -0.200 F 
ATOM     70  F   UNL A   1      38.063  34.303  39.282  1.00  0.00    -0.200 F 
ENDBRANCH  46  60
BRANCH  47  71
ATOM     71  C   UNL A   1      41.894  26.927  27.861  1.00  0.00     0.064 A 
ATOM     72  C   UNL A   1      42.848  27.414  26.955  1.00  0.00     0.173 A 
ATOM     73  C   UNL A   1      41.331  25.668  27.601  1.00  0.00     0.173 A 
ATOM     74  F   UNL A   1      43.392  28.623  27.146  1.00  0.00    -0.203 F 
ATOM     75  C   UNL A   1      43.215  26.677  25.831  1.00  0.00     0.198 A 
ATOM     76  C   UNL A   1      41.719  24.921  26.490  1.00  0.00     0.198 A 
ATOM     77  F   UNL A   1      40.411  25.159  28.433  1.00  0.00    -0.203 F 
ATOM     78  F   UNL A   1      44.098  27.184  24.961  1.00  0.00    -0.200 F 
ATOM     79  C   UNL A   1      42.655  25.429  25.603  1.00  0.00     0.200 A 
ATOM     80  F   UNL A   1      41.181  23.712  26.279  1.00  0.00    -0.200 F 
ATOM     81  F   UNL A   1      43.011  24.720  24.523  1.00  0.00    -0.200 F 
ENDBRANCH  47  71
BRANCH  59  82
ATOM     82  C   UNL A   1      44.327  27.425  34.380  1.00  0.00     0.064 A 
ATOM     83  C   UNL A   1      45.577  28.049  34.488  1.00  0.00     0.173 A 
ATOM     84  C   UNL A   1      44.144  26.198  35.035  1.00  0.00     0.173 A 
ATOM     85  F   UNL A   1      45.804  29.218  33.869  1.00  0.00    -0.203 F 
ATOM     86  C   UNL A   1      46.607  27.462  35.217  1.00  0.00     0.198 A 
ATOM     87  C   UNL A   1      45.168  25.627  35.786  1.00  0.00     0.198 A 
ATOM     88  F   UNL A   1      42.961  25.566  34.970  1.00  0.00    -0.203 F 
ATOM     89  F   UNL A   1      47.804  28.062  35.283  1.00  0.00    -0.200 F 
ATOM     90  C   UNL A   1      46.399  26.259  35.874  1.00  0.00     0.200 A 
ATOM     91  F   UNL A   1      44.959  24.472  36.432  1.00  0.00    -0.200 F 
ATOM     92  F   UNL A   1      47.387  25.704  36.591  1.00  0.00    -0.200 F 
ENDBRANCH  59  82
ENDBRANCH  33  34
ENDBRANCH  26  28
ENDBRANCH  25  26
ENDBRANCH  24  25
ENDBRANCH   1  24
TORSDOF 15
ENDMDL
MODEL 3
REMARK VINA RESULT:     -12.0      4.256      9.652
REMARK SMILES Cc1cc(Cl)cc2c1O[C@H](C(F)(F)F)C(C(=O)OCCOCCOC(=O)c1ccc(-c3c4nc(c(-c5c(F)c(F)c(F)c(F)c5F)c5ccc([nH]5)c(-c5c(F)c(F)c(F)c(F)c5F)c5nc(c(-c6c(F)c(F)c(F)c(F)c6F)c6ccc3[nH]6)C=C5)C=C4)cc1)=C2
REMARK SMILES IDX 22 1 21 2 20 3 19 4 18 5 16 6 17 7 15 8 1 9 2 10 3 11 8 12
REMARK SMILES IDX 4 13 7 14 9 15 5 16 6 17 90 18 10 19 11 20 12 21 13 22 14 23
REMARK SMILES IDX 23 24 24 25 25 26 26 27 27 28 28 29 89 30 29 31 88 32 30 33
REMARK SMILES IDX 31 34 32 35 82 36 33 37 87 38 81 39 83 40 34 41 86 42 80 43
REMARK SMILES IDX 79 44 35 46 67 47 47 48 66 49 48 50 51 51 65 52 84 53 49 54
REMARK SMILES IDX 50 55 64 57 85 58 52 59 36 60 37 61 45 62 38 63 39 64 43 65
REMARK SMILES IDX 46 66 40 67 41 68 44 69 42 70 68 71 69 72 77 73 70 74 71 75
REMARK SMILES IDX 75 76 78 77 72 78 73 79 76 80 74 81 53 82 54 83 62 84 55 85
REMARK SMILES IDX 56 86 60 87 63 88 57 89 58 90 61 91 59 92
REMARK H PARENT 83 45 51 56
REMARK Flexibility Score: inf
ROOT
ATOM      1  C   UNL A   1      35.584  21.597  25.316  1.00  0.00     0.202 C 
ENDROOT
BRANCH   1   2
ATOM      2  O   UNL A   1      34.358  21.091  24.783  1.00  0.00    -0.374 OA
BRANCH   2   3
ATOM      3  C   UNL A   1      33.675  21.894  23.823  1.00  0.00     0.202 C 
BRANCH   3   4
ATOM      4  C   UNL A   1      32.153  21.742  23.777  1.00  0.00     0.261 C 
BRANCH   4   5
ATOM      5  O   UNL A   1      31.498  23.021  23.816  1.00  0.00    -0.460 OA
BRANCH   5   6
ATOM      6  C   UNL A   1      31.162  23.445  25.056  1.00  0.00     0.338 C 
ATOM      7  O   UNL A   1      31.006  22.751  26.050  1.00  0.00    -0.246 OA
BRANCH   6   8
ATOM      8  C   UNL A   1      31.115  24.918  25.088  1.00  0.00     0.087 C 
ATOM      9  C   UNL A   1      32.140  29.953  25.504  1.00  0.00     0.048 C 
ATOM     10  C   UNL A   1      31.146  29.089  24.779  1.00  0.00    -0.007 A 
ATOM     11  C   UNL A   1      30.281  29.701  23.856  1.00  0.00     0.027 A 
ATOM     12  C   UNL A   1      31.088  27.695  24.949  1.00  0.00     0.131 A 
ATOM     13  C   UNL A   1      29.370  28.937  23.128  1.00  0.00     0.042 A 
ATOM     14  C   UNL A   1      30.194  26.932  24.188  1.00  0.00     0.019 A 
ATOM     15  O   UNL A   1      31.925  27.141  25.879  1.00  0.00    -0.475 OA
ATOM     16  Cl  UNL A   1      28.317  29.701  22.003  1.00  0.00    -0.084 Cl
ATOM     17  C   UNL A   1      29.323  27.557  23.289  1.00  0.00     0.032 A 
ATOM     18  C   UNL A   1      30.212  25.484  24.280  1.00  0.00     0.027 C 
ATOM     19  C   UNL A   1      32.053  25.695  25.968  1.00  0.00     0.316 C 
BRANCH  19  20
ATOM     20  C   UNL A   1      33.527  25.333  25.733  1.00  0.00     0.430 C 
ATOM     21  F   UNL A   1      34.346  26.342  26.119  1.00  0.00    -0.167 F 
ATOM     22  F   UNL A   1      33.899  24.244  26.446  1.00  0.00    -0.167 F 
ATOM     23  F   UNL A   1      33.786  25.075  24.432  1.00  0.00    -0.167 F 
ENDBRANCH  19  20
ENDBRANCH   6   8
ENDBRANCH   5   6
ENDBRANCH   4   5
ENDBRANCH   3   4
ENDBRANCH   2   3
ENDBRANCH   1   2
BRANCH   1  24
ATOM     24  C   UNL A   1      36.819  20.701  25.164  1.00  0.00     0.261 C 
BRANCH  24  25
ATOM     25  O   UNL A   1      38.026  21.472  25.019  1.00  0.00    -0.460 OA
BRANCH  25  26
ATOM     26  C   UNL A   1      38.999  21.183  25.913  1.00  0.00     0.338 C 
ATOM     27  O   UNL A   1      39.515  20.092  26.124  1.00  0.00    -0.246 OA
BRANCH  26  28
ATOM     28  C   UNL A   1      39.516  22.420  26.519  1.00  0.00     0.060 A 
ATOM     29  C   UNL A   1      38.941  23.632  26.111  1.00  0.00     0.016 A 
ATOM     30  C   UNL A   1      40.603  22.408  27.394  1.00  0.00     0.016 A 
ATOM     31  C   UNL A   1      39.483  24.839  26.541  1.00  0.00     0.010 A 
ATOM     32  C   UNL A   1      41.155  23.624  27.814  1.00  0.00     0.010 A 
ATOM     33  C   UNL A   1      40.619  24.843  27.361  1.00  0.00    -0.014 A 
BRANCH  33  34
ATOM     34  C   UNL A   1      41.332  26.119  27.607  1.00  0.00     0.031 A 
ATOM     35  C   UNL A   1      40.628  27.211  28.365  1.00  0.00     0.074 A 
ATOM     36  C   UNL A   1      42.605  26.284  27.207  1.00  0.00     0.049 A 
ATOM     37  N   UNL A   1      41.054  28.406  28.687  1.00  0.00    -0.248 NA
ATOM     38  C   UNL A   1      39.263  26.913  28.830  1.00  0.00     0.031 C 
ATOM     39  C   UNL A   1      43.408  25.280  26.514  1.00  0.00     0.029 A 
ATOM     40  N   UNL A   1      43.447  27.360  27.336  1.00  0.00    -0.354 N 
ATOM     41  C   UNL A   1      40.017  28.997  29.394  1.00  0.00     0.074 A 
ATOM     42  C   UNL A   1      38.927  28.046  29.430  1.00  0.00     0.031 C 
ATOM     43  C   UNL A   1      44.630  25.787  26.276  1.00  0.00     0.029 A 
ATOM     44  C   UNL A   1      44.684  27.162  26.773  1.00  0.00     0.049 A 
ATOM     45  H   UNL A   1      43.189  28.196  27.788  1.00  0.00     0.167 HD
ATOM     46  C   UNL A   1      39.983  30.219  29.975  1.00  0.00     0.037 A 
ATOM     47  C   UNL A   1      45.732  28.001  26.661  1.00  0.00     0.037 A 
ATOM     48  C   UNL A   1      41.066  31.165  29.940  1.00  0.00     0.049 A 
ATOM     49  C   UNL A   1      45.633  29.391  27.235  1.00  0.00     0.074 A 
ATOM     50  C   UNL A   1      41.124  32.429  30.498  1.00  0.00     0.029 A 
ATOM     51  N   UNL A   1      42.281  30.949  29.308  1.00  0.00    -0.354 N 
ATOM     52  N   UNL A   1      44.651  29.939  27.908  1.00  0.00    -0.248 NA
ATOM     53  C   UNL A   1      46.787  30.278  27.032  1.00  0.00     0.031 C 
ATOM     54  C   UNL A   1      42.359  32.996  30.169  1.00  0.00     0.029 A 
ATOM     55  C   UNL A   1      43.087  32.067  29.444  1.00  0.00     0.049 A 
ATOM     56  H   UNL A   1      42.534  30.125  28.833  1.00  0.00     0.167 HD
ATOM     57  C   UNL A   1      45.076  31.223  28.228  1.00  0.00     0.074 A 
ATOM     58  C   UNL A   1      46.410  31.368  27.686  1.00  0.00     0.031 C 
ATOM     59  C   UNL A   1      44.418  32.193  28.907  1.00  0.00     0.037 A 
BRANCH  46  60
ATOM     60  C   UNL A   1      38.733  30.615  30.700  1.00  0.00     0.064 A 
ATOM     61  C   UNL A   1      38.627  30.495  32.093  1.00  0.00     0.173 A 
ATOM     62  C   UNL A   1      37.660  31.193  30.005  1.00  0.00     0.173 A 
ATOM     63  F   UNL A   1      39.622  29.936  32.799  1.00  0.00    -0.203 F 
ATOM     64  C   UNL A   1      37.489  30.934  32.764  1.00  0.00     0.198 A 
ATOM     65  C   UNL A   1      36.533  31.651  30.682  1.00  0.00     0.198 A 
ATOM     66  F   UNL A   1      37.715  31.333  28.672  1.00  0.00    -0.203 F 
ATOM     67  F   UNL A   1      37.399  30.788  34.094  1.00  0.00    -0.200 F 
ATOM     68  C   UNL A   1      36.448  31.521  32.059  1.00  0.00     0.200 A 
ATOM     69  F   UNL A   1      35.533  32.229  30.001  1.00  0.00    -0.200 F 
ATOM     70  F   UNL A   1      35.362  31.960  32.709  1.00  0.00    -0.200 F 
ENDBRANCH  46  60
BRANCH  47  71
ATOM     71  C   UNL A   1      46.969  27.553  25.972  1.00  0.00     0.064 A 
ATOM     72  C   UNL A   1      48.048  27.023  26.695  1.00  0.00     0.173 A 
ATOM     73  C   UNL A   1      47.107  27.660  24.580  1.00  0.00     0.173 A 
ATOM     74  F   UNL A   1      47.974  26.927  28.030  1.00  0.00    -0.203 F 
ATOM     75  C   UNL A   1      49.219  26.626  26.052  1.00  0.00     0.198 A 
ATOM     76  C   UNL A   1      48.269  27.239  23.936  1.00  0.00     0.198 A 
ATOM     77  F   UNL A   1      46.107  28.166  23.843  1.00  0.00    -0.203 F 
ATOM     78  F   UNL A   1      50.248  26.161  26.771  1.00  0.00    -0.200 F 
ATOM     79  C   UNL A   1      49.326  26.729  24.674  1.00  0.00     0.200 A 
ATOM     80  F   UNL A   1      48.364  27.332  22.603  1.00  0.00    -0.200 F 
ATOM     81  F   UNL A   1      50.452  26.344  24.057  1.00  0.00    -0.200 F 
ENDBRANCH  47  71
BRANCH  59  82
ATOM     82  C   UNL A   1      45.128  33.496  29.127  1.00  0.00     0.064 A 
ATOM     83  C   UNL A   1      45.945  33.704  30.247  1.00  0.00     0.173 A 
ATOM     84  C   UNL A   1      45.057  34.515  28.164  1.00  0.00     0.173 A 
ATOM     85  F   UNL A   1      46.035  32.764  31.200  1.00  0.00    -0.203 F 
ATOM     86  C   UNL A   1      46.655  34.892  30.402  1.00  0.00     0.198 A 
ATOM     87  C   UNL A   1      45.791  35.690  28.310  1.00  0.00     0.198 A 
ATOM     88  F   UNL A   1      44.298  34.360  27.069  1.00  0.00    -0.203 F 
ATOM     89  F   UNL A   1      47.407  35.081  31.495  1.00  0.00    -0.200 F 
ATOM     90  C   UNL A   1      46.587  35.877  29.429  1.00  0.00     0.200 A 
ATOM     91  F   UNL A   1      45.735  36.635  27.361  1.00  0.00    -0.200 F 
ATOM     92  F   UNL A   1      47.286  37.012  29.572  1.00  0.00    -0.200 F 
ENDBRANCH  59  82
ENDBRANCH  33  34
ENDBRANCH  26  28
ENDBRANCH  25  26
ENDBRANCH  24  25
ENDBRANCH   1  24
TORSDOF 15
ENDMDL
