MODEL 1
REMARK VINA RESULT:     -11.9      0.000      0.000
REMARK SMILES O=C(CC[N@H+]1CCC[C@@H](C(=O)OCCOCCOC(=O)c2ccc(-c3c4nc(c(-c5c(F)c(F)c(F)c(F)c5F)c5ccc([nH]5)c(-c5c(F)c(F)c(F)c(F)c5F)c5nc(c(-c6c(F)c(F)c(F)c(F)c6F)c6ccc3[nH]6)C=C5)C=C4)cc2)C1)Nc1cccc(F)c1
REMARK SMILES IDX 14 1 13 2 12 3 10 4 11 5 9 6 5 7 6 8 84 9 7 11 8 12 4 13
REMARK SMILES IDX 3 14 2 15 1 16 85 17 86 19 87 20 92 21 88 22 90 23 89 24
REMARK SMILES IDX 91 25 15 26 16 27 17 28 18 29 19 30 20 31 21 32 22 33 83 34
REMARK SMILES IDX 23 35 82 36 24 37 25 38 26 39 76 40 27 41 81 42 75 43 77 44
REMARK SMILES IDX 28 45 80 46 74 47 73 48 29 50 61 51 41 52 60 53 42 54 45 55
REMARK SMILES IDX 59 56 78 57 43 58 44 59 58 61 79 62 46 63 30 64 31 65 39 66
REMARK SMILES IDX 32 67 33 68 37 69 40 70 34 71 35 72 38 73 36 74 62 75 63 76
REMARK SMILES IDX 71 77 64 78 65 79 69 80 72 81 66 82 67 83 70 84 68 85 47 86
REMARK SMILES IDX 48 87 56 88 49 89 50 90 54 91 57 92 51 93 52 94 55 95 53 96
REMARK H PARENT 5 10 85 18 77 49 45 60
REMARK Flexibility Score: inf
ROOT
ATOM      1  C   UNL A   1      40.267  20.916  26.574  1.00  0.00     0.202 C 
ENDROOT
BRANCH   1   2
ATOM      2  C   UNL A   1      39.267  22.004  26.188  1.00  0.00     0.261 C 
BRANCH   2   3
ATOM      3  O   UNL A   1      38.248  21.595  25.274  1.00  0.00    -0.463 OA
BRANCH   3   4
ATOM      4  C   UNL A   1      37.207  22.462  25.251  1.00  0.00     0.314 C 
ATOM      5  O   UNL A   1      37.295  23.664  25.027  1.00  0.00    -0.252 OA
BRANCH   4   6
ATOM      6  C   UNL A   1      35.919  21.817  25.670  1.00  0.00     0.154 C 
ATOM      7  N   UNL A   1      33.530  22.477  24.963  1.00  0.00    -0.334 N 
ATOM      8  C   UNL A   1      33.479  21.204  24.211  1.00  0.00     0.262 C 
ATOM      9  C   UNL A   1      34.916  22.867  25.199  1.00  0.00     0.277 C 
ATOM     10  H   UNL A   1      33.060  22.355  25.860  1.00  0.00     0.348 HD
ATOM     11  C   UNL A   1      34.291  20.089  24.878  1.00  0.00     0.062 C 
ATOM     12  C   UNL A   1      35.761  20.469  24.983  1.00  0.00     0.027 C 
BRANCH   7  13
ATOM     13  C   UNL A   1      32.852  23.548  24.158  1.00  0.00     0.272 C 
BRANCH  13  14
ATOM     14  C   UNL A   1      33.544  24.938  24.111  1.00  0.00     0.161 C 
BRANCH  14  15
ATOM     15  C   UNL A   1      32.655  25.988  23.436  1.00  0.00     0.230 C 
ATOM     16  O   UNL A   1      32.731  26.197  22.228  1.00  0.00    -0.275 OA
ATOM     17  N   UNL A   1      31.792  26.647  24.302  1.00  0.00    -0.326 N 
ATOM     18  H   UNL A   1      31.650  26.239  25.187  1.00  0.00     0.169 HD
BRANCH  17  19
ATOM     19  C   UNL A   1      31.098  27.852  24.029  1.00  0.00     0.044 A 
ATOM     20  C   UNL A   1      31.435  29.079  24.616  1.00  0.00     0.026 A 
ATOM     21  C   UNL A   1      29.965  27.792  23.209  1.00  0.00     0.065 A 
ATOM     22  C   UNL A   1      30.648  30.221  24.401  1.00  0.00     0.005 A 
ATOM     23  C   UNL A   1      29.211  28.942  22.975  1.00  0.00     0.125 A 
ATOM     24  C   UNL A   1      29.535  30.155  23.568  1.00  0.00     0.039 A 
ATOM     25  F   UNL A   1      28.131  28.867  22.184  1.00  0.00    -0.207 F 
ENDBRANCH  17  19
ENDBRANCH  14  15
ENDBRANCH  13  14
ENDBRANCH   7  13
ENDBRANCH   4   6
ENDBRANCH   3   4
ENDBRANCH   2   3
ENDBRANCH   1   2
BRANCH   1  26
ATOM     26  O   UNL A   1      41.347  20.610  25.695  1.00  0.00    -0.374 OA
BRANCH  26  27
ATOM     27  C   UNL A   1      42.669  20.809  26.205  1.00  0.00     0.202 C 
BRANCH  27  28
ATOM     28  C   UNL A   1      43.610  21.637  25.328  1.00  0.00     0.261 C 
BRANCH  28  29
ATOM     29  O   UNL A   1      42.955  22.807  24.823  1.00  0.00    -0.460 OA
BRANCH  29  30
ATOM     30  C   UNL A   1      43.696  23.942  24.944  1.00  0.00     0.338 C 
ATOM     31  O   UNL A   1      44.694  24.239  24.327  1.00  0.00    -0.246 OA
BRANCH  30  32
ATOM     32  C   UNL A   1      42.974  24.894  25.819  1.00  0.00     0.060 A 
ATOM     33  C   UNL A   1      43.423  26.223  25.827  1.00  0.00     0.016 A 
ATOM     34  C   UNL A   1      41.870  24.514  26.586  1.00  0.00     0.016 A 
ATOM     35  C   UNL A   1      42.823  27.158  26.665  1.00  0.00     0.010 A 
ATOM     36  C   UNL A   1      41.275  25.450  27.434  1.00  0.00     0.010 A 
ATOM     37  C   UNL A   1      41.786  26.757  27.515  1.00  0.00    -0.014 A 
BRANCH  37  38
ATOM     38  C   UNL A   1      41.403  27.622  28.654  1.00  0.00     0.031 A 
ATOM     39  C   UNL A   1      42.216  27.517  29.915  1.00  0.00     0.074 A 
ATOM     40  C   UNL A   1      40.377  28.483  28.570  1.00  0.00     0.049 A 
ATOM     41  N   UNL A   1      42.041  28.099  31.072  1.00  0.00    -0.248 NA
ATOM     42  C   UNL A   1      43.386  26.622  29.864  1.00  0.00     0.031 C 
ATOM     43  C   UNL A   1      39.551  28.704  27.386  1.00  0.00     0.029 A 
ATOM     44  N   UNL A   1      39.851  29.328  29.515  1.00  0.00    -0.354 N 
ATOM     45  C   UNL A   1      43.064  27.630  31.887  1.00  0.00     0.074 A 
ATOM     46  C   UNL A   1      43.838  26.691  31.106  1.00  0.00     0.031 C 
ATOM     47  C   UNL A   1      38.606  29.613  27.680  1.00  0.00     0.029 A 
ATOM     48  C   UNL A   1      38.739  30.009  29.081  1.00  0.00     0.049 A 
ATOM     49  H   UNL A   1      40.232  29.436  30.415  1.00  0.00     0.167 HD
ATOM     50  C   UNL A   1      43.338  27.962  33.169  1.00  0.00     0.037 A 
ATOM     51  C   UNL A   1      37.915  30.834  29.755  1.00  0.00     0.037 A 
ATOM     52  C   UNL A   1      42.566  28.903  33.936  1.00  0.00     0.049 A 
ATOM     53  C   UNL A   1      38.202  31.136  31.206  1.00  0.00     0.074 A 
ATOM     54  C   UNL A   1      42.771  29.329  35.236  1.00  0.00     0.029 A 
ATOM     55  N   UNL A   1      41.437  29.559  33.470  1.00  0.00    -0.354 N 
ATOM     56  N   UNL A   1      39.183  30.710  31.964  1.00  0.00    -0.248 NA
ATOM     57  C   UNL A   1      37.266  32.038  31.892  1.00  0.00     0.031 C 
ATOM     58  C   UNL A   1      41.729  30.196  35.578  1.00  0.00     0.029 A 
ATOM     59  C   UNL A   1      40.915  30.365  34.469  1.00  0.00     0.049 A 
ATOM     60  H   UNL A   1      41.062  29.466  32.565  1.00  0.00     0.167 HD
ATOM     61  C   UNL A   1      39.003  31.316  33.202  1.00  0.00     0.074 A 
ATOM     62  C   UNL A   1      37.826  32.150  33.088  1.00  0.00     0.031 C 
ATOM     63  C   UNL A   1      39.747  31.197  34.330  1.00  0.00     0.037 A 
BRANCH  50  64
ATOM     64  C   UNL A   1      44.498  27.278  33.832  1.00  0.00     0.064 A 
ATOM     65  C   UNL A   1      44.392  25.985  34.365  1.00  0.00     0.173 A 
ATOM     66  C   UNL A   1      45.745  27.918  33.908  1.00  0.00     0.173 A 
ATOM     67  F   UNL A   1      43.218  25.337  34.335  1.00  0.00    -0.203 F 
ATOM     68  C   UNL A   1      45.483  25.367  34.970  1.00  0.00     0.198 A 
ATOM     69  C   UNL A   1      46.842  27.284  34.484  1.00  0.00     0.198 A 
ATOM     70  F   UNL A   1      45.901  29.156  33.415  1.00  0.00    -0.203 F 
ATOM     71  F   UNL A   1      45.346  24.152  35.516  1.00  0.00    -0.200 F 
ATOM     72  C   UNL A   1      46.710  26.013  35.021  1.00  0.00     0.200 A 
ATOM     73  F   UNL A   1      48.029  27.907  34.521  1.00  0.00    -0.200 F 
ATOM     74  F   UNL A   1      47.762  25.413  35.594  1.00  0.00    -0.200 F 
ENDBRANCH  50  64
BRANCH  51  75
ATOM     75  C   UNL A   1      36.728  31.421  29.076  1.00  0.00     0.064 A 
ATOM     76  C   UNL A   1      36.679  32.782  28.747  1.00  0.00     0.173 A 
ATOM     77  C   UNL A   1      35.607  30.636  28.767  1.00  0.00     0.173 A 
ATOM     78  F   UNL A   1      37.715  33.581  29.045  1.00  0.00    -0.203 F 
ATOM     79  C   UNL A   1      35.548  33.341  28.158  1.00  0.00     0.198 A 
ATOM     80  C   UNL A   1      34.488  31.189  28.148  1.00  0.00     0.198 A 
ATOM     81  F   UNL A   1      35.599  29.328  29.061  1.00  0.00    -0.203 F 
ATOM     82  F   UNL A   1      35.506  34.657  27.904  1.00  0.00    -0.200 F 
ATOM     83  C   UNL A   1      34.454  32.543  27.853  1.00  0.00     0.200 A 
ATOM     84  F   UNL A   1      33.441  30.410  27.842  1.00  0.00    -0.200 F 
ATOM     85  F   UNL A   1      33.367  33.080  27.284  1.00  0.00    -0.200 F 
ENDBRANCH  51  75
BRANCH  63  86
ATOM     86  C   UNL A   1      39.339  32.021  35.519  1.00  0.00     0.064 A 
ATOM     87  C   UNL A   1      39.781  33.339  35.694  1.00  0.00     0.173 A 
ATOM     88  C   UNL A   1      38.449  31.495  36.470  1.00  0.00     0.173 A 
ATOM     89  F   UNL A   1      40.640  33.885  34.820  1.00  0.00    -0.203 F 
ATOM     90  C   UNL A   1      39.372  34.092  36.792  1.00  0.00     0.198 A 
ATOM     91  C   UNL A   1      38.015  32.261  37.548  1.00  0.00     0.198 A 
ATOM     92  F   UNL A   1      37.987  30.241  36.345  1.00  0.00    -0.203 F 
ATOM     93  F   UNL A   1      39.848  35.333  36.966  1.00  0.00    -0.200 F 
ATOM     94  C   UNL A   1      38.484  33.556  37.713  1.00  0.00     0.200 A 
ATOM     95  F   UNL A   1      37.143  31.747  38.425  1.00  0.00    -0.200 F 
ATOM     96  F   UNL A   1      38.084  34.285  38.763  1.00  0.00    -0.200 F 
ENDBRANCH  63  86
ENDBRANCH  37  38
ENDBRANCH  30  32
ENDBRANCH  29  30
ENDBRANCH  28  29
ENDBRANCH  27  28
ENDBRANCH  26  27
ENDBRANCH   1  26
TORSDOF 18
ENDMDL
MODEL 2
REMARK VINA RESULT:     -11.6      4.720      9.156
REMARK SMILES O=C(CC[N@H+]1CCC[C@@H](C(=O)OCCOCCOC(=O)c2ccc(-c3c4nc(c(-c5c(F)c(F)c(F)c(F)c5F)c5ccc([nH]5)c(-c5c(F)c(F)c(F)c(F)c5F)c5nc(c(-c6c(F)c(F)c(F)c(F)c6F)c6ccc3[nH]6)C=C5)C=C4)cc2)C1)Nc1cccc(F)c1
REMARK SMILES IDX 14 1 13 2 12 3 10 4 11 5 9 6 5 7 6 8 84 9 7 11 8 12 4 13
REMARK SMILES IDX 3 14 2 15 1 16 85 17 86 19 87 20 92 21 88 22 90 23 89 24
REMARK SMILES IDX 91 25 15 26 16 27 17 28 18 29 19 30 20 31 21 32 22 33 83 34
REMARK SMILES IDX 23 35 82 36 24 37 25 38 26 39 76 40 27 41 81 42 75 43 77 44
REMARK SMILES IDX 28 45 80 46 74 47 73 48 29 50 61 51 41 52 60 53 42 54 45 55
REMARK SMILES IDX 59 56 78 57 43 58 44 59 58 61 79 62 46 63 30 64 31 65 39 66
REMARK SMILES IDX 32 67 33 68 37 69 40 70 34 71 35 72 38 73 36 74 62 75 63 76
REMARK SMILES IDX 71 77 64 78 65 79 69 80 72 81 66 82 67 83 70 84 68 85 47 86
REMARK SMILES IDX 48 87 56 88 49 89 50 90 54 91 57 92 51 93 52 94 55 95 53 96
REMARK H PARENT 5 10 85 18 77 49 45 60
REMARK Flexibility Score: inf
ROOT
ATOM      1  C   UNL A   1      35.931  22.813  23.519  1.00  0.00     0.202 C 
ENDROOT
BRANCH   1   2
ATOM      2  C   UNL A   1      34.633  23.194  22.812  1.00  0.00     0.261 C 
BRANCH   2   3
ATOM      3  O   UNL A   1      33.905  24.265  23.416  1.00  0.00    -0.463 OA
BRANCH   3   4
ATOM      4  C   UNL A   1      33.165  24.951  22.512  1.00  0.00     0.314 C 
ATOM      5  O   UNL A   1      33.581  25.386  21.444  1.00  0.00    -0.252 OA
BRANCH   4   6
ATOM      6  C   UNL A   1      31.785  25.254  23.017  1.00  0.00     0.154 C 
ATOM      7  N   UNL A   1      30.540  24.114  24.964  1.00  0.00    -0.334 N 
ATOM      8  C   UNL A   1      30.676  25.389  25.703  1.00  0.00     0.262 C 
ATOM      9  C   UNL A   1      31.539  24.037  23.904  1.00  0.00     0.277 C 
ATOM     10  H   UNL A   1      29.609  24.065  24.550  1.00  0.00     0.348 HD
ATOM     11  C   UNL A   1      30.642  26.613  24.781  1.00  0.00     0.062 C 
ATOM     12  C   UNL A   1      31.784  26.574  23.775  1.00  0.00     0.027 C 
BRANCH   7  13
ATOM     13  C   UNL A   1      30.750  22.973  25.917  1.00  0.00     0.272 C 
BRANCH  13  14
ATOM     14  C   UNL A   1      32.163  22.831  26.545  1.00  0.00     0.161 C 
BRANCH  14  15
ATOM     15  C   UNL A   1      32.725  21.417  26.359  1.00  0.00     0.230 C 
ATOM     16  O   UNL A   1      33.728  21.052  26.966  1.00  0.00    -0.275 OA
ATOM     17  N   UNL A   1      32.006  20.631  25.469  1.00  0.00    -0.326 N 
ATOM     18  H   UNL A   1      31.102  20.939  25.229  1.00  0.00     0.169 HD
BRANCH  17  19
ATOM     19  C   UNL A   1      32.454  19.425  24.875  1.00  0.00     0.044 A 
ATOM     20  C   UNL A   1      32.483  19.220  23.488  1.00  0.00     0.026 A 
ATOM     21  C   UNL A   1      32.790  18.357  25.715  1.00  0.00     0.065 A 
ATOM     22  C   UNL A   1      32.827  17.969  22.952  1.00  0.00     0.005 A 
ATOM     23  C   UNL A   1      33.166  17.129  25.169  1.00  0.00     0.125 A 
ATOM     24  C   UNL A   1      33.180  16.921  23.797  1.00  0.00     0.039 A 
ATOM     25  F   UNL A   1      33.488  16.119  25.989  1.00  0.00    -0.207 F 
ENDBRANCH  17  19
ENDBRANCH  14  15
ENDBRANCH  13  14
ENDBRANCH   7  13
ENDBRANCH   4   6
ENDBRANCH   3   4
ENDBRANCH   2   3
ENDBRANCH   1   2
BRANCH   1  26
ATOM     26  O   UNL A   1      35.879  22.039  24.715  1.00  0.00    -0.374 OA
BRANCH  26  27
ATOM     27  C   UNL A   1      36.328  20.684  24.626  1.00  0.00     0.202 C 
BRANCH  27  28
ATOM     28  C   UNL A   1      37.779  20.427  25.038  1.00  0.00     0.261 C 
BRANCH  28  29
ATOM     29  O   UNL A   1      38.281  21.488  25.860  1.00  0.00    -0.460 OA
BRANCH  29  30
ATOM     30  C   UNL A   1      39.535  21.262  26.336  1.00  0.00     0.338 C 
ATOM     31  O   UNL A   1      40.210  20.268  26.192  1.00  0.00    -0.246 OA
BRANCH  30  32
ATOM     32  C   UNL A   1      40.065  22.523  26.904  1.00  0.00     0.060 A 
ATOM     33  C   UNL A   1      39.469  23.719  26.477  1.00  0.00     0.016 A 
ATOM     34  C   UNL A   1      41.091  22.542  27.852  1.00  0.00     0.016 A 
ATOM     35  C   UNL A   1      39.951  24.942  26.932  1.00  0.00     0.010 A 
ATOM     36  C   UNL A   1      41.582  23.770  28.301  1.00  0.00     0.010 A 
ATOM     37  C   UNL A   1      41.050  24.971  27.799  1.00  0.00    -0.014 A 
BRANCH  37  38
ATOM     38  C   UNL A   1      41.797  26.235  27.986  1.00  0.00     0.031 A 
ATOM     39  C   UNL A   1      41.109  27.348  28.728  1.00  0.00     0.074 A 
ATOM     40  C   UNL A   1      43.049  26.388  27.529  1.00  0.00     0.049 A 
ATOM     41  N   UNL A   1      41.509  28.572  28.954  1.00  0.00    -0.248 NA
ATOM     42  C   UNL A   1      39.780  27.038  29.283  1.00  0.00     0.031 C 
ATOM     43  C   UNL A   1      43.830  25.364  26.840  1.00  0.00     0.029 A 
ATOM     44  N   UNL A   1      43.880  27.480  27.569  1.00  0.00    -0.354 N 
ATOM     45  C   UNL A   1      40.477  29.179  29.661  1.00  0.00     0.074 A 
ATOM     46  C   UNL A   1      39.420  28.203  29.798  1.00  0.00     0.031 C 
ATOM     47  C   UNL A   1      45.024  25.883  26.503  1.00  0.00     0.029 A 
ATOM     48  C   UNL A   1      45.075  27.283  26.921  1.00  0.00     0.049 A 
ATOM     49  H   UNL A   1      43.642  28.322  28.018  1.00  0.00     0.167 HD
ATOM     50  C   UNL A   1      40.423  30.436  30.158  1.00  0.00     0.037 A 
ATOM     51  C   UNL A   1      46.076  28.149  26.674  1.00  0.00     0.037 A 
ATOM     52  C   UNL A   1      41.484  31.397  30.022  1.00  0.00     0.049 A 
ATOM     53  C   UNL A   1      45.963  29.567  27.180  1.00  0.00     0.074 A 
ATOM     54  C   UNL A   1      41.542  32.691  30.508  1.00  0.00     0.029 A 
ATOM     55  N   UNL A   1      42.672  31.169  29.344  1.00  0.00    -0.354 N 
ATOM     56  N   UNL A   1      44.998  30.128  27.868  1.00  0.00    -0.248 NA
ATOM     57  C   UNL A   1      47.083  30.469  26.877  1.00  0.00     0.031 C 
ATOM     58  C   UNL A   1      42.739  33.266  30.071  1.00  0.00     0.029 A 
ATOM     59  C   UNL A   1      43.458  32.309  29.372  1.00  0.00     0.049 A 
ATOM     60  H   UNL A   1      42.919  30.322  28.907  1.00  0.00     0.167 HD
ATOM     61  C   UNL A   1      45.408  31.435  28.109  1.00  0.00     0.074 A 
ATOM     62  C   UNL A   1      46.715  31.578  27.504  1.00  0.00     0.031 C 
ATOM     63  C   UNL A   1      44.763  32.426  28.773  1.00  0.00     0.037 A 
BRANCH  50  64
ATOM     64  C   UNL A   1      39.166  30.851  30.863  1.00  0.00     0.064 A 
ATOM     65  C   UNL A   1      38.092  31.441  30.180  1.00  0.00     0.173 A 
ATOM     66  C   UNL A   1      39.023  30.627  32.242  1.00  0.00     0.173 A 
ATOM     67  F   UNL A   1      38.185  31.694  28.867  1.00  0.00    -0.203 F 
ATOM     68  C   UNL A   1      36.931  31.813  30.855  1.00  0.00     0.198 A 
ATOM     69  C   UNL A   1      37.848  30.970  32.906  1.00  0.00     0.198 A 
ATOM     70  F   UNL A   1      40.019  30.066  32.943  1.00  0.00    -0.203 F 
ATOM     71  F   UNL A   1      35.938  32.420  30.191  1.00  0.00    -0.200 F 
ATOM     72  C   UNL A   1      36.807  31.568  32.214  1.00  0.00     0.200 A 
ATOM     73  F   UNL A   1      37.726  30.722  34.217  1.00  0.00    -0.200 F 
ATOM     74  F   UNL A   1      35.685  31.917  32.859  1.00  0.00    -0.200 F 
ENDBRANCH  50  64
BRANCH  51  75
ATOM     75  C   UNL A   1      47.266  27.712  25.895  1.00  0.00     0.064 A 
ATOM     76  C   UNL A   1      48.430  27.268  26.537  1.00  0.00     0.173 A 
ATOM     77  C   UNL A   1      47.272  27.755  24.493  1.00  0.00     0.173 A 
ATOM     78  F   UNL A   1      48.485  27.232  27.877  1.00  0.00    -0.203 F 
ATOM     79  C   UNL A   1      49.562  26.907  25.809  1.00  0.00     0.198 A 
ATOM     80  C   UNL A   1      48.394  27.363  23.764  1.00  0.00     0.198 A 
ATOM     81  F   UNL A   1      46.186  28.173  23.828  1.00  0.00    -0.203 F 
ATOM     82  F   UNL A   1      50.680  26.538  26.450  1.00  0.00    -0.200 F 
ATOM     83  C   UNL A   1      49.540  26.949  24.422  1.00  0.00     0.200 A 
ATOM     84  F   UNL A   1      48.362  27.392  22.425  1.00  0.00    -0.200 F 
ATOM     85  F   UNL A   1      50.628  26.600  23.722  1.00  0.00    -0.200 F 
ENDBRANCH  51  75
BRANCH  63  86
ATOM     86  C   UNL A   1      45.478  33.739  28.923  1.00  0.00     0.064 A 
ATOM     87  C   UNL A   1      45.311  34.783  28.003  1.00  0.00     0.173 A 
ATOM     88  C   UNL A   1      46.305  33.969  30.035  1.00  0.00     0.173 A 
ATOM     89  F   UNL A   1      44.541  34.611  26.918  1.00  0.00    -0.203 F 
ATOM     90  C   UNL A   1      45.967  36.000  28.175  1.00  0.00     0.198 A 
ATOM     91  C   UNL A   1      46.931  35.198  30.222  1.00  0.00     0.198 A 
ATOM     92  F   UNL A   1      46.491  33.007  30.952  1.00  0.00    -0.203 F 
ATOM     93  F   UNL A   1      45.833  36.966  27.255  1.00  0.00    -0.200 F 
ATOM     94  C   UNL A   1      46.769  36.209  29.287  1.00  0.00     0.200 A 
ATOM     95  F   UNL A   1      47.690  35.403  31.307  1.00  0.00    -0.200 F 
ATOM     96  F   UNL A   1      47.391  37.384  29.455  1.00  0.00    -0.200 F 
ENDBRANCH  63  86
ENDBRANCH  37  38
ENDBRANCH  30  32
ENDBRANCH  29  30
ENDBRANCH  28  29
ENDBRANCH  27  28
ENDBRANCH  26  27
ENDBRANCH   1  26
TORSDOF 18
ENDMDL
MODEL 3
REMARK VINA RESULT:     -11.5      4.293      6.507
REMARK SMILES O=C(CC[N@H+]1CCC[C@@H](C(=O)OCCOCCOC(=O)c2ccc(-c3c4nc(c(-c5c(F)c(F)c(F)c(F)c5F)c5ccc([nH]5)c(-c5c(F)c(F)c(F)c(F)c5F)c5nc(c(-c6c(F)c(F)c(F)c(F)c6F)c6ccc3[nH]6)C=C5)C=C4)cc2)C1)Nc1cccc(F)c1
REMARK SMILES IDX 14 1 13 2 12 3 10 4 11 5 9 6 5 7 6 8 84 9 7 11 8 12 4 13
REMARK SMILES IDX 3 14 2 15 1 16 85 17 86 19 87 20 92 21 88 22 90 23 89 24
REMARK SMILES IDX 91 25 15 26 16 27 17 28 18 29 19 30 20 31 21 32 22 33 83 34
REMARK SMILES IDX 23 35 82 36 24 37 25 38 26 39 76 40 27 41 81 42 75 43 77 44
REMARK SMILES IDX 28 45 80 46 74 47 73 48 29 50 61 51 41 52 60 53 42 54 45 55
REMARK SMILES IDX 59 56 78 57 43 58 44 59 58 61 79 62 46 63 30 64 31 65 39 66
REMARK SMILES IDX 32 67 33 68 37 69 40 70 34 71 35 72 38 73 36 74 62 75 63 76
REMARK SMILES IDX 71 77 64 78 65 79 69 80 72 81 66 82 67 83 70 84 68 85 47 86
REMARK SMILES IDX 48 87 56 88 49 89 50 90 54 91 57 92 51 93 52 94 55 95 53 96
REMARK H PARENT 5 10 85 18 77 49 45 60
REMARK Flexibility Score: inf
ROOT
ATOM      1  C   UNL A   1      37.125  22.039  24.339  1.00  0.00     0.202 C 
ENDROOT
BRANCH   1   2
ATOM      2  C   UNL A   1      36.387  23.312  24.749  1.00  0.00     0.261 C 
BRANCH   2   3
ATOM      3  O   UNL A   1      35.067  23.445  24.218  1.00  0.00    -0.463 OA
BRANCH   3   4
ATOM      4  C   UNL A   1      34.116  23.265  25.167  1.00  0.00     0.314 C 
ATOM      5  O   UNL A   1      34.142  22.403  26.037  1.00  0.00    -0.252 OA
BRANCH   4   6
ATOM      6  C   UNL A   1      32.929  24.160  24.961  1.00  0.00     0.154 C 
ATOM      7  N   UNL A   1      32.676  26.061  23.240  1.00  0.00    -0.334 N 
ATOM      8  C   UNL A   1      31.673  25.213  22.558  1.00  0.00     0.262 C 
ATOM      9  C   UNL A   1      33.545  25.240  24.076  1.00  0.00     0.277 C 
ATOM     10  H   UNL A   1      32.194  26.743  23.826  1.00  0.00     0.348 HD
ATOM     11  C   UNL A   1      30.881  24.334  23.532  1.00  0.00     0.062 C 
ATOM     12  C   UNL A   1      31.803  23.388  24.289  1.00  0.00     0.027 C 
BRANCH   7  13
ATOM     13  C   UNL A   1      33.511  26.758  22.205  1.00  0.00     0.272 C 
BRANCH  13  14
ATOM     14  C   UNL A   1      33.582  28.307  22.283  1.00  0.00     0.161 C 
BRANCH  14  15
ATOM     15  C   UNL A   1      32.320  28.899  22.920  1.00  0.00     0.230 C 
ATOM     16  O   UNL A   1      32.223  29.010  24.140  1.00  0.00    -0.275 OA
ATOM     17  N   UNL A   1      31.345  29.279  22.009  1.00  0.00    -0.326 N 
ATOM     18  H   UNL A   1      31.621  29.364  21.067  1.00  0.00     0.169 HD
BRANCH  17  19
ATOM     19  C   UNL A   1      29.988  29.555  22.308  1.00  0.00     0.044 A 
ATOM     20  C   UNL A   1      29.432  30.840  22.227  1.00  0.00     0.026 A 
ATOM     21  C   UNL A   1      29.192  28.514  22.799  1.00  0.00     0.065 A 
ATOM     22  C   UNL A   1      28.114  31.082  22.643  1.00  0.00     0.005 A 
ATOM     23  C   UNL A   1      27.871  28.760  23.176  1.00  0.00     0.125 A 
ATOM     24  C   UNL A   1      27.325  30.035  23.110  1.00  0.00     0.039 A 
ATOM     25  F   UNL A   1      27.123  27.750  23.641  1.00  0.00    -0.207 F 
ENDBRANCH  17  19
ENDBRANCH  14  15
ENDBRANCH  13  14
ENDBRANCH   7  13
ENDBRANCH   4   6
ENDBRANCH   3   4
ENDBRANCH   2   3
ENDBRANCH   1   2
BRANCH   1  26
ATOM     26  O   UNL A   1      37.067  20.891  25.182  1.00  0.00    -0.374 OA
BRANCH  26  27
ATOM     27  C   UNL A   1      37.905  19.787  24.826  1.00  0.00     0.202 C 
BRANCH  27  28
ATOM     28  C   UNL A   1      38.992  19.415  25.835  1.00  0.00     0.261 C 
BRANCH  28  29
ATOM     29  O   UNL A   1      40.193  20.162  25.605  1.00  0.00    -0.460 OA
BRANCH  29  30
ATOM     30  C   UNL A   1      41.018  20.216  26.685  1.00  0.00     0.338 C 
ATOM     31  O   UNL A   1      41.700  19.324  27.137  1.00  0.00    -0.246 OA
BRANCH  30  32
ATOM     32  C   UNL A   1      41.131  21.624  27.131  1.00  0.00     0.060 A 
ATOM     33  C   UNL A   1      40.471  22.595  26.362  1.00  0.00     0.016 A 
ATOM     34  C   UNL A   1      41.829  21.989  28.284  1.00  0.00     0.016 A 
ATOM     35  C   UNL A   1      40.577  23.941  26.694  1.00  0.00     0.010 A 
ATOM     36  C   UNL A   1      41.945  23.341  28.612  1.00  0.00     0.010 A 
ATOM     37  C   UNL A   1      41.366  24.321  27.787  1.00  0.00    -0.014 A 
BRANCH  37  38
ATOM     38  C   UNL A   1      41.788  25.734  27.924  1.00  0.00     0.031 A 
ATOM     39  C   UNL A   1      43.123  26.122  27.350  1.00  0.00     0.074 A 
ATOM     40  C   UNL A   1      41.007  26.647  28.523  1.00  0.00     0.049 A 
ATOM     41  N   UNL A   1      43.755  27.265  27.408  1.00  0.00    -0.248 NA
ATOM     42  C   UNL A   1      43.849  25.070  26.618  1.00  0.00     0.031 C 
ATOM     43  C   UNL A   1      39.678  26.396  29.071  1.00  0.00     0.029 A 
ATOM     44  N   UNL A   1      41.236  27.976  28.778  1.00  0.00    -0.354 N 
ATOM     45  C   UNL A   1      44.955  27.063  26.736  1.00  0.00     0.074 A 
ATOM     46  C   UNL A   1      44.979  25.683  26.307  1.00  0.00     0.031 C 
ATOM     47  C   UNL A   1      39.212  27.533  29.618  1.00  0.00     0.029 A 
ATOM     48  C   UNL A   1      40.226  28.578  29.489  1.00  0.00     0.049 A 
ATOM     49  H   UNL A   1      42.044  28.451  28.482  1.00  0.00     0.167 HD
ATOM     50  C   UNL A   1      45.942  27.955  26.490  1.00  0.00     0.037 A 
ATOM     51  C   UNL A   1      40.151  29.823  29.997  1.00  0.00     0.037 A 
ATOM     52  C   UNL A   1      45.905  29.328  26.915  1.00  0.00     0.049 A 
ATOM     53  C   UNL A   1      41.296  30.780  29.769  1.00  0.00     0.074 A 
ATOM     54  C   UNL A   1      46.842  30.323  26.699  1.00  0.00     0.029 A 
ATOM     55  N   UNL A   1      44.875  29.898  27.649  1.00  0.00    -0.354 N 
ATOM     56  N   UNL A   1      42.416  30.592  29.113  1.00  0.00    -0.248 NA
ATOM     57  C   UNL A   1      41.163  32.123  30.351  1.00  0.00     0.031 C 
ATOM     58  C   UNL A   1      46.408  31.479  27.355  1.00  0.00     0.029 A 
ATOM     59  C   UNL A   1      45.168  31.224  27.921  1.00  0.00     0.049 A 
ATOM     60  H   UNL A   1      44.058  29.429  27.934  1.00  0.00     0.167 HD
ATOM     61  C   UNL A   1      43.103  31.800  29.173  1.00  0.00     0.074 A 
ATOM     62  C   UNL A   1      42.268  32.716  29.919  1.00  0.00     0.031 C 
ATOM     63  C   UNL A   1      44.315  32.123  28.656  1.00  0.00     0.037 A 
BRANCH  50  64
ATOM     64  C   UNL A   1      47.158  27.463  25.760  1.00  0.00     0.064 A 
ATOM     65  C   UNL A   1      47.316  27.643  24.378  1.00  0.00     0.173 A 
ATOM     66  C   UNL A   1      48.194  26.828  26.463  1.00  0.00     0.173 A 
ATOM     67  F   UNL A   1      46.347  28.227  23.657  1.00  0.00    -0.203 F 
ATOM     68  C   UNL A   1      48.456  27.184  23.722  1.00  0.00     0.198 A 
ATOM     69  C   UNL A   1      49.346  26.401  25.808  1.00  0.00     0.198 A 
ATOM     70  F   UNL A   1      48.092  26.631  27.785  1.00  0.00    -0.203 F 
ATOM     71  F   UNL A   1      48.564  27.322  22.394  1.00  0.00    -0.200 F 
ATOM     72  C   UNL A   1      49.474  26.572  24.439  1.00  0.00     0.200 A 
ATOM     73  F   UNL A   1      50.333  25.820  26.506  1.00  0.00    -0.200 F 
ATOM     74  F   UNL A   1      50.575  26.141  23.808  1.00  0.00    -0.200 F 
ENDBRANCH  50  64
BRANCH  51  75
ATOM     75  C   UNL A   1      38.961  30.236  30.788  1.00  0.00     0.064 A 
ATOM     76  C   UNL A   1      37.826  30.770  30.165  1.00  0.00     0.173 A 
ATOM     77  C   UNL A   1      38.946  30.129  32.187  1.00  0.00     0.173 A 
ATOM     78  F   UNL A   1      37.799  30.918  28.832  1.00  0.00    -0.203 F 
ATOM     79  C   UNL A   1      36.731  31.205  30.910  1.00  0.00     0.198 A 
ATOM     80  C   UNL A   1      37.838  30.533  32.929  1.00  0.00     0.198 A 
ATOM     81  F   UNL A   1      40.007  29.625  32.835  1.00  0.00    -0.203 F 
ATOM     82  F   UNL A   1      35.681  31.763  30.293  1.00  0.00    -0.200 F 
ATOM     83  C   UNL A   1      36.736  31.080  32.292  1.00  0.00     0.200 A 
ATOM     84  F   UNL A   1      37.842  30.396  34.263  1.00  0.00    -0.200 F 
ATOM     85  F   UNL A   1      35.683  31.495  33.008  1.00  0.00    -0.200 F 
ENDBRANCH  51  75
BRANCH  63  86
ATOM     86  C   UNL A   1      44.790  33.537  28.836  1.00  0.00     0.064 A 
ATOM     87  C   UNL A   1      44.453  34.554  27.932  1.00  0.00     0.173 A 
ATOM     88  C   UNL A   1      45.556  33.886  29.961  1.00  0.00     0.173 A 
ATOM     89  F   UNL A   1      43.733  34.271  26.836  1.00  0.00    -0.203 F 
ATOM     90  C   UNL A   1      44.886  35.862  28.132  1.00  0.00     0.198 A 
ATOM     91  C   UNL A   1      45.958  35.201  30.176  1.00  0.00     0.198 A 
ATOM     92  F   UNL A   1      45.898  32.953  30.863  1.00  0.00    -0.203 F 
ATOM     93  F   UNL A   1      44.594  36.808  27.228  1.00  0.00    -0.200 F 
ATOM     94  C   UNL A   1      45.630  36.186  29.256  1.00  0.00     0.200 A 
ATOM     95  F   UNL A   1      46.661  35.514  31.273  1.00  0.00    -0.200 F 
ATOM     96  F   UNL A   1      46.038  37.447  29.452  1.00  0.00    -0.200 F 
ENDBRANCH  63  86
ENDBRANCH  37  38
ENDBRANCH  30  32
ENDBRANCH  29  30
ENDBRANCH  28  29
ENDBRANCH  27  28
ENDBRANCH  26  27
ENDBRANCH   1  26
TORSDOF 18
ENDMDL
