MODEL 1
REMARK VINA RESULT:     -10.8      0.000      0.000
REMARK SMILES C[NH2+][C@@]1(C(=O)OCCOCCOC(=O)c2ccc(-c3c4nc(c(-c5c(F)c(F)c(F)c(F)c5F)c5ccc([nH]5)c(-c5c(F)c(F)c(F)c(F)c5F)c5nc(c(-c6c(F)c(F)c(F)c(F)c6F)c6ccc3[nH]6)C=C5)C=C4)cc2)CC[C@H]([NH+]2CC[NH+](C)CC2)C1
REMARK SMILES IDX 10 1 9 2 8 3 7 4 6 5 4 6 5 7 3 8 78 9 88 10 79 11 80 12 2 13
REMARK SMILES IDX 1 14 81 17 82 18 87 19 83 21 86 22 84 23 85 24 11 26 12 27
REMARK SMILES IDX 13 28 14 29 15 30 16 31 77 32 17 33 76 34 18 35 19 36 20 37
REMARK SMILES IDX 70 38 21 39 75 40 69 41 71 42 22 43 74 44 68 45 67 46 23 48
REMARK SMILES IDX 55 49 35 50 54 51 36 52 39 53 53 54 72 55 37 56 38 57 52 59
REMARK SMILES IDX 73 60 40 61 24 62 25 63 33 64 26 65 27 66 31 67 34 68 28 69
REMARK SMILES IDX 29 70 32 71 30 72 56 73 57 74 65 75 58 76 59 77 63 78 66 79
REMARK SMILES IDX 60 80 61 81 64 82 62 83 41 84 42 85 50 86 43 87 44 88 48 89
REMARK SMILES IDX 51 90 45 91 46 92 49 93 47 94
REMARK H PARENT 2 15 2 16 81 20 84 25 71 47 39 58
REMARK Flexibility Score: inf
ROOT
ATOM      1  C   UNL A   1      31.379  31.686  26.493  1.00  0.00     0.202 C 
ENDROOT
BRANCH   1   2
ATOM      2  O   UNL A   1      32.296  30.634  26.206  1.00  0.00    -0.374 OA
BRANCH   2   3
ATOM      3  C   UNL A   1      32.444  29.619  27.204  1.00  0.00     0.202 C 
BRANCH   3   4
ATOM      4  C   UNL A   1      33.482  28.542  26.871  1.00  0.00     0.261 C 
BRANCH   4   5
ATOM      5  O   UNL A   1      32.834  27.472  26.150  1.00  0.00    -0.459 OA
BRANCH   5   6
ATOM      6  C   UNL A   1      32.812  27.551  24.801  1.00  0.00     0.368 C 
ATOM      7  O   UNL A   1      33.815  27.703  24.109  1.00  0.00    -0.245 OA
BRANCH   6   8
ATOM      8  C   UNL A   1      31.380  27.374  24.193  1.00  0.00     0.200 C 
ATOM      9  C   UNL A   1      30.532  26.549  25.174  1.00  0.00     0.087 C 
ATOM     10  C   UNL A   1      31.238  26.596  22.869  1.00  0.00     0.146 C 
ATOM     11  C   UNL A   1      30.661  25.096  24.724  1.00  0.00     0.072 C 
ATOM     12  C   UNL A   1      30.896  25.126  23.210  1.00  0.00     0.191 C 
BRANCH   8  13
ATOM     13  N   UNL A   1      30.773  28.737  24.097  1.00  0.00    -0.334 N 
ATOM     14  C   UNL A   1      30.552  29.199  22.731  1.00  0.00     0.331 C 
ATOM     15  H   UNL A   1      29.874  28.720  24.579  1.00  0.00     0.347 HD
ATOM     16  H   UNL A   1      31.437  29.384  24.521  1.00  0.00     0.347 HD
ENDBRANCH   8  13
BRANCH  12  17
ATOM     17  N   UNL A   1      31.738  24.105  22.570  1.00  0.00    -0.323 N 
ATOM     18  C   UNL A   1      31.621  22.743  23.121  1.00  0.00     0.324 C 
ATOM     19  C   UNL A   1      33.162  24.396  22.401  1.00  0.00     0.324 C 
ATOM     20  H   UNL A   1      31.309  24.146  21.646  1.00  0.00     0.348 HD
ATOM     21  C   UNL A   1      32.525  22.424  24.343  1.00  0.00     0.324 C 
ATOM     22  C   UNL A   1      34.025  24.235  23.662  1.00  0.00     0.324 C 
ATOM     23  N   UNL A   1      33.927  22.889  24.245  1.00  0.00    -0.328 N 
ATOM     24  C   UNL A   1      34.571  22.861  25.558  1.00  0.00     0.333 C 
ATOM     25  H   UNL A   1      34.411  22.246  23.618  1.00  0.00     0.348 HD
ENDBRANCH  12  17
ENDBRANCH   6   8
ENDBRANCH   5   6
ENDBRANCH   4   5
ENDBRANCH   3   4
ENDBRANCH   2   3
ENDBRANCH   1   2
BRANCH   1  26
ATOM     26  C   UNL A   1      31.998  33.039  26.859  1.00  0.00     0.261 C 
BRANCH  26  27
ATOM     27  O   UNL A   1      32.830  32.976  28.028  1.00  0.00    -0.460 OA
BRANCH  27  28
ATOM     28  C   UNL A   1      33.916  33.780  27.992  1.00  0.00     0.338 C 
ATOM     29  O   UNL A   1      33.938  34.991  27.818  1.00  0.00    -0.246 OA
BRANCH  28  30
ATOM     30  C   UNL A   1      35.124  33.013  28.341  1.00  0.00     0.060 A 
ATOM     31  C   UNL A   1      34.955  31.683  28.742  1.00  0.00     0.016 A 
ATOM     32  C   UNL A   1      36.394  33.596  28.339  1.00  0.00     0.016 A 
ATOM     33  C   UNL A   1      36.047  30.946  29.194  1.00  0.00     0.010 A 
ATOM     34  C   UNL A   1      37.493  32.848  28.778  1.00  0.00     0.010 A 
ATOM     35  C   UNL A   1      37.318  31.535  29.252  1.00  0.00    -0.014 A 
BRANCH  35  36
ATOM     36  C   UNL A   1      38.416  30.838  29.970  1.00  0.00     0.031 A 
ATOM     37  C   UNL A   1      38.643  31.145  31.428  1.00  0.00     0.074 A 
ATOM     38  C   UNL A   1      39.172  29.910  29.356  1.00  0.00     0.049 A 
ATOM     39  N   UNL A   1      39.544  30.671  32.251  1.00  0.00    -0.248 NA
ATOM     40  C   UNL A   1      37.731  32.125  32.039  1.00  0.00     0.031 C 
ATOM     41  C   UNL A   1      39.038  29.500  27.960  1.00  0.00     0.029 A 
ATOM     42  N   UNL A   1      40.207  29.143  29.836  1.00  0.00    -0.354 N 
ATOM     43  C   UNL A   1      39.314  31.302  33.467  1.00  0.00     0.074 A 
ATOM     44  C   UNL A   1      38.216  32.222  33.266  1.00  0.00     0.031 C 
ATOM     45  C   UNL A   1      39.954  28.552  27.696  1.00  0.00     0.029 A 
ATOM     46  C   UNL A   1      40.764  28.318  28.890  1.00  0.00     0.049 A 
ATOM     47  H   UNL A   1      40.519  29.183  30.769  1.00  0.00     0.167 HD
ATOM     48  C   UNL A   1      39.950  31.122  34.649  1.00  0.00     0.037 A 
ATOM     49  C   UNL A   1      41.821  27.486  28.977  1.00  0.00     0.037 A 
ATOM     50  C   UNL A   1      41.037  30.201  34.853  1.00  0.00     0.049 A 
ATOM     51  C   UNL A   1      42.557  27.354  30.287  1.00  0.00     0.074 A 
ATOM     52  C   UNL A   1      41.731  29.929  36.019  1.00  0.00     0.029 A 
ATOM     53  N   UNL A   1      41.596  29.407  33.861  1.00  0.00    -0.354 N 
ATOM     54  N   UNL A   1      42.314  27.930  31.440  1.00  0.00    -0.248 NA
ATOM     55  C   UNL A   1      43.717  26.451  30.307  1.00  0.00     0.031 C 
ATOM     56  C   UNL A   1      42.749  29.019  35.721  1.00  0.00     0.029 A 
ATOM     57  C   UNL A   1      42.646  28.668  34.385  1.00  0.00     0.049 A 
ATOM     58  H   UNL A   1      41.291  29.372  32.926  1.00  0.00     0.167 HD
ATOM     59  C   UNL A   1      43.265  27.436  32.325  1.00  0.00     0.074 A 
ATOM     60  C   UNL A   1      44.082  26.502  31.580  1.00  0.00     0.031 C 
ATOM     61  C   UNL A   1      43.445  27.731  33.637  1.00  0.00     0.037 A 
BRANCH  48  62
ATOM     62  C   UNL A   1      39.503  31.960  35.813  1.00  0.00     0.064 A 
ATOM     63  C   UNL A   1      40.060  33.220  36.078  1.00  0.00     0.173 A 
ATOM     64  C   UNL A   1      38.475  31.508  36.656  1.00  0.00     0.173 A 
ATOM     65  F   UNL A   1      41.054  33.694  35.312  1.00  0.00    -0.203 F 
ATOM     66  C   UNL A   1      39.627  33.982  37.160  1.00  0.00     0.198 A 
ATOM     67  C   UNL A   1      38.019  32.289  37.716  1.00  0.00     0.198 A 
ATOM     68  F   UNL A   1      37.902  30.314  36.445  1.00  0.00    -0.203 F 
ATOM     69  F   UNL A   1      40.210  35.159  37.425  1.00  0.00    -0.200 F 
ATOM     70  C   UNL A   1      38.602  33.520  37.972  1.00  0.00     0.200 A 
ATOM     71  F   UNL A   1      37.018  31.847  38.489  1.00  0.00    -0.200 F 
ATOM     72  F   UNL A   1      38.179  34.259  39.007  1.00  0.00    -0.200 F 
ENDBRANCH  48  62
BRANCH  49  73
ATOM     73  C   UNL A   1      42.263  26.717  27.782  1.00  0.00     0.064 A 
ATOM     74  C   UNL A   1      41.747  25.442  27.508  1.00  0.00     0.173 A 
ATOM     75  C   UNL A   1      43.232  27.230  26.905  1.00  0.00     0.173 A 
ATOM     76  F   UNL A   1      40.840  24.896  28.330  1.00  0.00    -0.203 F 
ATOM     77  C   UNL A   1      42.199  24.702  26.417  1.00  0.00     0.198 A 
ATOM     78  C   UNL A   1      43.658  26.502  25.796  1.00  0.00     0.198 A 
ATOM     79  F   UNL A   1      43.762  28.441  27.123  1.00  0.00    -0.203 F 
ATOM     80  F   UNL A   1      41.730  23.464  26.210  1.00  0.00    -0.200 F 
ATOM     81  C   UNL A   1      43.149  25.234  25.559  1.00  0.00     0.200 A 
ATOM     82  F   UNL A   1      44.565  27.026  24.962  1.00  0.00    -0.200 F 
ATOM     83  F   UNL A   1      43.581  24.523  24.509  1.00  0.00    -0.200 F 
ENDBRANCH  49  73
BRANCH  61  84
ATOM     84  C   UNL A   1      44.538  27.004  34.370  1.00  0.00     0.064 A 
ATOM     85  C   UNL A   1      45.827  27.542  34.506  1.00  0.00     0.173 A 
ATOM     86  C   UNL A   1      44.277  25.770  34.986  1.00  0.00     0.173 A 
ATOM     87  F   UNL A   1      46.134  28.713  33.928  1.00  0.00    -0.203 F 
ATOM     88  C   UNL A   1      46.820  26.859  35.204  1.00  0.00     0.198 A 
ATOM     89  C   UNL A   1      45.263  25.106  35.713  1.00  0.00     0.198 A 
ATOM     90  F   UNL A   1      43.060  25.213  34.897  1.00  0.00    -0.203 F 
ATOM     91  F   UNL A   1      48.057  27.368  35.275  1.00  0.00    -0.200 F 
ATOM     92  C   UNL A   1      46.535  25.646  35.813  1.00  0.00     0.200 A 
ATOM     93  F   UNL A   1      44.978  23.944  36.317  1.00  0.00    -0.200 F 
ATOM     94  F   UNL A   1      47.489  24.995  36.494  1.00  0.00    -0.200 F 
ENDBRANCH  61  84
ENDBRANCH  35  36
ENDBRANCH  28  30
ENDBRANCH  27  28
ENDBRANCH  26  27
ENDBRANCH   1  26
TORSDOF 16
ENDMDL
MODEL 2
REMARK VINA RESULT:     -10.7      1.538      7.853
REMARK SMILES C[NH2+][C@@]1(C(=O)OCCOCCOC(=O)c2ccc(-c3c4nc(c(-c5c(F)c(F)c(F)c(F)c5F)c5ccc([nH]5)c(-c5c(F)c(F)c(F)c(F)c5F)c5nc(c(-c6c(F)c(F)c(F)c(F)c6F)c6ccc3[nH]6)C=C5)C=C4)cc2)CC[C@H]([NH+]2CC[NH+](C)CC2)C1
REMARK SMILES IDX 10 1 9 2 8 3 7 4 6 5 4 6 5 7 3 8 78 9 88 10 79 11 80 12 2 13
REMARK SMILES IDX 1 14 81 17 82 18 87 19 83 21 86 22 84 23 85 24 11 26 12 27
REMARK SMILES IDX 13 28 14 29 15 30 16 31 77 32 17 33 76 34 18 35 19 36 20 37
REMARK SMILES IDX 70 38 21 39 75 40 69 41 71 42 22 43 74 44 68 45 67 46 23 48
REMARK SMILES IDX 55 49 35 50 54 51 36 52 39 53 53 54 72 55 37 56 38 57 52 59
REMARK SMILES IDX 73 60 40 61 24 62 25 63 33 64 26 65 27 66 31 67 34 68 28 69
REMARK SMILES IDX 29 70 32 71 30 72 56 73 57 74 65 75 58 76 59 77 63 78 66 79
REMARK SMILES IDX 60 80 61 81 64 82 62 83 41 84 42 85 50 86 43 87 44 88 48 89
REMARK SMILES IDX 51 90 45 91 46 92 49 93 47 94
REMARK H PARENT 2 15 2 16 81 20 84 25 71 47 39 58
REMARK Flexibility Score: inf
ROOT
ATOM      1  C   UNL A   1      31.385  29.125  24.819  1.00  0.00     0.202 C 
ENDROOT
BRANCH   1   2
ATOM      2  O   UNL A   1      30.325  29.200  23.870  1.00  0.00    -0.374 OA
BRANCH   2   3
ATOM      3  C   UNL A   1      29.890  27.967  23.290  1.00  0.00     0.202 C 
BRANCH   3   4
ATOM      4  C   UNL A   1      30.861  26.795  23.478  1.00  0.00     0.261 C 
BRANCH   4   5
ATOM      5  O   UNL A   1      30.323  25.894  24.471  1.00  0.00    -0.459 OA
BRANCH   5   6
ATOM      6  C   UNL A   1      30.775  24.621  24.470  1.00  0.00     0.368 C 
ATOM      7  O   UNL A   1      30.638  23.848  23.526  1.00  0.00    -0.245 OA
BRANCH   6   8
ATOM      8  C   UNL A   1      31.545  24.236  25.778  1.00  0.00     0.200 C 
ATOM      9  C   UNL A   1      32.545  25.356  26.103  1.00  0.00     0.087 C 
ATOM     10  C   UNL A   1      32.430  22.973  25.761  1.00  0.00     0.146 C 
ATOM     11  C   UNL A   1      33.868  24.940  25.466  1.00  0.00     0.072 C 
ATOM     12  C   UNL A   1      33.881  23.408  25.449  1.00  0.00     0.191 C 
BRANCH   8  13
ATOM     13  N   UNL A   1      30.537  24.186  26.881  1.00  0.00    -0.334 N 
ATOM     14  C   UNL A   1      29.785  22.938  26.949  1.00  0.00     0.331 C 
ATOM     15  H   UNL A   1      31.027  24.313  27.767  1.00  0.00     0.347 HD
ATOM     16  H   UNL A   1      29.862  24.927  26.694  1.00  0.00     0.347 HD
ENDBRANCH   8  13
BRANCH  12  17
ATOM     17  N   UNL A   1      34.548  22.684  24.357  1.00  0.00    -0.323 N 
ATOM     18  C   UNL A   1      34.892  21.279  24.638  1.00  0.00     0.324 C 
ATOM     19  C   UNL A   1      35.713  23.310  23.730  1.00  0.00     0.324 C 
ATOM     20  H   UNL A   1      33.782  22.730  23.686  1.00  0.00     0.348 HD
ATOM     21  C   UNL A   1      36.252  21.040  25.349  1.00  0.00     0.324 C 
ATOM     22  C   UNL A   1      37.026  23.210  24.522  1.00  0.00     0.324 C 
ATOM     23  N   UNL A   1      37.396  21.820  24.826  1.00  0.00    -0.328 N 
ATOM     24  C   UNL A   1      38.511  21.793  25.773  1.00  0.00     0.333 C 
ATOM     25  H   UNL A   1      37.685  21.379  23.953  1.00  0.00     0.348 HD
ENDBRANCH  12  17
ENDBRANCH   6   8
ENDBRANCH   5   6
ENDBRANCH   4   5
ENDBRANCH   3   4
ENDBRANCH   2   3
ENDBRANCH   1   2
BRANCH   1  26
ATOM     26  C   UNL A   1      31.584  30.357  25.708  1.00  0.00     0.261 C 
BRANCH  26  27
ATOM     27  O   UNL A   1      32.610  30.174  26.696  1.00  0.00    -0.460 OA
BRANCH  27  28
ATOM     28  C   UNL A   1      33.196  31.318  27.117  1.00  0.00     0.338 C 
ATOM     29  O   UNL A   1      32.691  32.431  27.182  1.00  0.00    -0.246 OA
BRANCH  28  30
ATOM     30  C   UNL A   1      34.539  31.030  27.650  1.00  0.00     0.060 A 
ATOM     31  C   UNL A   1      34.877  29.690  27.868  1.00  0.00     0.016 A 
ATOM     32  C   UNL A   1      35.431  32.050  27.989  1.00  0.00     0.016 A 
ATOM     33  C   UNL A   1      36.088  29.366  28.477  1.00  0.00     0.010 A 
ATOM     34  C   UNL A   1      36.655  31.722  28.586  1.00  0.00     0.010 A 
ATOM     35  C   UNL A   1      36.968  30.382  28.876  1.00  0.00    -0.014 A 
BRANCH  35  36
ATOM     36  C   UNL A   1      38.124  30.048  29.748  1.00  0.00     0.031 A 
ATOM     37  C   UNL A   1      39.182  29.110  29.227  1.00  0.00     0.074 A 
ATOM     38  C   UNL A   1      38.264  30.605  30.965  1.00  0.00     0.049 A 
ATOM     39  N   UNL A   1      40.267  28.667  29.811  1.00  0.00    -0.248 NA
ATOM     40  C   UNL A   1      38.985  28.596  27.862  1.00  0.00     0.031 C 
ATOM     41  C   UNL A   1      37.329  31.548  31.575  1.00  0.00     0.029 A 
ATOM     42  N   UNL A   1      39.253  30.453  31.906  1.00  0.00    -0.354 N 
ATOM     43  C   UNL A   1      40.872  27.819  28.892  1.00  0.00     0.074 A 
ATOM     44  C   UNL A   1      40.015  27.776  27.728  1.00  0.00     0.031 C 
ATOM     45  C   UNL A   1      37.792  31.895  32.788  1.00  0.00     0.029 A 
ATOM     46  C   UNL A   1      39.032  31.169  33.057  1.00  0.00     0.049 A 
ATOM     47  H   UNL A   1      40.045  29.884  31.769  1.00  0.00     0.167 HD
ATOM     48  C   UNL A   1      42.043  27.147  29.001  1.00  0.00     0.037 A 
ATOM     49  C   UNL A   1      39.741  31.213  34.203  1.00  0.00     0.037 A 
ATOM     50  C   UNL A   1      42.901  27.196  30.155  1.00  0.00     0.049 A 
ATOM     51  C   UNL A   1      41.007  30.402  34.326  1.00  0.00     0.074 A 
ATOM     52  C   UNL A   1      44.119  26.570  30.352  1.00  0.00     0.029 A 
ATOM     53  N   UNL A   1      42.625  27.907  31.315  1.00  0.00    -0.354 N 
ATOM     54  N   UNL A   1      41.587  29.628  33.441  1.00  0.00    -0.248 NA
ATOM     55  C   UNL A   1      41.718  30.474  35.611  1.00  0.00     0.031 C 
ATOM     56  C   UNL A   1      44.551  26.850  31.652  1.00  0.00     0.029 A 
ATOM     57  C   UNL A   1      43.637  27.708  32.241  1.00  0.00     0.049 A 
ATOM     58  H   UNL A   1      41.830  28.469  31.458  1.00  0.00     0.167 HD
ATOM     59  C   UNL A   1      42.742  29.149  34.049  1.00  0.00     0.074 A 
ATOM     60  C   UNL A   1      42.789  29.732  35.372  1.00  0.00     0.031 C 
ATOM     61  C   UNL A   1      43.680  28.303  33.553  1.00  0.00     0.037 A 
BRANCH  48  62
ATOM     62  C   UNL A   1      42.454  26.276  27.848  1.00  0.00     0.064 A 
ATOM     63  C   UNL A   1      41.953  24.976  27.684  1.00  0.00     0.173 A 
ATOM     64  C   UNL A   1      43.336  26.765  26.871  1.00  0.00     0.173 A 
ATOM     65  F   UNL A   1      41.117  24.455  28.595  1.00  0.00    -0.203 F 
ATOM     66  C   UNL A   1      42.343  24.187  26.605  1.00  0.00     0.198 A 
ATOM     67  C   UNL A   1      43.697  25.987  25.774  1.00  0.00     0.198 A 
ATOM     68  F   UNL A   1      43.840  28.004  26.974  1.00  0.00    -0.203 F 
ATOM     69  F   UNL A   1      41.893  22.930  26.499  1.00  0.00    -0.200 F 
ATOM     70  C   UNL A   1      43.208  24.696  25.648  1.00  0.00     0.200 A 
ATOM     71  F   UNL A   1      44.519  26.487  24.842  1.00  0.00    -0.200 F 
ATOM     72  F   UNL A   1      43.575  23.940  24.604  1.00  0.00    -0.200 F 
ENDBRANCH  48  62
BRANCH  49  73
ATOM     73  C   UNL A   1      39.265  32.048  35.340  1.00  0.00     0.064 A 
ATOM     74  C   UNL A   1      39.634  33.396  35.455  1.00  0.00     0.173 A 
ATOM     75  C   UNL A   1      38.455  31.506  36.350  1.00  0.00     0.173 A 
ATOM     76  F   UNL A   1      40.430  33.953  34.531  1.00  0.00    -0.203 F 
ATOM     77  C   UNL A   1      39.231  34.162  36.547  1.00  0.00     0.198 A 
ATOM     78  C   UNL A   1      38.025  32.283  37.423  1.00  0.00     0.198 A 
ATOM     79  F   UNL A   1      38.077  30.221  36.292  1.00  0.00    -0.203 F 
ATOM     80  F   UNL A   1      39.644  35.432  36.660  1.00  0.00    -0.200 F 
ATOM     81  C   UNL A   1      38.422  33.608  37.526  1.00  0.00     0.200 A 
ATOM     82  F   UNL A   1      37.232  31.747  38.360  1.00  0.00    -0.200 F 
ATOM     83  F   UNL A   1      38.032  34.346  38.574  1.00  0.00    -0.200 F 
ENDBRANCH  49  73
BRANCH  61  84
ATOM     84  C   UNL A   1      44.864  27.988  34.425  1.00  0.00     0.064 A 
ATOM     85  C   UNL A   1      44.881  26.877  35.282  1.00  0.00     0.173 A 
ATOM     86  C   UNL A   1      46.018  28.786  34.366  1.00  0.00     0.173 A 
ATOM     87  F   UNL A   1      43.802  26.087  35.385  1.00  0.00    -0.203 F 
ATOM     88  C   UNL A   1      45.996  26.595  36.068  1.00  0.00     0.198 A 
ATOM     89  C   UNL A   1      47.143  28.482  35.128  1.00  0.00     0.198 A 
ATOM     90  F   UNL A   1      46.060  29.856  33.558  1.00  0.00    -0.203 F 
ATOM     91  F   UNL A   1      45.970  25.559  36.917  1.00  0.00    -0.200 F 
ATOM     92  C   UNL A   1      47.128  27.392  35.984  1.00  0.00     0.200 A 
ATOM     93  F   UNL A   1      48.242  29.242  35.031  1.00  0.00    -0.200 F 
ATOM     94  F   UNL A   1      48.204  27.113  36.734  1.00  0.00    -0.200 F 
ENDBRANCH  61  84
ENDBRANCH  35  36
ENDBRANCH  28  30
ENDBRANCH  27  28
ENDBRANCH  26  27
ENDBRANCH   1  26
TORSDOF 16
ENDMDL
MODEL 3
REMARK VINA RESULT:     -10.6      4.552     10.005
REMARK SMILES C[NH2+][C@@]1(C(=O)OCCOCCOC(=O)c2ccc(-c3c4nc(c(-c5c(F)c(F)c(F)c(F)c5F)c5ccc([nH]5)c(-c5c(F)c(F)c(F)c(F)c5F)c5nc(c(-c6c(F)c(F)c(F)c(F)c6F)c6ccc3[nH]6)C=C5)C=C4)cc2)CC[C@H]([NH+]2CC[NH+](C)CC2)C1
REMARK SMILES IDX 10 1 9 2 8 3 7 4 6 5 4 6 5 7 3 8 78 9 88 10 79 11 80 12 2 13
REMARK SMILES IDX 1 14 81 17 82 18 87 19 83 21 86 22 84 23 85 24 11 26 12 27
REMARK SMILES IDX 13 28 14 29 15 30 16 31 77 32 17 33 76 34 18 35 19 36 20 37
REMARK SMILES IDX 70 38 21 39 75 40 69 41 71 42 22 43 74 44 68 45 67 46 23 48
REMARK SMILES IDX 55 49 35 50 54 51 36 52 39 53 53 54 72 55 37 56 38 57 52 59
REMARK SMILES IDX 73 60 40 61 24 62 25 63 33 64 26 65 27 66 31 67 34 68 28 69
REMARK SMILES IDX 29 70 32 71 30 72 56 73 57 74 65 75 58 76 59 77 63 78 66 79
REMARK SMILES IDX 60 80 61 81 64 82 62 83 41 84 42 85 50 86 43 87 44 88 48 89
REMARK SMILES IDX 51 90 45 91 46 92 49 93 47 94
REMARK H PARENT 2 15 2 16 81 20 84 25 71 47 39 58
REMARK Flexibility Score: inf
ROOT
ATOM      1  C   UNL A   1      35.885  20.752  25.475  1.00  0.00     0.202 C 
ENDROOT
BRANCH   1   2
ATOM      2  O   UNL A   1      34.794  20.410  24.626  1.00  0.00    -0.374 OA
BRANCH   2   3
ATOM      3  C   UNL A   1      33.591  19.974  25.267  1.00  0.00     0.202 C 
BRANCH   3   4
ATOM      4  C   UNL A   1      32.307  20.601  24.712  1.00  0.00     0.261 C 
BRANCH   4   5
ATOM      5  O   UNL A   1      32.660  21.632  23.765  1.00  0.00    -0.459 OA
BRANCH   5   6
ATOM      6  C   UNL A   1      32.333  22.906  24.077  1.00  0.00     0.368 C 
ATOM      7  O   UNL A   1      31.202  23.262  24.397  1.00  0.00    -0.245 OA
BRANCH   6   8
ATOM      8  C   UNL A   1      33.554  23.885  24.045  1.00  0.00     0.200 C 
ATOM      9  C   UNL A   1      34.150  23.969  25.459  1.00  0.00     0.087 C 
ATOM     10  C   UNL A   1      33.297  25.363  23.686  1.00  0.00     0.146 C 
ATOM     11  C   UNL A   1      33.487  25.171  26.125  1.00  0.00     0.072 C 
ATOM     12  C   UNL A   1      33.140  26.156  25.005  1.00  0.00     0.191 C 
BRANCH   8  13
ATOM     13  N   UNL A   1      34.583  23.273  23.150  1.00  0.00    -0.334 N 
ATOM     14  C   UNL A   1      35.959  23.608  23.503  1.00  0.00     0.331 C 
ATOM     15  H   UNL A   1      34.480  22.260  23.190  1.00  0.00     0.347 HD
ATOM     16  H   UNL A   1      34.420  23.650  22.216  1.00  0.00     0.347 HD
ENDBRANCH   8  13
BRANCH  12  17
ATOM     17  N   UNL A   1      31.943  27.003  25.106  1.00  0.00    -0.323 N 
ATOM     18  C   UNL A   1      32.000  28.282  24.376  1.00  0.00     0.324 C 
ATOM     19  C   UNL A   1      31.406  27.276  26.440  1.00  0.00     0.324 C 
ATOM     20  H   UNL A   1      31.295  26.366  24.643  1.00  0.00     0.348 HD
ATOM     21  C   UNL A   1      32.651  29.471  25.136  1.00  0.00     0.324 C 
ATOM     22  C   UNL A   1      32.158  28.342  27.251  1.00  0.00     0.324 C 
ATOM     23  N   UNL A   1      32.242  29.631  26.550  1.00  0.00    -0.328 N 
ATOM     24  C   UNL A   1      33.161  30.526  27.252  1.00  0.00     0.333 C 
ATOM     25  H   UNL A   1      31.308  30.041  26.546  1.00  0.00     0.348 HD
ENDBRANCH  12  17
ENDBRANCH   6   8
ENDBRANCH   5   6
ENDBRANCH   4   5
ENDBRANCH   3   4
ENDBRANCH   2   3
ENDBRANCH   1   2
BRANCH   1  26
ATOM     26  C   UNL A   1      37.273  20.305  25.002  1.00  0.00     0.261 C 
BRANCH  26  27
ATOM     27  O   UNL A   1      38.251  21.355  25.068  1.00  0.00    -0.460 OA
BRANCH  27  28
ATOM     28  C   UNL A   1      39.257  21.134  25.943  1.00  0.00     0.338 C 
ATOM     29  O   UNL A   1      39.866  20.088  26.126  1.00  0.00    -0.246 OA
BRANCH  28  30
ATOM     30  C   UNL A   1      39.653  22.398  26.588  1.00  0.00     0.060 A 
ATOM     31  C   UNL A   1      38.979  23.561  26.201  1.00  0.00     0.016 A 
ATOM     32  C   UNL A   1      40.702  22.459  27.508  1.00  0.00     0.016 A 
ATOM     33  C   UNL A   1      39.388  24.799  26.692  1.00  0.00     0.010 A 
ATOM     34  C   UNL A   1      41.101  23.703  28.012  1.00  0.00     0.010 A 
ATOM     35  C   UNL A   1      40.477  24.883  27.571  1.00  0.00    -0.014 A 
BRANCH  35  36
ATOM     36  C   UNL A   1      41.066  26.211  27.883  1.00  0.00     0.031 A 
ATOM     37  C   UNL A   1      42.488  26.492  27.470  1.00  0.00     0.074 A 
ATOM     38  C   UNL A   1      40.340  27.175  28.479  1.00  0.00     0.049 A 
ATOM     39  N   UNL A   1      43.212  27.569  27.647  1.00  0.00    -0.248 NA
ATOM     40  C   UNL A   1      43.190  25.407  26.767  1.00  0.00     0.031 C 
ATOM     41  C   UNL A   1      38.947  27.042  28.902  1.00  0.00     0.029 A 
ATOM     42  N   UNL A   1      40.679  28.459  28.830  1.00  0.00    -0.354 N 
ATOM     43  C   UNL A   1      44.452  27.286  27.089  1.00  0.00     0.074 A 
ATOM     44  C   UNL A   1      44.398  25.924  26.604  1.00  0.00     0.031 C 
ATOM     45  C   UNL A   1      38.548  28.202  29.453  1.00  0.00     0.029 A 
ATOM     46  C   UNL A   1      39.667  29.143  29.457  1.00  0.00     0.049 A 
ATOM     47  H   UNL A   1      41.564  28.851  28.648  1.00  0.00     0.167 HD
ATOM     48  C   UNL A   1      45.535  28.091  26.977  1.00  0.00     0.037 A 
ATOM     49  C   UNL A   1      39.657  30.380  29.994  1.00  0.00     0.037 A 
ATOM     50  C   UNL A   1      45.588  29.449  27.452  1.00  0.00     0.049 A 
ATOM     51  C   UNL A   1      40.898  31.234  29.917  1.00  0.00     0.074 A 
ATOM     52  C   UNL A   1      46.631  30.354  27.363  1.00  0.00     0.029 A 
ATOM     53  N   UNL A   1      44.553  30.096  28.113  1.00  0.00    -0.354 N 
ATOM     54  N   UNL A   1      42.056  30.970  29.361  1.00  0.00    -0.248 NA
ATOM     55  C   UNL A   1      40.828  32.561  30.545  1.00  0.00     0.031 C 
ATOM     56  C   UNL A   1      46.252  31.525  28.026  1.00  0.00     0.029 A 
ATOM     57  C   UNL A   1      44.947  31.377  28.465  1.00  0.00     0.049 A 
ATOM     58  H   UNL A   1      43.671  29.703  28.303  1.00  0.00     0.167 HD
ATOM     59  C   UNL A   1      42.836  32.106  29.542  1.00  0.00     0.074 A 
ATOM     60  C   UNL A   1      42.016  33.067  30.247  1.00  0.00     0.031 C 
ATOM     61  C   UNL A   1      44.118  32.331  29.158  1.00  0.00     0.037 A 
BRANCH  48  62
ATOM     62  C   UNL A   1      46.766  27.515  26.338  1.00  0.00     0.064 A 
ATOM     63  C   UNL A   1      47.754  26.857  27.087  1.00  0.00     0.173 A 
ATOM     64  C   UNL A   1      46.943  27.591  24.947  1.00  0.00     0.173 A 
ATOM     65  F   UNL A   1      47.641  26.767  28.421  1.00  0.00    -0.203 F 
ATOM     66  C   UNL A   1      48.885  26.326  26.473  1.00  0.00     0.198 A 
ATOM     67  C   UNL A   1      48.058  27.028  24.332  1.00  0.00     0.198 A 
ATOM     68  F   UNL A   1      46.027  28.202  24.181  1.00  0.00    -0.203 F 
ATOM     69  F   UNL A   1      49.840  25.750  27.216  1.00  0.00    -0.200 F 
ATOM     70  C   UNL A   1      49.032  26.405  25.096  1.00  0.00     0.200 A 
ATOM     71  F   UNL A   1      48.190  27.090  23.000  1.00  0.00    -0.200 F 
ATOM     72  F   UNL A   1      50.117  25.884  24.506  1.00  0.00    -0.200 F 
ENDBRANCH  48  62
BRANCH  49  73
ATOM     73  C   UNL A   1      38.431  30.888  30.667  1.00  0.00     0.064 A 
ATOM     74  C   UNL A   1      37.388  31.471  29.932  1.00  0.00     0.173 A 
ATOM     75  C   UNL A   1      38.289  30.827  32.062  1.00  0.00     0.173 A 
ATOM     76  F   UNL A   1      37.487  31.579  28.599  1.00  0.00    -0.203 F 
ATOM     77  C   UNL A   1      36.264  31.994  30.568  1.00  0.00     0.198 A 
ATOM     78  C   UNL A   1      37.148  31.319  32.693  1.00  0.00     0.198 A 
ATOM     79  F   UNL A   1      39.258  30.285  32.813  1.00  0.00    -0.203 F 
ATOM     80  F   UNL A   1      35.308  32.596  29.846  1.00  0.00    -0.200 F 
ATOM     81  C   UNL A   1      36.141  31.912  31.946  1.00  0.00     0.200 A 
ATOM     82  F   UNL A   1      37.028  31.225  34.024  1.00  0.00    -0.200 F 
ATOM     83  F   UNL A   1      35.058  32.412  32.557  1.00  0.00    -0.200 F 
ENDBRANCH  49  73
BRANCH  61  84
ATOM     84  C   UNL A   1      44.704  33.686  29.447  1.00  0.00     0.064 A 
ATOM     85  C   UNL A   1      44.571  34.758  28.553  1.00  0.00     0.173 A 
ATOM     86  C   UNL A   1      45.367  33.925  30.661  1.00  0.00     0.173 A 
ATOM     87  F   UNL A   1      43.955  34.583  27.374  1.00  0.00    -0.203 F 
ATOM     88  C   UNL A   1      45.107  36.010  28.849  1.00  0.00     0.198 A 
ATOM     89  C   UNL A   1      45.871  35.186  30.969  1.00  0.00     0.198 A 
ATOM     90  F   UNL A   1      45.515  32.938  31.558  1.00  0.00    -0.203 F 
ATOM     91  F   UNL A   1      45.014  37.005  27.957  1.00  0.00    -0.200 F 
ATOM     92  C   UNL A   1      45.749  36.224  30.060  1.00  0.00     0.200 A 
ATOM     93  F   UNL A   1      46.474  35.395  32.148  1.00  0.00    -0.200 F 
ATOM     94  F   UNL A   1      46.255  37.432  30.348  1.00  0.00    -0.200 F 
ENDBRANCH  61  84
ENDBRANCH  35  36
ENDBRANCH  28  30
ENDBRANCH  27  28
ENDBRANCH  26  27
ENDBRANCH   1  26
TORSDOF 16
ENDMDL
