MODEL 1
REMARK VINA RESULT:     -12.1      0.000      0.000
REMARK SMILES CC(C)(C)c1noc2ncc(C(=O)OCCOCCOC(=O)c3ccc(-c4c5nc(c(-c6c(F)c(F)c(F)c(F)c6F)c6ccc([nH]6)c(-c6c(F)c(F)c(F)c(F)c6F)c6nc(c(-c7c(F)c(F)c(F)c(F)c7F)c7ccc4[nH]7)C=C6)C=C5)cc3)cc12
REMARK SMILES IDX 18 1 17 2 16 3 15 4 14 5 12 6 13 7 11 8 5 9 6 10 87 11 7 12
REMARK SMILES IDX 8 13 86 14 9 15 10 16 2 17 1 18 3 19 4 20 19 21 20 22 21 23
REMARK SMILES IDX 22 24 23 25 24 26 85 27 25 28 84 29 26 30 27 31 28 32 78 33
REMARK SMILES IDX 29 34 83 35 77 36 79 37 30 38 82 39 76 40 75 41 31 43 63 44
REMARK SMILES IDX 43 45 62 46 44 47 47 48 61 49 80 50 45 51 46 52 60 54 81 55
REMARK SMILES IDX 48 56 32 57 33 58 41 59 34 60 35 61 39 62 42 63 36 64 37 65
REMARK SMILES IDX 40 66 38 67 64 68 65 69 73 70 66 71 67 72 71 73 74 74 68 75
REMARK SMILES IDX 69 76 72 77 70 78 49 79 50 80 58 81 51 82 52 83 56 84 59 85
REMARK SMILES IDX 53 86 54 87 57 88 55 89
REMARK H PARENT 79 42 47 53
REMARK Flexibility Score: inf
ROOT
ATOM      1  C   UNL A   1      41.842  20.560  27.272  1.00  0.00     0.202 C 
ENDROOT
BRANCH   1   2
ATOM      2  O   UNL A   1      40.586  21.227  27.333  1.00  0.00    -0.374 OA
BRANCH   2   3
ATOM      3  C   UNL A   1      39.982  21.790  26.169  1.00  0.00     0.202 C 
BRANCH   3   4
ATOM      4  C   UNL A   1      38.465  21.986  26.115  1.00  0.00     0.261 C 
BRANCH   4   5
ATOM      5  O   UNL A   1      37.824  21.181  25.112  1.00  0.00    -0.460 OA
BRANCH   5   6
ATOM      6  C   UNL A   1      36.865  21.841  24.419  1.00  0.00     0.339 C 
ATOM      7  O   UNL A   1      37.026  22.620  23.496  1.00  0.00    -0.246 OA
BRANCH   6   8
ATOM      8  C   UNL A   1      35.533  21.324  24.754  1.00  0.00     0.079 A 
ATOM      9  C   UNL A   1      33.410  18.170  24.865  1.00  0.00     0.099 A 
ATOM     10  N   UNL A   1      32.105  18.323  25.150  1.00  0.00    -0.081 NA
ATOM     11  C   UNL A   1      34.064  19.435  24.871  1.00  0.00     0.066 A 
ATOM     12  O   UNL A   1      31.908  19.672  25.388  1.00  0.00    -0.336 OA
ATOM     13  C   UNL A   1      33.079  20.345  25.232  1.00  0.00     0.257 A 
ATOM     14  C   UNL A   1      35.341  19.945  24.619  1.00  0.00     0.033 A 
ATOM     15  N   UNL A   1      33.219  21.680  25.406  1.00  0.00    -0.218 NA
ATOM     16  C   UNL A   1      34.477  22.125  25.155  1.00  0.00     0.131 A 
BRANCH   9  17
ATOM     17  C   UNL A   1      33.958  16.781  24.553  1.00  0.00     0.008 C 
ATOM     18  C   UNL A   1      32.954  15.686  24.978  1.00  0.00     0.018 C 
ATOM     19  C   UNL A   1      35.279  16.477  25.292  1.00  0.00     0.018 C 
ATOM     20  C   UNL A   1      34.220  16.660  23.039  1.00  0.00     0.018 C 
ENDBRANCH   9  17
ENDBRANCH   6   8
ENDBRANCH   5   6
ENDBRANCH   4   5
ENDBRANCH   3   4
ENDBRANCH   2   3
ENDBRANCH   1   2
BRANCH   1  21
ATOM     21  C   UNL A   1      42.136  19.616  26.112  1.00  0.00     0.261 C 
BRANCH  21  22
ATOM     22  O   UNL A   1      42.817  20.287  25.067  1.00  0.00    -0.460 OA
BRANCH  22  23
ATOM     23  C   UNL A   1      44.152  20.342  25.277  1.00  0.00     0.338 C 
ATOM     24  O   UNL A   1      44.870  19.467  25.726  1.00  0.00    -0.246 OA
BRANCH  23  25
ATOM     25  C   UNL A   1      44.636  21.685  24.933  1.00  0.00     0.060 A 
ATOM     26  C   UNL A   1      45.742  22.094  25.682  1.00  0.00     0.016 A 
ATOM     27  C   UNL A   1      43.682  22.576  24.436  1.00  0.00     0.016 A 
ATOM     28  C   UNL A   1      45.664  23.322  26.286  1.00  0.00     0.010 A 
ATOM     29  C   UNL A   1      43.581  23.782  25.069  1.00  0.00     0.010 A 
ATOM     30  C   UNL A   1      44.509  24.076  26.068  1.00  0.00    -0.014 A 
BRANCH  30  31
ATOM     31  C   UNL A   1      44.273  25.210  26.921  1.00  0.00     0.031 A 
ATOM     32  C   UNL A   1      45.333  26.227  26.816  1.00  0.00     0.074 A 
ATOM     33  C   UNL A   1      43.143  25.327  27.640  1.00  0.00     0.049 A 
ATOM     34  N   UNL A   1      46.212  26.544  27.706  1.00  0.00    -0.248 NA
ATOM     35  C   UNL A   1      45.569  26.814  25.488  1.00  0.00     0.031 C 
ATOM     36  C   UNL A   1      41.925  24.512  27.608  1.00  0.00     0.029 A 
ATOM     37  N   UNL A   1      42.834  26.303  28.529  1.00  0.00    -0.354 N 
ATOM     38  C   UNL A   1      47.017  27.495  27.094  1.00  0.00     0.074 A 
ATOM     39  C   UNL A   1      46.718  27.453  25.689  1.00  0.00     0.031 C 
ATOM     40  C   UNL A   1      40.939  25.160  28.276  1.00  0.00     0.029 A 
ATOM     41  C   UNL A   1      41.493  26.357  28.882  1.00  0.00     0.049 A 
ATOM     42  H   UNL A   1      43.505  26.924  28.894  1.00  0.00     0.167 HD
ATOM     43  C   UNL A   1      47.699  28.424  27.814  1.00  0.00     0.037 A 
ATOM     44  C   UNL A   1      40.915  27.396  29.537  1.00  0.00     0.037 A 
ATOM     45  C   UNL A   1      47.812  28.043  29.195  1.00  0.00     0.049 A 
ATOM     46  C   UNL A   1      42.015  28.157  30.200  1.00  0.00     0.074 A 
ATOM     47  C   UNL A   1      48.438  26.999  29.848  1.00  0.00     0.029 A 
ATOM     48  N   UNL A   1      46.887  28.538  30.084  1.00  0.00    -0.354 N 
ATOM     49  N   UNL A   1      42.729  27.677  31.186  1.00  0.00    -0.248 NA
ATOM     50  C   UNL A   1      42.651  29.223  29.435  1.00  0.00     0.031 C 
ATOM     51  C   UNL A   1      47.539  26.615  30.884  1.00  0.00     0.029 A 
ATOM     52  C   UNL A   1      46.448  27.484  30.850  1.00  0.00     0.049 A 
ATOM     53  H   UNL A   1      46.594  29.475  30.159  1.00  0.00     0.167 HD
ATOM     54  C   UNL A   1      44.030  28.085  30.923  1.00  0.00     0.074 A 
ATOM     55  C   UNL A   1      43.912  29.078  29.858  1.00  0.00     0.031 C 
ATOM     56  C   UNL A   1      45.106  27.376  31.377  1.00  0.00     0.037 A 
BRANCH  43  57
ATOM     57  C   UNL A   1      47.990  29.804  27.300  1.00  0.00     0.064 A 
ATOM     58  C   UNL A   1      49.314  30.263  27.246  1.00  0.00     0.173 A 
ATOM     59  C   UNL A   1      46.992  30.782  27.072  1.00  0.00     0.173 A 
ATOM     60  F   UNL A   1      50.336  29.430  27.491  1.00  0.00    -0.203 F 
ATOM     61  C   UNL A   1      49.616  31.607  27.005  1.00  0.00     0.198 A 
ATOM     62  C   UNL A   1      47.297  32.104  26.765  1.00  0.00     0.198 A 
ATOM     63  F   UNL A   1      45.689  30.526  27.240  1.00  0.00    -0.203 F 
ATOM     64  F   UNL A   1      50.888  32.022  27.065  1.00  0.00    -0.200 F 
ATOM     65  C   UNL A   1      48.610  32.523  26.758  1.00  0.00     0.200 A 
ATOM     66  F   UNL A   1      46.303  32.976  26.549  1.00  0.00    -0.200 F 
ATOM     67  F   UNL A   1      48.896  33.816  26.563  1.00  0.00    -0.200 F 
ENDBRANCH  43  57
BRANCH  44  68
ATOM     68  C   UNL A   1      39.570  27.971  29.296  1.00  0.00     0.064 A 
ATOM     69  C   UNL A   1      38.643  28.128  30.338  1.00  0.00     0.173 A 
ATOM     70  C   UNL A   1      39.262  28.621  28.084  1.00  0.00     0.173 A 
ATOM     71  F   UNL A   1      38.886  27.589  31.542  1.00  0.00    -0.203 F 
ATOM     72  C   UNL A   1      37.483  28.897  30.179  1.00  0.00     0.198 A 
ATOM     73  C   UNL A   1      38.105  29.383  27.924  1.00  0.00     0.198 A 
ATOM     74  F   UNL A   1      40.126  28.609  27.059  1.00  0.00    -0.203 F 
ATOM     75  F   UNL A   1      36.646  29.068  31.213  1.00  0.00    -0.200 F 
ATOM     76  C   UNL A   1      37.219  29.529  28.975  1.00  0.00     0.200 A 
ATOM     77  F   UNL A   1      37.884  30.022  26.766  1.00  0.00    -0.200 F 
ATOM     78  F   UNL A   1      36.138  30.309  28.838  1.00  0.00    -0.200 F 
ENDBRANCH  44  68
BRANCH  56  79
ATOM     79  C   UNL A   1      44.841  26.226  32.317  1.00  0.00     0.064 A 
ATOM     80  C   UNL A   1      44.651  26.384  33.702  1.00  0.00     0.173 A 
ATOM     81  C   UNL A   1      44.597  24.956  31.780  1.00  0.00     0.173 A 
ATOM     82  F   UNL A   1      44.758  27.587  34.277  1.00  0.00    -0.203 F 
ATOM     83  C   UNL A   1      44.271  25.315  34.513  1.00  0.00     0.198 A 
ATOM     84  C   UNL A   1      44.181  23.897  32.585  1.00  0.00     0.198 A 
ATOM     85  F   UNL A   1      44.700  24.756  30.458  1.00  0.00    -0.203 F 
ATOM     86  F   UNL A   1      44.099  25.496  35.831  1.00  0.00    -0.200 F 
ATOM     87  C   UNL A   1      44.027  24.073  33.952  1.00  0.00     0.200 A 
ATOM     88  F   UNL A   1      43.893  22.712  32.030  1.00  0.00    -0.200 F 
ATOM     89  F   UNL A   1      43.613  23.057  34.720  1.00  0.00    -0.200 F 
ENDBRANCH  56  79
ENDBRANCH  30  31
ENDBRANCH  23  25
ENDBRANCH  22  23
ENDBRANCH  21  22
ENDBRANCH   1  21
TORSDOF 15
ENDMDL
MODEL 2
REMARK VINA RESULT:     -11.8      4.008      6.797
REMARK SMILES CC(C)(C)c1noc2ncc(C(=O)OCCOCCOC(=O)c3ccc(-c4c5nc(c(-c6c(F)c(F)c(F)c(F)c6F)c6ccc([nH]6)c(-c6c(F)c(F)c(F)c(F)c6F)c6nc(c(-c7c(F)c(F)c(F)c(F)c7F)c7ccc4[nH]7)C=C6)C=C5)cc3)cc12
REMARK SMILES IDX 18 1 17 2 16 3 15 4 14 5 12 6 13 7 11 8 5 9 6 10 87 11 7 12
REMARK SMILES IDX 8 13 86 14 9 15 10 16 2 17 1 18 3 19 4 20 19 21 20 22 21 23
REMARK SMILES IDX 22 24 23 25 24 26 85 27 25 28 84 29 26 30 27 31 28 32 78 33
REMARK SMILES IDX 29 34 83 35 77 36 79 37 30 38 82 39 76 40 75 41 31 43 63 44
REMARK SMILES IDX 43 45 62 46 44 47 47 48 61 49 80 50 45 51 46 52 60 54 81 55
REMARK SMILES IDX 48 56 32 57 33 58 41 59 34 60 35 61 39 62 42 63 36 64 37 65
REMARK SMILES IDX 40 66 38 67 64 68 65 69 73 70 66 71 67 72 71 73 74 74 68 75
REMARK SMILES IDX 69 76 72 77 70 78 49 79 50 80 58 81 51 82 52 83 56 84 59 85
REMARK SMILES IDX 53 86 54 87 57 88 55 89
REMARK H PARENT 79 42 47 53
REMARK Flexibility Score: inf
ROOT
ATOM      1  C   UNL A   1      41.460  20.463  26.082  1.00  0.00     0.202 C 
ENDROOT
BRANCH   1   2
ATOM      2  O   UNL A   1      41.600  19.053  25.943  1.00  0.00    -0.374 OA
BRANCH   2   3
ATOM      3  C   UNL A   1      42.877  18.419  26.009  1.00  0.00     0.202 C 
BRANCH   3   4
ATOM      4  C   UNL A   1      44.009  18.882  25.089  1.00  0.00     0.261 C 
BRANCH   4   5
ATOM      5  O   UNL A   1      45.226  19.181  25.793  1.00  0.00    -0.460 OA
BRANCH   5   6
ATOM      6  C   UNL A   1      46.083  19.958  25.087  1.00  0.00     0.339 C 
ATOM      7  O   UNL A   1      47.080  19.598  24.487  1.00  0.00    -0.246 OA
BRANCH   6   8
ATOM      8  C   UNL A   1      45.537  21.309  24.915  1.00  0.00     0.079 A 
ATOM      9  C   UNL A   1      45.310  24.749  26.520  1.00  0.00     0.099 A 
ATOM     10  N   UNL A   1      44.497  25.645  25.932  1.00  0.00    -0.081 NA
ATOM     11  C   UNL A   1      45.291  23.523  25.797  1.00  0.00     0.066 A 
ATOM     12  O   UNL A   1      43.982  25.030  24.804  1.00  0.00    -0.336 OA
ATOM     13  C   UNL A   1      44.460  23.760  24.711  1.00  0.00     0.257 A 
ATOM     14  C   UNL A   1      45.850  22.245  25.905  1.00  0.00     0.033 A 
ATOM     15  N   UNL A   1      44.150  22.901  23.712  1.00  0.00    -0.218 NA
ATOM     16  C   UNL A   1      44.721  21.678  23.858  1.00  0.00     0.131 A 
BRANCH   9  17
ATOM     17  C   UNL A   1      46.044  25.125  27.803  1.00  0.00     0.008 C 
ATOM     18  C   UNL A   1      45.789  26.604  28.171  1.00  0.00     0.018 C 
ATOM     19  C   UNL A   1      47.575  24.958  27.689  1.00  0.00     0.018 C 
ATOM     20  C   UNL A   1      45.552  24.230  28.958  1.00  0.00     0.018 C 
ENDBRANCH   9  17
ENDBRANCH   6   8
ENDBRANCH   5   6
ENDBRANCH   4   5
ENDBRANCH   3   4
ENDBRANCH   2   3
ENDBRANCH   1   2
BRANCH   1  21
ATOM     21  C   UNL A   1      40.290  21.027  26.879  1.00  0.00     0.261 C 
BRANCH  21  22
ATOM     22  O   UNL A   1      40.692  22.140  27.658  1.00  0.00    -0.460 OA
BRANCH  22  23
ATOM     23  C   UNL A   1      40.131  23.294  27.234  1.00  0.00     0.338 C 
ATOM     24  O   UNL A   1      38.963  23.493  26.953  1.00  0.00    -0.246 OA
BRANCH  23  25
ATOM     25  C   UNL A   1      41.179  24.312  27.089  1.00  0.00     0.060 A 
ATOM     26  C   UNL A   1      41.982  24.459  28.222  1.00  0.00     0.016 A 
ATOM     27  C   UNL A   1      40.900  25.363  26.212  1.00  0.00     0.016 A 
ATOM     28  C   UNL A   1      42.152  25.731  28.702  1.00  0.00     0.010 A 
ATOM     29  C   UNL A   1      41.032  26.628  26.710  1.00  0.00     0.010 A 
ATOM     30  C   UNL A   1      41.547  26.773  27.998  1.00  0.00    -0.014 A 
BRANCH  30  31
ATOM     31  C   UNL A   1      41.453  28.057  28.640  1.00  0.00     0.031 A 
ATOM     32  C   UNL A   1      42.556  28.958  28.267  1.00  0.00     0.074 A 
ATOM     33  C   UNL A   1      40.401  28.384  29.410  1.00  0.00     0.049 A 
ATOM     34  N   UNL A   1      43.528  29.365  29.011  1.00  0.00    -0.248 NA
ATOM     35  C   UNL A   1      42.706  29.276  26.838  1.00  0.00     0.031 C 
ATOM     36  C   UNL A   1      39.140  27.668  29.624  1.00  0.00     0.029 A 
ATOM     37  N   UNL A   1      40.229  29.525  30.123  1.00  0.00    -0.354 N 
ATOM     38  C   UNL A   1      44.329  30.129  28.173  1.00  0.00     0.074 A 
ATOM     39  C   UNL A   1      43.904  29.856  26.828  1.00  0.00     0.031 C 
ATOM     40  C   UNL A   1      38.256  28.496  30.234  1.00  0.00     0.029 A 
ATOM     41  C   UNL A   1      38.930  29.740  30.562  1.00  0.00     0.049 A 
ATOM     42  H   UNL A   1      40.965  30.151  30.312  1.00  0.00     0.167 HD
ATOM     43  C   UNL A   1      45.125  31.120  28.653  1.00  0.00     0.037 A 
ATOM     44  C   UNL A   1      38.474  30.919  31.055  1.00  0.00     0.037 A 
ATOM     45  C   UNL A   1      45.338  30.988  30.068  1.00  0.00     0.049 A 
ATOM     46  C   UNL A   1      39.671  31.705  31.478  1.00  0.00     0.074 A 
ATOM     47  C   UNL A   1      45.959  30.036  30.853  1.00  0.00     0.029 A 
ATOM     48  N   UNL A   1      44.527  31.702  30.918  1.00  0.00    -0.354 N 
ATOM     49  N   UNL A   1      40.440  31.360  32.477  1.00  0.00    -0.248 NA
ATOM     50  C   UNL A   1      40.296  32.566  30.481  1.00  0.00     0.031 C 
ATOM     51  C   UNL A   1      45.135  29.913  32.009  1.00  0.00     0.029 A 
ATOM     52  C   UNL A   1      44.098  30.839  31.898  1.00  0.00     0.049 A 
ATOM     53  H   UNL A   1      44.296  32.656  30.839  1.00  0.00     0.167 HD
ATOM     54  C   UNL A   1      41.734  31.618  32.043  1.00  0.00     0.074 A 
ATOM     55  C   UNL A   1      41.579  32.408  30.825  1.00  0.00     0.031 C 
ATOM     56  C   UNL A   1      42.803  30.925  32.537  1.00  0.00     0.037 A 
BRANCH  43  57
ATOM     57  C   UNL A   1      45.448  32.360  27.870  1.00  0.00     0.064 A 
ATOM     58  C   UNL A   1      44.435  33.289  27.586  1.00  0.00     0.173 A 
ATOM     59  C   UNL A   1      46.672  32.560  27.189  1.00  0.00     0.173 A 
ATOM     60  F   UNL A   1      43.221  33.167  28.143  1.00  0.00    -0.203 F 
ATOM     61  C   UNL A   1      44.628  34.326  26.669  1.00  0.00     0.198 A 
ATOM     62  C   UNL A   1      46.883  33.632  26.329  1.00  0.00     0.198 A 
ATOM     63  F   UNL A   1      47.673  31.672  27.243  1.00  0.00    -0.203 F 
ATOM     64  F   UNL A   1      43.603  35.127  26.349  1.00  0.00    -0.200 F 
ATOM     65  C   UNL A   1      45.851  34.502  26.047  1.00  0.00     0.200 A 
ATOM     66  F   UNL A   1      48.071  33.769  25.724  1.00  0.00    -0.200 F 
ATOM     67  F   UNL A   1      46.025  35.472  25.143  1.00  0.00    -0.200 F 
ENDBRANCH  43  57
BRANCH  44  68
ATOM     68  C   UNL A   1      37.148  31.538  30.815  1.00  0.00     0.064 A 
ATOM     69  C   UNL A   1      36.235  31.742  31.861  1.00  0.00     0.173 A 
ATOM     70  C   UNL A   1      36.854  32.181  29.596  1.00  0.00     0.173 A 
ATOM     71  F   UNL A   1      36.468  31.211  33.071  1.00  0.00    -0.203 F 
ATOM     72  C   UNL A   1      35.102  32.549  31.699  1.00  0.00     0.198 A 
ATOM     73  C   UNL A   1      35.723  32.982  29.433  1.00  0.00     0.198 A 
ATOM     74  F   UNL A   1      37.709  32.125  28.565  1.00  0.00    -0.203 F 
ATOM     75  F   UNL A   1      34.279  32.764  32.736  1.00  0.00    -0.200 F 
ATOM     76  C   UNL A   1      34.851  33.173  30.489  1.00  0.00     0.200 A 
ATOM     77  F   UNL A   1      35.516  33.612  28.268  1.00  0.00    -0.200 F 
ATOM     78  F   UNL A   1      33.797  33.989  30.348  1.00  0.00    -0.200 F 
ENDBRANCH  44  68
BRANCH  56  79
ATOM     79  C   UNL A   1      42.558  29.988  33.692  1.00  0.00     0.064 A 
ATOM     80  C   UNL A   1      42.668  30.372  35.042  1.00  0.00     0.173 A 
ATOM     81  C   UNL A   1      42.025  28.719  33.432  1.00  0.00     0.173 A 
ATOM     82  F   UNL A   1      43.067  31.604  35.374  1.00  0.00    -0.203 F 
ATOM     83  C   UNL A   1      42.298  29.514  36.077  1.00  0.00     0.198 A 
ATOM     84  C   UNL A   1      41.620  27.877  34.466  1.00  0.00     0.198 A 
ATOM     85  F   UNL A   1      41.836  28.318  32.166  1.00  0.00    -0.203 F 
ATOM     86  F   UNL A   1      42.417  29.908  37.354  1.00  0.00    -0.200 F 
ATOM     87  C   UNL A   1      41.765  28.270  35.788  1.00  0.00     0.200 A 
ATOM     88  F   UNL A   1      41.054  26.697  34.181  1.00  0.00    -0.200 F 
ATOM     89  F   UNL A   1      41.361  27.463  36.779  1.00  0.00    -0.200 F 
ENDBRANCH  56  79
ENDBRANCH  30  31
ENDBRANCH  23  25
ENDBRANCH  22  23
ENDBRANCH  21  22
ENDBRANCH   1  21
TORSDOF 15
ENDMDL
MODEL 3
REMARK VINA RESULT:     -11.8      2.115      3.779
REMARK SMILES CC(C)(C)c1noc2ncc(C(=O)OCCOCCOC(=O)c3ccc(-c4c5nc(c(-c6c(F)c(F)c(F)c(F)c6F)c6ccc([nH]6)c(-c6c(F)c(F)c(F)c(F)c6F)c6nc(c(-c7c(F)c(F)c(F)c(F)c7F)c7ccc4[nH]7)C=C6)C=C5)cc3)cc12
REMARK SMILES IDX 18 1 17 2 16 3 15 4 14 5 12 6 13 7 11 8 5 9 6 10 87 11 7 12
REMARK SMILES IDX 8 13 86 14 9 15 10 16 2 17 1 18 3 19 4 20 19 21 20 22 21 23
REMARK SMILES IDX 22 24 23 25 24 26 85 27 25 28 84 29 26 30 27 31 28 32 78 33
REMARK SMILES IDX 29 34 83 35 77 36 79 37 30 38 82 39 76 40 75 41 31 43 63 44
REMARK SMILES IDX 43 45 62 46 44 47 47 48 61 49 80 50 45 51 46 52 60 54 81 55
REMARK SMILES IDX 48 56 32 57 33 58 41 59 34 60 35 61 39 62 42 63 36 64 37 65
REMARK SMILES IDX 40 66 38 67 64 68 65 69 73 70 66 71 67 72 71 73 74 74 68 75
REMARK SMILES IDX 69 76 72 77 70 78 49 79 50 80 58 81 51 82 52 83 56 84 59 85
REMARK SMILES IDX 53 86 54 87 57 88 55 89
REMARK H PARENT 79 42 47 53
REMARK Flexibility Score: inf
ROOT
ATOM      1  C   UNL A   1      40.419  21.410  27.002  1.00  0.00     0.202 C 
ENDROOT
BRANCH   1   2
ATOM      2  O   UNL A   1      39.476  22.158  26.242  1.00  0.00    -0.374 OA
BRANCH   2   3
ATOM      3  C   UNL A   1      38.477  21.516  25.451  1.00  0.00     0.202 C 
BRANCH   3   4
ATOM      4  C   UNL A   1      36.995  21.759  25.746  1.00  0.00     0.261 C 
BRANCH   4   5
ATOM      5  O   UNL A   1      36.601  23.131  25.576  1.00  0.00    -0.460 OA
BRANCH   5   6
ATOM      6  C   UNL A   1      35.304  23.364  25.889  1.00  0.00     0.339 C 
ATOM      7  O   UNL A   1      34.714  23.012  26.896  1.00  0.00    -0.246 OA
BRANCH   6   8
ATOM      8  C   UNL A   1      34.709  24.329  24.958  1.00  0.00     0.079 A 
ATOM      9  C   UNL A   1      32.876  27.655  24.748  1.00  0.00     0.099 A 
ATOM     10  N   UNL A   1      32.415  28.023  23.540  1.00  0.00    -0.081 NA
ATOM     11  C   UNL A   1      33.542  26.400  24.657  1.00  0.00     0.066 A 
ATOM     12  O   UNL A   1      32.813  27.041  22.649  1.00  0.00    -0.336 OA
ATOM     13  C   UNL A   1      33.498  26.068  23.310  1.00  0.00     0.257 A 
ATOM     14  C   UNL A   1      34.171  25.493  25.516  1.00  0.00     0.033 A 
ATOM     15  N   UNL A   1      34.028  24.974  22.716  1.00  0.00    -0.218 NA
ATOM     16  C   UNL A   1      34.631  24.128  23.590  1.00  0.00     0.131 A 
BRANCH   9  17
ATOM     17  C   UNL A   1      32.604  28.539  25.961  1.00  0.00     0.008 C 
ATOM     18  C   UNL A   1      31.719  27.802  26.992  1.00  0.00     0.018 C 
ATOM     19  C   UNL A   1      31.863  29.844  25.599  1.00  0.00     0.018 C 
ATOM     20  C   UNL A   1      33.939  28.919  26.630  1.00  0.00     0.018 C 
ENDBRANCH   9  17
ENDBRANCH   6   8
ENDBRANCH   5   6
ENDBRANCH   4   5
ENDBRANCH   3   4
ENDBRANCH   2   3
ENDBRANCH   1   2
BRANCH   1  21
ATOM     21  C   UNL A   1      41.389  20.476  26.287  1.00  0.00     0.261 C 
BRANCH  21  22
ATOM     22  O   UNL A   1      42.733  20.841  26.546  1.00  0.00    -0.460 OA
BRANCH  22  23
ATOM     23  C   UNL A   1      43.516  20.730  25.449  1.00  0.00     0.338 C 
ATOM     24  O   UNL A   1      43.716  19.735  24.777  1.00  0.00    -0.246 OA
BRANCH  23  25
ATOM     25  C   UNL A   1      44.177  22.017  25.199  1.00  0.00     0.060 A 
ATOM     26  C   UNL A   1      45.183  22.322  26.119  1.00  0.00     0.016 A 
ATOM     27  C   UNL A   1      43.405  22.993  24.565  1.00  0.00     0.016 A 
ATOM     28  C   UNL A   1      45.129  23.556  26.713  1.00  0.00     0.010 A 
ATOM     29  C   UNL A   1      43.322  24.208  25.184  1.00  0.00     0.010 A 
ATOM     30  C   UNL A   1      44.103  24.416  26.321  1.00  0.00    -0.014 A 
BRANCH  30  31
ATOM     31  C   UNL A   1      43.844  25.574  27.135  1.00  0.00     0.031 A 
ATOM     32  C   UNL A   1      44.870  26.617  26.976  1.00  0.00     0.074 A 
ATOM     33  C   UNL A   1      42.722  25.683  27.868  1.00  0.00     0.049 A 
ATOM     34  N   UNL A   1      45.753  26.994  27.839  1.00  0.00    -0.248 NA
ATOM     35  C   UNL A   1      45.068  27.162  25.624  1.00  0.00     0.031 C 
ATOM     36  C   UNL A   1      41.530  24.831  27.886  1.00  0.00     0.029 A 
ATOM     37  N   UNL A   1      42.397  26.682  28.726  1.00  0.00    -0.354 N 
ATOM     38  C   UNL A   1      46.519  27.946  27.180  1.00  0.00     0.074 A 
ATOM     39  C   UNL A   1      46.200  27.843  25.783  1.00  0.00     0.031 C 
ATOM     40  C   UNL A   1      40.535  25.473  28.546  1.00  0.00     0.029 A 
ATOM     41  C   UNL A   1      41.060  26.708  29.099  1.00  0.00     0.049 A 
ATOM     42  H   UNL A   1      43.054  27.336  29.056  1.00  0.00     0.167 HD
ATOM     43  C   UNL A   1      47.182  28.921  27.854  1.00  0.00     0.037 A 
ATOM     44  C   UNL A   1      40.461  27.752  29.725  1.00  0.00     0.037 A 
ATOM     45  C   UNL A   1      47.328  28.596  29.247  1.00  0.00     0.049 A 
ATOM     46  C   UNL A   1      41.547  28.570  30.341  1.00  0.00     0.074 A 
ATOM     47  C   UNL A   1      47.996  27.596  29.926  1.00  0.00     0.029 A 
ATOM     48  N   UNL A   1      46.402  29.094  30.132  1.00  0.00    -0.354 N 
ATOM     49  N   UNL A   1      42.289  28.149  31.332  1.00  0.00    -0.248 NA
ATOM     50  C   UNL A   1      42.137  29.626  29.528  1.00  0.00     0.031 C 
ATOM     51  C   UNL A   1      47.125  27.224  30.991  1.00  0.00     0.029 A 
ATOM     52  C   UNL A   1      46.007  28.057  30.943  1.00  0.00     0.049 A 
ATOM     53  H   UNL A   1      46.081  30.024  30.177  1.00  0.00     0.167 HD
ATOM     54  C   UNL A   1      43.573  28.587  31.033  1.00  0.00     0.074 A 
ATOM     55  C   UNL A   1      43.408  29.535  29.935  1.00  0.00     0.031 C 
ATOM     56  C   UNL A   1      44.677  27.927  31.495  1.00  0.00     0.037 A 
BRANCH  43  57
ATOM     57  C   UNL A   1      47.423  30.289  27.286  1.00  0.00     0.064 A 
ATOM     58  C   UNL A   1      48.719  30.826  27.285  1.00  0.00     0.173 A 
ATOM     59  C   UNL A   1      46.385  31.191  26.947  1.00  0.00     0.173 A 
ATOM     60  F   UNL A   1      49.771  30.071  27.634  1.00  0.00    -0.203 F 
ATOM     61  C   UNL A   1      48.955  32.172  26.991  1.00  0.00     0.198 A 
ATOM     62  C   UNL A   1      46.630  32.512  26.589  1.00  0.00     0.198 A 
ATOM     63  F   UNL A   1      45.091  30.863  27.053  1.00  0.00    -0.203 F 
ATOM     64  F   UNL A   1      50.194  32.668  27.103  1.00  0.00    -0.200 F 
ATOM     65  C   UNL A   1      47.914  33.012  26.637  1.00  0.00     0.200 A 
ATOM     66  F   UNL A   1      45.601  33.310  26.269  1.00  0.00    -0.200 F 
ATOM     67  F   UNL A   1      48.135  34.308  26.391  1.00  0.00    -0.200 F 
ENDBRANCH  43  57
BRANCH  44  68
ATOM     68  C   UNL A   1      39.095  28.277  29.484  1.00  0.00     0.064 A 
ATOM     69  C   UNL A   1      38.200  28.499  30.542  1.00  0.00     0.173 A 
ATOM     70  C   UNL A   1      38.732  28.819  28.235  1.00  0.00     0.173 A 
ATOM     71  F   UNL A   1      38.494  28.066  31.777  1.00  0.00    -0.203 F 
ATOM     72  C   UNL A   1      37.017  29.228  30.361  1.00  0.00     0.198 A 
ATOM     73  C   UNL A   1      37.552  29.540  28.054  1.00  0.00     0.198 A 
ATOM     74  F   UNL A   1      39.561  28.741  27.185  1.00  0.00    -0.203 F 
ATOM     75  F   UNL A   1      36.210  29.465  31.406  1.00  0.00    -0.200 F 
ATOM     76  C   UNL A   1      36.698  29.753  29.120  1.00  0.00     0.200 A 
ATOM     77  F   UNL A   1      37.277  30.077  26.857  1.00  0.00    -0.200 F 
ATOM     78  F   UNL A   1      35.594  30.496  28.958  1.00  0.00    -0.200 F 
ENDBRANCH  44  68
BRANCH  56  79
ATOM     79  C   UNL A   1      44.462  26.806  32.481  1.00  0.00     0.064 A 
ATOM     80  C   UNL A   1      44.329  25.457  32.105  1.00  0.00     0.173 A 
ATOM     81  C   UNL A   1      44.572  27.079  33.850  1.00  0.00     0.173 A 
ATOM     82  F   UNL A   1      44.325  25.100  30.816  1.00  0.00    -0.203 F 
ATOM     83  C   UNL A   1      44.271  24.437  33.054  1.00  0.00     0.198 A 
ATOM     84  C   UNL A   1      44.552  26.056  34.796  1.00  0.00     0.198 A 
ATOM     85  F   UNL A   1      44.763  28.339  34.269  1.00  0.00    -0.203 F 
ATOM     86  F   UNL A   1      44.142  23.160  32.665  1.00  0.00    -0.200 F 
ATOM     87  C   UNL A   1      44.392  24.737  34.400  1.00  0.00     0.200 A 
ATOM     88  F   UNL A   1      44.724  26.346  36.093  1.00  0.00    -0.200 F 
ATOM     89  F   UNL A   1      44.388  23.756  35.312  1.00  0.00    -0.200 F 
ENDBRANCH  56  79
ENDBRANCH  30  31
ENDBRANCH  23  25
ENDBRANCH  22  23
ENDBRANCH  21  22
ENDBRANCH   1  21
TORSDOF 15
ENDMDL
