MODEL 1
REMARK VINA RESULT:     -13.4      0.000      0.000
REMARK SMILES O=C(OCCOCCOC(=O)c1ccc(-c2c3nc(c(-c4c(F)c(F)c(F)c(F)c4F)c4ccc([nH]4)c(-c4c(F)c(F)c(F)c(F)c4F)c4nc(c(-c5c(F)c(F)c(F)c(F)c5F)c5ccc2[nH]5)C=C4)C=C3)cc1)C1=Cc2cc(Cl)c(Cl)c(Cl)c2O[C@@H]1C(F)(F)F
REMARK SMILES IDX 7 1 6 2 5 3 4 4 3 5 2 6 1 7 75 8 76 9 87 10 77 11 86 12
REMARK SMILES IDX 78 13 85 14 79 15 83 16 80 17 81 18 84 19 82 20 88 21 89 22
REMARK SMILES IDX 90 23 91 24 8 25 9 26 10 27 11 28 12 29 13 30 74 31 14 32
REMARK SMILES IDX 73 33 15 34 16 35 17 36 67 37 18 38 72 39 66 40 68 41 19 42
REMARK SMILES IDX 71 43 65 44 64 45 20 47 52 48 32 49 51 50 33 51 36 52 50 53
REMARK SMILES IDX 69 54 34 55 35 56 49 58 70 59 37 60 21 61 22 62 30 63 23 64
REMARK SMILES IDX 24 65 28 66 31 67 25 68 26 69 29 70 27 71 53 72 54 73 62 74
REMARK SMILES IDX 55 75 56 76 60 77 63 78 57 79 58 80 61 81 59 82 38 83 39 84
REMARK SMILES IDX 47 85 40 86 41 87 45 88 48 89 42 90 43 91 46 92 44 93
REMARK H PARENT 68 46 36 57
REMARK Flexibility Score: inf
ROOT
ATOM      1  C   UNL A   1      42.357  20.645  26.320  1.00  0.00     0.202 C 
ENDROOT
BRANCH   1   2
ATOM      2  O   UNL A   1      40.993  20.967  26.617  1.00  0.00    -0.374 OA
BRANCH   2   3
ATOM      3  C   UNL A   1      39.595  20.657  25.949  1.00  0.00     0.202 C 
BRANCH   3   4
ATOM      4  C   UNL A   1      37.801  21.849  25.603  1.00  0.00     0.261 C 
BRANCH   4   5
ATOM      5  O   UNL A   1      36.429  21.339  25.151  1.00  0.00    -0.460 OA
BRANCH   5   6
ATOM      6  C   UNL A   1      35.854  22.130  24.242  1.00  0.00     0.338 C 
ATOM      7  O   UNL A   1      36.335  22.675  23.283  1.00  0.00    -0.246 OA
BRANCH   6   8
ATOM      8  C   UNL A   1      34.646  22.371  25.003  1.00  0.00     0.087 C 
ATOM      9  C   UNL A   1      34.665  23.719  25.635  1.00  0.00     0.027 C 
ATOM     10  C   UNL A   1      33.414  21.825  23.614  1.00  0.00     0.316 C 
ATOM     11  C   UNL A   1      33.666  25.117  25.044  1.00  0.00     0.020 A 
ATOM     12  O   UNL A   1      32.390  23.315  22.936  1.00  0.00    -0.474 OA
ATOM     13  C   UNL A   1      33.924  26.359  25.553  1.00  0.00     0.034 A 
ATOM     14  C   UNL A   1      32.638  24.980  23.651  1.00  0.00     0.148 A 
ATOM     15  C   UNL A   1      33.402  27.435  24.812  1.00  0.00     0.062 A 
ATOM     16  C   UNL A   1      32.328  26.087  22.900  1.00  0.00     0.103 A 
ATOM     17  Cl  UNL A   1      33.729  29.002  25.515  1.00  0.00    -0.083 Cl
ATOM     18  C   UNL A   1      32.711  27.319  23.519  1.00  0.00     0.082 A 
ATOM     19  Cl  UNL A   1      31.890  25.935  21.253  1.00  0.00    -0.079 Cl
ATOM     20  Cl  UNL A   1      32.469  28.817  22.653  1.00  0.00    -0.081 Cl
BRANCH  10  21
ATOM     21  C   UNL A   1      32.967  20.438  24.238  1.00  0.00     0.430 C 
ATOM     22  F   UNL A   1      32.080  20.509  25.244  1.00  0.00    -0.167 F 
ATOM     23  F   UNL A   1      32.320  19.749  23.249  1.00  0.00    -0.167 F 
ATOM     24  F   UNL A   1      33.988  19.629  24.601  1.00  0.00    -0.167 F 
ENDBRANCH  10  21
ENDBRANCH   6   8
ENDBRANCH   5   6
ENDBRANCH   4   5
ENDBRANCH   3   4
ENDBRANCH   2   3
ENDBRANCH   1   2
BRANCH   1  25
ATOM     25  C   UNL A   1      43.231  21.689  25.655  1.00  0.00     0.261 C 
BRANCH  25  26
ATOM     26  O   UNL A   1      42.541  22.902  25.435  1.00  0.00    -0.460 OA
BRANCH  26  27
ATOM     27  C   UNL A   1      43.334  23.983  25.291  1.00  0.00     0.338 C 
ATOM     28  O   UNL A   1      44.238  24.159  24.497  1.00  0.00    -0.246 OA
BRANCH  27  29
ATOM     29  C   UNL A   1      42.881  24.966  26.284  1.00  0.00     0.060 A 
ATOM     30  C   UNL A   1      43.408  26.257  26.235  1.00  0.00     0.016 A 
ATOM     31  C   UNL A   1      41.890  24.618  27.214  1.00  0.00     0.016 A 
ATOM     32  C   UNL A   1      42.897  27.229  27.089  1.00  0.00     0.010 A 
ATOM     33  C   UNL A   1      41.374  25.588  28.057  1.00  0.00     0.010 A 
ATOM     34  C   UNL A   1      41.876  26.894  27.992  1.00  0.00    -0.014 A 
BRANCH  34  35
ATOM     35  C   UNL A   1      41.492  27.826  29.062  1.00  0.00     0.031 A 
ATOM     36  C   UNL A   1      42.256  27.719  30.340  1.00  0.00     0.074 A 
ATOM     37  C   UNL A   1      40.451  28.663  28.933  1.00  0.00     0.049 A 
ATOM     38  N   UNL A   1      42.051  28.313  31.481  1.00  0.00    -0.248 NA
ATOM     39  C   UNL A   1      43.390  26.779  30.333  1.00  0.00     0.031 C 
ATOM     40  C   UNL A   1      39.643  28.819  27.732  1.00  0.00     0.029 A 
ATOM     41  N   UNL A   1      39.881  29.520  29.836  1.00  0.00    -0.354 N 
ATOM     42  C   UNL A   1      43.024  27.814  32.329  1.00  0.00     0.074 A 
ATOM     43  C   UNL A   1      43.790  26.838  31.588  1.00  0.00     0.031 C 
ATOM     44  C   UNL A   1      38.685  29.733  27.960  1.00  0.00     0.029 A 
ATOM     45  C   UNL A   1      38.767  30.160  29.354  1.00  0.00     0.049 A 
ATOM     46  H   UNL A   1      40.236  29.663  30.744  1.00  0.00     0.167 HD
ATOM     47  C   UNL A   1      43.249  28.143  33.620  1.00  0.00     0.037 A 
ATOM     48  C   UNL A   1      37.889  30.961  29.987  1.00  0.00     0.037 A 
ATOM     49  C   UNL A   1      42.434  29.074  34.348  1.00  0.00     0.049 A 
ATOM     50  C   UNL A   1      38.113  31.259  31.446  1.00  0.00     0.074 A 
ATOM     51  C   UNL A   1      42.567  29.494  35.656  1.00  0.00     0.029 A 
ATOM     52  N   UNL A   1      41.309  29.705  33.831  1.00  0.00    -0.354 N 
ATOM     53  N   UNL A   1      39.061  30.826  32.242  1.00  0.00    -0.248 NA
ATOM     54  C   UNL A   1      37.147  32.153  32.097  1.00  0.00     0.031 C 
ATOM     55  C   UNL A   1      41.474  30.310  35.957  1.00  0.00     0.029 A 
ATOM     56  C   UNL A   1      40.714  30.482  34.810  1.00  0.00     0.049 A 
ATOM     57  H   UNL A   1      40.983  29.612  32.907  1.00  0.00     0.167 HD
ATOM     58  C   UNL A   1      38.830  31.418  33.476  1.00  0.00     0.074 A 
ATOM     59  C   UNL A   1      37.647  32.242  33.322  1.00  0.00     0.031 C 
ATOM     60  C   UNL A   1      39.538  31.300  34.626  1.00  0.00     0.037 A 
BRANCH  47  61
ATOM     61  C   UNL A   1      44.366  27.420  34.313  1.00  0.00     0.064 A 
ATOM     62  C   UNL A   1      45.679  27.921  34.331  1.00  0.00     0.173 A 
ATOM     63  C   UNL A   1      44.133  26.172  34.907  1.00  0.00     0.173 A 
ATOM     64  F   UNL A   1      45.962  29.099  33.753  1.00  0.00    -0.203 F 
ATOM     65  C   UNL A   1      46.724  27.170  34.862  1.00  0.00     0.198 A 
ATOM     66  C   UNL A   1      45.172  25.445  35.478  1.00  0.00     0.198 A 
ATOM     67  F   UNL A   1      42.900  25.643  34.912  1.00  0.00    -0.203 F 
ATOM     68  F   UNL A   1      47.982  27.623  34.776  1.00  0.00    -0.200 F 
ATOM     69  C   UNL A   1      46.469  25.935  35.438  1.00  0.00     0.200 A 
ATOM     70  F   UNL A   1      44.923  24.257  36.044  1.00  0.00    -0.200 F 
ATOM     71  F   UNL A   1      47.477  25.207  35.937  1.00  0.00    -0.200 F 
ENDBRANCH  47  61
BRANCH  48  72
ATOM     72  C   UNL A   1      36.719  31.504  29.246  1.00  0.00     0.064 A 
ATOM     73  C   UNL A   1      35.609  30.701  28.956  1.00  0.00     0.173 A 
ATOM     74  C   UNL A   1      36.677  32.846  28.839  1.00  0.00     0.173 A 
ATOM     75  F   UNL A   1      35.608  29.407  29.304  1.00  0.00    -0.203 F 
ATOM     76  C   UNL A   1      34.504  31.217  28.279  1.00  0.00     0.198 A 
ATOM     77  C   UNL A   1      35.561  33.369  28.190  1.00  0.00     0.198 A 
ATOM     78  F   UNL A   1      37.713  33.659  29.092  1.00  0.00    -0.203 F 
ATOM     79  F   UNL A   1      33.470  30.419  27.981  1.00  0.00    -0.200 F 
ATOM     80  C   UNL A   1      34.477  32.553  27.906  1.00  0.00     0.200 A 
ATOM     81  F   UNL A   1      35.532  34.664  27.845  1.00  0.00    -0.200 F 
ATOM     82  F   UNL A   1      33.409  33.052  27.268  1.00  0.00    -0.200 F 
ENDBRANCH  48  72
BRANCH  60  83
ATOM     83  C   UNL A   1      39.101  32.126  35.803  1.00  0.00     0.064 A 
ATOM     84  C   UNL A   1      38.275  31.612  36.811  1.00  0.00     0.173 A 
ATOM     85  C   UNL A   1      39.602  33.429  35.963  1.00  0.00     0.173 A 
ATOM     86  F   UNL A   1      37.761  30.377  36.702  1.00  0.00    -0.203 F 
ATOM     87  C   UNL A   1      37.957  32.376  37.931  1.00  0.00     0.198 A 
ATOM     88  C   UNL A   1      39.313  34.174  37.100  1.00  0.00     0.198 A 
ATOM     89  F   UNL A   1      40.405  33.964  35.030  1.00  0.00    -0.203 F 
ATOM     90  F   UNL A   1      37.135  31.880  38.866  1.00  0.00    -0.200 F 
ATOM     91  C   UNL A   1      38.487  33.650  38.081  1.00  0.00     0.200 A 
ATOM     92  F   UNL A   1      39.847  35.393  37.254  1.00  0.00    -0.200 F 
ATOM     93  F   UNL A   1      38.200  34.372  39.173  1.00  0.00    -0.200 F 
ENDBRANCH  60  83
ENDBRANCH  34  35
ENDBRANCH  27  29
ENDBRANCH  26  27
ENDBRANCH  25  26
ENDBRANCH   1  25
TORSDOF 15
ENDMDL
MODEL 2
REMARK VINA RESULT:     -13.2      5.336     10.445
REMARK SMILES O=C(OCCOCCOC(=O)c1ccc(-c2c3nc(c(-c4c(F)c(F)c(F)c(F)c4F)c4ccc([nH]4)c(-c4c(F)c(F)c(F)c(F)c4F)c4nc(c(-c5c(F)c(F)c(F)c(F)c5F)c5ccc2[nH]5)C=C4)C=C3)cc1)C1=Cc2cc(Cl)c(Cl)c(Cl)c2O[C@@H]1C(F)(F)F
REMARK SMILES IDX 7 1 6 2 5 3 4 4 3 5 2 6 1 7 75 8 76 9 87 10 77 11 86 12
REMARK SMILES IDX 78 13 85 14 79 15 83 16 80 17 81 18 84 19 82 20 88 21 89 22
REMARK SMILES IDX 90 23 91 24 8 25 9 26 10 27 11 28 12 29 13 30 74 31 14 32
REMARK SMILES IDX 73 33 15 34 16 35 17 36 67 37 18 38 72 39 66 40 68 41 19 42
REMARK SMILES IDX 71 43 65 44 64 45 20 47 52 48 32 49 51 50 33 51 36 52 50 53
REMARK SMILES IDX 69 54 34 55 35 56 49 58 70 59 37 60 21 61 22 62 30 63 23 64
REMARK SMILES IDX 24 65 28 66 31 67 25 68 26 69 29 70 27 71 53 72 54 73 62 74
REMARK SMILES IDX 55 75 56 76 60 77 63 78 57 79 58 80 61 81 59 82 38 83 39 84
REMARK SMILES IDX 47 85 40 86 41 87 45 88 48 89 42 90 43 91 46 92 44 93
REMARK H PARENT 68 46 36 57
REMARK Flexibility Score: inf
ROOT
ATOM      1  C   UNL A   1      34.022  33.789  28.964  1.00  0.00     0.202 C 
ENDROOT
BRANCH   1   2
ATOM      2  O   UNL A   1      34.398  32.798  28.000  1.00  0.00    -0.374 OA
BRANCH   2   3
ATOM      3  C   UNL A   1      33.907  31.342  27.637  1.00  0.00     0.202 C 
BRANCH   3   4
ATOM      4  C   UNL A   1      32.545  30.551  26.128  1.00  0.00     0.261 C 
BRANCH   4   5
ATOM      5  O   UNL A   1      32.849  29.467  25.089  1.00  0.00    -0.460 OA
BRANCH   5   6
ATOM      6  C   UNL A   1      32.633  28.232  25.548  1.00  0.00     0.338 C 
ATOM      7  O   UNL A   1      32.808  27.780  26.649  1.00  0.00    -0.246 OA
BRANCH   6   8
ATOM      8  C   UNL A   1      32.495  27.615  24.245  1.00  0.00     0.087 C 
ATOM      9  C   UNL A   1      33.618  26.678  23.969  1.00  0.00     0.027 C 
ATOM     10  C   UNL A   1      30.647  27.083  24.463  1.00  0.00     0.316 C 
ATOM     11  C   UNL A   1      33.446  24.869  24.004  1.00  0.00     0.020 A 
ATOM     12  O   UNL A   1      30.459  25.164  24.563  1.00  0.00    -0.474 OA
ATOM     13  C   UNL A   1      34.581  24.109  23.956  1.00  0.00     0.034 A 
ATOM     14  C   UNL A   1      31.942  24.103  24.412  1.00  0.00     0.148 A 
ATOM     15  C   UNL A   1      34.427  22.769  24.357  1.00  0.00     0.062 A 
ATOM     16  C   UNL A   1      31.924  22.843  24.958  1.00  0.00     0.103 A 
ATOM     17  Cl  UNL A   1      35.895  21.826  24.251  1.00  0.00    -0.083 Cl
ATOM     18  C   UNL A   1      33.194  22.183  24.901  1.00  0.00     0.082 A 
ATOM     19  Cl  UNL A   1      30.613  22.324  25.926  1.00  0.00    -0.079 Cl
ATOM     20  Cl  UNL A   1      33.364  20.606  25.634  1.00  0.00    -0.081 Cl
BRANCH  10  21
ATOM     21  C   UNL A   1      29.985  28.156  23.502  1.00  0.00     0.430 C 
ATOM     22  F   UNL A   1      30.435  28.162  22.236  1.00  0.00    -0.167 F 
ATOM     23  F   UNL A   1      28.660  27.835  23.401  1.00  0.00    -0.167 F 
ATOM     24  F   UNL A   1      29.991  29.421  23.982  1.00  0.00    -0.167 F 
ENDBRANCH  10  21
ENDBRANCH   6   8
ENDBRANCH   5   6
ENDBRANCH   4   5
ENDBRANCH   3   4
ENDBRANCH   2   3
ENDBRANCH   1   2
BRANCH   1  25
ATOM     25  C   UNL A   1      34.416  33.591  30.415  1.00  0.00     0.261 C 
BRANCH  25  26
ATOM     26  O   UNL A   1      34.705  32.240  30.709  1.00  0.00    -0.460 OA
BRANCH  26  27
ATOM     27  C   UNL A   1      35.519  32.056  31.768  1.00  0.00     0.338 C 
ATOM     28  O   UNL A   1      35.315  32.327  32.936  1.00  0.00    -0.246 OA
BRANCH  27  29
ATOM     29  C   UNL A   1      36.738  31.422  31.251  1.00  0.00     0.060 A 
ATOM     30  C   UNL A   1      37.700  30.980  32.160  1.00  0.00     0.016 A 
ATOM     31  C   UNL A   1      36.887  31.211  29.872  1.00  0.00     0.016 A 
ATOM     32  C   UNL A   1      38.798  30.268  31.689  1.00  0.00     0.010 A 
ATOM     33  C   UNL A   1      37.975  30.493  29.405  1.00  0.00     0.010 A 
ATOM     34  C   UNL A   1      38.929  30.019  30.315  1.00  0.00    -0.014 A 
BRANCH  34  35
ATOM     35  C   UNL A   1      40.187  29.489  29.769  1.00  0.00     0.031 A 
ATOM     36  C   UNL A   1      41.301  30.468  29.600  1.00  0.00     0.074 A 
ATOM     37  C   UNL A   1      40.300  28.217  29.358  1.00  0.00     0.049 A 
ATOM     38  N   UNL A   1      42.461  30.313  29.030  1.00  0.00    -0.248 NA
ATOM     39  C   UNL A   1      41.048  31.823  30.121  1.00  0.00     0.031 C 
ATOM     40  C   UNL A   1      39.262  27.202  29.469  1.00  0.00     0.029 A 
ATOM     41  N   UNL A   1      41.338  27.571  28.738  1.00  0.00    -0.354 N 
ATOM     42  C   UNL A   1      43.075  31.552  29.115  1.00  0.00     0.074 A 
ATOM     43  C   UNL A   1      42.144  32.457  29.750  1.00  0.00     0.031 C 
ATOM     44  C   UNL A   1      39.714  26.049  28.950  1.00  0.00     0.029 A 
ATOM     45  C   UNL A   1      41.046  26.275  28.396  1.00  0.00     0.049 A 
ATOM     46  H   UNL A   1      42.207  27.996  28.556  1.00  0.00     0.167 HD
ATOM     47  C   UNL A   1      44.309  31.898  28.689  1.00  0.00     0.037 A 
ATOM     48  C   UNL A   1      41.760  25.391  27.673  1.00  0.00     0.037 A 
ATOM     49  C   UNL A   1      45.190  30.992  28.009  1.00  0.00     0.049 A 
ATOM     50  C   UNL A   1      43.104  25.817  27.143  1.00  0.00     0.074 A 
ATOM     51  C   UNL A   1      46.466  31.224  27.537  1.00  0.00     0.029 A 
ATOM     52  N   UNL A   1      44.864  29.682  27.674  1.00  0.00    -0.354 N 
ATOM     53  N   UNL A   1      43.710  26.975  27.261  1.00  0.00    -0.248 NA
ATOM     54  C   UNL A   1      43.863  24.821  26.378  1.00  0.00     0.031 C 
ATOM     55  C   UNL A   1      46.879  30.084  26.841  1.00  0.00     0.029 A 
ATOM     56  C   UNL A   1      45.903  29.106  26.964  1.00  0.00     0.049 A 
ATOM     57  H   UNL A   1      44.020  29.233  27.905  1.00  0.00     0.167 HD
ATOM     58  C   UNL A   1      44.932  26.839  26.618  1.00  0.00     0.074 A 
ATOM     59  C   UNL A   1      44.981  25.482  26.109  1.00  0.00     0.031 C 
ATOM     60  C   UNL A   1      45.928  27.748  26.475  1.00  0.00     0.037 A 
BRANCH  47  61
ATOM     61  C   UNL A   1      44.711  33.330  28.888  1.00  0.00     0.064 A 
ATOM     62  C   UNL A   1      44.443  34.318  27.926  1.00  0.00     0.173 A 
ATOM     63  C   UNL A   1      45.437  33.704  30.027  1.00  0.00     0.173 A 
ATOM     64  F   UNL A   1      43.774  34.008  26.804  1.00  0.00    -0.203 F 
ATOM     65  C   UNL A   1      44.942  35.610  28.069  1.00  0.00     0.198 A 
ATOM     66  C   UNL A   1      45.894  35.007  30.189  1.00  0.00     0.198 A 
ATOM     67  F   UNL A   1      45.726  32.799  30.975  1.00  0.00    -0.203 F 
ATOM     68  F   UNL A   1      44.762  36.508  27.091  1.00  0.00    -0.200 F 
ATOM     69  C   UNL A   1      45.664  35.954  29.203  1.00  0.00     0.200 A 
ATOM     70  F   UNL A   1      46.581  35.341  31.289  1.00  0.00    -0.200 F 
ATOM     71  F   UNL A   1      46.155  37.193  29.333  1.00  0.00    -0.200 F 
ENDBRANCH  47  61
BRANCH  48  72
ATOM     72  C   UNL A   1      41.201  24.041  27.396  1.00  0.00     0.064 A 
ATOM     73  C   UNL A   1      40.138  23.866  26.501  1.00  0.00     0.173 A 
ATOM     74  C   UNL A   1      41.739  22.894  28.000  1.00  0.00     0.173 A 
ATOM     75  F   UNL A   1      39.574  24.931  25.914  1.00  0.00    -0.203 F 
ATOM     76  C   UNL A   1      39.628  22.598  26.227  1.00  0.00     0.198 A 
ATOM     77  C   UNL A   1      41.249  21.625  27.704  1.00  0.00     0.198 A 
ATOM     78  F   UNL A   1      42.758  23.005  28.865  1.00  0.00    -0.203 F 
ATOM     79  F   UNL A   1      38.586  22.461  25.396  1.00  0.00    -0.200 F 
ATOM     80  C   UNL A   1      40.191  21.477  26.821  1.00  0.00     0.200 A 
ATOM     81  F   UNL A   1      41.806  20.544  28.268  1.00  0.00    -0.200 F 
ATOM     82  F   UNL A   1      39.710  20.257  26.547  1.00  0.00    -0.200 F 
ENDBRANCH  48  72
BRANCH  60  83
ATOM     83  C   UNL A   1      47.189  27.300  25.792  1.00  0.00     0.064 A 
ATOM     84  C   UNL A   1      47.389  27.455  24.414  1.00  0.00     0.173 A 
ATOM     85  C   UNL A   1      48.252  26.791  26.559  1.00  0.00     0.173 A 
ATOM     86  F   UNL A   1      46.403  27.925  23.635  1.00  0.00    -0.203 F 
ATOM     87  C   UNL A   1      48.603  27.106  23.826  1.00  0.00     0.198 A 
ATOM     88  C   UNL A   1      49.474  26.482  25.974  1.00  0.00     0.198 A 
ATOM     89  F   UNL A   1      48.114  26.632  27.884  1.00  0.00    -0.203 F 
ATOM     90  F   UNL A   1      48.761  27.227  22.501  1.00  0.00    -0.200 F 
ATOM     91  C   UNL A   1      49.648  26.634  24.608  1.00  0.00     0.200 A 
ATOM     92  F   UNL A   1      50.489  26.049  26.735  1.00  0.00    -0.200 F 
ATOM     93  F   UNL A   1      50.823  26.325  24.043  1.00  0.00    -0.200 F 
ENDBRANCH  60  83
ENDBRANCH  34  35
ENDBRANCH  27  29
ENDBRANCH  26  27
ENDBRANCH  25  26
ENDBRANCH   1  25
TORSDOF 15
ENDMDL
MODEL 3
REMARK VINA RESULT:     -13.0      4.199      9.443
REMARK SMILES O=C(OCCOCCOC(=O)c1ccc(-c2c3nc(c(-c4c(F)c(F)c(F)c(F)c4F)c4ccc([nH]4)c(-c4c(F)c(F)c(F)c(F)c4F)c4nc(c(-c5c(F)c(F)c(F)c(F)c5F)c5ccc2[nH]5)C=C4)C=C3)cc1)C1=Cc2cc(Cl)c(Cl)c(Cl)c2O[C@@H]1C(F)(F)F
REMARK SMILES IDX 7 1 6 2 5 3 4 4 3 5 2 6 1 7 75 8 76 9 87 10 77 11 86 12
REMARK SMILES IDX 78 13 85 14 79 15 83 16 80 17 81 18 84 19 82 20 88 21 89 22
REMARK SMILES IDX 90 23 91 24 8 25 9 26 10 27 11 28 12 29 13 30 74 31 14 32
REMARK SMILES IDX 73 33 15 34 16 35 17 36 67 37 18 38 72 39 66 40 68 41 19 42
REMARK SMILES IDX 71 43 65 44 64 45 20 47 52 48 32 49 51 50 33 51 36 52 50 53
REMARK SMILES IDX 69 54 34 55 35 56 49 58 70 59 37 60 21 61 22 62 30 63 23 64
REMARK SMILES IDX 24 65 28 66 31 67 25 68 26 69 29 70 27 71 53 72 54 73 62 74
REMARK SMILES IDX 55 75 56 76 60 77 63 78 57 79 58 80 61 81 59 82 38 83 39 84
REMARK SMILES IDX 47 85 40 86 41 87 45 88 48 89 42 90 43 91 46 92 44 93
REMARK H PARENT 68 46 36 57
REMARK Flexibility Score: inf
ROOT
ATOM      1  C   UNL A   1      31.820  29.580  25.999  1.00  0.00     0.202 C 
ENDROOT
BRANCH   1   2
ATOM      2  O   UNL A   1      31.174  29.532  24.721  1.00  0.00    -0.374 OA
BRANCH   2   3
ATOM      3  C   UNL A   1      30.635  28.387  23.777  1.00  0.00     0.202 C 
BRANCH   3   4
ATOM      4  C   UNL A   1      31.594  27.038  22.356  1.00  0.00     0.261 C 
BRANCH   4   5
ATOM      5  O   UNL A   1      31.438  25.516  22.281  1.00  0.00    -0.460 OA
BRANCH   5   6
ATOM      6  C   UNL A   1      32.592  24.866  22.448  1.00  0.00     0.338 C 
ATOM      7  O   UNL A   1      33.363  24.446  21.625  1.00  0.00    -0.246 OA
BRANCH   6   8
ATOM      8  C   UNL A   1      32.380  24.549  23.844  1.00  0.00     0.087 C 
ATOM      9  C   UNL A   1      31.799  23.188  24.008  1.00  0.00     0.027 C 
ATOM     10  C   UNL A   1      34.145  25.071  24.445  1.00  0.00     0.316 C 
ATOM     11  C   UNL A   1      32.747  21.760  24.611  1.00  0.00     0.020 A 
ATOM     12  O   UNL A   1      35.183  23.552  25.031  1.00  0.00    -0.474 OA
ATOM     13  C   UNL A   1      32.183  20.519  24.513  1.00  0.00     0.034 A 
ATOM     14  C   UNL A   1      34.435  21.883  25.001  1.00  0.00     0.148 A 
ATOM     15  C   UNL A   1      33.076  19.439  24.636  1.00  0.00     0.062 A 
ATOM     16  C   UNL A   1      35.252  20.783  24.925  1.00  0.00     0.103 A 
ATOM     17  Cl  UNL A   1      32.307  17.871  24.535  1.00  0.00    -0.083 Cl
ATOM     18  C   UNL A   1      34.536  19.554  24.757  1.00  0.00     0.082 A 
ATOM     19  Cl  UNL A   1      36.936  20.955  24.676  1.00  0.00    -0.079 Cl
ATOM     20  Cl  UNL A   1      35.433  18.069  24.552  1.00  0.00    -0.081 Cl
BRANCH  10  21
ATOM     21  C   UNL A   1      33.747  26.420  25.178  1.00  0.00     0.430 C 
ATOM     22  F   UNL A   1      32.523  26.444  25.730  1.00  0.00    -0.167 F 
ATOM     23  F   UNL A   1      34.609  26.569  26.229  1.00  0.00    -0.167 F 
ATOM     24  F   UNL A   1      33.923  27.537  24.435  1.00  0.00    -0.167 F 
ENDBRANCH  10  21
ENDBRANCH   6   8
ENDBRANCH   5   6
ENDBRANCH   4   5
ENDBRANCH   3   4
ENDBRANCH   2   3
ENDBRANCH   1   2
BRANCH   1  25
ATOM     25  C   UNL A   1      33.245  30.088  26.084  1.00  0.00     0.261 C 
BRANCH  25  26
ATOM     26  O   UNL A   1      33.891  29.670  27.269  1.00  0.00    -0.460 OA
BRANCH  26  27
ATOM     27  C   UNL A   1      34.470  30.662  27.975  1.00  0.00     0.338 C 
ATOM     28  O   UNL A   1      33.997  31.734  28.303  1.00  0.00    -0.246 OA
BRANCH  27  29
ATOM     29  C   UNL A   1      35.819  30.196  28.318  1.00  0.00     0.060 A 
ATOM     30  C   UNL A   1      36.050  29.703  29.603  1.00  0.00     0.016 A 
ATOM     31  C   UNL A   1      36.828  30.190  27.344  1.00  0.00     0.016 A 
ATOM     32  C   UNL A   1      37.289  29.145  29.901  1.00  0.00     0.010 A 
ATOM     33  C   UNL A   1      38.058  29.625  27.637  1.00  0.00     0.010 A 
ATOM     34  C   UNL A   1      38.287  29.099  28.915  1.00  0.00    -0.014 A 
BRANCH  34  35
ATOM     35  C   UNL A   1      39.669  28.744  29.268  1.00  0.00     0.031 A 
ATOM     36  C   UNL A   1      40.452  29.779  30.004  1.00  0.00     0.074 A 
ATOM     37  C   UNL A   1      40.226  27.590  28.871  1.00  0.00     0.049 A 
ATOM     38  N   UNL A   1      41.715  29.791  30.324  1.00  0.00    -0.248 NA
ATOM     39  C   UNL A   1      39.707  30.986  30.402  1.00  0.00     0.031 C 
ATOM     40  C   UNL A   1      39.542  26.535  28.137  1.00  0.00     0.029 A 
ATOM     41  N   UNL A   1      41.508  27.128  29.008  1.00  0.00    -0.354 N 
ATOM     42  C   UNL A   1      41.918  31.008  30.953  1.00  0.00     0.074 A 
ATOM     43  C   UNL A   1      40.663  31.725  30.931  1.00  0.00     0.031 C 
ATOM     44  C   UNL A   1      40.404  25.533  27.898  1.00  0.00     0.029 A 
ATOM     45  C   UNL A   1      41.722  25.920  28.392  1.00  0.00     0.049 A 
ATOM     46  H   UNL A   1      42.208  27.615  29.500  1.00  0.00     0.167 HD
ATOM     47  C   UNL A   1      43.060  31.482  31.494  1.00  0.00     0.037 A 
ATOM     48  C   UNL A   1      42.866  25.234  28.210  1.00  0.00     0.037 A 
ATOM     49  C   UNL A   1      44.307  30.771  31.449  1.00  0.00     0.049 A 
ATOM     50  C   UNL A   1      44.144  25.812  28.756  1.00  0.00     0.074 A 
ATOM     51  C   UNL A   1      45.530  31.145  31.969  1.00  0.00     0.029 A 
ATOM     52  N   UNL A   1      44.492  29.548  30.815  1.00  0.00    -0.354 N 
ATOM     53  N   UNL A   1      44.334  26.943  29.394  1.00  0.00    -0.248 NA
ATOM     54  C   UNL A   1      45.368  25.026  28.557  1.00  0.00     0.031 C 
ATOM     55  C   UNL A   1      46.473  30.192  31.575  1.00  0.00     0.029 A 
ATOM     56  C   UNL A   1      45.822  29.173  30.896  1.00  0.00     0.049 A 
ATOM     57  H   UNL A   1      43.783  29.028  30.373  1.00  0.00     0.167 HD
ATOM     58  C   UNL A   1      45.686  26.990  29.704  1.00  0.00     0.074 A 
ATOM     59  C   UNL A   1      46.271  25.772  29.179  1.00  0.00     0.031 C 
ATOM     60  C   UNL A   1      46.376  27.947  30.371  1.00  0.00     0.037 A 
BRANCH  47  61
ATOM     61  C   UNL A   1      43.000  32.856  32.094  1.00  0.00     0.064 A 
ATOM     62  C   UNL A   1      42.683  33.064  33.447  1.00  0.00     0.173 A 
ATOM     63  C   UNL A   1      43.192  33.984  31.285  1.00  0.00     0.173 A 
ATOM     64  F   UNL A   1      42.464  32.018  34.260  1.00  0.00    -0.203 F 
ATOM     65  C   UNL A   1      42.501  34.349  33.950  1.00  0.00     0.198 A 
ATOM     66  C   UNL A   1      43.055  35.268  31.803  1.00  0.00     0.198 A 
ATOM     67  F   UNL A   1      43.490  33.844  29.984  1.00  0.00    -0.203 F 
ATOM     68  F   UNL A   1      42.100  34.520  35.217  1.00  0.00    -0.200 F 
ATOM     69  C   UNL A   1      42.691  35.450  33.128  1.00  0.00     0.200 A 
ATOM     70  F   UNL A   1      43.249  36.331  31.010  1.00  0.00    -0.200 F 
ATOM     71  F   UNL A   1      42.501  36.686  33.609  1.00  0.00    -0.200 F 
ENDBRANCH  47  61
BRANCH  48  72
ATOM     72  C   UNL A   1      42.845  23.950  27.459  1.00  0.00     0.064 A 
ATOM     73  C   UNL A   1      42.424  22.761  28.068  1.00  0.00     0.173 A 
ATOM     74  C   UNL A   1      43.218  23.893  26.107  1.00  0.00     0.173 A 
ATOM     75  F   UNL A   1      42.077  22.757  29.363  1.00  0.00    -0.203 F 
ATOM     76  C   UNL A   1      42.386  21.562  27.357  1.00  0.00     0.198 A 
ATOM     77  C   UNL A   1      43.151  22.701  25.390  1.00  0.00     0.198 A 
ATOM     78  F   UNL A   1      43.628  25.002  25.476  1.00  0.00    -0.203 F 
ATOM     79  F   UNL A   1      42.015  20.431  27.973  1.00  0.00    -0.200 F 
ATOM     80  C   UNL A   1      42.740  21.535  26.016  1.00  0.00     0.200 A 
ATOM     81  F   UNL A   1      43.478  22.683  24.090  1.00  0.00    -0.200 F 
ATOM     82  F   UNL A   1      42.689  20.385  25.330  1.00  0.00    -0.200 F 
ENDBRANCH  48  72
BRANCH  60  83
ATOM     83  C   UNL A   1      47.834  27.700  30.635  1.00  0.00     0.064 A 
ATOM     84  C   UNL A   1      48.280  26.979  31.751  1.00  0.00     0.173 A 
ATOM     85  C   UNL A   1      48.793  28.117  29.695  1.00  0.00     0.173 A 
ATOM     86  F   UNL A   1      47.408  26.569  32.685  1.00  0.00    -0.203 F 
ATOM     87  C   UNL A   1      49.633  26.695  31.923  1.00  0.00     0.198 A 
ATOM     88  C   UNL A   1      50.136  27.797  29.851  1.00  0.00     0.198 A 
ATOM     89  F   UNL A   1      48.416  28.802  28.605  1.00  0.00    -0.203 F 
ATOM     90  F   UNL A   1      50.043  26.037  33.016  1.00  0.00    -0.200 F 
ATOM     91  C   UNL A   1      50.557  27.092  30.967  1.00  0.00     0.200 A 
ATOM     92  F   UNL A   1      51.022  28.160  28.913  1.00  0.00    -0.200 F 
ATOM     93  F   UNL A   1      51.854  26.793  31.122  1.00  0.00    -0.200 F 
ENDBRANCH  60  83
ENDBRANCH  34  35
ENDBRANCH  27  29
ENDBRANCH  26  27
ENDBRANCH  25  26
ENDBRANCH   1  25
TORSDOF 15
ENDMDL
