MODEL 1
REMARK VINA RESULT:     -12.9      0.000      0.000
REMARK SMILES Cc1ccccc1C(=O)Nc1ccc(N2CCCCC2)cc1C(=O)OCCOCCOC(=O)c1ccc(-c2c3nc(c(-c4c(F)c(F)c(F)c(F)c4F)c4ccc([nH]4)c(-c4c(F)c(F)c(F)c(F)c4F)c4nc(c(-c5c(F)c(F)c(F)c(F)c5F)c5ccc2[nH]5)C=C4)C=C3)cc1
REMARK SMILES IDX 28 1 27 2 26 3 25 4 23 5 24 6 22 7 11 8 12 9 13 10 21 11
REMARK SMILES IDX 14 12 10 13 8 14 9 15 7 17 1 18 2 19 3 20 4 21 6 22 5 23
REMARK SMILES IDX 15 24 16 25 20 26 17 27 19 28 18 29 29 30 30 31 31 32 32 33
REMARK SMILES IDX 33 34 34 35 35 36 96 37 36 38 95 39 37 40 38 41 39 42 89 43
REMARK SMILES IDX 40 44 94 45 88 46 90 47 41 48 93 49 87 50 86 51 42 53 74 54
REMARK SMILES IDX 54 55 73 56 55 57 58 58 72 59 91 60 56 61 57 62 71 64 92 65
REMARK SMILES IDX 59 66 43 67 44 68 52 69 45 70 46 71 50 72 53 73 47 74 48 75
REMARK SMILES IDX 51 76 49 77 75 78 76 79 84 80 77 81 78 82 82 83 85 84 79 85
REMARK SMILES IDX 80 86 83 87 81 88 60 89 61 90 69 91 62 92 63 93 67 94 70 95
REMARK SMILES IDX 64 96 65 97 68 98 66 99
REMARK H PARENT 10 16 90 52 58 63
REMARK Flexibility Score: inf
ROOT
ATOM      1  O   UNL A   1      39.897  21.063  25.680  1.00  0.00    -0.374 OA
ENDROOT
BRANCH   1   2
ATOM      2  C   UNL A   1      38.502  21.046  25.882  1.00  0.00     0.202 C 
BRANCH   2   3
ATOM      3  C   UNL A   1      37.859  22.205  25.153  1.00  0.00     0.261 C 
BRANCH   3   4
ATOM      4  O   UNL A   1      36.491  22.017  24.772  1.00  0.00    -0.460 OA
BRANCH   4   5
ATOM      5  C   UNL A   1      35.873  22.573  23.694  1.00  0.00     0.340 C 
ATOM      6  O   UNL A   1      36.312  23.273  22.826  1.00  0.00    -0.246 OA
BRANCH   5   7
ATOM      7  C   UNL A   1      34.483  22.104  23.847  1.00  0.00     0.085 A 
ATOM      8  C   UNL A   1      33.446  22.610  23.068  1.00  0.00     0.056 A 
ATOM      9  C   UNL A   1      32.254  21.888  22.975  1.00  0.00     0.029 A 
ATOM     10  C   UNL A   1      32.197  20.593  23.503  1.00  0.00     0.028 A 
ATOM     11  C   UNL A   1      34.335  20.894  24.535  1.00  0.00     0.043 A 
ATOM     12  C   UNL A   1      33.261  20.063  24.250  1.00  0.00     0.038 A 
BRANCH   8  13
ATOM     13  N   UNL A   1      33.529  23.816  22.393  1.00  0.00    -0.321 N 
ATOM     14  C   UNL A   1      33.363  25.129  22.755  1.00  0.00     0.255 C 
ATOM     15  O   UNL A   1      33.763  25.909  21.875  1.00  0.00    -0.269 OA
ATOM     16  H   UNL A   1      33.758  23.707  21.443  1.00  0.00     0.170 HD
BRANCH  14  17
ATOM     17  C   UNL A   1      32.721  25.743  23.990  1.00  0.00     0.043 A 
ATOM     18  C   UNL A   1      33.741  24.587  26.126  1.00  0.00     0.045 C 
ATOM     19  C   UNL A   1      32.805  25.479  25.376  1.00  0.00    -0.038 A 
ATOM     20  C   UNL A   1      31.930  26.159  26.272  1.00  0.00     0.004 A 
ATOM     21  C   UNL A   1      31.028  27.127  25.854  1.00  0.00     0.000 A 
ATOM     22  C   UNL A   1      31.805  26.773  23.615  1.00  0.00     0.014 A 
ATOM     23  C   UNL A   1      30.981  27.454  24.516  1.00  0.00     0.001 A 
ENDBRANCH  14  17
ENDBRANCH   8  13
BRANCH  12  24
ATOM     24  N   UNL A   1      33.315  18.702  24.535  1.00  0.00    -0.372 N 
ATOM     25  C   UNL A   1      34.619  18.080  24.252  1.00  0.00     0.116 C 
ATOM     26  C   UNL A   1      32.672  18.193  25.752  1.00  0.00     0.116 C 
ATOM     27  C   UNL A   1      34.417  16.586  24.033  1.00  0.00     0.021 C 
ATOM     28  C   UNL A   1      32.393  16.707  25.555  1.00  0.00     0.021 C 
ATOM     29  C   UNL A   1      33.665  15.938  25.195  1.00  0.00     0.004 C 
ENDBRANCH  12  24
ENDBRANCH   5   7
ENDBRANCH   4   5
ENDBRANCH   3   4
ENDBRANCH   2   3
ENDBRANCH   1   2
BRANCH   1  30
ATOM     30  C   UNL A   1      40.640  20.679  26.823  1.00  0.00     0.202 C 
BRANCH  30  31
ATOM     31  C   UNL A   1      41.037  21.845  27.728  1.00  0.00     0.261 C 
BRANCH  31  32
ATOM     32  O   UNL A   1      40.518  23.199  27.537  1.00  0.00    -0.460 OA
BRANCH  32  33
ATOM     33  C   UNL A   1      40.919  24.316  26.888  1.00  0.00     0.338 C 
ATOM     34  O   UNL A   1      41.786  24.267  26.023  1.00  0.00    -0.246 OA
BRANCH  33  35
ATOM     35  C   UNL A   1      40.356  25.619  27.264  1.00  0.00     0.060 A 
ATOM     36  C   UNL A   1      40.788  26.765  26.577  1.00  0.00     0.016 A 
ATOM     37  C   UNL A   1      39.532  25.724  28.373  1.00  0.00     0.016 A 
ATOM     38  C   UNL A   1      40.571  28.025  27.137  1.00  0.00     0.010 A 
ATOM     39  C   UNL A   1      39.423  26.966  28.981  1.00  0.00     0.010 A 
ATOM     40  C   UNL A   1      39.974  28.119  28.395  1.00  0.00    -0.014 A 
BRANCH  40  41
ATOM     41  C   UNL A   1      40.023  29.328  29.230  1.00  0.00     0.031 A 
ATOM     42  C   UNL A   1      38.991  30.379  29.129  1.00  0.00     0.074 A 
ATOM     43  C   UNL A   1      40.913  29.430  30.245  1.00  0.00     0.049 A 
ATOM     44  N   UNL A   1      39.115  31.542  29.675  1.00  0.00    -0.248 NA
ATOM     45  C   UNL A   1      37.763  30.258  28.352  1.00  0.00     0.031 C 
ATOM     46  C   UNL A   1      40.836  30.277  31.437  1.00  0.00     0.029 A 
ATOM     47  N   UNL A   1      42.098  28.708  30.431  1.00  0.00    -0.354 N 
ATOM     48  C   UNL A   1      37.891  32.156  29.641  1.00  0.00     0.074 A 
ATOM     49  C   UNL A   1      37.144  31.401  28.668  1.00  0.00     0.031 C 
ATOM     50  C   UNL A   1      41.998  30.220  32.103  1.00  0.00     0.029 A 
ATOM     51  C   UNL A   1      42.928  29.457  31.298  1.00  0.00     0.049 A 
ATOM     52  H   UNL A   1      42.314  27.835  30.031  1.00  0.00     0.167 HD
ATOM     53  C   UNL A   1      37.642  33.155  30.537  1.00  0.00     0.037 A 
ATOM     54  C   UNL A   1      44.132  29.928  30.855  1.00  0.00     0.037 A 
ATOM     55  C   UNL A   1      38.880  33.590  31.215  1.00  0.00     0.049 A 
ATOM     56  C   UNL A   1      44.125  31.418  30.585  1.00  0.00     0.074 A 
ATOM     57  C   UNL A   1      39.374  33.577  32.508  1.00  0.00     0.029 A 
ATOM     58  N   UNL A   1      39.956  33.962  30.419  1.00  0.00    -0.354 N 
ATOM     59  N   UNL A   1      43.201  32.234  31.016  1.00  0.00    -0.248 NA
ATOM     60  C   UNL A   1      45.101  32.096  29.730  1.00  0.00     0.031 C 
ATOM     61  C   UNL A   1      40.775  33.886  32.455  1.00  0.00     0.029 A 
ATOM     62  C   UNL A   1      41.126  34.116  31.136  1.00  0.00     0.049 A 
ATOM     63  H   UNL A   1      39.892  34.101  29.446  1.00  0.00     0.167 HD
ATOM     64  C   UNL A   1      43.321  33.430  30.371  1.00  0.00     0.074 A 
ATOM     65  C   UNL A   1      44.565  33.325  29.628  1.00  0.00     0.031 C 
ATOM     66  C   UNL A   1      42.360  34.396  30.409  1.00  0.00     0.037 A 
BRANCH  53  67
ATOM     67  C   UNL A   1      36.263  33.695  30.881  1.00  0.00     0.064 A 
ATOM     68  C   UNL A   1      35.509  34.387  29.906  1.00  0.00     0.173 A 
ATOM     69  C   UNL A   1      35.646  33.639  32.151  1.00  0.00     0.173 A 
ATOM     70  F   UNL A   1      35.969  34.556  28.660  1.00  0.00    -0.203 F 
ATOM     71  C   UNL A   1      34.253  34.947  30.178  1.00  0.00     0.198 A 
ATOM     72  C   UNL A   1      34.368  34.144  32.405  1.00  0.00     0.198 A 
ATOM     73  F   UNL A   1      36.262  33.151  33.231  1.00  0.00    -0.203 F 
ATOM     74  F   UNL A   1      33.610  35.632  29.222  1.00  0.00    -0.200 F 
ATOM     75  C   UNL A   1      33.673  34.807  31.421  1.00  0.00     0.200 A 
ATOM     76  F   UNL A   1      33.831  34.002  33.626  1.00  0.00    -0.200 F 
ATOM     77  F   UNL A   1      32.465  35.325  31.677  1.00  0.00    -0.200 F 
ENDBRANCH  53  67
BRANCH  54  78
ATOM     78  C   UNL A   1      44.886  28.882  30.117  1.00  0.00     0.064 A 
ATOM     79  C   UNL A   1      45.570  27.928  30.895  1.00  0.00     0.173 A 
ATOM     80  C   UNL A   1      44.570  28.537  28.797  1.00  0.00     0.173 A 
ATOM     81  F   UNL A   1      45.880  28.202  32.174  1.00  0.00    -0.203 F 
ATOM     82  C   UNL A   1      45.792  26.637  30.423  1.00  0.00     0.198 A 
ATOM     83  C   UNL A   1      44.789  27.239  28.330  1.00  0.00     0.198 A 
ATOM     84  F   UNL A   1      43.922  29.407  28.008  1.00  0.00    -0.203 F 
ATOM     85  F   UNL A   1      46.302  25.706  31.243  1.00  0.00    -0.200 F 
ATOM     86  C   UNL A   1      45.361  26.281  29.156  1.00  0.00     0.200 A 
ATOM     87  F   UNL A   1      44.351  26.886  27.114  1.00  0.00    -0.200 F 
ATOM     88  F   UNL A   1      45.440  25.004  28.759  1.00  0.00    -0.200 F 
ENDBRANCH  54  78
BRANCH  66  89
ATOM     89  C   UNL A   1      42.534  35.699  29.693  1.00  0.00     0.064 A 
ATOM     90  C   UNL A   1      41.992  35.902  28.415  1.00  0.00     0.173 A 
ATOM     91  C   UNL A   1      43.339  36.733  30.208  1.00  0.00     0.173 A 
ATOM     92  F   UNL A   1      41.228  34.959  27.842  1.00  0.00    -0.203 F 
ATOM     93  C   UNL A   1      42.229  37.077  27.702  1.00  0.00     0.198 A 
ATOM     94  C   UNL A   1      43.617  37.882  29.472  1.00  0.00     0.198 A 
ATOM     95  F   UNL A   1      43.851  36.666  31.447  1.00  0.00    -0.203 F 
ATOM     96  F   UNL A   1      41.655  37.255  26.503  1.00  0.00    -0.200 F 
ATOM     97  C   UNL A   1      43.055  38.058  28.223  1.00  0.00     0.200 A 
ATOM     98  F   UNL A   1      44.429  38.819  29.983  1.00  0.00    -0.200 F 
ATOM     99  F   UNL A   1      43.302  39.174  27.525  1.00  0.00    -0.200 F 
ENDBRANCH  66  89
ENDBRANCH  40  41
ENDBRANCH  33  35
ENDBRANCH  32  33
ENDBRANCH  31  32
ENDBRANCH  30  31
ENDBRANCH   1  30
TORSDOF 17
ENDMDL
MODEL 2
REMARK VINA RESULT:     -12.9      3.471      9.550
REMARK SMILES Cc1ccccc1C(=O)Nc1ccc(N2CCCCC2)cc1C(=O)OCCOCCOC(=O)c1ccc(-c2c3nc(c(-c4c(F)c(F)c(F)c(F)c4F)c4ccc([nH]4)c(-c4c(F)c(F)c(F)c(F)c4F)c4nc(c(-c5c(F)c(F)c(F)c(F)c5F)c5ccc2[nH]5)C=C4)C=C3)cc1
REMARK SMILES IDX 28 1 27 2 26 3 25 4 23 5 24 6 22 7 11 8 12 9 13 10 21 11
REMARK SMILES IDX 14 12 10 13 8 14 9 15 7 17 1 18 2 19 3 20 4 21 6 22 5 23
REMARK SMILES IDX 15 24 16 25 20 26 17 27 19 28 18 29 29 30 30 31 31 32 32 33
REMARK SMILES IDX 33 34 34 35 35 36 96 37 36 38 95 39 37 40 38 41 39 42 89 43
REMARK SMILES IDX 40 44 94 45 88 46 90 47 41 48 93 49 87 50 86 51 42 53 74 54
REMARK SMILES IDX 54 55 73 56 55 57 58 58 72 59 91 60 56 61 57 62 71 64 92 65
REMARK SMILES IDX 59 66 43 67 44 68 52 69 45 70 46 71 50 72 53 73 47 74 48 75
REMARK SMILES IDX 51 76 49 77 75 78 76 79 84 80 77 81 78 82 82 83 85 84 79 85
REMARK SMILES IDX 80 86 83 87 81 88 60 89 61 90 69 91 62 92 63 93 67 94 70 95
REMARK SMILES IDX 64 96 65 97 68 98 66 99
REMARK H PARENT 10 16 90 52 58 63
REMARK Flexibility Score: inf
ROOT
ATOM      1  O   UNL A   1      33.347  29.983  26.159  1.00  0.00    -0.374 OA
ENDROOT
BRANCH   1   2
ATOM      2  C   UNL A   1      33.835  28.756  26.653  1.00  0.00     0.202 C 
BRANCH   2   3
ATOM      3  C   UNL A   1      33.735  27.690  25.585  1.00  0.00     0.261 C 
BRANCH   3   4
ATOM      4  O   UNL A   1      33.303  26.400  26.033  1.00  0.00    -0.460 OA
BRANCH   4   5
ATOM      5  C   UNL A   1      32.038  26.060  26.405  1.00  0.00     0.340 C 
ATOM      6  O   UNL A   1      31.216  26.684  27.013  1.00  0.00    -0.246 OA
BRANCH   5   7
ATOM      7  C   UNL A   1      31.908  24.690  25.874  1.00  0.00     0.085 A 
ATOM      8  C   UNL A   1      30.878  24.332  25.009  1.00  0.00     0.056 A 
ATOM      9  C   UNL A   1      31.007  23.168  24.245  1.00  0.00     0.029 A 
ATOM     10  C   UNL A   1      32.238  22.500  24.224  1.00  0.00     0.028 A 
ATOM     11  C   UNL A   1      33.055  23.896  25.988  1.00  0.00     0.043 A 
ATOM     12  C   UNL A   1      33.293  22.889  25.062  1.00  0.00     0.038 A 
BRANCH   8  13
ATOM     13  N   UNL A   1      29.710  25.064  24.882  1.00  0.00    -0.321 N 
ATOM     14  C   UNL A   1      29.339  26.152  24.134  1.00  0.00     0.255 C 
ATOM     15  O   UNL A   1      28.111  26.339  24.161  1.00  0.00    -0.269 OA
ATOM     16  H   UNL A   1      28.984  24.728  25.455  1.00  0.00     0.170 HD
BRANCH  14  17
ATOM     17  C   UNL A   1      30.181  27.164  23.371  1.00  0.00     0.043 A 
ATOM     18  C   UNL A   1      32.335  25.947  22.466  1.00  0.00     0.045 C 
ATOM     19  C   UNL A   1      31.449  27.117  22.748  1.00  0.00    -0.038 A 
ATOM     20  C   UNL A   1      32.024  28.319  22.243  1.00  0.00     0.004 A 
ATOM     21  C   UNL A   1      31.367  29.540  22.276  1.00  0.00     0.000 A 
ATOM     22  C   UNL A   1      29.529  28.435  23.345  1.00  0.00     0.014 A 
ATOM     23  C   UNL A   1      30.099  29.594  22.811  1.00  0.00     0.001 A 
ENDBRANCH  14  17
ENDBRANCH   8  13
BRANCH  12  24
ATOM     24  N   UNL A   1      34.581  22.407  24.846  1.00  0.00    -0.372 N 
ATOM     25  C   UNL A   1      35.527  23.422  24.352  1.00  0.00     0.116 C 
ATOM     26  C   UNL A   1      35.172  21.471  25.808  1.00  0.00     0.116 C 
ATOM     27  C   UNL A   1      36.665  22.721  23.619  1.00  0.00     0.021 C 
ATOM     28  C   UNL A   1      36.280  20.699  25.100  1.00  0.00     0.021 C 
ATOM     29  C   UNL A   1      37.315  21.640  24.483  1.00  0.00     0.004 C 
ENDBRANCH  12  24
ENDBRANCH   5   7
ENDBRANCH   4   5
ENDBRANCH   3   4
ENDBRANCH   2   3
ENDBRANCH   1   2
BRANCH   1  30
ATOM     30  C   UNL A   1      32.756  30.800  27.154  1.00  0.00     0.202 C 
BRANCH  30  31
ATOM     31  C   UNL A   1      33.623  31.983  27.583  1.00  0.00     0.261 C 
BRANCH  31  32
ATOM     32  O   UNL A   1      34.994  31.817  28.065  1.00  0.00    -0.460 OA
BRANCH  32  33
ATOM     33  C   UNL A   1      35.586  31.315  29.172  1.00  0.00     0.338 C 
ATOM     34  O   UNL A   1      35.369  31.798  30.278  1.00  0.00    -0.246 OA
BRANCH  33  35
ATOM     35  C   UNL A   1      36.551  30.216  29.048  1.00  0.00     0.060 A 
ATOM     36  C   UNL A   1      36.812  29.415  30.172  1.00  0.00     0.016 A 
ATOM     37  C   UNL A   1      37.297  30.075  27.888  1.00  0.00     0.016 A 
ATOM     38  C   UNL A   1      37.963  28.627  30.205  1.00  0.00     0.010 A 
ATOM     39  C   UNL A   1      38.496  29.384  27.972  1.00  0.00     0.010 A 
ATOM     40  C   UNL A   1      38.862  28.690  29.138  1.00  0.00    -0.014 A 
BRANCH  40  41
ATOM     41  C   UNL A   1      40.248  28.205  29.214  1.00  0.00     0.031 A 
ATOM     42  C   UNL A   1      40.608  26.829  28.817  1.00  0.00     0.074 A 
ATOM     43  C   UNL A   1      41.264  29.059  29.478  1.00  0.00     0.049 A 
ATOM     44  N   UNL A   1      41.758  26.300  29.074  1.00  0.00    -0.248 NA
ATOM     45  C   UNL A   1      39.700  25.894  28.163  1.00  0.00     0.031 C 
ATOM     46  C   UNL A   1      42.684  28.908  29.151  1.00  0.00     0.029 A 
ATOM     47  N   UNL A   1      41.198  30.323  30.075  1.00  0.00    -0.354 N 
ATOM     48  C   UNL A   1      41.869  25.154  28.333  1.00  0.00     0.074 A 
ATOM     49  C   UNL A   1      40.518  24.862  27.928  1.00  0.00     0.031 C 
ATOM     50  C   UNL A   1      43.385  29.886  29.740  1.00  0.00     0.029 A 
ATOM     51  C   UNL A   1      42.479  30.624  30.595  1.00  0.00     0.049 A 
ATOM     52  H   UNL A   1      40.402  30.901  30.125  1.00  0.00     0.167 HD
ATOM     53  C   UNL A   1      43.118  24.675  28.065  1.00  0.00     0.037 A 
ATOM     54  C   UNL A   1      42.650  30.790  31.941  1.00  0.00     0.037 A 
ATOM     55  C   UNL A   1      44.141  25.351  28.889  1.00  0.00     0.049 A 
ATOM     56  C   UNL A   1      43.340  29.615  32.602  1.00  0.00     0.074 A 
ATOM     57  C   UNL A   1      45.228  26.177  28.660  1.00  0.00     0.029 A 
ATOM     58  N   UNL A   1      43.955  25.368  30.265  1.00  0.00    -0.354 N 
ATOM     59  N   UNL A   1      43.991  28.689  31.951  1.00  0.00    -0.248 NA
ATOM     60  C   UNL A   1      43.274  29.335  34.038  1.00  0.00     0.031 C 
ATOM     61  C   UNL A   1      45.640  26.733  29.917  1.00  0.00     0.029 A 
ATOM     62  C   UNL A   1      44.826  26.222  30.913  1.00  0.00     0.049 A 
ATOM     63  H   UNL A   1      43.274  24.829  30.730  1.00  0.00     0.167 HD
ATOM     64  C   UNL A   1      44.237  27.641  32.788  1.00  0.00     0.074 A 
ATOM     65  C   UNL A   1      43.836  28.114  34.102  1.00  0.00     0.031 C 
ATOM     66  C   UNL A   1      44.667  26.423  32.349  1.00  0.00     0.037 A 
BRANCH  53  67
ATOM     67  C   UNL A   1      43.448  23.649  26.993  1.00  0.00     0.064 A 
ATOM     68  C   UNL A   1      43.037  22.306  27.145  1.00  0.00     0.173 A 
ATOM     69  C   UNL A   1      44.217  23.886  25.831  1.00  0.00     0.173 A 
ATOM     70  F   UNL A   1      42.327  21.910  28.210  1.00  0.00    -0.203 F 
ATOM     71  C   UNL A   1      43.351  21.307  26.213  1.00  0.00     0.198 A 
ATOM     72  C   UNL A   1      44.478  22.903  24.872  1.00  0.00     0.198 A 
ATOM     73  F   UNL A   1      44.811  25.056  25.586  1.00  0.00    -0.203 F 
ATOM     74  F   UNL A   1      42.971  20.042  26.440  1.00  0.00    -0.200 F 
ATOM     75  C   UNL A   1      44.054  21.610  25.065  1.00  0.00     0.200 A 
ATOM     76  F   UNL A   1      45.172  23.224  23.769  1.00  0.00    -0.200 F 
ATOM     77  F   UNL A   1      44.339  20.662  24.164  1.00  0.00    -0.200 F 
ENDBRANCH  53  67
BRANCH  54  78
ATOM     78  C   UNL A   1      41.591  31.656  32.520  1.00  0.00     0.064 A 
ATOM     79  C   UNL A   1      41.742  33.045  32.341  1.00  0.00     0.173 A 
ATOM     80  C   UNL A   1      40.303  31.171  32.783  1.00  0.00     0.173 A 
ATOM     81  F   UNL A   1      42.954  33.558  32.069  1.00  0.00    -0.203 F 
ATOM     82  C   UNL A   1      40.636  33.889  32.280  1.00  0.00     0.198 A 
ATOM     83  C   UNL A   1      39.197  32.021  32.713  1.00  0.00     0.198 A 
ATOM     84  F   UNL A   1      40.100  29.858  32.963  1.00  0.00    -0.203 F 
ATOM     85  F   UNL A   1      40.801  35.179  31.951  1.00  0.00    -0.200 F 
ATOM     86  C   UNL A   1      39.361  33.368  32.421  1.00  0.00     0.200 A 
ATOM     87  F   UNL A   1      37.960  31.515  32.825  1.00  0.00    -0.200 F 
ATOM     88  F   UNL A   1      38.294  34.152  32.214  1.00  0.00    -0.200 F 
ENDBRANCH  54  78
BRANCH  66  89
ATOM     89  C   UNL A   1      44.934  25.300  33.302  1.00  0.00     0.064 A 
ATOM     90  C   UNL A   1      46.222  24.763  33.447  1.00  0.00     0.173 A 
ATOM     91  C   UNL A   1      43.900  24.656  34.007  1.00  0.00     0.173 A 
ATOM     92  F   UNL A   1      47.263  25.306  32.796  1.00  0.00    -0.203 F 
ATOM     93  C   UNL A   1      46.462  23.656  34.262  1.00  0.00     0.198 A 
ATOM     94  C   UNL A   1      44.134  23.519  34.777  1.00  0.00     0.198 A 
ATOM     95  F   UNL A   1      42.644  25.128  33.988  1.00  0.00    -0.203 F 
ATOM     96  F   UNL A   1      47.714  23.200  34.412  1.00  0.00    -0.200 F 
ATOM     97  C   UNL A   1      45.416  23.024  34.911  1.00  0.00     0.200 A 
ATOM     98  F   UNL A   1      43.109  22.909  35.391  1.00  0.00    -0.200 F 
ATOM     99  F   UNL A   1      45.645  21.946  35.671  1.00  0.00    -0.200 F 
ENDBRANCH  66  89
ENDBRANCH  40  41
ENDBRANCH  33  35
ENDBRANCH  32  33
ENDBRANCH  31  32
ENDBRANCH  30  31
ENDBRANCH   1  30
TORSDOF 17
ENDMDL
MODEL 3
REMARK VINA RESULT:     -12.8      4.222     10.236
REMARK SMILES Cc1ccccc1C(=O)Nc1ccc(N2CCCCC2)cc1C(=O)OCCOCCOC(=O)c1ccc(-c2c3nc(c(-c4c(F)c(F)c(F)c(F)c4F)c4ccc([nH]4)c(-c4c(F)c(F)c(F)c(F)c4F)c4nc(c(-c5c(F)c(F)c(F)c(F)c5F)c5ccc2[nH]5)C=C4)C=C3)cc1
REMARK SMILES IDX 28 1 27 2 26 3 25 4 23 5 24 6 22 7 11 8 12 9 13 10 21 11
REMARK SMILES IDX 14 12 10 13 8 14 9 15 7 17 1 18 2 19 3 20 4 21 6 22 5 23
REMARK SMILES IDX 15 24 16 25 20 26 17 27 19 28 18 29 29 30 30 31 31 32 32 33
REMARK SMILES IDX 33 34 34 35 35 36 96 37 36 38 95 39 37 40 38 41 39 42 89 43
REMARK SMILES IDX 40 44 94 45 88 46 90 47 41 48 93 49 87 50 86 51 42 53 74 54
REMARK SMILES IDX 54 55 73 56 55 57 58 58 72 59 91 60 56 61 57 62 71 64 92 65
REMARK SMILES IDX 59 66 43 67 44 68 52 69 45 70 46 71 50 72 53 73 47 74 48 75
REMARK SMILES IDX 51 76 49 77 75 78 76 79 84 80 77 81 78 82 82 83 85 84 79 85
REMARK SMILES IDX 80 86 83 87 81 88 60 89 61 90 69 91 62 92 63 93 67 94 70 95
REMARK SMILES IDX 64 96 65 97 68 98 66 99
REMARK H PARENT 10 16 90 52 58 63
REMARK Flexibility Score: inf
ROOT
ATOM      1  O   UNL A   1      33.617  32.005  28.247  1.00  0.00    -0.374 OA
ENDROOT
BRANCH   1   2
ATOM      2  C   UNL A   1      33.480  31.149  27.136  1.00  0.00     0.202 C 
BRANCH   2   3
ATOM      3  C   UNL A   1      32.117  30.492  27.153  1.00  0.00     0.261 C 
BRANCH   3   4
ATOM      4  O   UNL A   1      31.881  29.523  26.124  1.00  0.00    -0.460 OA
BRANCH   4   5
ATOM      5  C   UNL A   1      31.918  28.171  26.270  1.00  0.00     0.340 C 
ATOM      6  O   UNL A   1      32.489  27.494  27.078  1.00  0.00    -0.246 OA
BRANCH   5   7
ATOM      7  C   UNL A   1      31.067  27.708  25.159  1.00  0.00     0.085 A 
ATOM      8  C   UNL A   1      30.306  26.545  25.249  1.00  0.00     0.056 A 
ATOM      9  C   UNL A   1      29.250  26.355  24.355  1.00  0.00     0.029 A 
ATOM     10  C   UNL A   1      28.861  27.412  23.523  1.00  0.00     0.028 A 
ATOM     11  C   UNL A   1      30.786  28.671  24.182  1.00  0.00     0.043 A 
ATOM     12  C   UNL A   1      29.600  28.603  23.465  1.00  0.00     0.038 A 
BRANCH   8  13
ATOM     13  N   UNL A   1      30.562  25.547  26.174  1.00  0.00    -0.321 N 
ATOM     14  C   UNL A   1      31.340  24.417  26.173  1.00  0.00     0.255 C 
ATOM     15  O   UNL A   1      31.452  23.929  27.309  1.00  0.00    -0.269 OA
ATOM     16  H   UNL A   1      30.077  25.677  27.021  1.00  0.00     0.170 HD
BRANCH  14  17
ATOM     17  C   UNL A   1      31.995  23.666  25.024  1.00  0.00     0.043 A 
ATOM     18  C   UNL A   1      33.241  25.406  23.488  1.00  0.00     0.045 C 
ATOM     19  C   UNL A   1      32.711  24.063  23.872  1.00  0.00    -0.038 A 
ATOM     20  C   UNL A   1      33.062  23.085  22.896  1.00  0.00     0.004 A 
ATOM     21  C   UNL A   1      32.786  21.734  23.050  1.00  0.00     0.000 A 
ATOM     22  C   UNL A   1      31.769  22.261  25.155  1.00  0.00     0.014 A 
ATOM     23  C   UNL A   1      32.155  21.315  24.201  1.00  0.00     0.001 A 
ENDBRANCH  14  17
ENDBRANCH   8  13
BRANCH  12  24
ATOM     24  N   UNL A   1      29.067  29.736  22.856  1.00  0.00    -0.372 N 
ATOM     25  C   UNL A   1      29.120  30.947  23.690  1.00  0.00     0.116 C 
ATOM     26  C   UNL A   1      29.338  29.986  21.436  1.00  0.00     0.116 C 
ATOM     27  C   UNL A   1      28.046  31.920  23.218  1.00  0.00     0.021 C 
ATOM     28  C   UNL A   1      28.249  30.909  20.900  1.00  0.00     0.021 C 
ATOM     29  C   UNL A   1      28.152  32.198  21.718  1.00  0.00     0.004 C 
ENDBRANCH  12  24
ENDBRANCH   5   7
ENDBRANCH   4   5
ENDBRANCH   3   4
ENDBRANCH   2   3
ENDBRANCH   1   2
BRANCH   1  30
ATOM     30  C   UNL A   1      33.609  33.380  27.907  1.00  0.00     0.202 C 
BRANCH  30  31
ATOM     31  C   UNL A   1      33.659  34.320  29.112  1.00  0.00     0.261 C 
BRANCH  31  32
ATOM     32  O   UNL A   1      34.521  34.070  30.267  1.00  0.00    -0.460 OA
BRANCH  32  33
ATOM     33  C   UNL A   1      34.723  33.050  31.132  1.00  0.00     0.338 C 
ATOM     34  O   UNL A   1      34.096  32.979  32.182  1.00  0.00    -0.246 OA
BRANCH  33  35
ATOM     35  C   UNL A   1      35.751  32.043  30.844  1.00  0.00     0.060 A 
ATOM     36  C   UNL A   1      35.946  30.994  31.757  1.00  0.00     0.016 A 
ATOM     37  C   UNL A   1      36.610  32.216  29.769  1.00  0.00     0.016 A 
ATOM     38  C   UNL A   1      37.128  30.254  31.716  1.00  0.00     0.010 A 
ATOM     39  C   UNL A   1      37.829  31.558  29.805  1.00  0.00     0.010 A 
ATOM     40  C   UNL A   1      38.119  30.605  30.797  1.00  0.00    -0.014 A 
BRANCH  40  41
ATOM     41  C   UNL A   1      39.515  30.154  30.896  1.00  0.00     0.031 A 
ATOM     42  C   UNL A   1      39.975  28.913  30.240  1.00  0.00     0.074 A 
ATOM     43  C   UNL A   1      40.462  30.954  31.438  1.00  0.00     0.049 A 
ATOM     44  N   UNL A   1      41.122  28.372  30.482  1.00  0.00    -0.248 NA
ATOM     45  C   UNL A   1      39.174  28.126  29.310  1.00  0.00     0.031 C 
ATOM     46  C   UNL A   1      41.910  30.920  31.224  1.00  0.00     0.029 A 
ATOM     47  N   UNL A   1      40.283  32.049  32.292  1.00  0.00    -0.354 N 
ATOM     48  C   UNL A   1      41.352  27.426  29.519  1.00  0.00     0.074 A 
ATOM     49  C   UNL A   1      40.057  27.195  28.932  1.00  0.00     0.031 C 
ATOM     50  C   UNL A   1      42.510  31.759  32.080  1.00  0.00     0.029 A 
ATOM     51  C   UNL A   1      41.498  32.260  32.986  1.00  0.00     0.049 A 
ATOM     52  H   UNL A   1      39.459  32.578  32.392  1.00  0.00     0.167 HD
ATOM     53  C   UNL A   1      42.642  27.054  29.273  1.00  0.00     0.037 A 
ATOM     54  C   UNL A   1      41.543  32.123  34.345  1.00  0.00     0.037 A 
ATOM     55  C   UNL A   1      43.555  27.555  30.320  1.00  0.00     0.049 A 
ATOM     56  C   UNL A   1      42.228  30.849  34.793  1.00  0.00     0.074 A 
ATOM     57  C   UNL A   1      44.616  28.441  30.385  1.00  0.00     0.029 A 
ATOM     58  N   UNL A   1      43.249  27.257  31.642  1.00  0.00    -0.354 N 
ATOM     59  N   UNL A   1      42.978  30.112  34.018  1.00  0.00    -0.248 NA
ATOM     60  C   UNL A   1      42.051  30.250  36.117  1.00  0.00     0.031 C 
ATOM     61  C   UNL A   1      44.891  28.710  31.768  1.00  0.00     0.029 A 
ATOM     62  C   UNL A   1      44.018  27.966  32.543  1.00  0.00     0.049 A 
ATOM     63  H   UNL A   1      42.557  26.608  31.908  1.00  0.00     0.167 HD
ATOM     64  C   UNL A   1      43.200  28.909  34.621  1.00  0.00     0.074 A 
ATOM     65  C   UNL A   1      42.664  29.063  35.962  1.00  0.00     0.031 C 
ATOM     66  C   UNL A   1      43.725  27.834  33.966  1.00  0.00     0.037 A 
BRANCH  53  67
ATOM     67  C   UNL A   1      43.113  26.306  28.036  1.00  0.00     0.064 A 
ATOM     68  C   UNL A   1      43.831  26.986  27.027  1.00  0.00     0.173 A 
ATOM     69  C   UNL A   1      42.844  24.951  27.736  1.00  0.00     0.173 A 
ATOM     70  F   UNL A   1      44.139  28.284  27.144  1.00  0.00    -0.203 F 
ATOM     71  C   UNL A   1      44.251  26.361  25.845  1.00  0.00     0.198 A 
ATOM     72  C   UNL A   1      43.316  24.313  26.585  1.00  0.00     0.198 A 
ATOM     73  F   UNL A   1      42.062  24.185  28.500  1.00  0.00    -0.203 F 
ATOM     74  F   UNL A   1      44.888  27.075  24.906  1.00  0.00    -0.200 F 
ATOM     75  C   UNL A   1      44.013  25.019  25.633  1.00  0.00     0.200 A 
ATOM     76  F   UNL A   1      43.062  23.009  26.401  1.00  0.00    -0.200 F 
ATOM     77  F   UNL A   1      44.431  24.416  24.513  1.00  0.00    -0.200 F 
ENDBRANCH  53  67
BRANCH  54  78
ATOM     78  C   UNL A   1      40.397  32.806  34.997  1.00  0.00     0.064 A 
ATOM     79  C   UNL A   1      39.322  31.991  35.404  1.00  0.00     0.173 A 
ATOM     80  C   UNL A   1      40.537  34.053  35.621  1.00  0.00     0.173 A 
ATOM     81  F   UNL A   1      39.154  30.778  34.849  1.00  0.00    -0.203 F 
ATOM     82  C   UNL A   1      38.519  32.341  36.486  1.00  0.00     0.198 A 
ATOM     83  C   UNL A   1      39.733  34.396  36.711  1.00  0.00     0.198 A 
ATOM     84  F   UNL A   1      41.540  34.872  35.274  1.00  0.00    -0.203 F 
ATOM     85  F   UNL A   1      37.608  31.472  36.947  1.00  0.00    -0.200 F 
ATOM     86  C   UNL A   1      38.754  33.523  37.166  1.00  0.00     0.200 A 
ATOM     87  F   UNL A   1      39.975  35.528  37.386  1.00  0.00    -0.200 F 
ATOM     88  F   UNL A   1      38.082  33.789  38.294  1.00  0.00    -0.200 F 
ENDBRANCH  54  78
BRANCH  66  89
ATOM     89  C   UNL A   1      43.962  26.533  34.668  1.00  0.00     0.064 A 
ATOM     90  C   UNL A   1      45.261  26.097  34.968  1.00  0.00     0.173 A 
ATOM     91  C   UNL A   1      42.915  25.636  34.953  1.00  0.00     0.173 A 
ATOM     92  F   UNL A   1      46.319  26.883  34.711  1.00  0.00    -0.203 F 
ATOM     93  C   UNL A   1      45.497  24.845  35.536  1.00  0.00     0.198 A 
ATOM     94  C   UNL A   1      43.157  24.366  35.470  1.00  0.00     0.198 A 
ATOM     95  F   UNL A   1      41.632  25.980  34.764  1.00  0.00    -0.203 F 
ATOM     96  F   UNL A   1      46.748  24.483  35.853  1.00  0.00    -0.200 F 
ATOM     97  C   UNL A   1      44.447  23.974  35.770  1.00  0.00     0.200 A 
ATOM     98  F   UNL A   1      42.132  23.527  35.680  1.00  0.00    -0.200 F 
ATOM     99  F   UNL A   1      44.678  22.761  36.290  1.00  0.00    -0.200 F 
ENDBRANCH  66  89
ENDBRANCH  40  41
ENDBRANCH  33  35
ENDBRANCH  32  33
ENDBRANCH  31  32
ENDBRANCH  30  31
ENDBRANCH   1  30
TORSDOF 17
ENDMDL
