MODEL 1
REMARK VINA RESULT:     -12.7      0.000      0.000
REMARK SMILES Cc1ccc(C(=O)c2cccc(C)c2C(=O)OCCOCCOC(=O)c2ccc(-c3c4nc(c(-c5c(F)c(F)c(F)c(F)c5F)c5ccc([nH]5)c(-c5c(F)c(F)c(F)c(F)c5F)c5nc(c(-c6c(F)c(F)c(F)c(F)c6F)c6ccc3[nH]6)C=C5)C=C4)cc2)c(C)c1
REMARK SMILES IDX 20 1 19 2 18 3 17 4 15 5 16 6 14 7 8 8 9 9 10 10 12 11 11 12
REMARK SMILES IDX 13 13 6 14 7 15 5 16 1 17 2 18 3 19 91 20 4 21 89 22 90 23
REMARK SMILES IDX 21 24 22 25 23 26 24 27 25 28 26 29 27 30 88 31 28 32 87 33
REMARK SMILES IDX 29 34 30 35 31 36 81 37 32 38 86 39 80 40 82 41 33 42 85 43
REMARK SMILES IDX 79 44 78 45 34 47 66 48 46 49 65 50 47 51 50 52 64 53 83 54
REMARK SMILES IDX 48 55 49 56 63 58 84 59 51 60 35 61 36 62 44 63 37 64 38 65
REMARK SMILES IDX 42 66 45 67 39 68 40 69 43 70 41 71 67 72 68 73 76 74 69 75
REMARK SMILES IDX 70 76 74 77 77 78 71 79 72 80 75 81 73 82 52 83 53 84 61 85
REMARK SMILES IDX 54 86 55 87 59 88 62 89 56 90 57 91 60 92 58 93
REMARK H PARENT 82 46 50 57
REMARK Flexibility Score: inf
ROOT
ATOM      1  O   UNL A   1      37.212  22.542  25.466  1.00  0.00    -0.374 OA
ENDROOT
BRANCH   1   2
ATOM      2  C   UNL A   1      37.162  23.395  24.336  1.00  0.00     0.202 C 
BRANCH   2   3
ATOM      3  C   UNL A   1      35.780  23.252  23.764  1.00  0.00     0.261 C 
BRANCH   3   4
ATOM      4  O   UNL A   1      35.011  24.485  23.748  1.00  0.00    -0.460 OA
BRANCH   4   5
ATOM      5  C   UNL A   1      33.773  24.584  23.247  1.00  0.00     0.339 C 
ATOM      6  O   UNL A   1      33.527  25.007  22.126  1.00  0.00    -0.246 OA
BRANCH   5   7
ATOM      7  C   UNL A   1      32.741  24.198  24.272  1.00  0.00     0.074 A 
ATOM      8  C   UNL A   1      32.187  22.881  24.405  1.00  0.00     0.037 A 
ATOM      9  C   UNL A   1      31.211  22.661  25.396  1.00  0.00     0.013 A 
ATOM     10  C   UNL A   1      30.737  23.698  26.197  1.00  0.00     0.001 A 
ATOM     11  C   UNL A   1      32.270  25.246  25.131  1.00  0.00    -0.036 A 
ATOM     12  C   UNL A   1      31.259  24.976  26.065  1.00  0.00     0.004 A 
ATOM     13  C   UNL A   1      32.781  26.673  25.096  1.00  0.00     0.045 C 
BRANCH   8  14
ATOM     14  C   UNL A   1      32.369  21.744  23.425  1.00  0.00     0.194 C 
ATOM     15  O   UNL A   1      31.864  21.802  22.301  1.00  0.00    -0.289 OA
BRANCH  14  16
ATOM     16  C   UNL A   1      32.684  20.345  23.791  1.00  0.00     0.025 A 
ATOM     17  C   UNL A   1      34.018  16.253  23.577  1.00  0.00     0.044 C 
ATOM     18  C   UNL A   1      33.514  17.661  23.686  1.00  0.00    -0.051 A 
ATOM     19  C   UNL A   1      32.558  18.127  22.790  1.00  0.00     0.004 A 
ATOM     20  C   UNL A   1      34.036  18.538  24.650  1.00  0.00     0.007 A 
ATOM     21  C   UNL A   1      32.150  19.450  22.845  1.00  0.00     0.013 A 
ATOM     22  C   UNL A   1      33.647  19.896  24.712  1.00  0.00    -0.040 A 
ATOM     23  C   UNL A   1      34.323  20.741  25.753  1.00  0.00     0.045 C 
ENDBRANCH  14  16
ENDBRANCH   8  14
ENDBRANCH   5   7
ENDBRANCH   4   5
ENDBRANCH   3   4
ENDBRANCH   2   3
ENDBRANCH   1   2
BRANCH   1  24
ATOM     24  C   UNL A   1      37.997  21.379  25.319  1.00  0.00     0.202 C 
BRANCH  24  25
ATOM     25  C   UNL A   1      39.362  21.524  25.999  1.00  0.00     0.261 C 
BRANCH  25  26
ATOM     26  O   UNL A   1      39.340  22.647  26.907  1.00  0.00    -0.460 OA
BRANCH  26  27
ATOM     27  C   UNL A   1      40.428  23.467  26.858  1.00  0.00     0.338 C 
ATOM     28  O   UNL A   1      41.589  23.094  26.828  1.00  0.00    -0.246 OA
BRANCH  27  29
ATOM     29  C   UNL A   1      40.013  24.880  27.102  1.00  0.00     0.060 A 
ATOM     30  C   UNL A   1      40.450  25.898  26.234  1.00  0.00     0.016 A 
ATOM     31  C   UNL A   1      39.484  25.211  28.349  1.00  0.00     0.016 A 
ATOM     32  C   UNL A   1      40.507  27.225  26.683  1.00  0.00     0.010 A 
ATOM     33  C   UNL A   1      39.660  26.493  28.825  1.00  0.00     0.010 A 
ATOM     34  C   UNL A   1      40.205  27.499  28.013  1.00  0.00    -0.014 A 
BRANCH  34  35
ATOM     35  C   UNL A   1      40.475  28.758  28.708  1.00  0.00     0.031 A 
ATOM     36  C   UNL A   1      39.408  29.761  28.811  1.00  0.00     0.074 A 
ATOM     37  C   UNL A   1      41.590  28.919  29.450  1.00  0.00     0.049 A 
ATOM     38  N   UNL A   1      39.598  30.961  29.238  1.00  0.00    -0.248 NA
ATOM     39  C   UNL A   1      38.049  29.531  28.334  1.00  0.00     0.031 C 
ATOM     40  C   UNL A   1      41.804  29.757  30.633  1.00  0.00     0.029 A 
ATOM     41  N   UNL A   1      42.831  28.320  29.256  1.00  0.00    -0.354 N 
ATOM     42  C   UNL A   1      38.362  31.521  29.427  1.00  0.00     0.074 A 
ATOM     43  C   UNL A   1      37.474  30.690  28.656  1.00  0.00     0.031 C 
ATOM     44  C   UNL A   1      43.120  29.798  30.913  1.00  0.00     0.029 A 
ATOM     45  C   UNL A   1      43.812  29.148  29.809  1.00  0.00     0.049 A 
ATOM     46  H   UNL A   1      42.991  27.459  28.806  1.00  0.00     0.167 HD
ATOM     47  C   UNL A   1      38.244  32.510  30.358  1.00  0.00     0.037 A 
ATOM     48  C   UNL A   1      44.793  29.647  29.010  1.00  0.00     0.037 A 
ATOM     49  C   UNL A   1      39.576  32.936  30.843  1.00  0.00     0.049 A 
ATOM     50  C   UNL A   1      44.686  31.147  28.962  1.00  0.00     0.074 A 
ATOM     51  C   UNL A   1      40.264  32.812  32.039  1.00  0.00     0.029 A 
ATOM     52  N   UNL A   1      40.529  33.357  29.917  1.00  0.00    -0.354 N 
ATOM     53  N   UNL A   1      43.682  31.805  29.469  1.00  0.00    -0.248 NA
ATOM     54  C   UNL A   1      45.646  32.017  28.304  1.00  0.00     0.031 C 
ATOM     55  C   UNL A   1      41.631  33.175  31.813  1.00  0.00     0.029 A 
ATOM     56  C   UNL A   1      41.776  33.547  30.486  1.00  0.00     0.049 A 
ATOM     57  H   UNL A   1      40.337  33.503  28.962  1.00  0.00     0.167 HD
ATOM     58  C   UNL A   1      43.813  33.130  29.222  1.00  0.00     0.074 A 
ATOM     59  C   UNL A   1      45.045  33.212  28.447  1.00  0.00     0.031 C 
ATOM     60  C   UNL A   1      42.883  34.030  29.661  1.00  0.00     0.037 A 
BRANCH  47  61
ATOM     61  C   UNL A   1      36.932  32.960  30.995  1.00  0.00     0.064 A 
ATOM     62  C   UNL A   1      36.011  33.724  30.244  1.00  0.00     0.173 A 
ATOM     63  C   UNL A   1      36.536  32.758  32.339  1.00  0.00     0.173 A 
ATOM     64  F   UNL A   1      36.219  33.989  28.947  1.00  0.00    -0.203 F 
ATOM     65  C   UNL A   1      34.837  34.258  30.794  1.00  0.00     0.198 A 
ATOM     66  C   UNL A   1      35.351  33.267  32.879  1.00  0.00     0.198 A 
ATOM     67  F   UNL A   1      37.269  32.084  33.222  1.00  0.00    -0.203 F 
ATOM     68  F   UNL A   1      34.030  35.009  30.032  1.00  0.00    -0.200 F 
ATOM     69  C   UNL A   1      34.506  34.028  32.112  1.00  0.00     0.200 A 
ATOM     70  F   UNL A   1      35.054  33.020  34.165  1.00  0.00    -0.200 F 
ATOM     71  F   UNL A   1      33.386  34.537  32.640  1.00  0.00    -0.200 F 
ENDBRANCH  47  61
BRANCH  48  72
ATOM     72  C   UNL A   1      45.113  28.732  27.863  1.00  0.00     0.064 A 
ATOM     73  C   UNL A   1      45.950  27.614  28.076  1.00  0.00     0.173 A 
ATOM     74  C   UNL A   1      44.295  28.687  26.728  1.00  0.00     0.173 A 
ATOM     75  F   UNL A   1      46.747  27.562  29.148  1.00  0.00    -0.203 F 
ATOM     76  C   UNL A   1      45.896  26.479  27.266  1.00  0.00     0.198 A 
ATOM     77  C   UNL A   1      44.234  27.543  25.924  1.00  0.00     0.198 A 
ATOM     78  F   UNL A   1      43.461  29.701  26.460  1.00  0.00    -0.203 F 
ATOM     79  F   UNL A   1      46.630  25.398  27.573  1.00  0.00    -0.200 F 
ATOM     80  C   UNL A   1      45.007  26.428  26.214  1.00  0.00     0.200 A 
ATOM     81  F   UNL A   1      43.352  27.485  24.915  1.00  0.00    -0.200 F 
ATOM     82  F   UNL A   1      44.857  25.297  25.510  1.00  0.00    -0.200 F 
ENDBRANCH  48  72
BRANCH  60  83
ATOM     83  C   UNL A   1      42.951  35.469  29.258  1.00  0.00     0.064 A 
ATOM     84  C   UNL A   1      42.485  35.929  28.019  1.00  0.00     0.173 A 
ATOM     85  C   UNL A   1      43.478  36.444  30.128  1.00  0.00     0.173 A 
ATOM     86  F   UNL A   1      42.117  35.070  27.058  1.00  0.00    -0.203 F 
ATOM     87  C   UNL A   1      42.379  37.291  27.746  1.00  0.00     0.198 A 
ATOM     88  C   UNL A   1      43.439  37.799  29.822  1.00  0.00     0.198 A 
ATOM     89  F   UNL A   1      44.007  36.124  31.317  1.00  0.00    -0.203 F 
ATOM     90  F   UNL A   1      41.802  37.695  26.606  1.00  0.00    -0.200 F 
ATOM     91  C   UNL A   1      42.846  38.226  28.653  1.00  0.00     0.200 A 
ATOM     92  F   UNL A   1      43.949  38.687  30.687  1.00  0.00    -0.200 F 
ATOM     93  F   UNL A   1      42.724  39.534  28.401  1.00  0.00    -0.200 F 
ENDBRANCH  60  83
ENDBRANCH  34  35
ENDBRANCH  27  29
ENDBRANCH  26  27
ENDBRANCH  25  26
ENDBRANCH  24  25
ENDBRANCH   1  24
TORSDOF 16
ENDMDL
MODEL 2
REMARK VINA RESULT:     -12.6      4.094      9.698
REMARK SMILES Cc1ccc(C(=O)c2cccc(C)c2C(=O)OCCOCCOC(=O)c2ccc(-c3c4nc(c(-c5c(F)c(F)c(F)c(F)c5F)c5ccc([nH]5)c(-c5c(F)c(F)c(F)c(F)c5F)c5nc(c(-c6c(F)c(F)c(F)c(F)c6F)c6ccc3[nH]6)C=C5)C=C4)cc2)c(C)c1
REMARK SMILES IDX 20 1 19 2 18 3 17 4 15 5 16 6 14 7 8 8 9 9 10 10 12 11 11 12
REMARK SMILES IDX 13 13 6 14 7 15 5 16 1 17 2 18 3 19 91 20 4 21 89 22 90 23
REMARK SMILES IDX 21 24 22 25 23 26 24 27 25 28 26 29 27 30 88 31 28 32 87 33
REMARK SMILES IDX 29 34 30 35 31 36 81 37 32 38 86 39 80 40 82 41 33 42 85 43
REMARK SMILES IDX 79 44 78 45 34 47 66 48 46 49 65 50 47 51 50 52 64 53 83 54
REMARK SMILES IDX 48 55 49 56 63 58 84 59 51 60 35 61 36 62 44 63 37 64 38 65
REMARK SMILES IDX 42 66 45 67 39 68 40 69 43 70 41 71 67 72 68 73 76 74 69 75
REMARK SMILES IDX 70 76 74 77 77 78 71 79 72 80 75 81 73 82 52 83 53 84 61 85
REMARK SMILES IDX 54 86 55 87 59 88 62 89 56 90 57 91 60 92 58 93
REMARK H PARENT 82 46 50 57
REMARK Flexibility Score: inf
ROOT
ATOM      1  O   UNL A   1      32.927  29.725  25.322  1.00  0.00    -0.374 OA
ENDROOT
BRANCH   1   2
ATOM      2  C   UNL A   1      33.015  28.321  25.488  1.00  0.00     0.202 C 
BRANCH   2   3
ATOM      3  C   UNL A   1      33.929  27.827  24.402  1.00  0.00     0.261 C 
BRANCH   3   4
ATOM      4  O   UNL A   1      33.419  28.025  23.057  1.00  0.00    -0.460 OA
BRANCH   4   5
ATOM      5  C   UNL A   1      32.764  27.083  22.364  1.00  0.00     0.339 C 
ATOM      6  O   UNL A   1      33.222  26.531  21.373  1.00  0.00    -0.246 OA
BRANCH   5   7
ATOM      7  C   UNL A   1      31.378  26.874  22.909  1.00  0.00     0.074 A 
ATOM      8  C   UNL A   1      30.916  25.648  23.494  1.00  0.00     0.037 A 
ATOM      9  C   UNL A   1      29.585  25.581  23.947  1.00  0.00     0.013 A 
ATOM     10  C   UNL A   1      28.703  26.648  23.785  1.00  0.00     0.001 A 
ATOM     11  C   UNL A   1      30.469  27.977  22.784  1.00  0.00    -0.036 A 
ATOM     12  C   UNL A   1      29.140  27.832  23.208  1.00  0.00     0.004 A 
ATOM     13  C   UNL A   1      30.836  29.324  22.193  1.00  0.00     0.045 C 
BRANCH   8  14
ATOM     14  C   UNL A   1      31.646  24.324  23.460  1.00  0.00     0.194 C 
ATOM     15  O   UNL A   1      31.065  23.300  23.094  1.00  0.00    -0.289 OA
BRANCH  14  16
ATOM     16  C   UNL A   1      32.848  23.993  24.260  1.00  0.00     0.025 A 
ATOM     17  C   UNL A   1      36.861  24.015  25.828  1.00  0.00     0.044 C 
ATOM     18  C   UNL A   1      35.463  23.953  25.290  1.00  0.00    -0.051 A 
ATOM     19  C   UNL A   1      35.252  23.768  23.928  1.00  0.00     0.004 A 
ATOM     20  C   UNL A   1      34.359  24.136  26.138  1.00  0.00     0.007 A 
ATOM     21  C   UNL A   1      33.961  23.787  23.424  1.00  0.00     0.013 A 
ATOM     22  C   UNL A   1      33.036  24.177  25.641  1.00  0.00    -0.040 A 
ATOM     23  C   UNL A   1      31.949  24.435  26.645  1.00  0.00     0.045 C 
ENDBRANCH  14  16
ENDBRANCH   8  14
ENDBRANCH   5   7
ENDBRANCH   4   5
ENDBRANCH   3   4
ENDBRANCH   2   3
ENDBRANCH   1   2
BRANCH   1  24
ATOM     24  C   UNL A   1      33.099  30.490  26.495  1.00  0.00     0.202 C 
BRANCH  24  25
ATOM     25  C   UNL A   1      34.159  29.883  27.420  1.00  0.00     0.261 C 
BRANCH  25  26
ATOM     26  O   UNL A   1      34.601  30.875  28.374  1.00  0.00    -0.460 OA
BRANCH  26  27
ATOM     27  C   UNL A   1      35.913  31.233  28.288  1.00  0.00     0.338 C 
ATOM     28  O   UNL A   1      36.320  32.332  27.949  1.00  0.00    -0.246 OA
BRANCH  27  29
ATOM     29  C   UNL A   1      36.782  30.027  28.418  1.00  0.00     0.060 A 
ATOM     30  C   UNL A   1      36.838  29.332  29.641  1.00  0.00     0.016 A 
ATOM     31  C   UNL A   1      37.759  29.804  27.448  1.00  0.00     0.016 A 
ATOM     32  C   UNL A   1      37.957  28.547  29.950  1.00  0.00     0.010 A 
ATOM     33  C   UNL A   1      38.910  29.135  27.807  1.00  0.00     0.010 A 
ATOM     34  C   UNL A   1      39.034  28.534  29.069  1.00  0.00    -0.014 A 
BRANCH  34  35
ATOM     35  C   UNL A   1      40.367  28.002  29.357  1.00  0.00     0.031 A 
ATOM     36  C   UNL A   1      40.734  26.676  28.846  1.00  0.00     0.074 A 
ATOM     37  C   UNL A   1      41.335  28.790  29.872  1.00  0.00     0.049 A 
ATOM     38  N   UNL A   1      41.803  26.050  29.196  1.00  0.00    -0.248 NA
ATOM     39  C   UNL A   1      39.866  25.888  27.979  1.00  0.00     0.031 C 
ATOM     40  C   UNL A   1      42.787  28.702  29.705  1.00  0.00     0.029 A 
ATOM     41  N   UNL A   1      41.176  29.890  30.709  1.00  0.00    -0.354 N 
ATOM     42  C   UNL A   1      41.937  24.980  28.350  1.00  0.00     0.074 A 
ATOM     43  C   UNL A   1      40.624  24.809  27.784  1.00  0.00     0.031 C 
ATOM     44  C   UNL A   1      43.383  29.537  30.577  1.00  0.00     0.029 A 
ATOM     45  C   UNL A   1      42.344  30.042  31.462  1.00  0.00     0.049 A 
ATOM     46  H   UNL A   1      40.377  30.463  30.762  1.00  0.00     0.167 HD
ATOM     47  C   UNL A   1      43.191  24.501  28.119  1.00  0.00     0.037 A 
ATOM     48  C   UNL A   1      42.276  29.976  32.819  1.00  0.00     0.037 A 
ATOM     49  C   UNL A   1      44.171  25.132  29.032  1.00  0.00     0.049 A 
ATOM     50  C   UNL A   1      43.071  28.794  33.302  1.00  0.00     0.074 A 
ATOM     51  C   UNL A   1      45.211  26.034  28.875  1.00  0.00     0.029 A 
ATOM     52  N   UNL A   1      43.954  25.063  30.408  1.00  0.00    -0.354 N 
ATOM     53  N   UNL A   1      43.569  27.895  32.500  1.00  0.00    -0.248 NA
ATOM     54  C   UNL A   1      43.321  28.489  34.701  1.00  0.00     0.031 C 
ATOM     55  C   UNL A   1      45.613  26.488  30.172  1.00  0.00     0.029 A 
ATOM     56  C   UNL A   1      44.840  25.847  31.125  1.00  0.00     0.049 A 
ATOM     57  H   UNL A   1      43.248  24.517  30.823  1.00  0.00     0.167 HD
ATOM     58  C   UNL A   1      44.174  26.913  33.209  1.00  0.00     0.074 A 
ATOM     59  C   UNL A   1      43.954  27.307  34.595  1.00  0.00     0.031 C 
ATOM     60  C   UNL A   1      44.779  25.856  32.587  1.00  0.00     0.037 A 
BRANCH  47  61
ATOM     61  C   UNL A   1      43.589  23.621  26.937  1.00  0.00     0.064 A 
ATOM     62  C   UNL A   1      43.175  22.271  26.895  1.00  0.00     0.173 A 
ATOM     63  C   UNL A   1      44.425  23.990  25.856  1.00  0.00     0.173 A 
ATOM     64  F   UNL A   1      42.359  21.762  27.829  1.00  0.00    -0.203 F 
ATOM     65  C   UNL A   1      43.586  21.378  25.896  1.00  0.00     0.198 A 
ATOM     66  C   UNL A   1      44.812  23.106  24.844  1.00  0.00     0.198 A 
ATOM     67  F   UNL A   1      44.941  25.208  25.716  1.00  0.00    -0.203 F 
ATOM     68  F   UNL A   1      43.188  20.099  25.943  1.00  0.00    -0.200 F 
ATOM     69  C   UNL A   1      44.405  21.796  24.869  1.00  0.00     0.200 A 
ATOM     70  F   UNL A   1      45.604  23.546  23.853  1.00  0.00    -0.200 F 
ATOM     71  F   UNL A   1      44.799  20.946  23.913  1.00  0.00    -0.200 F 
ENDBRANCH  47  61
BRANCH  48  72
ATOM     72  C   UNL A   1      40.952  30.444  33.348  1.00  0.00     0.064 A 
ATOM     73  C   UNL A   1      40.685  31.830  33.431  1.00  0.00     0.173 A 
ATOM     74  C   UNL A   1      39.837  29.597  33.350  1.00  0.00     0.173 A 
ATOM     75  F   UNL A   1      41.689  32.712  33.412  1.00  0.00    -0.203 F 
ATOM     76  C   UNL A   1      39.387  32.340  33.412  1.00  0.00     0.198 A 
ATOM     77  C   UNL A   1      38.536  30.112  33.319  1.00  0.00     0.198 A 
ATOM     78  F   UNL A   1      40.001  28.270  33.259  1.00  0.00    -0.203 F 
ATOM     79  F   UNL A   1      39.185  33.667  33.382  1.00  0.00    -0.200 F 
ATOM     80  C   UNL A   1      38.312  31.481  33.314  1.00  0.00     0.200 A 
ATOM     81  F   UNL A   1      37.493  29.278  33.199  1.00  0.00    -0.200 F 
ATOM     82  F   UNL A   1      37.071  31.966  33.167  1.00  0.00    -0.200 F 
ENDBRANCH  48  72
BRANCH  60  83
ATOM     83  C   UNL A   1      45.310  24.699  33.372  1.00  0.00     0.064 A 
ATOM     84  C   UNL A   1      44.510  23.615  33.756  1.00  0.00     0.173 A 
ATOM     85  C   UNL A   1      46.666  24.639  33.750  1.00  0.00     0.173 A 
ATOM     86  F   UNL A   1      43.179  23.648  33.591  1.00  0.00    -0.203 F 
ATOM     87  C   UNL A   1      45.066  22.466  34.313  1.00  0.00     0.198 A 
ATOM     88  C   UNL A   1      47.206  23.520  34.372  1.00  0.00     0.198 A 
ATOM     89  F   UNL A   1      47.521  25.638  33.492  1.00  0.00    -0.203 F 
ATOM     90  F   UNL A   1      44.290  21.398  34.540  1.00  0.00    -0.200 F 
ATOM     91  C   UNL A   1      46.416  22.414  34.610  1.00  0.00     0.200 A 
ATOM     92  F   UNL A   1      48.504  23.510  34.706  1.00  0.00    -0.200 F 
ATOM     93  F   UNL A   1      46.956  21.303  35.123  1.00  0.00    -0.200 F 
ENDBRANCH  60  83
ENDBRANCH  34  35
ENDBRANCH  27  29
ENDBRANCH  26  27
ENDBRANCH  25  26
ENDBRANCH  24  25
ENDBRANCH   1  24
TORSDOF 16
ENDMDL
MODEL 3
REMARK VINA RESULT:     -12.6      1.152      3.511
REMARK SMILES Cc1ccc(C(=O)c2cccc(C)c2C(=O)OCCOCCOC(=O)c2ccc(-c3c4nc(c(-c5c(F)c(F)c(F)c(F)c5F)c5ccc([nH]5)c(-c5c(F)c(F)c(F)c(F)c5F)c5nc(c(-c6c(F)c(F)c(F)c(F)c6F)c6ccc3[nH]6)C=C5)C=C4)cc2)c(C)c1
REMARK SMILES IDX 20 1 19 2 18 3 17 4 15 5 16 6 14 7 8 8 9 9 10 10 12 11 11 12
REMARK SMILES IDX 13 13 6 14 7 15 5 16 1 17 2 18 3 19 91 20 4 21 89 22 90 23
REMARK SMILES IDX 21 24 22 25 23 26 24 27 25 28 26 29 27 30 88 31 28 32 87 33
REMARK SMILES IDX 29 34 30 35 31 36 81 37 32 38 86 39 80 40 82 41 33 42 85 43
REMARK SMILES IDX 79 44 78 45 34 47 66 48 46 49 65 50 47 51 50 52 64 53 83 54
REMARK SMILES IDX 48 55 49 56 63 58 84 59 51 60 35 61 36 62 44 63 37 64 38 65
REMARK SMILES IDX 42 66 45 67 39 68 40 69 43 70 41 71 67 72 68 73 76 74 69 75
REMARK SMILES IDX 70 76 74 77 77 78 71 79 72 80 75 81 73 82 52 83 53 84 61 85
REMARK SMILES IDX 54 86 55 87 59 88 62 89 56 90 57 91 60 92 58 93
REMARK H PARENT 82 46 50 57
REMARK Flexibility Score: inf
ROOT
ATOM      1  O   UNL A   1      37.407  22.086  24.273  1.00  0.00    -0.374 OA
ENDROOT
BRANCH   1   2
ATOM      2  C   UNL A   1      36.407  22.837  23.607  1.00  0.00     0.202 C 
BRANCH   2   3
ATOM      3  C   UNL A   1      35.829  23.769  24.634  1.00  0.00     0.261 C 
BRANCH   3   4
ATOM      4  O   UNL A   1      34.794  24.651  24.122  1.00  0.00    -0.460 OA
BRANCH   4   5
ATOM      5  C   UNL A   1      33.687  24.220  23.503  1.00  0.00     0.339 C 
ATOM      6  O   UNL A   1      33.652  23.901  22.322  1.00  0.00    -0.246 OA
BRANCH   5   7
ATOM      7  C   UNL A   1      32.497  24.272  24.422  1.00  0.00     0.074 A 
ATOM      8  C   UNL A   1      31.767  25.467  24.732  1.00  0.00     0.037 A 
ATOM      9  C   UNL A   1      30.683  25.379  25.626  1.00  0.00     0.013 A 
ATOM     10  C   UNL A   1      30.351  24.179  26.253  1.00  0.00     0.001 A 
ATOM     11  C   UNL A   1      32.118  23.038  25.047  1.00  0.00    -0.036 A 
ATOM     12  C   UNL A   1      31.061  23.022  25.969  1.00  0.00     0.004 A 
ATOM     13  C   UNL A   1      32.803  21.708  24.797  1.00  0.00     0.045 C 
BRANCH   8  14
ATOM     14  C   UNL A   1      32.189  26.876  24.379  1.00  0.00     0.194 C 
ATOM     15  O   UNL A   1      32.828  27.095  23.347  1.00  0.00    -0.289 OA
BRANCH  14  16
ATOM     16  C   UNL A   1      32.349  27.986  25.345  1.00  0.00     0.025 A 
ATOM     17  C   UNL A   1      34.081  31.142  27.713  1.00  0.00     0.044 C 
ATOM     18  C   UNL A   1      33.444  30.032  26.931  1.00  0.00    -0.051 A 
ATOM     19  C   UNL A   1      33.974  28.748  26.993  1.00  0.00     0.004 A 
ATOM     20  C   UNL A   1      32.350  30.284  26.089  1.00  0.00     0.007 A 
ATOM     21  C   UNL A   1      33.430  27.741  26.211  1.00  0.00     0.013 A 
ATOM     22  C   UNL A   1      31.792  29.275  25.269  1.00  0.00    -0.040 A 
ATOM     23  C   UNL A   1      30.660  29.688  24.372  1.00  0.00     0.045 C 
ENDBRANCH  14  16
ENDBRANCH   8  14
ENDBRANCH   5   7
ENDBRANCH   4   5
ENDBRANCH   3   4
ENDBRANCH   2   3
ENDBRANCH   1   2
BRANCH   1  24
ATOM     24  C   UNL A   1      37.760  22.546  25.559  1.00  0.00     0.202 C 
BRANCH  24  25
ATOM     25  C   UNL A   1      39.017  21.847  26.089  1.00  0.00     0.261 C 
BRANCH  25  26
ATOM     26  O   UNL A   1      39.587  22.619  27.170  1.00  0.00    -0.460 OA
BRANCH  26  27
ATOM     27  C   UNL A   1      40.567  23.497  26.815  1.00  0.00     0.338 C 
ATOM     28  O   UNL A   1      41.710  23.192  26.519  1.00  0.00    -0.246 OA
BRANCH  27  29
ATOM     29  C   UNL A   1      40.121  24.896  27.083  1.00  0.00     0.060 A 
ATOM     30  C   UNL A   1      40.500  25.931  26.207  1.00  0.00     0.016 A 
ATOM     31  C   UNL A   1      39.624  25.204  28.348  1.00  0.00     0.016 A 
ATOM     32  C   UNL A   1      40.535  27.256  26.664  1.00  0.00     0.010 A 
ATOM     33  C   UNL A   1      39.780  26.487  28.828  1.00  0.00     0.010 A 
ATOM     34  C   UNL A   1      40.269  27.514  28.005  1.00  0.00    -0.014 A 
BRANCH  34  35
ATOM     35  C   UNL A   1      40.526  28.775  28.699  1.00  0.00     0.031 A 
ATOM     36  C   UNL A   1      39.450  29.768  28.800  1.00  0.00     0.074 A 
ATOM     37  C   UNL A   1      41.639  28.947  29.444  1.00  0.00     0.049 A 
ATOM     38  N   UNL A   1      39.629  30.970  29.226  1.00  0.00    -0.248 NA
ATOM     39  C   UNL A   1      38.094  29.526  28.321  1.00  0.00     0.031 C 
ATOM     40  C   UNL A   1      41.842  29.787  30.627  1.00  0.00     0.029 A 
ATOM     41  N   UNL A   1      42.885  28.358  29.253  1.00  0.00    -0.354 N 
ATOM     42  C   UNL A   1      38.387  31.520  29.413  1.00  0.00     0.074 A 
ATOM     43  C   UNL A   1      37.508  30.680  28.641  1.00  0.00     0.031 C 
ATOM     44  C   UNL A   1      43.158  29.840  30.910  1.00  0.00     0.029 A 
ATOM     45  C   UNL A   1      43.857  29.196  29.808  1.00  0.00     0.049 A 
ATOM     46  H   UNL A   1      43.054  27.498  28.804  1.00  0.00     0.167 HD
ATOM     47  C   UNL A   1      38.258  32.508  30.343  1.00  0.00     0.037 A 
ATOM     48  C   UNL A   1      44.835  29.703  29.010  1.00  0.00     0.037 A 
ATOM     49  C   UNL A   1      39.586  32.946  30.830  1.00  0.00     0.049 A 
ATOM     50  C   UNL A   1      44.715  31.201  28.961  1.00  0.00     0.074 A 
ATOM     51  C   UNL A   1      40.272  32.829  32.028  1.00  0.00     0.029 A 
ATOM     52  N   UNL A   1      40.537  33.375  29.906  1.00  0.00    -0.354 N 
ATOM     53  N   UNL A   1      43.704  31.851  29.466  1.00  0.00    -0.248 NA
ATOM     54  C   UNL A   1      45.668  32.080  28.304  1.00  0.00     0.031 C 
ATOM     55  C   UNL A   1      41.636  33.204  31.804  1.00  0.00     0.029 A 
ATOM     56  C   UNL A   1      41.781  33.576  30.478  1.00  0.00     0.049 A 
ATOM     57  H   UNL A   1      40.345  33.518  28.951  1.00  0.00     0.167 HD
ATOM     58  C   UNL A   1      43.824  33.177  29.218  1.00  0.00     0.074 A 
ATOM     59  C   UNL A   1      45.056  33.270  28.445  1.00  0.00     0.031 C 
ATOM     60  C   UNL A   1      42.885  34.069  29.655  1.00  0.00     0.037 A 
BRANCH  47  61
ATOM     61  C   UNL A   1      36.941  32.947  30.977  1.00  0.00     0.064 A 
ATOM     62  C   UNL A   1      35.998  33.669  30.212  1.00  0.00     0.173 A 
ATOM     63  C   UNL A   1      36.559  32.773  32.329  1.00  0.00     0.173 A 
ATOM     64  F   UNL A   1      36.191  33.902  28.907  1.00  0.00    -0.203 F 
ATOM     65  C   UNL A   1      34.817  34.192  30.756  1.00  0.00     0.198 A 
ATOM     66  C   UNL A   1      35.367  33.271  32.864  1.00  0.00     0.198 A 
ATOM     67  F   UNL A   1      37.313  32.140  33.225  1.00  0.00    -0.203 F 
ATOM     68  F   UNL A   1      33.988  34.904  29.980  1.00  0.00    -0.200 F 
ATOM     69  C   UNL A   1      34.500  33.991  32.082  1.00  0.00     0.200 A 
ATOM     70  F   UNL A   1      35.084  33.053  34.158  1.00  0.00    -0.200 F 
ATOM     71  F   UNL A   1      33.372  34.490  32.604  1.00  0.00    -0.200 F 
ENDBRANCH  47  61
BRANCH  48  72
ATOM     72  C   UNL A   1      45.166  28.791  27.864  1.00  0.00     0.064 A 
ATOM     73  C   UNL A   1      46.037  27.697  28.073  1.00  0.00     0.173 A 
ATOM     74  C   UNL A   1      44.335  28.716  26.740  1.00  0.00     0.173 A 
ATOM     75  F   UNL A   1      46.849  27.675  29.135  1.00  0.00    -0.203 F 
ATOM     76  C   UNL A   1      46.004  26.556  27.271  1.00  0.00     0.198 A 
ATOM     77  C   UNL A   1      44.296  27.565  25.944  1.00  0.00     0.198 A 
ATOM     78  F   UNL A   1      43.469  29.704  26.477  1.00  0.00    -0.203 F 
ATOM     79  F   UNL A   1      46.772  25.498  27.574  1.00  0.00    -0.200 F 
ATOM     80  C   UNL A   1      45.103  26.474  26.230  1.00  0.00     0.200 A 
ATOM     81  F   UNL A   1      43.403  27.476  24.947  1.00  0.00    -0.200 F 
ATOM     82  F   UNL A   1      44.976  25.334  25.535  1.00  0.00    -0.200 F 
ENDBRANCH  48  72
BRANCH  60  83
ATOM     83  C   UNL A   1      42.940  35.508  29.250  1.00  0.00     0.064 A 
ATOM     84  C   UNL A   1      42.382  35.980  28.055  1.00  0.00     0.173 A 
ATOM     85  C   UNL A   1      43.551  36.472  30.077  1.00  0.00     0.173 A 
ATOM     86  F   UNL A   1      41.924  35.129  27.125  1.00  0.00    -0.203 F 
ATOM     87  C   UNL A   1      42.275  37.344  27.794  1.00  0.00     0.198 A 
ATOM     88  C   UNL A   1      43.507  37.829  29.779  1.00  0.00     0.198 A 
ATOM     89  F   UNL A   1      44.171  36.141  31.218  1.00  0.00    -0.203 F 
ATOM     90  F   UNL A   1      41.613  37.760  26.707  1.00  0.00    -0.200 F 
ATOM     91  C   UNL A   1      42.828  38.268  28.662  1.00  0.00     0.200 A 
ATOM     92  F   UNL A   1      44.099  38.707  30.602  1.00  0.00    -0.200 F 
ATOM     93  F   UNL A   1      42.704  39.579  28.424  1.00  0.00    -0.200 F 
ENDBRANCH  60  83
ENDBRANCH  34  35
ENDBRANCH  27  29
ENDBRANCH  26  27
ENDBRANCH  25  26
ENDBRANCH  24  25
ENDBRANCH   1  24
TORSDOF 16
ENDMDL
