MODEL 1
REMARK VINA RESULT:     -11.8      0.000      0.000
REMARK SMILES CS(=O)(=O)c1ccc(/C=C(/C(=O)OCCOCCOC(=O)c2ccc(-c3c4nc(c(-c5c(F)c(F)c(F)c(F)c5F)c5ccc([nH]5)c(-c5c(F)c(F)c(F)c(F)c5F)c5nc(c(-c6c(F)c(F)c(F)c(F)c6F)c6ccc3[nH]6)C=C5)C=C4)cc2)c2cccc(-c3ccc(S(C)(=O)=O)cc3)c2)cc1
REMARK SMILES IDX 15 1 14 2 13 3 11 4 12 5 10 6 9 7 8 8 5 9 6 10 102 11 7 12
REMARK SMILES IDX 101 13 2 14 1 15 3 16 4 17 85 18 86 19 100 20 87 21 89 22
REMARK SMILES IDX 88 23 90 24 91 25 99 26 92 27 98 28 93 29 94 30 95 31 96 32
REMARK SMILES IDX 97 33 16 34 17 35 18 36 19 37 20 38 21 39 22 40 23 41 84 42
REMARK SMILES IDX 24 43 83 44 25 45 26 46 27 47 77 48 28 49 82 50 76 51 78 52
REMARK SMILES IDX 29 53 81 54 75 55 74 56 30 58 62 59 42 60 61 61 43 62 46 63
REMARK SMILES IDX 60 64 79 65 44 66 45 67 59 69 80 70 47 71 31 72 32 73 40 74
REMARK SMILES IDX 33 75 34 76 38 77 41 78 35 79 36 80 39 81 37 82 63 83 64 84
REMARK SMILES IDX 72 85 65 86 66 87 70 88 73 89 67 90 68 91 71 92 69 93 48 94
REMARK SMILES IDX 49 95 57 96 50 97 51 98 55 99 58 100 52 101 53 102 56 103
REMARK SMILES IDX 54 104
REMARK H PARENT 78 57 46 68
REMARK Flexibility Score: inf
ROOT
ATOM      1  C   UNL A   1      36.018  23.643  25.402  1.00  0.00     0.202 C 
ENDROOT
BRANCH   1   2
ATOM      2  C   UNL A   1      34.716  24.399  25.675  1.00  0.00     0.261 C 
BRANCH   2   3
ATOM      3  O   UNL A   1      34.453  25.383  24.659  1.00  0.00    -0.460 OA
BRANCH   3   4
ATOM      4  C   UNL A   1      33.285  25.190  23.996  1.00  0.00     0.338 C 
ATOM      5  O   UNL A   1      32.857  24.110  23.612  1.00  0.00    -0.246 OA
BRANCH   4   6
ATOM      6  C   UNL A   1      32.487  26.449  23.876  1.00  0.00     0.067 C 
ATOM      7  C   UNL A   1      32.041  26.858  22.663  1.00  0.00     0.024 C 
BRANCH   7   8
ATOM      8  C   UNL A   1      30.949  27.833  22.393  1.00  0.00    -0.025 A 
ATOM      9  C   UNL A   1      28.946  29.800  22.529  1.00  0.00     0.067 A 
ATOM     10  C   UNL A   1      30.158  30.081  21.898  1.00  0.00     0.021 A 
ATOM     11  C   UNL A   1      28.671  28.508  22.970  1.00  0.00     0.021 A 
ATOM     12  C   UNL A   1      31.136  29.087  21.797  1.00  0.00     0.009 A 
ATOM     13  C   UNL A   1      29.673  27.531  22.899  1.00  0.00     0.009 A 
BRANCH   9  14
ATOM     14  S   UNL A   1      27.834  31.153  22.834  1.00  0.00     0.175 S 
ATOM     15  C   UNL A   1      28.792  32.478  23.508  1.00  0.00     0.163 C 
ATOM     16  O   UNL A   1      26.920  30.717  23.874  1.00  0.00    -0.224 OA
ATOM     17  O   UNL A   1      27.347  31.573  21.535  1.00  0.00    -0.224 OA
ENDBRANCH   9  14
ENDBRANCH   7   8
BRANCH   6  18
ATOM     18  C   UNL A   1      32.086  27.065  25.155  1.00  0.00    -0.010 A 
ATOM     19  C   UNL A   1      31.294  26.366  26.075  1.00  0.00     0.009 A 
ATOM     20  C   UNL A   1      32.540  28.343  25.478  1.00  0.00     0.017 A 
ATOM     21  C   UNL A   1      30.968  26.938  27.302  1.00  0.00     0.001 A 
ATOM     22  C   UNL A   1      32.265  28.915  26.728  1.00  0.00    -0.018 A 
ATOM     23  C   UNL A   1      31.457  28.202  27.628  1.00  0.00     0.009 A 
BRANCH  22  24
ATOM     24  C   UNL A   1      32.892  30.191  27.085  1.00  0.00    -0.018 A 
ATOM     25  C   UNL A   1      32.142  31.378  27.075  1.00  0.00     0.010 A 
ATOM     26  C   UNL A   1      34.222  30.236  27.538  1.00  0.00     0.010 A 
ATOM     27  C   UNL A   1      32.700  32.578  27.513  1.00  0.00     0.021 A 
ATOM     28  C   UNL A   1      34.789  31.430  27.978  1.00  0.00     0.021 A 
ATOM     29  C   UNL A   1      34.024  32.595  27.953  1.00  0.00     0.067 A 
BRANCH  29  30
ATOM     30  S   UNL A   1      34.738  34.132  28.473  1.00  0.00     0.175 S 
ATOM     31  C   UNL A   1      36.479  33.804  28.373  1.00  0.00     0.163 C 
ATOM     32  O   UNL A   1      34.405  35.129  27.475  1.00  0.00    -0.224 OA
ATOM     33  O   UNL A   1      34.408  34.329  29.871  1.00  0.00    -0.224 OA
ENDBRANCH  29  30
ENDBRANCH  22  24
ENDBRANCH   6  18
ENDBRANCH   4   6
ENDBRANCH   3   4
ENDBRANCH   2   3
ENDBRANCH   1   2
BRANCH   1  34
ATOM     34  O   UNL A   1      35.935  22.401  24.707  1.00  0.00    -0.374 OA
BRANCH  34  35
ATOM     35  C   UNL A   1      37.125  21.875  24.127  1.00  0.00     0.202 C 
BRANCH  35  36
ATOM     36  C   UNL A   1      37.905  20.807  24.902  1.00  0.00     0.261 C 
BRANCH  36  37
ATOM     37  O   UNL A   1      38.319  21.249  26.202  1.00  0.00    -0.460 OA
BRANCH  37  38
ATOM     38  C   UNL A   1      39.646  21.135  26.434  1.00  0.00     0.338 C 
ATOM     39  O   UNL A   1      40.386  20.211  26.119  1.00  0.00    -0.246 OA
BRANCH  38  40
ATOM     40  C   UNL A   1      40.154  22.400  26.985  1.00  0.00     0.060 A 
ATOM     41  C   UNL A   1      39.604  23.597  26.502  1.00  0.00     0.016 A 
ATOM     42  C   UNL A   1      41.195  22.414  27.913  1.00  0.00     0.016 A 
ATOM     43  C   UNL A   1      40.123  24.819  26.917  1.00  0.00     0.010 A 
ATOM     44  C   UNL A   1      41.727  23.639  28.314  1.00  0.00     0.010 A 
ATOM     45  C   UNL A   1      41.217  24.842  27.791  1.00  0.00    -0.014 A 
BRANCH  45  46
ATOM     46  C   UNL A   1      41.961  26.099  28.015  1.00  0.00     0.031 A 
ATOM     47  C   UNL A   1      41.302  27.178  28.825  1.00  0.00     0.074 A 
ATOM     48  C   UNL A   1      43.184  26.284  27.491  1.00  0.00     0.049 A 
ATOM     49  N   UNL A   1      41.674  28.416  29.024  1.00  0.00    -0.248 NA
ATOM     50  C   UNL A   1      40.041  26.813  29.491  1.00  0.00     0.031 C 
ATOM     51  C   UNL A   1      43.943  25.285  26.743  1.00  0.00     0.029 A 
ATOM     52  N   UNL A   1      43.991  27.393  27.493  1.00  0.00    -0.354 N 
ATOM     53  C   UNL A   1      40.686  28.980  29.818  1.00  0.00     0.074 A 
ATOM     54  C   UNL A   1      39.688  27.959  30.050  1.00  0.00     0.031 C 
ATOM     55  C   UNL A   1      45.098  25.836  26.332  1.00  0.00     0.029 A 
ATOM     56  C   UNL A   1      45.135  27.237  26.751  1.00  0.00     0.049 A 
ATOM     57  H   UNL A   1      43.771  28.221  27.978  1.00  0.00     0.167 HD
ATOM     58  C   UNL A   1      40.622  30.240  30.310  1.00  0.00     0.037 A 
ATOM     59  C   UNL A   1      46.079  28.138  26.419  1.00  0.00     0.037 A 
ATOM     60  C   UNL A   1      41.623  31.244  30.075  1.00  0.00     0.049 A 
ATOM     61  C   UNL A   1      45.947  29.557  26.913  1.00  0.00     0.074 A 
ATOM     62  C   UNL A   1      41.660  32.551  30.529  1.00  0.00     0.029 A 
ATOM     63  N   UNL A   1      42.765  31.052  29.311  1.00  0.00    -0.354 N 
ATOM     64  N   UNL A   1      45.013  30.089  27.664  1.00  0.00    -0.248 NA
ATOM     65  C   UNL A   1      47.000  30.501  26.512  1.00  0.00     0.031 C 
ATOM     66  C   UNL A   1      42.799  33.163  29.999  1.00  0.00     0.029 A 
ATOM     67  C   UNL A   1      43.504  32.221  29.265  1.00  0.00     0.049 A 
ATOM     68  H   UNL A   1      43.013  30.208  28.868  1.00  0.00     0.167 HD
ATOM     69  C   UNL A   1      45.385  31.412  27.860  1.00  0.00     0.074 A 
ATOM     70  C   UNL A   1      46.630  31.605  27.146  1.00  0.00     0.031 C 
ATOM     71  C   UNL A   1      44.757  32.381  28.572  1.00  0.00     0.037 A 
BRANCH  58  72
ATOM     72  C   UNL A   1      39.413  30.608  31.119  1.00  0.00     0.064 A 
ATOM     73  C   UNL A   1      38.222  31.040  30.517  1.00  0.00     0.173 A 
ATOM     74  C   UNL A   1      39.440  30.501  32.519  1.00  0.00     0.173 A 
ATOM     75  F   UNL A   1      38.150  31.175  29.185  1.00  0.00    -0.203 F 
ATOM     76  C   UNL A   1      37.112  31.377  31.287  1.00  0.00     0.198 A 
ATOM     77  C   UNL A   1      38.318  30.809  33.283  1.00  0.00     0.198 A 
ATOM     78  F   UNL A   1      40.553  30.092  33.146  1.00  0.00    -0.203 F 
ATOM     79  F   UNL A   1      36.002  31.836  30.693  1.00  0.00    -0.200 F 
ATOM     80  C   UNL A   1      37.158  31.254  32.668  1.00  0.00     0.200 A 
ATOM     81  F   UNL A   1      38.360  30.679  34.616  1.00  0.00    -0.200 F 
ATOM     82  F   UNL A   1      36.086  31.572  33.406  1.00  0.00    -0.200 F 
ENDBRANCH  58  72
BRANCH  59  83
ATOM     83  C   UNL A   1      47.222  27.735  25.559  1.00  0.00     0.064 A 
ATOM     84  C   UNL A   1      48.416  27.262  26.121  1.00  0.00     0.173 A 
ATOM     85  C   UNL A   1      47.153  27.827  24.161  1.00  0.00     0.173 A 
ATOM     86  F   UNL A   1      48.541  27.179  27.455  1.00  0.00    -0.203 F 
ATOM     87  C   UNL A   1      49.502  26.916  25.320  1.00  0.00     0.198 A 
ATOM     88  C   UNL A   1      48.228  27.452  23.359  1.00  0.00     0.198 A 
ATOM     89  F   UNL A   1      46.033  28.273  23.572  1.00  0.00    -0.203 F 
ATOM     90  F   UNL A   1      50.648  26.513  25.886  1.00  0.00    -0.200 F 
ATOM     91  C   UNL A   1      49.406  27.006  23.939  1.00  0.00     0.200 A 
ATOM     92  F   UNL A   1      48.125  27.529  22.025  1.00  0.00    -0.200 F 
ATOM     93  F   UNL A   1      50.449  26.670  23.169  1.00  0.00    -0.200 F 
ENDBRANCH  59  83
BRANCH  71  94
ATOM     94  C   UNL A   1      45.433  33.717  28.680  1.00  0.00     0.064 A 
ATOM     95  C   UNL A   1      46.368  33.996  29.685  1.00  0.00     0.173 A 
ATOM     96  C   UNL A   1      45.194  34.703  27.709  1.00  0.00     0.173 A 
ATOM     97  F   UNL A   1      46.621  33.091  30.643  1.00  0.00    -0.203 F 
ATOM     98  C   UNL A   1      47.030  35.221  29.724  1.00  0.00     0.198 A 
ATOM     99  C   UNL A   1      45.880  35.913  27.734  1.00  0.00     0.198 A 
ATOM    100  F   UNL A   1      44.315  34.480  26.721  1.00  0.00    -0.203 F 
ATOM    101  F   UNL A   1      47.896  35.481  30.714  1.00  0.00    -0.200 F 
ATOM    102  C   UNL A   1      46.794  36.173  28.743  1.00  0.00     0.200 A 
ATOM    103  F   UNL A   1      45.662  36.825  26.776  1.00  0.00    -0.200 F 
ATOM    104  F   UNL A   1      47.446  37.343  28.773  1.00  0.00    -0.200 F 
ENDBRANCH  71  94
ENDBRANCH  45  46
ENDBRANCH  38  40
ENDBRANCH  37  38
ENDBRANCH  36  37
ENDBRANCH  35  36
ENDBRANCH  34  35
ENDBRANCH   1  34
TORSDOF 19
ENDMDL
MODEL 2
REMARK VINA RESULT:     -11.8      4.472      8.968
REMARK SMILES CS(=O)(=O)c1ccc(/C=C(/C(=O)OCCOCCOC(=O)c2ccc(-c3c4nc(c(-c5c(F)c(F)c(F)c(F)c5F)c5ccc([nH]5)c(-c5c(F)c(F)c(F)c(F)c5F)c5nc(c(-c6c(F)c(F)c(F)c(F)c6F)c6ccc3[nH]6)C=C5)C=C4)cc2)c2cccc(-c3ccc(S(C)(=O)=O)cc3)c2)cc1
REMARK SMILES IDX 15 1 14 2 13 3 11 4 12 5 10 6 9 7 8 8 5 9 6 10 102 11 7 12
REMARK SMILES IDX 101 13 2 14 1 15 3 16 4 17 85 18 86 19 100 20 87 21 89 22
REMARK SMILES IDX 88 23 90 24 91 25 99 26 92 27 98 28 93 29 94 30 95 31 96 32
REMARK SMILES IDX 97 33 16 34 17 35 18 36 19 37 20 38 21 39 22 40 23 41 84 42
REMARK SMILES IDX 24 43 83 44 25 45 26 46 27 47 77 48 28 49 82 50 76 51 78 52
REMARK SMILES IDX 29 53 81 54 75 55 74 56 30 58 62 59 42 60 61 61 43 62 46 63
REMARK SMILES IDX 60 64 79 65 44 66 45 67 59 69 80 70 47 71 31 72 32 73 40 74
REMARK SMILES IDX 33 75 34 76 38 77 41 78 35 79 36 80 39 81 37 82 63 83 64 84
REMARK SMILES IDX 72 85 65 86 66 87 70 88 73 89 67 90 68 91 71 92 69 93 48 94
REMARK SMILES IDX 49 95 57 96 50 97 51 98 55 99 58 100 52 101 53 102 56 103
REMARK SMILES IDX 54 104
REMARK H PARENT 78 57 46 68
REMARK Flexibility Score: inf
ROOT
ATOM      1  C   UNL A   1      32.423  29.283  25.899  1.00  0.00     0.202 C 
ENDROOT
BRANCH   1   2
ATOM      2  C   UNL A   1      31.159  28.569  25.413  1.00  0.00     0.261 C 
BRANCH   2   3
ATOM      3  O   UNL A   1      31.270  28.181  24.033  1.00  0.00    -0.460 OA
BRANCH   3   4
ATOM      4  C   UNL A   1      30.719  26.972  23.755  1.00  0.00     0.338 C 
ATOM      5  O   UNL A   1      29.576  26.787  23.357  1.00  0.00    -0.246 OA
BRANCH   4   6
ATOM      6  C   UNL A   1      31.709  25.857  23.873  1.00  0.00     0.067 C 
ATOM      7  C   UNL A   1      32.944  25.985  23.330  1.00  0.00     0.024 C 
BRANCH   7   8
ATOM      8  C   UNL A   1      34.154  25.182  23.657  1.00  0.00    -0.025 A 
ATOM      9  C   UNL A   1      36.022  23.345  24.677  1.00  0.00     0.067 A 
ATOM     10  C   UNL A   1      35.572  23.226  23.362  1.00  0.00     0.021 A 
ATOM     11  C   UNL A   1      35.655  24.449  25.444  1.00  0.00     0.021 A 
ATOM     12  C   UNL A   1      34.674  24.165  22.846  1.00  0.00     0.009 A 
ATOM     13  C   UNL A   1      34.724  25.363  24.929  1.00  0.00     0.009 A 
BRANCH   9  14
ATOM     14  S   UNL A   1      36.975  22.007  25.354  1.00  0.00     0.175 S 
ATOM     15  C   UNL A   1      38.430  22.710  26.072  1.00  0.00     0.163 C 
ATOM     16  O   UNL A   1      37.406  21.191  24.233  1.00  0.00    -0.224 OA
ATOM     17  O   UNL A   1      36.177  21.448  26.426  1.00  0.00    -0.224 OA
ENDBRANCH   9  14
ENDBRANCH   7   8
BRANCH   6  18
ATOM     18  C   UNL A   1      31.305  24.746  24.756  1.00  0.00    -0.010 A 
ATOM     19  C   UNL A   1      30.286  24.911  25.702  1.00  0.00     0.009 A 
ATOM     20  C   UNL A   1      31.912  23.499  24.617  1.00  0.00     0.017 A 
ATOM     21  C   UNL A   1      29.877  23.840  26.492  1.00  0.00     0.001 A 
ATOM     22  C   UNL A   1      31.480  22.396  25.367  1.00  0.00    -0.018 A 
ATOM     23  C   UNL A   1      30.466  22.588  26.319  1.00  0.00     0.009 A 
BRANCH  22  24
ATOM     24  C   UNL A   1      32.037  21.071  25.077  1.00  0.00    -0.018 A 
ATOM     25  C   UNL A   1      31.922  20.518  23.791  1.00  0.00     0.010 A 
ATOM     26  C   UNL A   1      32.780  20.377  26.048  1.00  0.00     0.010 A 
ATOM     27  C   UNL A   1      32.538  19.307  23.478  1.00  0.00     0.021 A 
ATOM     28  C   UNL A   1      33.400  19.166  25.744  1.00  0.00     0.021 A 
ATOM     29  C   UNL A   1      33.266  18.637  24.462  1.00  0.00     0.067 A 
BRANCH  29  30
ATOM     30  S   UNL A   1      34.016  17.080  24.066  1.00  0.00     0.175 S 
ATOM     31  C   UNL A   1      32.930  15.917  24.852  1.00  0.00     0.163 C 
ATOM     32  O   UNL A   1      33.916  16.898  22.631  1.00  0.00    -0.224 OA
ATOM     33  O   UNL A   1      35.296  17.014  24.744  1.00  0.00    -0.224 OA
ENDBRANCH  29  30
ENDBRANCH  22  24
ENDBRANCH   6  18
ENDBRANCH   4   6
ENDBRANCH   3   4
ENDBRANCH   2   3
ENDBRANCH   1   2
BRANCH   1  34
ATOM     34  O   UNL A   1      32.264  30.393  26.780  1.00  0.00    -0.374 OA
BRANCH  34  35
ATOM     35  C   UNL A   1      31.536  31.524  26.310  1.00  0.00     0.202 C 
BRANCH  35  36
ATOM     36  C   UNL A   1      31.883  32.903  26.880  1.00  0.00     0.261 C 
BRANCH  36  37
ATOM     37  O   UNL A   1      32.780  32.839  27.998  1.00  0.00    -0.460 OA
BRANCH  37  38
ATOM     38  C   UNL A   1      33.909  33.568  27.850  1.00  0.00     0.338 C 
ATOM     39  O   UNL A   1      34.002  34.761  27.586  1.00  0.00    -0.246 OA
BRANCH  38  40
ATOM     40  C   UNL A   1      35.070  32.751  28.236  1.00  0.00     0.060 A 
ATOM     41  C   UNL A   1      34.857  31.391  28.506  1.00  0.00     0.016 A 
ATOM     42  C   UNL A   1      36.332  33.324  28.391  1.00  0.00     0.016 A 
ATOM     43  C   UNL A   1      35.904  30.603  28.974  1.00  0.00     0.010 A 
ATOM     44  C   UNL A   1      37.376  32.537  28.878  1.00  0.00     0.010 A 
ATOM     45  C   UNL A   1      37.155  31.185  29.204  1.00  0.00    -0.014 A 
BRANCH  45  46
ATOM     46  C   UNL A   1      38.189  30.450  29.964  1.00  0.00     0.031 A 
ATOM     47  C   UNL A   1      38.396  30.809  31.407  1.00  0.00     0.074 A 
ATOM     48  C   UNL A   1      38.939  29.503  29.377  1.00  0.00     0.049 A 
ATOM     49  N   UNL A   1      39.335  30.429  32.233  1.00  0.00    -0.248 NA
ATOM     50  C   UNL A   1      37.413  31.733  31.995  1.00  0.00     0.031 C 
ATOM     51  C   UNL A   1      38.783  29.032  28.003  1.00  0.00     0.029 A 
ATOM     52  N   UNL A   1      40.001  28.785  29.865  1.00  0.00    -0.354 N 
ATOM     53  C   UNL A   1      39.069  31.084  33.428  1.00  0.00     0.074 A 
ATOM     54  C   UNL A   1      37.894  31.900  33.217  1.00  0.00     0.031 C 
ATOM     55  C   UNL A   1      39.737  28.120  27.747  1.00  0.00     0.029 A 
ATOM     56  C   UNL A   1      40.593  27.980  28.924  1.00  0.00     0.049 A 
ATOM     57  H   UNL A   1      40.310  28.843  30.798  1.00  0.00     0.167 HD
ATOM     58  C   UNL A   1      39.749  31.008  34.596  1.00  0.00     0.037 A 
ATOM     59  C   UNL A   1      41.720  27.247  29.001  1.00  0.00     0.037 A 
ATOM     60  C   UNL A   1      40.915  30.190  34.794  1.00  0.00     0.049 A 
ATOM     61  C   UNL A   1      42.506  27.238  30.289  1.00  0.00     0.074 A 
ATOM     62  C   UNL A   1      41.678  30.034  35.938  1.00  0.00     0.029 A 
ATOM     63  N   UNL A   1      41.491  29.393  33.815  1.00  0.00    -0.354 N 
ATOM     64  N   UNL A   1      42.252  27.856  31.417  1.00  0.00    -0.248 NA
ATOM     65  C   UNL A   1      43.733  26.430  30.313  1.00  0.00     0.031 C 
ATOM     66  C   UNL A   1      42.743  29.181  35.636  1.00  0.00     0.029 A 
ATOM     67  C   UNL A   1      42.611  28.758  34.323  1.00  0.00     0.049 A 
ATOM     68  H   UNL A   1      41.152  29.294  32.895  1.00  0.00     0.167 HD
ATOM     69  C   UNL A   1      43.261  27.481  32.295  1.00  0.00     0.074 A 
ATOM     70  C   UNL A   1      44.134  26.583  31.567  1.00  0.00     0.031 C 
ATOM     71  C   UNL A   1      43.446  27.843  33.589  1.00  0.00     0.037 A 
BRANCH  58  72
ATOM     72  C   UNL A   1      39.267  31.857  35.736  1.00  0.00     0.064 A 
ATOM     73  C   UNL A   1      39.719  33.171  35.922  1.00  0.00     0.173 A 
ATOM     74  C   UNL A   1      38.318  31.353  36.640  1.00  0.00     0.173 A 
ATOM     75  F   UNL A   1      40.637  33.693  35.096  1.00  0.00    -0.203 F 
ATOM     76  C   UNL A   1      39.258  33.942  36.987  1.00  0.00     0.198 A 
ATOM     77  C   UNL A   1      37.838  32.137  37.685  1.00  0.00     0.198 A 
ATOM     78  F   UNL A   1      37.853  30.103  36.507  1.00  0.00    -0.203 F 
ATOM     79  F   UNL A   1      39.742  35.177  37.175  1.00  0.00    -0.200 F 
ATOM     80  C   UNL A   1      38.313  33.428  37.862  1.00  0.00     0.200 A 
ATOM     81  F   UNL A   1      36.916  31.643  38.523  1.00  0.00    -0.200 F 
ATOM     82  F   UNL A   1      37.867  34.173  38.882  1.00  0.00    -0.200 F 
ENDBRANCH  58  72
BRANCH  59  83
ATOM     83  C   UNL A   1      42.188  26.476  27.819  1.00  0.00     0.064 A 
ATOM     84  C   UNL A   1      41.700  25.188  27.558  1.00  0.00     0.173 A 
ATOM     85  C   UNL A   1      43.141  27.003  26.934  1.00  0.00     0.173 A 
ATOM     86  F   UNL A   1      40.805  24.631  28.389  1.00  0.00    -0.203 F 
ATOM     87  C   UNL A   1      42.162  24.449  26.472  1.00  0.00     0.198 A 
ATOM     88  C   UNL A   1      43.580  26.275  25.830  1.00  0.00     0.198 A 
ATOM     89  F   UNL A   1      43.639  28.231  27.138  1.00  0.00    -0.203 F 
ATOM     90  F   UNL A   1      41.714  23.202  26.274  1.00  0.00    -0.200 F 
ATOM     91  C   UNL A   1      43.097  24.995  25.605  1.00  0.00     0.200 A 
ATOM     92  F   UNL A   1      44.474  26.812  24.988  1.00  0.00    -0.200 F 
ATOM     93  F   UNL A   1      43.538  24.285  24.558  1.00  0.00    -0.200 F 
ENDBRANCH  59  83
BRANCH  71  94
ATOM     94  C   UNL A   1      44.591  27.215  34.330  1.00  0.00     0.064 A 
ATOM     95  C   UNL A   1      45.847  27.830  34.413  1.00  0.00     0.173 A 
ATOM     96  C   UNL A   1      44.397  26.016  35.033  1.00  0.00     0.173 A 
ATOM     97  F   UNL A   1      46.086  28.972  33.748  1.00  0.00    -0.203 F 
ATOM     98  C   UNL A   1      46.874  27.260  35.162  1.00  0.00     0.198 A 
ATOM     99  C   UNL A   1      45.415  25.464  35.805  1.00  0.00     0.198 A 
ATOM    100  F   UNL A   1      43.210  25.392  34.993  1.00  0.00    -0.203 F 
ATOM    101  F   UNL A   1      48.078  27.847  35.200  1.00  0.00    -0.200 F 
ATOM    102  C   UNL A   1      46.654  26.084  35.865  1.00  0.00     0.200 A 
ATOM    103  F   UNL A   1      45.196  24.338  36.497  1.00  0.00    -0.200 F 
ATOM    104  F   UNL A   1      47.638  25.547  36.599  1.00  0.00    -0.200 F 
ENDBRANCH  71  94
ENDBRANCH  45  46
ENDBRANCH  38  40
ENDBRANCH  37  38
ENDBRANCH  36  37
ENDBRANCH  35  36
ENDBRANCH  34  35
ENDBRANCH   1  34
TORSDOF 19
ENDMDL
MODEL 3
REMARK VINA RESULT:     -11.7      4.629     10.974
REMARK SMILES CS(=O)(=O)c1ccc(/C=C(/C(=O)OCCOCCOC(=O)c2ccc(-c3c4nc(c(-c5c(F)c(F)c(F)c(F)c5F)c5ccc([nH]5)c(-c5c(F)c(F)c(F)c(F)c5F)c5nc(c(-c6c(F)c(F)c(F)c(F)c6F)c6ccc3[nH]6)C=C5)C=C4)cc2)c2cccc(-c3ccc(S(C)(=O)=O)cc3)c2)cc1
REMARK SMILES IDX 15 1 14 2 13 3 11 4 12 5 10 6 9 7 8 8 5 9 6 10 102 11 7 12
REMARK SMILES IDX 101 13 2 14 1 15 3 16 4 17 85 18 86 19 100 20 87 21 89 22
REMARK SMILES IDX 88 23 90 24 91 25 99 26 92 27 98 28 93 29 94 30 95 31 96 32
REMARK SMILES IDX 97 33 16 34 17 35 18 36 19 37 20 38 21 39 22 40 23 41 84 42
REMARK SMILES IDX 24 43 83 44 25 45 26 46 27 47 77 48 28 49 82 50 76 51 78 52
REMARK SMILES IDX 29 53 81 54 75 55 74 56 30 58 62 59 42 60 61 61 43 62 46 63
REMARK SMILES IDX 60 64 79 65 44 66 45 67 59 69 80 70 47 71 31 72 32 73 40 74
REMARK SMILES IDX 33 75 34 76 38 77 41 78 35 79 36 80 39 81 37 82 63 83 64 84
REMARK SMILES IDX 72 85 65 86 66 87 70 88 73 89 67 90 68 91 71 92 69 93 48 94
REMARK SMILES IDX 49 95 57 96 50 97 51 98 55 99 58 100 52 101 53 102 56 103
REMARK SMILES IDX 54 104
REMARK H PARENT 78 57 46 68
REMARK Flexibility Score: inf
ROOT
ATOM      1  C   UNL A   1      33.245  27.967  26.652  1.00  0.00     0.202 C 
ENDROOT
BRANCH   1   2
ATOM      2  C   UNL A   1      33.025  27.035  25.459  1.00  0.00     0.261 C 
BRANCH   2   3
ATOM      3  O   UNL A   1      33.208  25.656  25.825  1.00  0.00    -0.460 OA
BRANCH   3   4
ATOM      4  C   UNL A   1      32.342  24.806  25.219  1.00  0.00     0.338 C 
ATOM      5  O   UNL A   1      31.298  25.129  24.667  1.00  0.00    -0.246 OA
BRANCH   4   6
ATOM      6  C   UNL A   1      32.857  23.402  25.183  1.00  0.00     0.067 C 
ATOM      7  C   UNL A   1      32.112  22.392  25.694  1.00  0.00     0.024 C 
BRANCH   7   8
ATOM      8  C   UNL A   1      32.266  20.938  25.420  1.00  0.00    -0.025 A 
ATOM      9  C   UNL A   1      33.122  18.383  24.615  1.00  0.00     0.067 A 
ATOM     10  C   UNL A   1      33.150  18.736  25.965  1.00  0.00     0.021 A 
ATOM     11  C   UNL A   1      32.543  19.239  23.681  1.00  0.00     0.021 A 
ATOM     12  C   UNL A   1      32.686  19.993  26.365  1.00  0.00     0.009 A 
ATOM     13  C   UNL A   1      32.117  20.512  24.089  1.00  0.00     0.009 A 
BRANCH   9  14
ATOM     14  S   UNL A   1      33.931  16.877  24.132  1.00  0.00     0.175 S 
ATOM     15  C   UNL A   1      33.141  15.555  25.001  1.00  0.00     0.163 C 
ATOM     16  O   UNL A   1      35.293  16.957  24.626  1.00  0.00    -0.224 OA
ATOM     17  O   UNL A   1      33.654  16.708  22.719  1.00  0.00    -0.224 OA
ENDBRANCH   9  14
ENDBRANCH   7   8
BRANCH   6  18
ATOM     18  C   UNL A   1      34.095  23.204  24.406  1.00  0.00    -0.010 A 
ATOM     19  C   UNL A   1      34.248  23.773  23.136  1.00  0.00     0.009 A 
ATOM     20  C   UNL A   1      35.150  22.481  24.961  1.00  0.00     0.017 A 
ATOM     21  C   UNL A   1      35.442  23.624  22.435  1.00  0.00     0.001 A 
ATOM     22  C   UNL A   1      36.377  22.364  24.294  1.00  0.00    -0.018 A 
ATOM     23  C   UNL A   1      36.502  22.930  23.015  1.00  0.00     0.009 A 
BRANCH  22  24
ATOM     24  C   UNL A   1      37.507  21.731  24.981  1.00  0.00    -0.018 A 
ATOM     25  C   UNL A   1      37.773  20.364  24.800  1.00  0.00     0.010 A 
ATOM     26  C   UNL A   1      38.401  22.498  25.749  1.00  0.00     0.010 A 
ATOM     27  C   UNL A   1      38.905  19.777  25.364  1.00  0.00     0.021 A 
ATOM     28  C   UNL A   1      39.535  21.919  26.317  1.00  0.00     0.021 A 
ATOM     29  C   UNL A   1      39.773  20.560  26.126  1.00  0.00     0.067 A 
BRANCH  29  30
ATOM     30  S   UNL A   1      41.189  19.797  26.871  1.00  0.00     0.175 S 
ATOM     31  C   UNL A   1      42.418  21.072  26.760  1.00  0.00     0.163 C 
ATOM     32  O   UNL A   1      40.884  19.580  28.271  1.00  0.00    -0.224 OA
ATOM     33  O   UNL A   1      41.610  18.704  26.016  1.00  0.00    -0.224 OA
ENDBRANCH  29  30
ENDBRANCH  22  24
ENDBRANCH   6  18
ENDBRANCH   4   6
ENDBRANCH   3   4
ENDBRANCH   2   3
ENDBRANCH   1   2
BRANCH   1  34
ATOM     34  O   UNL A   1      32.220  28.910  26.960  1.00  0.00    -0.374 OA
BRANCH  34  35
ATOM     35  C   UNL A   1      31.881  29.879  25.973  1.00  0.00     0.202 C 
BRANCH  35  36
ATOM     36  C   UNL A   1      31.905  31.360  26.366  1.00  0.00     0.261 C 
BRANCH  36  37
ATOM     37  O   UNL A   1      32.549  31.595  27.626  1.00  0.00    -0.460 OA
BRANCH  37  38
ATOM     38  C   UNL A   1      33.422  32.628  27.622  1.00  0.00     0.338 C 
ATOM     39  O   UNL A   1      33.182  33.812  27.419  1.00  0.00    -0.246 OA
BRANCH  38  40
ATOM     40  C   UNL A   1      34.736  32.157  28.085  1.00  0.00     0.060 A 
ATOM     41  C   UNL A   1      34.859  30.809  28.453  1.00  0.00     0.016 A 
ATOM     42  C   UNL A   1      35.810  33.036  28.215  1.00  0.00     0.016 A 
ATOM     43  C   UNL A   1      36.053  30.342  28.994  1.00  0.00     0.010 A 
ATOM     44  C   UNL A   1      37.000  32.571  28.776  1.00  0.00     0.010 A 
ATOM     45  C   UNL A   1      37.112  31.233  29.198  1.00  0.00    -0.014 A 
BRANCH  45  46
ATOM     46  C   UNL A   1      38.270  30.834  30.027  1.00  0.00     0.031 A 
ATOM     47  C   UNL A   1      39.281  29.900  29.427  1.00  0.00     0.074 A 
ATOM     48  C   UNL A   1      38.403  31.272  31.289  1.00  0.00     0.049 A 
ATOM     49  N   UNL A   1      40.284  29.283  29.994  1.00  0.00    -0.248 NA
ATOM     50  C   UNL A   1      39.133  29.617  27.990  1.00  0.00     0.031 C 
ATOM     51  C   UNL A   1      37.517  32.225  31.951  1.00  0.00     0.029 A 
ATOM     52  N   UNL A   1      39.331  30.948  32.247  1.00  0.00    -0.354 N 
ATOM     53  C   UNL A   1      40.871  28.523  28.992  1.00  0.00     0.074 A 
ATOM     54  C   UNL A   1      40.103  28.740  27.786  1.00  0.00     0.031 C 
ATOM     55  C   UNL A   1      37.927  32.391  33.221  1.00  0.00     0.029 A 
ATOM     56  C   UNL A   1      39.075  31.520  33.468  1.00  0.00     0.049 A 
ATOM     57  H   UNL A   1      40.103  30.362  32.075  1.00  0.00     0.167 HD
ATOM     58  C   UNL A   1      41.955  27.717  29.075  1.00  0.00     0.037 A 
ATOM     59  C   UNL A   1      39.681  31.326  34.655  1.00  0.00     0.037 A 
ATOM     60  C   UNL A   1      42.712  27.512  30.280  1.00  0.00     0.049 A 
ATOM     61  C   UNL A   1      40.839  30.363  34.742  1.00  0.00     0.074 A 
ATOM     62  C   UNL A   1      43.830  26.721  30.475  1.00  0.00     0.029 A 
ATOM     63  N   UNL A   1      42.419  28.102  31.502  1.00  0.00    -0.354 N 
ATOM     64  N   UNL A   1      41.393  29.647  33.794  1.00  0.00    -0.248 NA
ATOM     65  C   UNL A   1      41.455  30.182  36.065  1.00  0.00     0.031 C 
ATOM     66  C   UNL A   1      44.184  26.795  31.826  1.00  0.00     0.029 A 
ATOM     67  C   UNL A   1      43.324  27.678  32.459  1.00  0.00     0.049 A 
ATOM     68  H   UNL A   1      41.677  28.730  31.663  1.00  0.00     0.167 HD
ATOM     69  C   UNL A   1      42.444  28.964  34.392  1.00  0.00     0.074 A 
ATOM     70  C   UNL A   1      42.450  29.350  35.788  1.00  0.00     0.031 C 
ATOM     71  C   UNL A   1      43.329  28.100  33.836  1.00  0.00     0.037 A 
BRANCH  58  72
ATOM     72  C   UNL A   1      42.362  26.972  27.838  1.00  0.00     0.064 A 
ATOM     73  C   UNL A   1      43.360  27.454  26.978  1.00  0.00     0.173 A 
ATOM     74  C   UNL A   1      41.760  25.743  27.523  1.00  0.00     0.173 A 
ATOM     75  F   UNL A   1      43.953  28.630  27.225  1.00  0.00    -0.203 F 
ATOM     76  C   UNL A   1      43.722  26.746  25.834  1.00  0.00     0.198 A 
ATOM     77  C   UNL A   1      42.147  25.024  26.395  1.00  0.00     0.198 A 
ATOM     78  F   UNL A   1      40.801  25.237  28.312  1.00  0.00    -0.203 F 
ATOM     79  F   UNL A   1      44.642  27.250  25.000  1.00  0.00    -0.200 F 
ATOM     80  C   UNL A   1      43.122  25.529  25.548  1.00  0.00     0.200 A 
ATOM     81  F   UNL A   1      41.574  23.843  26.127  1.00  0.00    -0.200 F 
ATOM     82  F   UNL A   1      43.476  24.847  24.451  1.00  0.00    -0.200 F 
ENDBRANCH  58  72
BRANCH  59  83
ATOM     83  C   UNL A   1      39.194  32.041  35.864  1.00  0.00     0.064 A 
ATOM     84  C   UNL A   1      38.264  31.446  36.728  1.00  0.00     0.173 A 
ATOM     85  C   UNL A   1      39.633  33.336  36.174  1.00  0.00     0.173 A 
ATOM     86  F   UNL A   1      37.794  30.217  36.462  1.00  0.00    -0.203 F 
ATOM     87  C   UNL A   1      37.777  32.126  37.842  1.00  0.00     0.198 A 
ATOM     88  C   UNL A   1      39.170  34.005  37.305  1.00  0.00     0.198 A 
ATOM     89  F   UNL A   1      40.523  33.951  35.380  1.00  0.00    -0.203 F 
ATOM     90  F   UNL A   1      36.853  31.552  38.624  1.00  0.00    -0.200 F 
ATOM     91  C   UNL A   1      38.235  33.403  38.133  1.00  0.00     0.200 A 
ATOM     92  F   UNL A   1      39.625  35.233  37.589  1.00  0.00    -0.200 F 
ATOM     93  F   UNL A   1      37.770  34.055  39.207  1.00  0.00    -0.200 F 
ENDBRANCH  59  83
BRANCH  71  94
ATOM     94  C   UNL A   1      44.424  27.565  34.712  1.00  0.00     0.064 A 
ATOM     95  C   UNL A   1      44.322  26.324  35.354  1.00  0.00     0.173 A 
ATOM     96  C   UNL A   1      45.627  28.278  34.844  1.00  0.00     0.173 A 
ATOM     97  F   UNL A   1      43.188  25.611  35.268  1.00  0.00    -0.203 F 
ATOM     98  C   UNL A   1      45.379  25.820  36.109  1.00  0.00     0.198 A 
ATOM     99  C   UNL A   1      46.692  27.758  35.574  1.00  0.00     0.198 A 
ATOM    100  F   UNL A   1      45.778  29.467  34.242  1.00  0.00    -0.203 F 
ATOM    101  F   UNL A   1      45.247  24.646  36.742  1.00  0.00    -0.200 F 
ATOM    102  C   UNL A   1      46.565  26.532  36.209  1.00  0.00     0.200 A 
ATOM    103  F   UNL A   1      47.843  28.439  35.655  1.00  0.00    -0.200 F 
ATOM    104  F   UNL A   1      47.587  26.037  36.920  1.00  0.00    -0.200 F 
ENDBRANCH  71  94
ENDBRANCH  45  46
ENDBRANCH  38  40
ENDBRANCH  37  38
ENDBRANCH  36  37
ENDBRANCH  35  36
ENDBRANCH  34  35
ENDBRANCH   1  34
TORSDOF 19
ENDMDL
