MODEL 1
REMARK VINA RESULT:     -11.6      0.000      0.000
REMARK SMILES O=C(/C=C/c1ccc(Br)cc1-n1ccnc1)OCCOCCOC(=O)c1ccc(-c2c3nc(c(-c4c(F)c(F)c(F)c(F)c4F)c4ccc([nH]4)c(-c4c(F)c(F)c(F)c(F)c4F)c4nc(c(-c5c(F)c(F)c(F)c(F)c5F)c5ccc2[nH]5)C=C4)C=C3)cc1
REMARK SMILES IDX 20 1 19 2 18 3 17 4 2 5 1 6 3 7 4 8 5 9 6 10 11 11 7 12
REMARK SMILES IDX 10 13 8 14 9 15 12 16 13 17 16 18 14 19 15 20 21 21 22 22
REMARK SMILES IDX 23 23 24 24 25 25 26 26 27 27 88 28 28 29 87 30 29 31 30 32
REMARK SMILES IDX 31 33 81 34 32 35 86 36 80 37 82 38 33 39 85 40 79 41 78 42
REMARK SMILES IDX 34 44 66 45 46 46 65 47 47 48 50 49 64 50 83 51 48 52 49 53
REMARK SMILES IDX 63 55 84 56 51 57 35 58 36 59 44 60 37 61 38 62 42 63 45 64
REMARK SMILES IDX 39 65 40 66 43 67 41 68 67 69 68 70 76 71 69 72 70 73 74 74
REMARK SMILES IDX 77 75 71 76 72 77 75 78 73 79 52 80 53 81 61 82 54 83 55 84
REMARK SMILES IDX 59 85 62 86 56 87 57 88 60 89 58 90
REMARK H PARENT 82 43 50 54
REMARK Flexibility Score: inf
ROOT
ATOM      1  O   UNL A   1      39.701  20.923  26.089  1.00  0.00    -0.374 OA
ENDROOT
BRANCH   1   2
ATOM      2  C   UNL A   1      38.955  22.141  26.112  1.00  0.00     0.202 C 
BRANCH   2   3
ATOM      3  C   UNL A   1      37.741  22.175  25.188  1.00  0.00     0.261 C 
BRANCH   3   4
ATOM      4  O   UNL A   1      37.009  23.410  25.233  1.00  0.00    -0.460 OA
BRANCH   4   5
ATOM      5  C   UNL A   1      35.784  23.632  25.752  1.00  0.00     0.330 C 
ATOM      6  O   UNL A   1      35.335  22.845  26.585  1.00  0.00    -0.247 OA
BRANCH   5   7
ATOM      7  C   UNL A   1      34.881  24.707  25.283  1.00  0.00     0.094 C 
ATOM      8  C   UNL A   1      34.101  24.810  24.195  1.00  0.00     0.018 C 
BRANCH   8   9
ATOM      9  C   UNL A   1      33.190  25.937  23.936  1.00  0.00    -0.001 A 
ATOM     10  C   UNL A   1      33.657  26.999  23.145  1.00  0.00     0.011 A 
ATOM     11  C   UNL A   1      31.835  25.954  24.326  1.00  0.00     0.055 A 
ATOM     12  C   UNL A   1      32.794  28.011  22.719  1.00  0.00     0.016 A 
ATOM     13  C   UNL A   1      30.963  26.963  23.889  1.00  0.00     0.043 A 
ATOM     14  C   UNL A   1      31.448  27.975  23.071  1.00  0.00     0.020 A 
ATOM     15  Br  UNL A   1      30.268  29.294  22.416  1.00  0.00    -0.051 Br
BRANCH  11  16
ATOM     16  N   UNL A   1      31.284  25.009  25.215  1.00  0.00    -0.306 N 
ATOM     17  C   UNL A   1      30.961  23.716  24.882  1.00  0.00     0.113 A 
ATOM     18  C   UNL A   1      31.414  25.025  26.585  1.00  0.00     0.204 A 
ATOM     19  C   UNL A   1      30.843  23.041  26.076  1.00  0.00     0.131 A 
ATOM     20  N   UNL A   1      31.110  23.868  27.133  1.00  0.00    -0.245 NA
ENDBRANCH  11  16
ENDBRANCH   8   9
ENDBRANCH   5   7
ENDBRANCH   4   5
ENDBRANCH   3   4
ENDBRANCH   2   3
ENDBRANCH   1   2
BRANCH   1  21
ATOM     21  C   UNL A   1      40.973  20.942  26.750  1.00  0.00     0.202 C 
BRANCH  21  22
ATOM     22  C   UNL A   1      41.959  19.953  26.152  1.00  0.00     0.261 C 
BRANCH  22  23
ATOM     23  O   UNL A   1      43.226  20.584  26.157  1.00  0.00    -0.460 OA
BRANCH  23  24
ATOM     24  C   UNL A   1      43.918  20.474  25.008  1.00  0.00     0.338 C 
ATOM     25  O   UNL A   1      44.040  19.462  24.315  1.00  0.00    -0.246 OA
BRANCH  24  26
ATOM     26  C   UNL A   1      44.649  21.730  24.781  1.00  0.00     0.060 A 
ATOM     27  C   UNL A   1      45.644  21.973  25.727  1.00  0.00     0.016 A 
ATOM     28  C   UNL A   1      43.885  22.755  24.218  1.00  0.00     0.016 A 
ATOM     29  C   UNL A   1      45.531  23.130  26.453  1.00  0.00     0.010 A 
ATOM     30  C   UNL A   1      43.688  23.847  25.008  1.00  0.00     0.010 A 
ATOM     31  C   UNL A   1      44.458  23.974  26.163  1.00  0.00    -0.014 A 
BRANCH  31  32
ATOM     32  C   UNL A   1      44.215  25.104  27.020  1.00  0.00     0.031 A 
ATOM     33  C   UNL A   1      45.251  26.134  26.842  1.00  0.00     0.074 A 
ATOM     34  C   UNL A   1      43.088  25.255  27.732  1.00  0.00     0.049 A 
ATOM     35  N   UNL A   1      46.277  26.353  27.594  1.00  0.00    -0.248 NA
ATOM     36  C   UNL A   1      45.309  26.801  25.529  1.00  0.00     0.031 C 
ATOM     37  C   UNL A   1      41.858  24.465  27.689  1.00  0.00     0.029 A 
ATOM     38  N   UNL A   1      42.783  26.258  28.593  1.00  0.00    -0.354 N 
ATOM     39  C   UNL A   1      46.979  27.350  26.929  1.00  0.00     0.074 A 
ATOM     40  C   UNL A   1      46.539  27.308  25.565  1.00  0.00     0.031 C 
ATOM     41  C   UNL A   1      40.875  25.149  28.322  1.00  0.00     0.029 A 
ATOM     42  C   UNL A   1      41.437  26.358  28.901  1.00  0.00     0.049 A 
ATOM     43  H   UNL A   1      43.463  26.864  28.966  1.00  0.00     0.167 HD
ATOM     44  C   UNL A   1      47.554  28.373  27.616  1.00  0.00     0.037 A 
ATOM     45  C   UNL A   1      40.862  27.437  29.491  1.00  0.00     0.037 A 
ATOM     46  C   UNL A   1      47.687  28.036  29.014  1.00  0.00     0.049 A 
ATOM     47  C   UNL A   1      41.958  28.249  30.096  1.00  0.00     0.074 A 
ATOM     48  C   UNL A   1      48.295  27.006  29.709  1.00  0.00     0.029 A 
ATOM     49  N   UNL A   1      46.801  28.607  29.897  1.00  0.00    -0.354 N 
ATOM     50  N   UNL A   1      42.667  27.870  31.124  1.00  0.00    -0.248 NA
ATOM     51  C   UNL A   1      42.574  29.278  29.266  1.00  0.00     0.031 C 
ATOM     52  C   UNL A   1      47.421  26.721  30.799  1.00  0.00     0.029 A 
ATOM     53  C   UNL A   1      46.360  27.627  30.748  1.00  0.00     0.049 A 
ATOM     54  H   UNL A   1      46.531  29.552  29.915  1.00  0.00     0.167 HD
ATOM     55  C   UNL A   1      43.962  28.287  30.841  1.00  0.00     0.074 A 
ATOM     56  C   UNL A   1      43.827  29.223  29.729  1.00  0.00     0.031 C 
ATOM     57  C   UNL A   1      45.040  27.609  31.333  1.00  0.00     0.037 A 
BRANCH  44  58
ATOM     58  C   UNL A   1      47.589  29.801  27.110  1.00  0.00     0.064 A 
ATOM     59  C   UNL A   1      48.807  30.500  27.191  1.00  0.00     0.173 A 
ATOM     60  C   UNL A   1      46.458  30.602  26.815  1.00  0.00     0.173 A 
ATOM     61  F   UNL A   1      49.948  29.850  27.466  1.00  0.00    -0.203 F 
ATOM     62  C   UNL A   1      48.869  31.891  27.089  1.00  0.00     0.198 A 
ATOM     63  C   UNL A   1      46.534  31.982  26.655  1.00  0.00     0.198 A 
ATOM     64  F   UNL A   1      45.211  30.127  26.766  1.00  0.00    -0.203 F 
ATOM     65  F   UNL A   1      50.031  32.519  27.311  1.00  0.00    -0.200 F 
ATOM     66  C   UNL A   1      47.732  32.633  26.831  1.00  0.00     0.200 A 
ATOM     67  F   UNL A   1      45.412  32.677  26.415  1.00  0.00    -0.200 F 
ATOM     68  F   UNL A   1      47.777  33.969  26.799  1.00  0.00    -0.200 F 
ENDBRANCH  44  58
BRANCH  45  69
ATOM     69  C   UNL A   1      39.501  27.987  29.278  1.00  0.00     0.064 A 
ATOM     70  C   UNL A   1      38.610  28.135  30.353  1.00  0.00     0.173 A 
ATOM     71  C   UNL A   1      39.140  28.626  28.075  1.00  0.00     0.173 A 
ATOM     72  F   UNL A   1      38.900  27.597  31.547  1.00  0.00    -0.203 F 
ATOM     73  C   UNL A   1      37.442  28.897  30.240  1.00  0.00     0.198 A 
ATOM     74  C   UNL A   1      37.970  29.376  27.960  1.00  0.00     0.198 A 
ATOM     75  F   UNL A   1      39.960  28.618  27.015  1.00  0.00    -0.203 F 
ATOM     76  F   UNL A   1      36.652  29.070  31.308  1.00  0.00    -0.200 F 
ATOM     77  C   UNL A   1      37.128  29.525  29.046  1.00  0.00     0.200 A 
ATOM     78  F   UNL A   1      37.696  30.009  26.810  1.00  0.00    -0.200 F 
ATOM     79  F   UNL A   1      36.042  30.305  28.954  1.00  0.00    -0.200 F 
ENDBRANCH  45  69
BRANCH  57  80
ATOM     80  C   UNL A   1      44.789  26.592  32.412  1.00  0.00     0.064 A 
ATOM     81  C   UNL A   1      44.667  26.907  33.777  1.00  0.00     0.173 A 
ATOM     82  C   UNL A   1      44.530  25.270  32.030  1.00  0.00     0.173 A 
ATOM     83  F   UNL A   1      44.796  28.168  34.207  1.00  0.00    -0.203 F 
ATOM     84  C   UNL A   1      44.351  25.928  34.718  1.00  0.00     0.198 A 
ATOM     85  C   UNL A   1      44.175  24.304  32.966  1.00  0.00     0.198 A 
ATOM     86  F   UNL A   1      44.577  24.924  30.734  1.00  0.00    -0.203 F 
ATOM     87  F   UNL A   1      44.260  26.250  36.017  1.00  0.00    -0.200 F 
ATOM     88  C   UNL A   1      44.098  24.630  34.311  1.00  0.00     0.200 A 
ATOM     89  F   UNL A   1      43.882  23.060  32.561  1.00  0.00    -0.200 F 
ATOM     90  F   UNL A   1      43.753  23.697  35.210  1.00  0.00    -0.200 F 
ENDBRANCH  57  80
ENDBRANCH  31  32
ENDBRANCH  24  26
ENDBRANCH  23  24
ENDBRANCH  22  23
ENDBRANCH  21  22
ENDBRANCH   1  21
TORSDOF 16
ENDMDL
MODEL 2
REMARK VINA RESULT:     -11.5      4.954     10.380
REMARK SMILES O=C(/C=C/c1ccc(Br)cc1-n1ccnc1)OCCOCCOC(=O)c1ccc(-c2c3nc(c(-c4c(F)c(F)c(F)c(F)c4F)c4ccc([nH]4)c(-c4c(F)c(F)c(F)c(F)c4F)c4nc(c(-c5c(F)c(F)c(F)c(F)c5F)c5ccc2[nH]5)C=C4)C=C3)cc1
REMARK SMILES IDX 20 1 19 2 18 3 17 4 2 5 1 6 3 7 4 8 5 9 6 10 11 11 7 12
REMARK SMILES IDX 10 13 8 14 9 15 12 16 13 17 16 18 14 19 15 20 21 21 22 22
REMARK SMILES IDX 23 23 24 24 25 25 26 26 27 27 88 28 28 29 87 30 29 31 30 32
REMARK SMILES IDX 31 33 81 34 32 35 86 36 80 37 82 38 33 39 85 40 79 41 78 42
REMARK SMILES IDX 34 44 66 45 46 46 65 47 47 48 50 49 64 50 83 51 48 52 49 53
REMARK SMILES IDX 63 55 84 56 51 57 35 58 36 59 44 60 37 61 38 62 42 63 45 64
REMARK SMILES IDX 39 65 40 66 43 67 41 68 67 69 68 70 76 71 69 72 70 73 74 74
REMARK SMILES IDX 77 75 71 76 72 77 75 78 73 79 52 80 53 81 61 82 54 83 55 84
REMARK SMILES IDX 59 85 62 86 56 87 57 88 60 89 58 90
REMARK H PARENT 82 43 50 54
REMARK Flexibility Score: inf
ROOT
ATOM      1  O   UNL A   1      32.952  34.514  29.308  1.00  0.00    -0.374 OA
ENDROOT
BRANCH   1   2
ATOM      2  C   UNL A   1      33.076  35.742  30.027  1.00  0.00     0.202 C 
BRANCH   2   3
ATOM      3  C   UNL A   1      32.629  35.689  31.485  1.00  0.00     0.261 C 
BRANCH   3   4
ATOM      4  O   UNL A   1      33.705  35.510  32.418  1.00  0.00    -0.460 OA
BRANCH   4   5
ATOM      5  C   UNL A   1      34.493  34.428  32.582  1.00  0.00     0.330 C 
ATOM      6  O   UNL A   1      34.142  33.544  33.365  1.00  0.00    -0.247 OA
BRANCH   5   7
ATOM      7  C   UNL A   1      35.832  34.291  31.967  1.00  0.00     0.094 C 
ATOM      8  C   UNL A   1      37.065  34.515  32.448  1.00  0.00     0.018 C 
BRANCH   8   9
ATOM      9  C   UNL A   1      38.304  34.236  31.704  1.00  0.00    -0.001 A 
ATOM     10  C   UNL A   1      38.531  34.933  30.507  1.00  0.00     0.011 A 
ATOM     11  C   UNL A   1      39.338  33.407  32.187  1.00  0.00     0.055 A 
ATOM     12  C   UNL A   1      39.758  34.846  29.845  1.00  0.00     0.016 A 
ATOM     13  C   UNL A   1      40.575  33.327  31.532  1.00  0.00     0.043 A 
ATOM     14  C   UNL A   1      40.781  34.065  30.373  1.00  0.00     0.020 A 
ATOM     15  Br  UNL A   1      42.467  34.023  29.525  1.00  0.00    -0.051 Br
BRANCH  11  16
ATOM     16  N   UNL A   1      39.183  32.569  33.311  1.00  0.00    -0.306 N 
ATOM     17  C   UNL A   1      39.552  32.901  34.592  1.00  0.00     0.113 A 
ATOM     18  C   UNL A   1      38.261  31.555  33.434  1.00  0.00     0.204 A 
ATOM     19  C   UNL A   1      38.887  32.018  35.412  1.00  0.00     0.131 A 
ATOM     20  N   UNL A   1      38.099  31.172  34.681  1.00  0.00    -0.245 NA
ENDBRANCH  11  16
ENDBRANCH   8   9
ENDBRANCH   5   7
ENDBRANCH   4   5
ENDBRANCH   3   4
ENDBRANCH   2   3
ENDBRANCH   1   2
BRANCH   1  21
ATOM     21  C   UNL A   1      34.159  33.976  28.752  1.00  0.00     0.202 C 
BRANCH  21  22
ATOM     22  C   UNL A   1      33.960  32.602  28.139  1.00  0.00     0.261 C 
BRANCH  22  23
ATOM     23  O   UNL A   1      35.217  32.192  27.634  1.00  0.00    -0.460 OA
BRANCH  23  24
ATOM     24  C   UNL A   1      35.548  30.916  27.905  1.00  0.00     0.338 C 
ATOM     25  O   UNL A   1      35.180  29.913  27.290  1.00  0.00    -0.246 OA
BRANCH  24  26
ATOM     26  C   UNL A   1      36.307  30.886  29.165  1.00  0.00     0.060 A 
ATOM     27  C   UNL A   1      37.374  31.782  29.192  1.00  0.00     0.016 A 
ATOM     28  C   UNL A   1      36.365  29.633  29.781  1.00  0.00     0.016 A 
ATOM     29  C   UNL A   1      38.621  31.246  29.385  1.00  0.00     0.010 A 
ATOM     30  C   UNL A   1      37.603  29.069  29.854  1.00  0.00     0.010 A 
ATOM     31  C   UNL A   1      38.710  29.866  29.571  1.00  0.00    -0.014 A 
BRANCH  31  32
ATOM     32  C   UNL A   1      40.012  29.254  29.603  1.00  0.00     0.031 A 
ATOM     33  C   UNL A   1      40.499  29.123  30.986  1.00  0.00     0.074 A 
ATOM     34  C   UNL A   1      40.595  28.714  28.522  1.00  0.00     0.049 A 
ATOM     35  N   UNL A   1      41.337  29.889  31.599  1.00  0.00    -0.248 NA
ATOM     36  C   UNL A   1      39.752  28.211  31.871  1.00  0.00     0.031 C 
ATOM     37  C   UNL A   1      40.033  28.477  27.194  1.00  0.00     0.029 A 
ATOM     38  N   UNL A   1      41.828  28.154  28.443  1.00  0.00    -0.354 N 
ATOM     39  C   UNL A   1      41.368  29.392  32.895  1.00  0.00     0.074 A 
ATOM     40  C   UNL A   1      40.159  28.640  33.064  1.00  0.00     0.031 C 
ATOM     41  C   UNL A   1      40.846  27.630  26.517  1.00  0.00     0.029 A 
ATOM     42  C   UNL A   1      42.025  27.361  27.324  1.00  0.00     0.049 A 
ATOM     43  H   UNL A   1      42.524  28.297  29.124  1.00  0.00     0.167 HD
ATOM     44  C   UNL A   1      42.540  29.300  33.578  1.00  0.00     0.037 A 
ATOM     45  C   UNL A   1      43.047  26.479  27.177  1.00  0.00     0.037 A 
ATOM     46  C   UNL A   1      43.550  30.135  32.970  1.00  0.00     0.049 A 
ATOM     47  C   UNL A   1      44.082  26.826  28.194  1.00  0.00     0.074 A 
ATOM     48  C   UNL A   1      43.639  31.481  32.666  1.00  0.00     0.029 A 
ATOM     49  N   UNL A   1      44.521  29.519  32.217  1.00  0.00    -0.354 N 
ATOM     50  N   UNL A   1      44.808  27.911  28.158  1.00  0.00    -0.248 NA
ATOM     51  C   UNL A   1      43.984  26.192  29.503  1.00  0.00     0.031 C 
ATOM     52  C   UNL A   1      44.331  31.539  31.419  1.00  0.00     0.029 A 
ATOM     53  C   UNL A   1      44.679  30.236  31.059  1.00  0.00     0.049 A 
ATOM     54  H   UNL A   1      45.017  28.705  32.465  1.00  0.00     0.167 HD
ATOM     55  C   UNL A   1      44.902  28.323  29.482  1.00  0.00     0.074 A 
ATOM     56  C   UNL A   1      44.452  27.182  30.271  1.00  0.00     0.031 C 
ATOM     57  C   UNL A   1      45.049  29.644  29.795  1.00  0.00     0.037 A 
BRANCH  44  58
ATOM     58  C   UNL A   1      42.877  28.149  34.505  1.00  0.00     0.064 A 
ATOM     59  C   UNL A   1      43.215  28.452  35.836  1.00  0.00     0.173 A 
ATOM     60  C   UNL A   1      43.154  26.818  34.105  1.00  0.00     0.173 A 
ATOM     61  F   UNL A   1      43.001  29.681  36.330  1.00  0.00    -0.203 F 
ATOM     62  C   UNL A   1      43.869  27.534  36.660  1.00  0.00     0.198 A 
ATOM     63  C   UNL A   1      43.752  25.888  34.949  1.00  0.00     0.198 A 
ATOM     64  F   UNL A   1      42.965  26.368  32.862  1.00  0.00    -0.203 F 
ATOM     65  F   UNL A   1      44.292  27.917  37.871  1.00  0.00    -0.200 F 
ATOM     66  C   UNL A   1      44.146  26.255  36.213  1.00  0.00     0.200 A 
ATOM     67  F   UNL A   1      44.017  24.658  34.485  1.00  0.00    -0.200 F 
ATOM     68  F   UNL A   1      44.830  25.396  36.976  1.00  0.00    -0.200 F 
ENDBRANCH  44  58
BRANCH  45  69
ATOM     69  C   UNL A   1      43.042  25.175  26.472  1.00  0.00     0.064 A 
ATOM     70  C   UNL A   1      43.905  24.941  25.389  1.00  0.00     0.173 A 
ATOM     71  C   UNL A   1      42.392  24.045  27.007  1.00  0.00     0.173 A 
ATOM     72  F   UNL A   1      44.599  25.955  24.849  1.00  0.00    -0.203 F 
ATOM     73  C   UNL A   1      44.126  23.654  24.889  1.00  0.00     0.198 A 
ATOM     74  C   UNL A   1      42.604  22.763  26.500  1.00  0.00     0.198 A 
ATOM     75  F   UNL A   1      41.614  24.145  28.093  1.00  0.00    -0.203 F 
ATOM     76  F   UNL A   1      45.007  23.463  23.898  1.00  0.00    -0.200 F 
ATOM     77  C   UNL A   1      43.481  22.564  25.451  1.00  0.00     0.200 A 
ATOM     78  F   UNL A   1      42.002  21.713  27.077  1.00  0.00    -0.200 F 
ATOM     79  F   UNL A   1      43.737  21.323  25.013  1.00  0.00    -0.200 F 
ENDBRANCH  45  69
BRANCH  57  80
ATOM     80  C   UNL A   1      45.395  30.590  28.678  1.00  0.00     0.064 A 
ATOM     81  C   UNL A   1      44.444  31.201  27.842  1.00  0.00     0.173 A 
ATOM     82  C   UNL A   1      46.729  30.993  28.539  1.00  0.00     0.173 A 
ATOM     83  F   UNL A   1      43.137  30.946  27.985  1.00  0.00    -0.203 F 
ATOM     84  C   UNL A   1      44.823  32.133  26.877  1.00  0.00     0.198 A 
ATOM     85  C   UNL A   1      47.099  31.954  27.602  1.00  0.00     0.198 A 
ATOM     86  F   UNL A   1      47.672  30.485  29.348  1.00  0.00    -0.203 F 
ATOM     87  F   UNL A   1      43.898  32.687  26.078  1.00  0.00    -0.200 F 
ATOM     88  C   UNL A   1      46.149  32.514  26.764  1.00  0.00     0.200 A 
ATOM     89  F   UNL A   1      48.375  32.356  27.530  1.00  0.00    -0.200 F 
ATOM     90  F   UNL A   1      46.508  33.441  25.864  1.00  0.00    -0.200 F 
ENDBRANCH  57  80
ENDBRANCH  31  32
ENDBRANCH  24  26
ENDBRANCH  23  24
ENDBRANCH  22  23
ENDBRANCH  21  22
ENDBRANCH   1  21
TORSDOF 16
ENDMDL
MODEL 3
REMARK VINA RESULT:     -11.3      4.666      9.163
REMARK SMILES O=C(/C=C/c1ccc(Br)cc1-n1ccnc1)OCCOCCOC(=O)c1ccc(-c2c3nc(c(-c4c(F)c(F)c(F)c(F)c4F)c4ccc([nH]4)c(-c4c(F)c(F)c(F)c(F)c4F)c4nc(c(-c5c(F)c(F)c(F)c(F)c5F)c5ccc2[nH]5)C=C4)C=C3)cc1
REMARK SMILES IDX 20 1 19 2 18 3 17 4 2 5 1 6 3 7 4 8 5 9 6 10 11 11 7 12
REMARK SMILES IDX 10 13 8 14 9 15 12 16 13 17 16 18 14 19 15 20 21 21 22 22
REMARK SMILES IDX 23 23 24 24 25 25 26 26 27 27 88 28 28 29 87 30 29 31 30 32
REMARK SMILES IDX 31 33 81 34 32 35 86 36 80 37 82 38 33 39 85 40 79 41 78 42
REMARK SMILES IDX 34 44 66 45 46 46 65 47 47 48 50 49 64 50 83 51 48 52 49 53
REMARK SMILES IDX 63 55 84 56 51 57 35 58 36 59 44 60 37 61 38 62 42 63 45 64
REMARK SMILES IDX 39 65 40 66 43 67 41 68 67 69 68 70 76 71 69 72 70 73 74 74
REMARK SMILES IDX 77 75 71 76 72 77 75 78 73 79 52 80 53 81 61 82 54 83 55 84
REMARK SMILES IDX 59 85 62 86 56 87 57 88 60 89 58 90
REMARK H PARENT 82 43 50 54
REMARK Flexibility Score: inf
ROOT
ATOM      1  O   UNL A   1      32.526  29.589  25.081  1.00  0.00    -0.374 OA
ENDROOT
BRANCH   1   2
ATOM      2  C   UNL A   1      33.105  29.027  23.903  1.00  0.00     0.202 C 
BRANCH   2   3
ATOM      3  C   UNL A   1      32.965  27.513  23.770  1.00  0.00     0.261 C 
BRANCH   3   4
ATOM      4  O   UNL A   1      33.667  26.959  22.646  1.00  0.00    -0.460 OA
BRANCH   4   5
ATOM      5  C   UNL A   1      33.395  25.822  21.974  1.00  0.00     0.330 C 
ATOM      6  O   UNL A   1      33.150  25.883  20.769  1.00  0.00    -0.247 OA
BRANCH   5   7
ATOM      7  C   UNL A   1      33.248  24.503  22.627  1.00  0.00     0.094 C 
ATOM      8  C   UNL A   1      34.142  23.548  22.929  1.00  0.00     0.018 C 
BRANCH   8   9
ATOM      9  C   UNL A   1      33.818  22.318  23.670  1.00  0.00    -0.001 A 
ATOM     10  C   UNL A   1      32.545  21.753  23.492  1.00  0.00     0.011 A 
ATOM     11  C   UNL A   1      34.752  21.602  24.446  1.00  0.00     0.055 A 
ATOM     12  C   UNL A   1      32.234  20.499  24.026  1.00  0.00     0.016 A 
ATOM     13  C   UNL A   1      34.447  20.338  24.972  1.00  0.00     0.043 A 
ATOM     14  C   UNL A   1      33.193  19.788  24.740  1.00  0.00     0.020 A 
ATOM     15  Br  UNL A   1      32.798  18.057  25.379  1.00  0.00    -0.051 Br
BRANCH  11  16
ATOM     16  N   UNL A   1      36.017  22.121  24.791  1.00  0.00    -0.306 N 
ATOM     17  C   UNL A   1      36.233  23.089  25.741  1.00  0.00     0.113 A 
ATOM     18  C   UNL A   1      37.221  21.474  24.631  1.00  0.00     0.204 A 
ATOM     19  C   UNL A   1      37.573  23.020  26.047  1.00  0.00     0.131 A 
ATOM     20  N   UNL A   1      38.185  22.022  25.338  1.00  0.00    -0.245 NA
ENDBRANCH  11  16
ENDBRANCH   8   9
ENDBRANCH   5   7
ENDBRANCH   4   5
ENDBRANCH   3   4
ENDBRANCH   2   3
ENDBRANCH   1   2
BRANCH   1  21
ATOM     21  C   UNL A   1      33.430  29.903  26.149  1.00  0.00     0.202 C 
BRANCH  21  22
ATOM     22  C   UNL A   1      32.772  30.706  27.257  1.00  0.00     0.261 C 
BRANCH  22  23
ATOM     23  O   UNL A   1      33.732  31.639  27.712  1.00  0.00    -0.460 OA
BRANCH  23  24
ATOM     24  C   UNL A   1      33.240  32.852  28.027  1.00  0.00     0.338 C 
ATOM     25  O   UNL A   1      32.257  33.401  27.525  1.00  0.00    -0.246 OA
BRANCH  24  26
ATOM     26  C   UNL A   1      34.162  33.500  28.972  1.00  0.00     0.060 A 
ATOM     27  C   UNL A   1      35.142  34.272  28.351  1.00  0.00     0.016 A 
ATOM     28  C   UNL A   1      34.410  32.770  30.138  1.00  0.00     0.016 A 
ATOM     29  C   UNL A   1      36.445  33.923  28.596  1.00  0.00     0.010 A 
ATOM     30  C   UNL A   1      35.690  32.332  30.299  1.00  0.00     0.010 A 
ATOM     31  C   UNL A   1      36.677  32.855  29.465  1.00  0.00    -0.014 A 
BRANCH  31  32
ATOM     32  C   UNL A   1      38.018  32.355  29.606  1.00  0.00     0.031 A 
ATOM     33  C   UNL A   1      38.115  30.964  29.134  1.00  0.00     0.074 A 
ATOM     34  C   UNL A   1      39.059  33.131  29.944  1.00  0.00     0.049 A 
ATOM     35  N   UNL A   1      38.118  29.891  29.850  1.00  0.00    -0.248 NA
ATOM     36  C   UNL A   1      37.892  30.732  27.695  1.00  0.00     0.031 C 
ATOM     37  C   UNL A   1      39.117  34.586  30.077  1.00  0.00     0.029 A 
ATOM     38  N   UNL A   1      40.345  32.749  30.141  1.00  0.00    -0.354 N 
ATOM     39  C   UNL A   1      38.119  28.861  28.919  1.00  0.00     0.074 A 
ATOM     40  C   UNL A   1      37.633  29.426  27.695  1.00  0.00     0.031 C 
ATOM     41  C   UNL A   1      40.416  34.972  30.115  1.00  0.00     0.029 A 
ATOM     42  C   UNL A   1      41.260  33.788  30.120  1.00  0.00     0.049 A 
ATOM     43  H   UNL A   1      40.606  31.811  30.284  1.00  0.00     0.167 HD
ATOM     44  C   UNL A   1      38.881  27.751  29.110  1.00  0.00     0.037 A 
ATOM     45  C   UNL A   1      42.603  33.628  30.000  1.00  0.00     0.037 A 
ATOM     46  C   UNL A   1      39.279  27.637  30.494  1.00  0.00     0.049 A 
ATOM     47  C   UNL A   1      42.909  32.202  30.314  1.00  0.00     0.074 A 
ATOM     48  C   UNL A   1      38.597  27.581  31.696  1.00  0.00     0.029 A 
ATOM     49  N   UNL A   1      40.574  27.969  30.817  1.00  0.00    -0.354 N 
ATOM     50  N   UNL A   1      42.796  31.674  31.503  1.00  0.00    -0.248 NA
ATOM     51  C   UNL A   1      42.895  31.248  29.211  1.00  0.00     0.031 C 
ATOM     52  C   UNL A   1      39.393  28.326  32.615  1.00  0.00     0.029 A 
ATOM     53  C   UNL A   1      40.543  28.747  31.945  1.00  0.00     0.049 A 
ATOM     54  H   UNL A   1      41.381  27.695  30.325  1.00  0.00     0.167 HD
ATOM     55  C   UNL A   1      42.281  30.402  31.283  1.00  0.00     0.074 A 
ATOM     56  C   UNL A   1      42.445  30.164  29.853  1.00  0.00     0.031 C 
ATOM     57  C   UNL A   1      41.501  29.790  32.224  1.00  0.00     0.037 A 
BRANCH  44  58
ATOM     58  C   UNL A   1      39.606  27.034  27.988  1.00  0.00     0.064 A 
ATOM     59  C   UNL A   1      39.597  25.627  27.990  1.00  0.00     0.173 A 
ATOM     60  C   UNL A   1      40.524  27.625  27.085  1.00  0.00     0.173 A 
ATOM     61  F   UNL A   1      38.770  24.953  28.804  1.00  0.00    -0.203 F 
ATOM     62  C   UNL A   1      40.501  24.880  27.232  1.00  0.00     0.198 A 
ATOM     63  C   UNL A   1      41.383  26.875  26.288  1.00  0.00     0.198 A 
ATOM     64  F   UNL A   1      40.722  28.942  26.993  1.00  0.00    -0.203 F 
ATOM     65  F   UNL A   1      40.543  23.550  27.375  1.00  0.00    -0.200 F 
ATOM     66  C   UNL A   1      41.400  25.505  26.388  1.00  0.00     0.200 A 
ATOM     67  F   UNL A   1      42.251  27.508  25.485  1.00  0.00    -0.200 F 
ATOM     68  F   UNL A   1      42.311  24.796  25.711  1.00  0.00    -0.200 F 
ENDBRANCH  44  58
BRANCH  45  69
ATOM     69  C   UNL A   1      43.577  34.508  29.312  1.00  0.00     0.064 A 
ATOM     70  C   UNL A   1      44.829  34.781  29.887  1.00  0.00     0.173 A 
ATOM     71  C   UNL A   1      43.415  34.883  27.963  1.00  0.00     0.173 A 
ATOM     72  F   UNL A   1      45.083  34.417  31.152  1.00  0.00    -0.203 F 
ATOM     73  C   UNL A   1      45.864  35.368  29.151  1.00  0.00     0.198 A 
ATOM     74  C   UNL A   1      44.444  35.478  27.233  1.00  0.00     0.198 A 
ATOM     75  F   UNL A   1      42.290  34.591  27.295  1.00  0.00    -0.203 F 
ATOM     76  F   UNL A   1      47.065  35.551  29.715  1.00  0.00    -0.200 F 
ATOM     77  C   UNL A   1      45.674  35.707  27.821  1.00  0.00     0.200 A 
ATOM     78  F   UNL A   1      44.258  35.767  25.937  1.00  0.00    -0.200 F 
ATOM     79  F   UNL A   1      46.682  36.213  27.098  1.00  0.00    -0.200 F 
ENDBRANCH  45  69
BRANCH  57  80
ATOM     80  C   UNL A   1      41.462  30.400  33.598  1.00  0.00     0.064 A 
ATOM     81  C   UNL A   1      40.569  31.416  33.982  1.00  0.00     0.173 A 
ATOM     82  C   UNL A   1      42.268  29.839  34.596  1.00  0.00     0.173 A 
ATOM     83  F   UNL A   1      39.693  31.930  33.109  1.00  0.00    -0.203 F 
ATOM     84  C   UNL A   1      40.526  31.882  35.295  1.00  0.00     0.198 A 
ATOM     85  C   UNL A   1      42.194  30.278  35.915  1.00  0.00     0.198 A 
ATOM     86  F   UNL A   1      43.099  28.828  34.299  1.00  0.00    -0.203 F 
ATOM     87  F   UNL A   1      39.679  32.866  35.632  1.00  0.00    -0.200 F 
ATOM     88  C   UNL A   1      41.334  31.307  36.261  1.00  0.00     0.200 A 
ATOM     89  F   UNL A   1      42.941  29.685  36.856  1.00  0.00    -0.200 F 
ATOM     90  F   UNL A   1      41.264  31.725  37.533  1.00  0.00    -0.200 F 
ENDBRANCH  57  80
ENDBRANCH  31  32
ENDBRANCH  24  26
ENDBRANCH  23  24
ENDBRANCH  22  23
ENDBRANCH  21  22
ENDBRANCH   1  21
TORSDOF 16
ENDMDL
