MODEL 1
REMARK VINA RESULT:     -11.9      0.000      0.000
REMARK SMILES COc1cc(/C=C2/S/C(=[NH+]\C(C)=O)NC2=O)cc(Br)c1OCC(=O)OCCOCCOC(=O)c1ccc(-c2c3nc(c(-c4c(F)c(F)c(F)c(F)c4F)c4ccc([nH]4)c(-c4c(F)c(F)c(F)c(F)c4F)c4nc(c(-c5c(F)c(F)c(F)c(F)c5F)c5ccc2[nH]5)C=C4)C=C3)cc1
REMARK SMILES IDX 27 1 26 2 25 3 23 4 24 5 22 6 21 7 20 8 3 9 4 10 5 11 18 12
REMARK SMILES IDX 17 13 19 14 2 15 1 16 6 17 7 18 8 19 15 20 9 21 14 22 16 23
REMARK SMILES IDX 10 24 11 26 12 28 13 29 28 30 29 31 30 32 31 33 32 34 33 35
REMARK SMILES IDX 34 36 35 37 96 38 36 39 95 40 37 41 38 42 39 43 89 44 40 45
REMARK SMILES IDX 94 46 88 47 90 48 41 49 93 50 87 51 86 52 42 54 74 55 54 56
REMARK SMILES IDX 73 57 55 58 58 59 72 60 91 61 56 62 57 63 71 65 92 66 59 67
REMARK SMILES IDX 43 68 44 69 52 70 45 71 46 72 50 73 53 74 47 75 48 76 51 77
REMARK SMILES IDX 49 78 75 79 76 80 84 81 77 82 78 83 82 84 85 85 79 86 80 87
REMARK SMILES IDX 83 88 81 89 60 90 61 91 69 92 62 93 63 94 67 95 70 96 64 97
REMARK SMILES IDX 65 98 68 99 66 100
REMARK H PARENT 14 25 10 27 90 53 58 64
REMARK Flexibility Score: inf
ROOT
ATOM      1  C   UNL A   1      36.224  21.848  24.872  1.00  0.00     0.202 C 
ENDROOT
BRANCH   1   2
ATOM      2  C   UNL A   1      34.833  22.260  25.359  1.00  0.00     0.261 C 
BRANCH   2   3
ATOM      3  O   UNL A   1      33.911  21.171  25.583  1.00  0.00    -0.461 OA
BRANCH   3   4
ATOM      4  C   UNL A   1      32.795  21.152  24.797  1.00  0.00     0.344 C 
ATOM      5  O   UNL A   1      31.850  20.388  24.967  1.00  0.00    -0.248 OA
BRANCH   4   6
ATOM      6  C   UNL A   1      32.886  22.098  23.578  1.00  0.00     0.352 C 
BRANCH   6   7
ATOM      7  O   UNL A   1      32.255  23.346  23.407  1.00  0.00    -0.477 OA
BRANCH   7   8
ATOM      8  C   UNL A   1      32.438  24.475  24.159  1.00  0.00     0.176 A 
ATOM      9  C   UNL A   1      33.210  25.460  23.481  1.00  0.00     0.162 A 
ATOM     10  C   UNL A   1      33.696  26.594  24.157  1.00  0.00     0.058 A 
ATOM     11  C   UNL A   1      33.413  26.796  25.512  1.00  0.00    -0.019 A 
ATOM     12  C   UNL A   1      32.047  24.752  25.475  1.00  0.00     0.064 A 
ATOM     13  C   UNL A   1      32.547  25.897  26.144  1.00  0.00     0.028 A 
ATOM     14  Br  UNL A   1      30.826  23.707  26.482  1.00  0.00    -0.047 Br
BRANCH   9  15
ATOM     15  O   UNL A   1      33.456  25.201  22.151  1.00  0.00    -0.493 OA
ATOM     16  C   UNL A   1      32.624  25.802  21.172  1.00  0.00     0.278 C 
ENDBRANCH   9  15
BRANCH  11  17
ATOM     17  C   UNL A   1      34.024  27.948  26.209  1.00  0.00     0.032 C 
ATOM     18  C   UNL A   1      33.441  29.127  26.489  1.00  0.00     0.110 C 
ATOM     19  S   UNL A   1      34.175  30.397  27.424  1.00  0.00     0.007 SA
ATOM     20  C   UNL A   1      32.093  29.591  26.078  1.00  0.00     0.346 C 
ATOM     21  C   UNL A   1      32.796  31.448  27.270  1.00  0.00     0.324 C 
ATOM     22  N   UNL A   1      31.776  30.749  26.712  1.00  0.00    -0.199 N 
ATOM     23  O   UNL A   1      31.448  29.124  25.158  1.00  0.00    -0.240 OA
ATOM     24  N   UNL A   1      32.574  32.682  27.521  1.00  0.00    -0.204 N 
ATOM     25  H   UNL A   1      30.846  31.067  26.766  1.00  0.00     0.316 HD
ATOM     26  C   UNL A   1      33.382  33.671  28.002  1.00  0.00     0.304 C 
ATOM     27  H   UNL A   1      31.652  32.971  27.331  1.00  0.00     0.316 HD
ATOM     28  C   UNL A   1      34.882  33.602  27.988  1.00  0.00     0.144 C 
ATOM     29  O   UNL A   1      32.877  34.726  28.390  1.00  0.00    -0.247 OA
ENDBRANCH  11  17
ENDBRANCH   7   8
ENDBRANCH   6   7
ENDBRANCH   4   6
ENDBRANCH   3   4
ENDBRANCH   2   3
ENDBRANCH   1   2
BRANCH   1  30
ATOM     30  O   UNL A   1      36.925  20.880  25.624  1.00  0.00    -0.374 OA
BRANCH  30  31
ATOM     31  C   UNL A   1      37.758  19.928  24.976  1.00  0.00     0.202 C 
BRANCH  31  32
ATOM     32  C   UNL A   1      39.165  19.625  25.496  1.00  0.00     0.261 C 
BRANCH  32  33
ATOM     33  O   UNL A   1      39.986  20.703  25.879  1.00  0.00    -0.460 OA
BRANCH  33  34
ATOM     34  C   UNL A   1      40.716  20.575  26.994  1.00  0.00     0.338 C 
ATOM     35  O   UNL A   1      41.074  19.586  27.600  1.00  0.00    -0.246 OA
BRANCH  34  36
ATOM     36  C   UNL A   1      41.042  21.967  27.293  1.00  0.00     0.060 A 
ATOM     37  C   UNL A   1      40.409  22.970  26.563  1.00  0.00     0.016 A 
ATOM     38  C   UNL A   1      41.859  22.247  28.396  1.00  0.00     0.016 A 
ATOM     39  C   UNL A   1      40.654  24.292  26.902  1.00  0.00     0.010 A 
ATOM     40  C   UNL A   1      42.085  23.569  28.745  1.00  0.00     0.010 A 
ATOM     41  C   UNL A   1      41.518  24.589  27.968  1.00  0.00    -0.014 A 
BRANCH  41  42
ATOM     42  C   UNL A   1      41.969  25.979  28.153  1.00  0.00     0.031 A 
ATOM     43  C   UNL A   1      43.294  26.370  27.572  1.00  0.00     0.074 A 
ATOM     44  C   UNL A   1      41.179  26.864  28.781  1.00  0.00     0.049 A 
ATOM     45  N   UNL A   1      43.893  27.529  27.580  1.00  0.00    -0.248 NA
ATOM     46  C   UNL A   1      44.052  25.304  26.891  1.00  0.00     0.031 C 
ATOM     47  C   UNL A   1      39.868  26.564  29.358  1.00  0.00     0.029 A 
ATOM     48  N   UNL A   1      41.363  28.196  29.027  1.00  0.00    -0.354 N 
ATOM     49  C   UNL A   1      45.093  27.333  26.910  1.00  0.00     0.074 A 
ATOM     50  C   UNL A   1      45.165  25.934  26.553  1.00  0.00     0.031 C 
ATOM     51  C   UNL A   1      39.358  27.690  29.882  1.00  0.00     0.029 A 
ATOM     52  C   UNL A   1      40.321  28.774  29.707  1.00  0.00     0.049 A 
ATOM     53  H   UNL A   1      42.165  28.692  28.746  1.00  0.00     0.167 HD
ATOM     54  C   UNL A   1      46.039  28.250  26.605  1.00  0.00     0.037 A 
ATOM     55  C   UNL A   1      40.180  30.040  30.143  1.00  0.00     0.037 A 
ATOM     56  C   UNL A   1      45.941  29.636  26.971  1.00  0.00     0.049 A 
ATOM     57  C   UNL A   1      41.275  31.027  29.838  1.00  0.00     0.074 A 
ATOM     58  C   UNL A   1      46.829  30.663  26.712  1.00  0.00     0.029 A 
ATOM     59  N   UNL A   1      44.885  30.186  27.688  1.00  0.00    -0.354 N 
ATOM     60  N   UNL A   1      42.396  30.847  29.179  1.00  0.00    -0.248 NA
ATOM     61  C   UNL A   1      41.084  32.397  30.331  1.00  0.00     0.031 C 
ATOM     62  C   UNL A   1      46.340  31.821  27.325  1.00  0.00     0.029 A 
ATOM     63  C   UNL A   1      45.113  31.534  27.903  1.00  0.00     0.049 A 
ATOM     64  H   UNL A   1      44.093  29.690  27.996  1.00  0.00     0.167 HD
ATOM     65  C   UNL A   1      43.026  32.083  29.147  1.00  0.00     0.074 A 
ATOM     66  C   UNL A   1      42.153  33.008  29.841  1.00  0.00     0.031 C 
ATOM     67  C   UNL A   1      44.216  32.429  28.594  1.00  0.00     0.037 A 
BRANCH  54  68
ATOM     68  C   UNL A   1      47.259  27.771  25.872  1.00  0.00     0.064 A 
ATOM     69  C   UNL A   1      47.332  27.767  24.470  1.00  0.00     0.173 A 
ATOM     70  C   UNL A   1      48.378  27.317  26.585  1.00  0.00     0.173 A 
ATOM     71  F   UNL A   1      46.281  28.169  23.738  1.00  0.00    -0.203 F 
ATOM     72  C   UNL A   1      48.465  27.299  23.811  1.00  0.00     0.198 A 
ATOM     73  C   UNL A   1      49.524  26.882  25.924  1.00  0.00     0.198 A 
ATOM     74  F   UNL A   1      48.362  27.293  27.927  1.00  0.00    -0.203 F 
ATOM     75  F   UNL A   1      48.488  27.249  22.472  1.00  0.00    -0.200 F 
ATOM     76  C   UNL A   1      49.563  26.865  24.538  1.00  0.00     0.200 A 
ATOM     77  F   UNL A   1      50.587  26.472  26.629  1.00  0.00    -0.200 F 
ATOM     78  F   UNL A   1      50.656  26.420  23.903  1.00  0.00    -0.200 F 
ENDBRANCH  54  68
BRANCH  55  79
ATOM     79  C   UNL A   1      38.965  30.435  30.900  1.00  0.00     0.064 A 
ATOM     80  C   UNL A   1      37.796  30.840  30.241  1.00  0.00     0.173 A 
ATOM     81  C   UNL A   1      38.947  30.420  32.304  1.00  0.00     0.173 A 
ATOM     82  F   UNL A   1      37.765  30.887  28.901  1.00  0.00    -0.203 F 
ATOM     83  C   UNL A   1      36.667  31.238  30.955  1.00  0.00     0.198 A 
ATOM     84  C   UNL A   1      37.808  30.788  33.016  1.00  0.00     0.198 A 
ATOM     85  F   UNL A   1      40.037  30.036  32.985  1.00  0.00    -0.203 F 
ATOM     86  F   UNL A   1      35.580  31.669  30.299  1.00  0.00    -0.200 F 
ATOM     87  C   UNL A   1      36.672  31.205  32.341  1.00  0.00     0.200 A 
ATOM     88  F   UNL A   1      37.812  30.736  34.355  1.00  0.00    -0.200 F 
ATOM     89  F   UNL A   1      35.584  31.584  33.027  1.00  0.00    -0.200 F 
ENDBRANCH  55  79
BRANCH  67  90
ATOM     90  C   UNL A   1      44.614  33.874  28.675  1.00  0.00     0.064 A 
ATOM     91  C   UNL A   1      45.434  34.359  29.704  1.00  0.00     0.173 A 
ATOM     92  C   UNL A   1      44.197  34.777  27.685  1.00  0.00     0.173 A 
ATOM     93  F   UNL A   1      45.851  33.539  30.681  1.00  0.00    -0.203 F 
ATOM     94  C   UNL A   1      45.792  35.704  29.758  1.00  0.00     0.198 A 
ATOM     95  C   UNL A   1      44.589  36.111  27.720  1.00  0.00     0.198 A 
ATOM     96  F   UNL A   1      43.421  34.361  26.672  1.00  0.00    -0.203 F 
ATOM     97  F   UNL A   1      46.525  36.159  30.783  1.00  0.00    -0.200 F 
ATOM     98  C   UNL A   1      45.375  36.576  28.763  1.00  0.00     0.200 A 
ATOM     99  F   UNL A   1      44.202  36.947  26.747  1.00  0.00    -0.200 F 
ATOM    100  F   UNL A   1      45.728  37.868  28.812  1.00  0.00    -0.200 F 
ENDBRANCH  67  90
ENDBRANCH  41  42
ENDBRANCH  34  36
ENDBRANCH  33  34
ENDBRANCH  32  33
ENDBRANCH  31  32
ENDBRANCH  30  31
ENDBRANCH   1  30
TORSDOF 18
ENDMDL
MODEL 2
REMARK VINA RESULT:     -11.1      1.102      2.129
REMARK SMILES COc1cc(/C=C2/S/C(=[NH+]\C(C)=O)NC2=O)cc(Br)c1OCC(=O)OCCOCCOC(=O)c1ccc(-c2c3nc(c(-c4c(F)c(F)c(F)c(F)c4F)c4ccc([nH]4)c(-c4c(F)c(F)c(F)c(F)c4F)c4nc(c(-c5c(F)c(F)c(F)c(F)c5F)c5ccc2[nH]5)C=C4)C=C3)cc1
REMARK SMILES IDX 27 1 26 2 25 3 23 4 24 5 22 6 21 7 20 8 3 9 4 10 5 11 18 12
REMARK SMILES IDX 17 13 19 14 2 15 1 16 6 17 7 18 8 19 15 20 9 21 14 22 16 23
REMARK SMILES IDX 10 24 11 26 12 28 13 29 28 30 29 31 30 32 31 33 32 34 33 35
REMARK SMILES IDX 34 36 35 37 96 38 36 39 95 40 37 41 38 42 39 43 89 44 40 45
REMARK SMILES IDX 94 46 88 47 90 48 41 49 93 50 87 51 86 52 42 54 74 55 54 56
REMARK SMILES IDX 73 57 55 58 58 59 72 60 91 61 56 62 57 63 71 65 92 66 59 67
REMARK SMILES IDX 43 68 44 69 52 70 45 71 46 72 50 73 53 74 47 75 48 76 51 77
REMARK SMILES IDX 49 78 75 79 76 80 84 81 77 82 78 83 82 84 85 85 79 86 80 87
REMARK SMILES IDX 83 88 81 89 60 90 61 91 69 92 62 93 63 94 67 95 70 96 64 97
REMARK SMILES IDX 65 98 68 99 66 100
REMARK H PARENT 14 25 10 27 90 53 58 64
REMARK Flexibility Score: inf
ROOT
ATOM      1  C   UNL A   1      35.852  22.709  25.091  1.00  0.00     0.202 C 
ENDROOT
BRANCH   1   2
ATOM      2  C   UNL A   1      34.359  22.437  25.286  1.00  0.00     0.261 C 
BRANCH   2   3
ATOM      3  O   UNL A   1      33.889  21.176  24.762  1.00  0.00    -0.461 OA
BRANCH   3   4
ATOM      4  C   UNL A   1      32.537  21.045  24.622  1.00  0.00     0.344 C 
ATOM      5  O   UNL A   1      31.906  20.049  24.961  1.00  0.00    -0.248 OA
BRANCH   4   6
ATOM      6  C   UNL A   1      31.881  22.224  23.866  1.00  0.00     0.352 C 
BRANCH   6   7
ATOM      7  O   UNL A   1      31.055  23.234  24.397  1.00  0.00    -0.477 OA
BRANCH   7   8
ATOM      8  C   UNL A   1      31.397  24.538  24.639  1.00  0.00     0.176 A 
ATOM      9  C   UNL A   1      31.021  24.965  25.943  1.00  0.00     0.162 A 
ATOM     10  C   UNL A   1      31.082  26.323  26.309  1.00  0.00     0.058 A 
ATOM     11  C   UNL A   1      31.535  27.288  25.404  1.00  0.00    -0.019 A 
ATOM     12  C   UNL A   1      31.975  25.489  23.788  1.00  0.00     0.064 A 
ATOM     13  C   UNL A   1      32.026  26.853  24.168  1.00  0.00     0.028 A 
ATOM     14  Br  UNL A   1      32.766  25.097  22.109  1.00  0.00    -0.047 Br
BRANCH   9  15
ATOM     15  O   UNL A   1      30.581  23.968  26.784  1.00  0.00    -0.493 OA
ATOM     16  C   UNL A   1      31.540  23.147  27.432  1.00  0.00     0.278 C 
ENDBRANCH   9  15
BRANCH  11  17
ATOM     17  C   UNL A   1      31.489  28.714  25.793  1.00  0.00     0.032 C 
ATOM     18  C   UNL A   1      32.509  29.461  26.253  1.00  0.00     0.110 C 
ATOM     19  S   UNL A   1      32.419  31.168  26.574  1.00  0.00     0.007 SA
ATOM     20  C   UNL A   1      33.886  29.012  26.577  1.00  0.00     0.346 C 
ATOM     21  C   UNL A   1      34.076  31.262  27.097  1.00  0.00     0.324 C 
ATOM     22  N   UNL A   1      34.686  30.081  26.823  1.00  0.00    -0.199 N 
ATOM     23  O   UNL A   1      34.208  27.860  26.796  1.00  0.00    -0.240 OA
ATOM     24  N   UNL A   1      34.784  32.147  27.689  1.00  0.00    -0.204 N 
ATOM     25  H   UNL A   1      35.667  30.003  26.803  1.00  0.00     0.316 HD
ATOM     26  C   UNL A   1      34.473  33.388  28.166  1.00  0.00     0.304 C 
ATOM     27  H   UNL A   1      35.723  31.886  27.826  1.00  0.00     0.316 HD
ATOM     28  C   UNL A   1      33.071  33.848  28.441  1.00  0.00     0.144 C 
ATOM     29  O   UNL A   1      35.384  34.157  28.482  1.00  0.00    -0.247 OA
ENDBRANCH  11  17
ENDBRANCH   7   8
ENDBRANCH   6   7
ENDBRANCH   4   6
ENDBRANCH   3   4
ENDBRANCH   2   3
ENDBRANCH   1   2
BRANCH   1  30
ATOM     30  O   UNL A   1      36.768  21.860  25.750  1.00  0.00    -0.374 OA
BRANCH  30  31
ATOM     31  C   UNL A   1      37.783  21.188  25.017  1.00  0.00     0.202 C 
BRANCH  31  32
ATOM     32  C   UNL A   1      38.854  20.357  25.729  1.00  0.00     0.261 C 
BRANCH  32  33
ATOM     33  O   UNL A   1      40.138  20.910  25.886  1.00  0.00    -0.460 OA
BRANCH  33  34
ATOM     34  C   UNL A   1      40.739  20.783  27.075  1.00  0.00     0.338 C 
ATOM     35  O   UNL A   1      40.988  19.798  27.739  1.00  0.00    -0.246 OA
BRANCH  34  36
ATOM     36  C   UNL A   1      41.089  22.168  27.376  1.00  0.00     0.060 A 
ATOM     37  C   UNL A   1      40.479  23.184  26.644  1.00  0.00     0.016 A 
ATOM     38  C   UNL A   1      41.907  22.433  28.483  1.00  0.00     0.016 A 
ATOM     39  C   UNL A   1      40.747  24.501  26.985  1.00  0.00     0.010 A 
ATOM     40  C   UNL A   1      42.156  23.750  28.834  1.00  0.00     0.010 A 
ATOM     41  C   UNL A   1      41.611  24.782  28.055  1.00  0.00    -0.014 A 
BRANCH  41  42
ATOM     42  C   UNL A   1      42.088  26.162  28.242  1.00  0.00     0.031 A 
ATOM     43  C   UNL A   1      43.400  26.542  27.626  1.00  0.00     0.074 A 
ATOM     44  C   UNL A   1      41.330  27.050  28.904  1.00  0.00     0.049 A 
ATOM     45  N   UNL A   1      44.016  27.693  27.629  1.00  0.00    -0.248 NA
ATOM     46  C   UNL A   1      44.122  25.474  26.909  1.00  0.00     0.031 C 
ATOM     47  C   UNL A   1      40.033  26.762  29.517  1.00  0.00     0.029 A 
ATOM     48  N   UNL A   1      41.540  28.377  29.161  1.00  0.00    -0.354 N 
ATOM     49  C   UNL A   1      45.191  27.488  26.920  1.00  0.00     0.074 A 
ATOM     50  C   UNL A   1      45.233  26.093  26.544  1.00  0.00     0.031 C 
ATOM     51  C   UNL A   1      39.556  27.888  30.070  1.00  0.00     0.029 A 
ATOM     52  C   UNL A   1      40.527  28.961  29.879  1.00  0.00     0.049 A 
ATOM     53  H   UNL A   1      42.341  28.865  28.861  1.00  0.00     0.167 HD
ATOM     54  C   UNL A   1      46.141  28.395  26.597  1.00  0.00     0.037 A 
ATOM     55  C   UNL A   1      40.418  30.223  30.334  1.00  0.00     0.037 A 
ATOM     56  C   UNL A   1      46.074  29.778  26.983  1.00  0.00     0.049 A 
ATOM     57  C   UNL A   1      41.518  31.199  30.007  1.00  0.00     0.074 A 
ATOM     58  C   UNL A   1      46.968  30.796  26.709  1.00  0.00     0.029 A 
ATOM     59  N   UNL A   1      45.049  30.334  27.738  1.00  0.00    -0.354 N 
ATOM     60  N   UNL A   1      42.615  31.011  29.312  1.00  0.00    -0.248 NA
ATOM     61  C   UNL A   1      41.361  32.565  30.522  1.00  0.00     0.031 C 
ATOM     62  C   UNL A   1      46.515  31.953  27.350  1.00  0.00     0.029 A 
ATOM     63  C   UNL A   1      45.301  31.676  27.962  1.00  0.00     0.049 A 
ATOM     64  H   UNL A   1      44.258  29.845  28.065  1.00  0.00     0.167 HD
ATOM     65  C   UNL A   1      43.262  32.239  29.276  1.00  0.00     0.074 A 
ATOM     66  C   UNL A   1      42.423  33.167  30.007  1.00  0.00     0.031 C 
ATOM     67  C   UNL A   1      44.439  32.575  28.690  1.00  0.00     0.037 A 
BRANCH  54  68
ATOM     68  C   UNL A   1      47.331  27.909  25.822  1.00  0.00     0.064 A 
ATOM     69  C   UNL A   1      48.524  27.523  26.454  1.00  0.00     0.173 A 
ATOM     70  C   UNL A   1      47.274  27.817  24.423  1.00  0.00     0.173 A 
ATOM     71  F   UNL A   1      48.640  27.612  27.788  1.00  0.00    -0.203 F 
ATOM     72  C   UNL A   1      49.622  27.094  25.714  1.00  0.00     0.198 A 
ATOM     73  C   UNL A   1      48.363  27.355  23.688  1.00  0.00     0.198 A 
ATOM     74  F   UNL A   1      46.162  28.178  23.766  1.00  0.00    -0.203 F 
ATOM     75  F   UNL A   1      50.769  26.788  26.336  1.00  0.00    -0.200 F 
ATOM     76  C   UNL A   1      49.539  27.003  24.333  1.00  0.00     0.200 A 
ATOM     77  F   UNL A   1      48.276  27.259  22.355  1.00  0.00    -0.200 F 
ATOM     78  F   UNL A   1      50.595  26.585  23.622  1.00  0.00    -0.200 F 
ENDBRANCH  54  68
BRANCH  55  79
ATOM     79  C   UNL A   1      39.232  30.626  31.132  1.00  0.00     0.064 A 
ATOM     80  C   UNL A   1      39.211  30.482  32.526  1.00  0.00     0.173 A 
ATOM     81  C   UNL A   1      38.090  31.161  30.516  1.00  0.00     0.173 A 
ATOM     82  F   UNL A   1      40.270  29.962  33.162  1.00  0.00    -0.203 F 
ATOM     83  C   UNL A   1      38.085  30.833  33.270  1.00  0.00     0.198 A 
ATOM     84  C   UNL A   1      36.977  31.542  31.264  1.00  0.00     0.198 A 
ATOM     85  F   UNL A   1      38.059  31.325  29.185  1.00  0.00    -0.203 F 
ATOM     86  F   UNL A   1      38.074  30.638  34.596  1.00  0.00    -0.200 F 
ATOM     87  C   UNL A   1      36.972  31.369  32.639  1.00  0.00     0.200 A 
ATOM     88  F   UNL A   1      35.912  32.076  30.650  1.00  0.00    -0.200 F 
ATOM     89  F   UNL A   1      35.893  31.711  33.355  1.00  0.00    -0.200 F 
ENDBRANCH  55  79
BRANCH  67  90
ATOM     90  C   UNL A   1      44.860  34.013  28.776  1.00  0.00     0.064 A 
ATOM     91  C   UNL A   1      45.695  34.480  29.802  1.00  0.00     0.173 A 
ATOM     92  C   UNL A   1      44.450  34.928  27.794  1.00  0.00     0.173 A 
ATOM     93  F   UNL A   1      46.105  33.648  30.772  1.00  0.00    -0.203 F 
ATOM     94  C   UNL A   1      46.073  35.818  29.861  1.00  0.00     0.198 A 
ATOM     95  C   UNL A   1      44.862  36.256  27.834  1.00  0.00     0.198 A 
ATOM     96  F   UNL A   1      43.660  34.529  26.785  1.00  0.00    -0.203 F 
ATOM     97  F   UNL A   1      46.821  36.256  30.883  1.00  0.00    -0.200 F 
ATOM     98  C   UNL A   1      45.663  36.703  28.873  1.00  0.00     0.200 A 
ATOM     99  F   UNL A   1      44.482  37.103  26.868  1.00  0.00    -0.200 F 
ATOM    100  F   UNL A   1      46.036  37.989  28.927  1.00  0.00    -0.200 F 
ENDBRANCH  67  90
ENDBRANCH  41  42
ENDBRANCH  34  36
ENDBRANCH  33  34
ENDBRANCH  32  33
ENDBRANCH  31  32
ENDBRANCH  30  31
ENDBRANCH   1  30
TORSDOF 18
ENDMDL
MODEL 3
REMARK VINA RESULT:     -11.1      2.520      7.700
REMARK SMILES COc1cc(/C=C2/S/C(=[NH+]\C(C)=O)NC2=O)cc(Br)c1OCC(=O)OCCOCCOC(=O)c1ccc(-c2c3nc(c(-c4c(F)c(F)c(F)c(F)c4F)c4ccc([nH]4)c(-c4c(F)c(F)c(F)c(F)c4F)c4nc(c(-c5c(F)c(F)c(F)c(F)c5F)c5ccc2[nH]5)C=C4)C=C3)cc1
REMARK SMILES IDX 27 1 26 2 25 3 23 4 24 5 22 6 21 7 20 8 3 9 4 10 5 11 18 12
REMARK SMILES IDX 17 13 19 14 2 15 1 16 6 17 7 18 8 19 15 20 9 21 14 22 16 23
REMARK SMILES IDX 10 24 11 26 12 28 13 29 28 30 29 31 30 32 31 33 32 34 33 35
REMARK SMILES IDX 34 36 35 37 96 38 36 39 95 40 37 41 38 42 39 43 89 44 40 45
REMARK SMILES IDX 94 46 88 47 90 48 41 49 93 50 87 51 86 52 42 54 74 55 54 56
REMARK SMILES IDX 73 57 55 58 58 59 72 60 91 61 56 62 57 63 71 65 92 66 59 67
REMARK SMILES IDX 43 68 44 69 52 70 45 71 46 72 50 73 53 74 47 75 48 76 51 77
REMARK SMILES IDX 49 78 75 79 76 80 84 81 77 82 78 83 82 84 85 85 79 86 80 87
REMARK SMILES IDX 83 88 81 89 60 90 61 91 69 92 62 93 63 94 67 95 70 96 64 97
REMARK SMILES IDX 65 98 68 99 66 100
REMARK H PARENT 14 25 10 27 90 53 58 64
REMARK Flexibility Score: inf
ROOT
ATOM      1  C   UNL A   1      37.203  22.221  25.392  1.00  0.00     0.202 C 
ENDROOT
BRANCH   1   2
ATOM      2  C   UNL A   1      36.011  21.431  25.936  1.00  0.00     0.261 C 
BRANCH   2   3
ATOM      3  O   UNL A   1      35.529  20.374  25.077  1.00  0.00    -0.461 OA
BRANCH   3   4
ATOM      4  C   UNL A   1      34.173  20.240  24.986  1.00  0.00     0.344 C 
ATOM      5  O   UNL A   1      33.613  19.429  24.256  1.00  0.00    -0.248 OA
BRANCH   4   6
ATOM      6  C   UNL A   1      33.395  21.305  25.793  1.00  0.00     0.352 C 
BRANCH   6   7
ATOM      7  O   UNL A   1      32.063  21.723  25.606  1.00  0.00    -0.477 OA
BRANCH   7   8
ATOM      8  C   UNL A   1      31.637  22.922  25.100  1.00  0.00     0.176 A 
ATOM      9  C   UNL A   1      30.696  23.567  25.952  1.00  0.00     0.162 A 
ATOM     10  C   UNL A   1      29.975  24.694  25.515  1.00  0.00     0.058 A 
ATOM     11  C   UNL A   1      30.181  25.224  24.238  1.00  0.00    -0.019 A 
ATOM     12  C   UNL A   1      31.933  23.539  23.878  1.00  0.00     0.064 A 
ATOM     13  C   UNL A   1      31.196  24.671  23.450  1.00  0.00     0.028 A 
ATOM     14  Br  UNL A   1      33.319  22.996  22.701  1.00  0.00    -0.047 Br
BRANCH   9  15
ATOM     15  O   UNL A   1      30.538  22.994  27.194  1.00  0.00    -0.493 OA
ATOM     16  C   UNL A   1      29.242  22.576  27.594  1.00  0.00     0.278 C 
ENDBRANCH   9  15
BRANCH  11  17
ATOM     17  C   UNL A   1      29.332  26.346  23.781  1.00  0.00     0.032 C 
ATOM     18  C   UNL A   1      29.657  27.651  23.763  1.00  0.00     0.110 C 
ATOM     19  S   UNL A   1      28.658  28.911  23.097  1.00  0.00     0.007 SA
ATOM     20  C   UNL A   1      30.891  28.285  24.289  1.00  0.00     0.346 C 
ATOM     21  C   UNL A   1      29.798  30.165  23.493  1.00  0.00     0.324 C 
ATOM     22  N   UNL A   1      30.951  29.589  23.915  1.00  0.00    -0.199 N 
ATOM     23  O   UNL A   1      31.638  27.779  25.106  1.00  0.00    -0.240 OA
ATOM     24  N   UNL A   1      29.759  31.443  23.508  1.00  0.00    -0.204 N 
ATOM     25  H   UNL A   1      31.795  30.094  23.948  1.00  0.00     0.316 HD
ATOM     26  C   UNL A   1      28.755  32.325  23.226  1.00  0.00     0.304 C 
ATOM     27  H   UNL A   1      30.606  31.869  23.772  1.00  0.00     0.316 HD
ATOM     28  C   UNL A   1      27.302  31.951  23.194  1.00  0.00     0.144 C 
ATOM     29  O   UNL A   1      29.026  33.518  23.075  1.00  0.00    -0.247 OA
ENDBRANCH  11  17
ENDBRANCH   7   8
ENDBRANCH   6   7
ENDBRANCH   4   6
ENDBRANCH   3   4
ENDBRANCH   2   3
ENDBRANCH   1   2
BRANCH   1  30
ATOM     30  O   UNL A   1      38.386  22.244  26.164  1.00  0.00    -0.374 OA
BRANCH  30  31
ATOM     31  C   UNL A   1      39.530  21.510  25.753  1.00  0.00     0.202 C 
BRANCH  31  32
ATOM     32  C   UNL A   1      39.685  20.027  26.101  1.00  0.00     0.261 C 
BRANCH  32  33
ATOM     33  O   UNL A   1      40.778  19.635  26.898  1.00  0.00    -0.460 OA
BRANCH  33  34
ATOM     34  C   UNL A   1      41.972  19.499  26.308  1.00  0.00     0.338 C 
ATOM     35  O   UNL A   1      42.469  18.555  25.730  1.00  0.00    -0.246 OA
BRANCH  34  36
ATOM     36  C   UNL A   1      42.541  20.832  26.485  1.00  0.00     0.060 A 
ATOM     37  C   UNL A   1      42.640  21.348  27.775  1.00  0.00     0.016 A 
ATOM     38  C   UNL A   1      43.101  21.480  25.376  1.00  0.00     0.016 A 
ATOM     39  C   UNL A   1      43.256  22.577  27.952  1.00  0.00     0.010 A 
ATOM     40  C   UNL A   1      43.734  22.699  25.560  1.00  0.00     0.010 A 
ATOM     41  C   UNL A   1      43.769  23.266  26.842  1.00  0.00    -0.014 A 
BRANCH  41  42
ATOM     42  C   UNL A   1      44.184  24.670  27.004  1.00  0.00     0.031 A 
ATOM     43  C   UNL A   1      43.159  25.655  27.478  1.00  0.00     0.074 A 
ATOM     44  C   UNL A   1      45.459  25.024  26.778  1.00  0.00     0.049 A 
ATOM     45  N   UNL A   1      43.285  26.931  27.721  1.00  0.00    -0.248 NA
ATOM     46  C   UNL A   1      41.800  25.129  27.707  1.00  0.00     0.031 C 
ATOM     47  C   UNL A   1      46.519  24.120  26.332  1.00  0.00     0.029 A 
ATOM     48  N   UNL A   1      46.076  26.237  26.903  1.00  0.00    -0.354 N 
ATOM     49  C   UNL A   1      42.028  27.358  28.128  1.00  0.00     0.074 A 
ATOM     50  C   UNL A   1      41.139  26.222  28.052  1.00  0.00     0.031 C 
ATOM     51  C   UNL A   1      47.665  24.812  26.233  1.00  0.00     0.029 A 
ATOM     52  C   UNL A   1      47.408  26.208  26.575  1.00  0.00     0.049 A 
ATOM     53  H   UNL A   1      45.611  27.053  27.198  1.00  0.00     0.167 HD
ATOM     54  C   UNL A   1      41.660  28.590  28.547  1.00  0.00     0.037 A 
ATOM     55  C   UNL A   1      48.305  27.211  26.548  1.00  0.00     0.037 A 
ATOM     56  C   UNL A   1      42.567  29.704  28.614  1.00  0.00     0.049 A 
ATOM     57  C   UNL A   1      47.854  28.586  26.966  1.00  0.00     0.074 A 
ATOM     58  C   UNL A   1      42.316  30.998  29.030  1.00  0.00     0.029 A 
ATOM     59  N   UNL A   1      43.905  29.650  28.245  1.00  0.00    -0.354 N 
ATOM     60  N   UNL A   1      46.673  28.982  27.378  1.00  0.00    -0.248 NA
ATOM     61  C   UNL A   1      48.863  29.652  26.922  1.00  0.00     0.031 C 
ATOM     62  C   UNL A   1      43.487  31.743  28.854  1.00  0.00     0.029 A 
ATOM     63  C   UNL A   1      44.487  30.896  28.398  1.00  0.00     0.049 A 
ATOM     64  H   UNL A   1      44.370  28.844  27.922  1.00  0.00     0.167 HD
ATOM     65  C   UNL A   1      46.803  30.332  27.676  1.00  0.00     0.074 A 
ATOM     66  C   UNL A   1      48.184  30.680  27.410  1.00  0.00     0.031 C 
ATOM     67  C   UNL A   1      45.870  31.207  28.130  1.00  0.00     0.037 A 
BRANCH  54  68
ATOM     68  C   UNL A   1      40.223  28.793  28.928  1.00  0.00     0.064 A 
ATOM     69  C   UNL A   1      39.247  29.158  27.987  1.00  0.00     0.173 A 
ATOM     70  C   UNL A   1      39.812  28.610  30.257  1.00  0.00     0.173 A 
ATOM     71  F   UNL A   1      39.589  29.368  26.706  1.00  0.00    -0.203 F 
ATOM     72  C   UNL A   1      37.923  29.361  28.366  1.00  0.00     0.198 A 
ATOM     73  C   UNL A   1      38.480  28.780  30.627  1.00  0.00     0.198 A 
ATOM     74  F   UNL A   1      40.702  28.267  31.200  1.00  0.00    -0.203 F 
ATOM     75  F   UNL A   1      37.022  29.766  27.461  1.00  0.00    -0.200 F 
ATOM     76  C   UNL A   1      37.539  29.164  29.684  1.00  0.00     0.200 A 
ATOM     77  F   UNL A   1      38.110  28.580  31.899  1.00  0.00    -0.200 F 
ATOM     78  F   UNL A   1      36.263  29.354  30.048  1.00  0.00    -0.200 F 
ENDBRANCH  54  68
BRANCH  55  79
ATOM     79  C   UNL A   1      49.703  26.948  26.118  1.00  0.00     0.064 A 
ATOM     80  C   UNL A   1      50.076  27.027  24.770  1.00  0.00     0.173 A 
ATOM     81  C   UNL A   1      50.696  26.607  27.049  1.00  0.00     0.173 A 
ATOM     82  F   UNL A   1      49.161  27.333  23.839  1.00  0.00    -0.203 F 
ATOM     83  C   UNL A   1      51.382  26.750  24.366  1.00  0.00     0.198 A 
ATOM     84  C   UNL A   1      52.008  26.363  26.649  1.00  0.00     0.198 A 
ATOM     85  F   UNL A   1      50.395  26.523  28.353  1.00  0.00    -0.203 F 
ATOM     86  F   UNL A   1      51.699  26.784  23.064  1.00  0.00    -0.200 F 
ATOM     87  C   UNL A   1      52.348  26.426  25.307  1.00  0.00     0.200 A 
ATOM     88  F   UNL A   1      52.941  26.067  27.564  1.00  0.00    -0.200 F 
ATOM     89  F   UNL A   1      53.603  26.165  24.918  1.00  0.00    -0.200 F 
ENDBRANCH  55  79
BRANCH  67  90
ATOM     90  C   UNL A   1      46.328  32.608  28.414  1.00  0.00     0.064 A 
ATOM     91  C   UNL A   1      46.237  33.626  27.452  1.00  0.00     0.173 A 
ATOM     92  C   UNL A   1      46.830  32.943  29.681  1.00  0.00     0.173 A 
ATOM     93  F   UNL A   1      45.775  33.354  26.222  1.00  0.00    -0.203 F 
ATOM     94  C   UNL A   1      46.667  34.918  27.739  1.00  0.00     0.198 A 
ATOM     95  C   UNL A   1      47.222  34.245  29.976  1.00  0.00     0.198 A 
ATOM     96  F   UNL A   1      46.927  32.009  30.639  1.00  0.00    -0.203 F 
ATOM     97  F   UNL A   1      46.628  35.861  26.787  1.00  0.00    -0.200 F 
ATOM     98  C   UNL A   1      47.151  35.228  29.002  1.00  0.00     0.200 A 
ATOM     99  F   UNL A   1      47.670  34.546  31.202  1.00  0.00    -0.200 F 
ATOM    100  F   UNL A   1      47.556  36.476  29.278  1.00  0.00    -0.200 F 
ENDBRANCH  67  90
ENDBRANCH  41  42
ENDBRANCH  34  36
ENDBRANCH  33  34
ENDBRANCH  32  33
ENDBRANCH  31  32
ENDBRANCH  30  31
ENDBRANCH   1  30
TORSDOF 18
ENDMDL
