MODEL 1
REMARK VINA RESULT:     -12.3      0.000      0.000
REMARK SMILES O=C(N/N=C\c1ccccc1C(=O)OCCOCCOC(=O)c1ccc(-c2c3nc(c(-c4c(F)c(F)c(F)c(F)c4F)c4ccc([nH]4)c(-c4c(F)c(F)c(F)c(F)c4F)c4nc(c(-c5c(F)c(F)c(F)c(F)c5F)c5ccc2[nH]5)C=C4)C=C3)cc1)C(=O)N1CCCCC1
REMARK SMILES IDX 16 1 15 2 14 3 12 4 13 5 11 6 6 7 7 8 8 9 10 10 9 11 5 12
REMARK SMILES IDX 4 13 3 14 1 15 2 16 86 18 87 19 88 20 89 21 93 22 90 23
REMARK SMILES IDX 92 24 91 25 17 26 18 27 19 28 20 29 21 30 22 31 23 32 24 33
REMARK SMILES IDX 85 34 25 35 84 36 26 37 27 38 28 39 78 40 29 41 83 42 77 43
REMARK SMILES IDX 79 44 30 45 82 46 76 47 75 48 31 50 63 51 43 52 62 53 44 54
REMARK SMILES IDX 47 55 61 56 80 57 45 58 46 59 60 61 81 62 48 63 32 64 33 65
REMARK SMILES IDX 41 66 34 67 35 68 39 69 42 70 36 71 37 72 40 73 38 74 64 75
REMARK SMILES IDX 65 76 73 77 66 78 67 79 71 80 74 81 68 82 69 83 72 84 70 85
REMARK SMILES IDX 49 86 50 87 58 88 51 89 52 90 56 91 59 92 53 93 54 94 57 95
REMARK SMILES IDX 55 96
REMARK H PARENT 3 17 79 49 47 60
REMARK Flexibility Score: inf
ROOT
ATOM      1  C   UNL A   1      32.498  29.723  27.250  1.00  0.00     0.202 C 
ENDROOT
BRANCH   1   2
ATOM      2  C   UNL A   1      33.462  28.608  26.837  1.00  0.00     0.261 C 
BRANCH   2   3
ATOM      3  O   UNL A   1      32.774  27.393  26.479  1.00  0.00    -0.460 OA
BRANCH   3   4
ATOM      4  C   UNL A   1      32.973  26.985  25.206  1.00  0.00     0.338 C 
ATOM      5  O   UNL A   1      33.968  26.448  24.753  1.00  0.00    -0.246 OA
BRANCH   4   6
ATOM      6  C   UNL A   1      31.757  27.192  24.414  1.00  0.00     0.068 A 
ATOM      7  C   UNL A   1      30.307  26.126  24.580  1.00  0.00     0.009 A 
ATOM      8  C   UNL A   1      28.657  26.654  23.911  1.00  0.00     0.010 A 
ATOM      9  C   UNL A   1      28.511  28.287  23.125  1.00  0.00     0.001 A 
ATOM     10  C   UNL A   1      31.597  28.810  23.631  1.00  0.00     0.016 A 
ATOM     11  C   UNL A   1      29.957  29.369  23.010  1.00  0.00     0.001 A 
BRANCH   7  12
ATOM     12  C   UNL A   1      30.302  25.240  25.715  1.00  0.00     0.142 C 
ATOM     13  N   UNL A   1      30.918  24.110  25.660  1.00  0.00    -0.180 NA
BRANCH  13  14
ATOM     14  N   UNL A   1      31.612  23.789  24.523  1.00  0.00    -0.239 N 
ATOM     15  O   UNL A   1      32.296  22.543  22.774  1.00  0.00    -0.262 OA
ATOM     16  C   UNL A   1      32.040  22.570  23.982  1.00  0.00     0.329 C 
ATOM     17  H   UNL A   1      31.860  24.571  23.978  1.00  0.00     0.194 HD
BRANCH  16  18
ATOM     18  C   UNL A   1      32.382  21.209  24.923  1.00  0.00     0.313 C 
ATOM     19  O   UNL A   1      32.497  21.881  26.012  1.00  0.00    -0.263 OA
ATOM     20  N   UNL A   1      32.576  19.269  24.506  1.00  0.00    -0.334 N 
ATOM     21  C   UNL A   1      33.276  17.955  25.351  1.00  0.00     0.120 C 
ATOM     22  C   UNL A   1      32.092  18.309  23.163  1.00  0.00     0.120 C 
ATOM     23  C   UNL A   1      34.447  17.317  24.580  1.00  0.00     0.022 C 
ATOM     24  C   UNL A   1      33.285  17.703  22.411  1.00  0.00     0.022 C 
ATOM     25  C   UNL A   1      34.028  16.699  23.264  1.00  0.00     0.004 C 
ENDBRANCH  16  18
ENDBRANCH  13  14
ENDBRANCH   7  12
ENDBRANCH   4   6
ENDBRANCH   3   4
ENDBRANCH   2   3
ENDBRANCH   1   2
BRANCH   1  26
ATOM     26  O   UNL A   1      32.512  30.859  26.388  1.00  0.00    -0.374 OA
BRANCH  26  27
ATOM     27  C   UNL A   1      31.412  31.766  26.501  1.00  0.00     0.202 C 
BRANCH  27  28
ATOM     28  C   UNL A   1      31.778  33.061  27.224  1.00  0.00     0.261 C 
BRANCH  28  29
ATOM     29  O   UNL A   1      33.206  33.249  27.151  1.00  0.00    -0.460 OA
BRANCH  29  30
ATOM     30  C   UNL A   1      33.787  33.583  28.322  1.00  0.00     0.338 C 
ATOM     31  O   UNL A   1      33.326  34.272  29.214  1.00  0.00    -0.246 OA
BRANCH  30  32
ATOM     32  C   UNL A   1      35.053  32.844  28.463  1.00  0.00     0.060 A 
ATOM     33  C   UNL A   1      34.970  31.485  28.783  1.00  0.00     0.016 A 
ATOM     34  C   UNL A   1      36.291  33.489  28.390  1.00  0.00     0.016 A 
ATOM     35  C   UNL A   1      36.124  30.780  29.110  1.00  0.00     0.010 A 
ATOM     36  C   UNL A   1      37.448  32.785  28.739  1.00  0.00     0.010 A 
ATOM     37  C   UNL A   1      37.359  31.444  29.150  1.00  0.00    -0.014 A 
BRANCH  37  38
ATOM     38  C   UNL A   1      38.487  30.793  29.854  1.00  0.00     0.031 A 
ATOM     39  C   UNL A   1      38.734  31.163  31.293  1.00  0.00     0.074 A 
ATOM     40  C   UNL A   1      39.243  29.854  29.262  1.00  0.00     0.049 A 
ATOM     41  N   UNL A   1      39.595  30.666  32.144  1.00  0.00    -0.248 NA
ATOM     42  C   UNL A   1      37.885  32.231  31.850  1.00  0.00     0.031 C 
ATOM     43  C   UNL A   1      39.089  29.381  27.889  1.00  0.00     0.029 A 
ATOM     44  N   UNL A   1      40.290  29.121  29.759  1.00  0.00    -0.354 N 
ATOM     45  C   UNL A   1      39.367  31.333  33.340  1.00  0.00     0.074 A 
ATOM     46  C   UNL A   1      38.311  32.293  33.102  1.00  0.00     0.031 C 
ATOM     47  C   UNL A   1      40.012  28.432  27.651  1.00  0.00     0.029 A 
ATOM     48  C   UNL A   1      40.820  28.236  28.856  1.00  0.00     0.049 A 
ATOM     49  H   UNL A   1      40.630  29.219  30.678  1.00  0.00     0.167 HD
ATOM     50  C   UNL A   1      39.973  31.155  34.536  1.00  0.00     0.037 A 
ATOM     51  C   UNL A   1      41.838  27.366  28.990  1.00  0.00     0.037 A 
ATOM     52  C   UNL A   1      41.040  30.228  34.782  1.00  0.00     0.049 A 
ATOM     53  C   UNL A   1      42.563  27.257  30.304  1.00  0.00     0.074 A 
ATOM     54  C   UNL A   1      41.715  29.978  35.963  1.00  0.00     0.029 A 
ATOM     55  N   UNL A   1      41.597  29.406  33.817  1.00  0.00    -0.354 N 
ATOM     56  N   UNL A   1      42.320  27.872  31.435  1.00  0.00    -0.248 NA
ATOM     57  C   UNL A   1      43.706  26.333  30.355  1.00  0.00     0.031 C 
ATOM     58  C   UNL A   1      42.700  29.017  35.707  1.00  0.00     0.029 A 
ATOM     59  C   UNL A   1      42.624  28.662  34.369  1.00  0.00     0.049 A 
ATOM     60  H   UNL A   1      41.305  29.357  32.878  1.00  0.00     0.167 HD
ATOM     61  C   UNL A   1      43.266  27.401  32.334  1.00  0.00     0.074 A 
ATOM     62  C   UNL A   1      44.091  26.448  31.619  1.00  0.00     0.031 C 
ATOM     63  C   UNL A   1      43.434  27.724  33.639  1.00  0.00     0.037 A 
BRANCH  50  64
ATOM     64  C   UNL A   1      39.483  31.994  35.671  1.00  0.00     0.064 A 
ATOM     65  C   UNL A   1      38.476  31.527  36.527  1.00  0.00     0.173 A 
ATOM     66  C   UNL A   1      40.023  33.264  35.908  1.00  0.00     0.173 A 
ATOM     67  F   UNL A   1      37.921  30.323  36.321  1.00  0.00    -0.203 F 
ATOM     68  C   UNL A   1      38.019  32.310  37.582  1.00  0.00     0.198 A 
ATOM     69  C   UNL A   1      39.568  34.043  36.968  1.00  0.00     0.198 A 
ATOM     70  F   UNL A   1      40.979  33.753  35.104  1.00  0.00    -0.203 F 
ATOM     71  F   UNL A   1      37.041  31.857  38.377  1.00  0.00    -0.200 F 
ATOM     72  C   UNL A   1      38.566  33.566  37.803  1.00  0.00     0.200 A 
ATOM     73  F   UNL A   1      40.091  35.259  37.177  1.00  0.00    -0.200 F 
ATOM     74  F   UNL A   1      38.121  34.322  38.816  1.00  0.00    -0.200 F 
ENDBRANCH  50  64
BRANCH  51  75
ATOM     75  C   UNL A   1      42.239  26.520  27.843  1.00  0.00     0.064 A 
ATOM     76  C   UNL A   1      43.231  26.943  26.950  1.00  0.00     0.173 A 
ATOM     77  C   UNL A   1      41.630  25.279  27.614  1.00  0.00     0.173 A 
ATOM     78  F   UNL A   1      43.822  28.135  27.122  1.00  0.00    -0.203 F 
ATOM     79  C   UNL A   1      43.596  26.155  25.861  1.00  0.00     0.198 A 
ATOM     80  C   UNL A   1      42.002  24.488  26.531  1.00  0.00     0.198 A 
ATOM     81  F   UNL A   1      40.669  24.841  28.440  1.00  0.00    -0.203 F 
ATOM     82  F   UNL A   1      44.531  26.589  25.005  1.00  0.00    -0.200 F 
ATOM     83  C   UNL A   1      42.984  24.928  25.654  1.00  0.00     0.200 A 
ATOM     84  F   UNL A   1      41.406  23.304  26.332  1.00  0.00    -0.200 F 
ATOM     85  F   UNL A   1      43.332  24.172  24.603  1.00  0.00    -0.200 F 
ENDBRANCH  51  75
BRANCH  63  86
ATOM     86  C   UNL A   1      44.542  27.046  34.378  1.00  0.00     0.064 A 
ATOM     87  C   UNL A   1      44.328  25.827  35.037  1.00  0.00     0.173 A 
ATOM     88  C   UNL A   1      45.834  27.588  34.383  1.00  0.00     0.173 A 
ATOM     89  F   UNL A   1      43.104  25.282  35.065  1.00  0.00    -0.203 F 
ATOM     90  C   UNL A   1      45.375  25.175  35.682  1.00  0.00     0.198 A 
ATOM     91  C   UNL A   1      46.880  26.928  35.022  1.00  0.00     0.198 A 
ATOM     92  F   UNL A   1      46.081  28.752  33.765  1.00  0.00    -0.203 F 
ATOM     93  F   UNL A   1      45.149  24.019  36.321  1.00  0.00    -0.200 F 
ATOM     94  C   UNL A   1      46.649  25.723  35.671  1.00  0.00     0.200 A 
ATOM     95  F   UNL A   1      48.111  27.458  35.011  1.00  0.00    -0.200 F 
ATOM     96  F   UNL A   1      47.656  25.093  36.291  1.00  0.00    -0.200 F 
ENDBRANCH  63  86
ENDBRANCH  37  38
ENDBRANCH  30  32
ENDBRANCH  29  30
ENDBRANCH  28  29
ENDBRANCH  27  28
ENDBRANCH  26  27
ENDBRANCH   1  26
TORSDOF 17
ENDMDL
MODEL 2
REMARK VINA RESULT:     -12.3      2.084      3.002
REMARK SMILES O=C(N/N=C\c1ccccc1C(=O)OCCOCCOC(=O)c1ccc(-c2c3nc(c(-c4c(F)c(F)c(F)c(F)c4F)c4ccc([nH]4)c(-c4c(F)c(F)c(F)c(F)c4F)c4nc(c(-c5c(F)c(F)c(F)c(F)c5F)c5ccc2[nH]5)C=C4)C=C3)cc1)C(=O)N1CCCCC1
REMARK SMILES IDX 16 1 15 2 14 3 12 4 13 5 11 6 6 7 7 8 8 9 10 10 9 11 5 12
REMARK SMILES IDX 4 13 3 14 1 15 2 16 86 18 87 19 88 20 89 21 93 22 90 23
REMARK SMILES IDX 92 24 91 25 17 26 18 27 19 28 20 29 21 30 22 31 23 32 24 33
REMARK SMILES IDX 85 34 25 35 84 36 26 37 27 38 28 39 78 40 29 41 83 42 77 43
REMARK SMILES IDX 79 44 30 45 82 46 76 47 75 48 31 50 63 51 43 52 62 53 44 54
REMARK SMILES IDX 47 55 61 56 80 57 45 58 46 59 60 61 81 62 48 63 32 64 33 65
REMARK SMILES IDX 41 66 34 67 35 68 39 69 42 70 36 71 37 72 40 73 38 74 64 75
REMARK SMILES IDX 65 76 73 77 66 78 67 79 71 80 74 81 68 82 69 83 72 84 70 85
REMARK SMILES IDX 49 86 50 87 58 88 51 89 52 90 56 91 59 92 53 93 54 94 57 95
REMARK SMILES IDX 55 96
REMARK H PARENT 3 17 79 49 47 60
REMARK Flexibility Score: inf
ROOT
ATOM      1  C   UNL A   1      34.037  29.375  27.225  1.00  0.00     0.202 C 
ENDROOT
BRANCH   1   2
ATOM      2  C   UNL A   1      32.965  28.284  27.176  1.00  0.00     0.261 C 
BRANCH   2   3
ATOM      3  O   UNL A   1      31.857  28.641  26.326  1.00  0.00    -0.460 OA
BRANCH   3   4
ATOM      4  C   UNL A   1      32.007  28.295  25.028  1.00  0.00     0.338 C 
ATOM      5  O   UNL A   1      32.890  27.606  24.548  1.00  0.00    -0.246 OA
BRANCH   4   6
ATOM      6  C   UNL A   1      30.877  28.795  24.238  1.00  0.00     0.068 A 
ATOM      7  C   UNL A   1      29.629  27.693  23.538  1.00  0.00     0.009 A 
ATOM      8  C   UNL A   1      28.004  28.358  22.933  1.00  0.00     0.010 A 
ATOM      9  C   UNL A   1      27.667  30.137  23.101  1.00  0.00     0.001 A 
ATOM     10  C   UNL A   1      30.529  30.559  24.398  1.00  0.00     0.016 A 
ATOM     11  C   UNL A   1      28.903  31.225  23.852  1.00  0.00     0.001 A 
BRANCH   7  12
ATOM     12  C   UNL A   1      29.644  26.335  24.020  1.00  0.00     0.142 C 
ATOM     13  N   UNL A   1      30.431  25.466  23.488  1.00  0.00    -0.180 NA
BRANCH  13  14
ATOM     14  N   UNL A   1      31.282  25.866  22.490  1.00  0.00    -0.239 N 
ATOM     15  O   UNL A   1      32.676  25.672  20.730  1.00  0.00    -0.262 OA
ATOM     16  C   UNL A   1      32.345  25.230  21.836  1.00  0.00     0.329 C 
ATOM     17  H   UNL A   1      31.113  26.781  22.171  1.00  0.00     0.194 HD
BRANCH  16  18
ATOM     18  C   UNL A   1      33.288  24.027  22.554  1.00  0.00     0.313 C 
ATOM     19  O   UNL A   1      33.653  23.519  21.431  1.00  0.00    -0.263 OA
ATOM     20  N   UNL A   1      33.675  23.536  24.447  1.00  0.00    -0.334 N 
ATOM     21  C   UNL A   1      34.306  22.127  25.185  1.00  0.00     0.120 C 
ATOM     22  C   UNL A   1      33.498  24.386  25.933  1.00  0.00     0.120 C 
ATOM     23  C   UNL A   1      33.309  21.479  26.165  1.00  0.00     0.022 C 
ATOM     24  C   UNL A   1      32.486  23.719  26.876  1.00  0.00     0.022 C 
ATOM     25  C   UNL A   1      32.971  22.365  27.343  1.00  0.00     0.004 C 
ENDBRANCH  16  18
ENDBRANCH  13  14
ENDBRANCH   7  12
ENDBRANCH   4   6
ENDBRANCH   3   4
ENDBRANCH   2   3
ENDBRANCH   1   2
BRANCH   1  26
ATOM     26  O   UNL A   1      33.584  30.661  26.811  1.00  0.00    -0.374 OA
BRANCH  26  27
ATOM     27  C   UNL A   1      33.549  31.684  27.809  1.00  0.00     0.202 C 
BRANCH  27  28
ATOM     28  C   UNL A   1      32.935  32.989  27.304  1.00  0.00     0.261 C 
BRANCH  28  29
ATOM     29  O   UNL A   1      32.326  33.678  28.414  1.00  0.00    -0.460 OA
BRANCH  29  30
ATOM     30  C   UNL A   1      32.929  34.837  28.753  1.00  0.00     0.338 C 
ATOM     31  O   UNL A   1      32.530  35.971  28.558  1.00  0.00    -0.246 OA
BRANCH  30  32
ATOM     32  C   UNL A   1      34.119  34.543  29.569  1.00  0.00     0.060 A 
ATOM     33  C   UNL A   1      35.367  34.648  28.944  1.00  0.00     0.016 A 
ATOM     34  C   UNL A   1      34.011  34.071  30.880  1.00  0.00     0.016 A 
ATOM     35  C   UNL A   1      36.509  34.207  29.604  1.00  0.00     0.010 A 
ATOM     36  C   UNL A   1      35.158  33.608  31.535  1.00  0.00     0.010 A 
ATOM     37  C   UNL A   1      36.401  33.628  30.877  1.00  0.00    -0.014 A 
BRANCH  37  38
ATOM     38  C   UNL A   1      37.540  32.834  31.391  1.00  0.00     0.031 A 
ATOM     39  C   UNL A   1      38.074  33.162  32.759  1.00  0.00     0.074 A 
ATOM     40  C   UNL A   1      38.056  31.807  30.696  1.00  0.00     0.049 A 
ATOM     41  N   UNL A   1      38.997  32.555  33.460  1.00  0.00    -0.248 NA
ATOM     42  C   UNL A   1      37.477  34.329  33.434  1.00  0.00     0.031 C 
ATOM     43  C   UNL A   1      37.610  31.365  29.377  1.00  0.00     0.029 A 
ATOM     44  N   UNL A   1      39.070  30.943  31.020  1.00  0.00    -0.354 N 
ATOM     45  C   UNL A   1      39.065  33.240  34.665  1.00  0.00     0.074 A 
ATOM     46  C   UNL A   1      38.116  34.329  34.594  1.00  0.00     0.031 C 
ATOM     47  C   UNL A   1      38.349  30.305  29.003  1.00  0.00     0.029 A 
ATOM     48  C   UNL A   1      39.319  30.000  30.056  1.00  0.00     0.049 A 
ATOM     49  H   UNL A   1      39.571  30.992  31.866  1.00  0.00     0.167 HD
ATOM     50  C   UNL A   1      39.838  32.980  35.744  1.00  0.00     0.037 A 
ATOM     51  C   UNL A   1      40.225  29.005  30.031  1.00  0.00     0.037 A 
ATOM     52  C   UNL A   1      40.804  31.922  35.821  1.00  0.00     0.049 A 
ATOM     53  C   UNL A   1      41.144  28.797  31.204  1.00  0.00     0.074 A 
ATOM     54  C   UNL A   1      41.633  31.581  36.875  1.00  0.00     0.029 A 
ATOM     55  N   UNL A   1      41.077  31.038  34.790  1.00  0.00    -0.354 N 
ATOM     56  N   UNL A   1      41.179  29.434  32.348  1.00  0.00    -0.248 NA
ATOM     57  C   UNL A   1      42.151  27.733  31.076  1.00  0.00     0.031 C 
ATOM     58  C   UNL A   1      42.428  30.502  36.472  1.00  0.00     0.029 A 
ATOM     59  C   UNL A   1      42.080  30.166  35.173  1.00  0.00     0.049 A 
ATOM     60  H   UNL A   1      40.625  31.032  33.916  1.00  0.00     0.167 HD
ATOM     61  C   UNL A   1      42.197  28.840  33.081  1.00  0.00     0.074 A 
ATOM     62  C   UNL A   1      42.758  27.792  32.254  1.00  0.00     0.031 C 
ATOM     63  C   UNL A   1      42.625  29.134  34.332  1.00  0.00     0.037 A 
BRANCH  50  64
ATOM     64  C   UNL A   1      39.662  33.870  36.930  1.00  0.00     0.064 A 
ATOM     65  C   UNL A   1      40.368  35.077  37.034  1.00  0.00     0.173 A 
ATOM     66  C   UNL A   1      38.783  33.521  37.963  1.00  0.00     0.173 A 
ATOM     67  F   UNL A   1      41.232  35.437  36.074  1.00  0.00    -0.203 F 
ATOM     68  C   UNL A   1      40.204  35.904  38.141  1.00  0.00     0.198 A 
ATOM     69  C   UNL A   1      38.617  34.354  39.067  1.00  0.00     0.198 A 
ATOM     70  F   UNL A   1      38.100  32.368  37.909  1.00  0.00    -0.203 F 
ATOM     71  F   UNL A   1      40.903  37.043  38.234  1.00  0.00    -0.200 F 
ATOM     72  C   UNL A   1      39.328  35.543  39.155  1.00  0.00     0.200 A 
ATOM     73  F   UNL A   1      37.777  34.002  40.050  1.00  0.00    -0.200 F 
ATOM     74  F   UNL A   1      39.176  36.337  40.224  1.00  0.00    -0.200 F 
ENDBRANCH  50  64
BRANCH  51  75
ATOM     75  C   UNL A   1      40.312  28.119  28.847  1.00  0.00     0.064 A 
ATOM     76  C   UNL A   1      41.059  28.492  27.723  1.00  0.00     0.173 A 
ATOM     77  C   UNL A   1      39.640  26.890  28.815  1.00  0.00     0.173 A 
ATOM     78  F   UNL A   1      41.698  29.672  27.706  1.00  0.00    -0.203 F 
ATOM     79  C   UNL A   1      41.127  27.666  26.604  1.00  0.00     0.198 A 
ATOM     80  C   UNL A   1      39.716  26.062  27.700  1.00  0.00     0.198 A 
ATOM     81  F   UNL A   1      38.906  26.500  29.867  1.00  0.00    -0.203 F 
ATOM     82  F   UNL A   1      41.829  28.053  25.530  1.00  0.00    -0.200 F 
ATOM     83  C   UNL A   1      40.458  26.452  26.593  1.00  0.00     0.200 A 
ATOM     84  F   UNL A   1      39.066  24.890  27.692  1.00  0.00    -0.200 F 
ATOM     85  F   UNL A   1      40.520  25.660  25.514  1.00  0.00    -0.200 F 
ENDBRANCH  51  75
BRANCH  63  86
ATOM     86  C   UNL A   1      43.747  28.314  34.884  1.00  0.00     0.064 A 
ATOM     87  C   UNL A   1      43.495  27.129  35.588  1.00  0.00     0.173 A 
ATOM     88  C   UNL A   1      45.079  28.687  34.664  1.00  0.00     0.173 A 
ATOM     89  F   UNL A   1      42.234  26.744  35.830  1.00  0.00    -0.203 F 
ATOM     90  C   UNL A   1      44.544  26.344  36.057  1.00  0.00     0.198 A 
ATOM     91  C   UNL A   1      46.126  27.895  35.127  1.00  0.00     0.198 A 
ATOM     92  F   UNL A   1      45.364  29.814  33.995  1.00  0.00    -0.203 F 
ATOM     93  F   UNL A   1      44.285  25.222  36.742  1.00  0.00    -0.200 F 
ATOM     94  C   UNL A   1      45.857  26.725  35.824  1.00  0.00     0.200 A 
ATOM     95  F   UNL A   1      47.395  28.263  34.900  1.00  0.00    -0.200 F 
ATOM     96  F   UNL A   1      46.867  25.967  36.274  1.00  0.00    -0.200 F 
ENDBRANCH  63  86
ENDBRANCH  37  38
ENDBRANCH  30  32
ENDBRANCH  29  30
ENDBRANCH  28  29
ENDBRANCH  27  28
ENDBRANCH  26  27
ENDBRANCH   1  26
TORSDOF 17
ENDMDL
MODEL 3
REMARK VINA RESULT:     -12.2      1.408      2.377
REMARK SMILES O=C(N/N=C\c1ccccc1C(=O)OCCOCCOC(=O)c1ccc(-c2c3nc(c(-c4c(F)c(F)c(F)c(F)c4F)c4ccc([nH]4)c(-c4c(F)c(F)c(F)c(F)c4F)c4nc(c(-c5c(F)c(F)c(F)c(F)c5F)c5ccc2[nH]5)C=C4)C=C3)cc1)C(=O)N1CCCCC1
REMARK SMILES IDX 16 1 15 2 14 3 12 4 13 5 11 6 6 7 7 8 8 9 10 10 9 11 5 12
REMARK SMILES IDX 4 13 3 14 1 15 2 16 86 18 87 19 88 20 89 21 93 22 90 23
REMARK SMILES IDX 92 24 91 25 17 26 18 27 19 28 20 29 21 30 22 31 23 32 24 33
REMARK SMILES IDX 85 34 25 35 84 36 26 37 27 38 28 39 78 40 29 41 83 42 77 43
REMARK SMILES IDX 79 44 30 45 82 46 76 47 75 48 31 50 63 51 43 52 62 53 44 54
REMARK SMILES IDX 47 55 61 56 80 57 45 58 46 59 60 61 81 62 48 63 32 64 33 65
REMARK SMILES IDX 41 66 34 67 35 68 39 69 42 70 36 71 37 72 40 73 38 74 64 75
REMARK SMILES IDX 65 76 73 77 66 78 67 79 71 80 74 81 68 82 69 83 72 84 70 85
REMARK SMILES IDX 49 86 50 87 58 88 51 89 52 90 56 91 59 92 53 93 54 94 57 95
REMARK SMILES IDX 55 96
REMARK H PARENT 3 17 79 49 47 60
REMARK Flexibility Score: inf
ROOT
ATOM      1  C   UNL A   1      31.159  29.867  25.266  1.00  0.00     0.202 C 
ENDROOT
BRANCH   1   2
ATOM      2  C   UNL A   1      32.272  29.006  25.867  1.00  0.00     0.261 C 
BRANCH   2   3
ATOM      3  O   UNL A   1      32.278  27.667  25.334  1.00  0.00    -0.460 OA
BRANCH   3   4
ATOM      4  C   UNL A   1      33.492  27.072  25.312  1.00  0.00     0.338 C 
ATOM      5  O   UNL A   1      34.370  27.163  26.152  1.00  0.00    -0.246 OA
BRANCH   4   6
ATOM      6  C   UNL A   1      33.602  26.191  24.146  1.00  0.00     0.068 A 
ATOM      7  C   UNL A   1      33.765  24.398  24.306  1.00  0.00     0.009 A 
ATOM      8  C   UNL A   1      33.464  23.283  22.853  1.00  0.00     0.010 A 
ATOM      9  C   UNL A   1      32.953  24.020  21.271  1.00  0.00     0.001 A 
ATOM     10  C   UNL A   1      33.095  26.909  22.570  1.00  0.00     0.016 A 
ATOM     11  C   UNL A   1      32.741  25.813  21.135  1.00  0.00     0.001 A 
BRANCH   7  12
ATOM     12  C   UNL A   1      33.507  23.855  25.615  1.00  0.00     0.142 C 
ATOM     13  N   UNL A   1      34.452  23.285  26.279  1.00  0.00    -0.180 NA
BRANCH  13  14
ATOM     14  N   UNL A   1      35.711  23.243  25.738  1.00  0.00    -0.239 N 
ATOM     15  O   UNL A   1      37.352  22.664  24.305  1.00  0.00    -0.262 OA
ATOM     16  C   UNL A   1      36.388  22.281  24.977  1.00  0.00     0.329 C 
ATOM     17  H   UNL A   1      36.245  24.050  25.920  1.00  0.00     0.194 HD
BRANCH  16  18
ATOM     18  C   UNL A   1      36.060  20.627  25.073  1.00  0.00     0.313 C 
ATOM     19  O   UNL A   1      37.242  20.326  25.477  1.00  0.00    -0.263 OA
ATOM     20  N   UNL A   1      34.447  19.524  24.674  1.00  0.00    -0.334 N 
ATOM     21  C   UNL A   1      34.212  17.850  24.407  1.00  0.00     0.120 C 
ATOM     22  C   UNL A   1      32.784  19.917  24.478  1.00  0.00     0.120 C 
ATOM     23  C   UNL A   1      33.657  17.550  23.002  1.00  0.00     0.022 C 
ATOM     24  C   UNL A   1      32.271  19.619  23.062  1.00  0.00     0.022 C 
ATOM     25  C   UNL A   1      32.281  18.136  22.768  1.00  0.00     0.004 C 
ENDBRANCH  16  18
ENDBRANCH  13  14
ENDBRANCH   7  12
ENDBRANCH   4   6
ENDBRANCH   3   4
ENDBRANCH   2   3
ENDBRANCH   1   2
BRANCH   1  26
ATOM     26  O   UNL A   1      31.191  31.233  25.672  1.00  0.00    -0.374 OA
BRANCH  26  27
ATOM     27  C   UNL A   1      31.974  31.544  26.828  1.00  0.00     0.202 C 
BRANCH  27  28
ATOM     28  C   UNL A   1      31.889  33.016  27.227  1.00  0.00     0.261 C 
BRANCH  28  29
ATOM     29  O   UNL A   1      33.220  33.570  27.254  1.00  0.00    -0.460 OA
BRANCH  29  30
ATOM     30  C   UNL A   1      33.732  33.734  28.492  1.00  0.00     0.338 C 
ATOM     31  O   UNL A   1      33.228  34.314  29.437  1.00  0.00    -0.246 OA
BRANCH  30  32
ATOM     32  C   UNL A   1      34.974  32.952  28.610  1.00  0.00     0.060 A 
ATOM     33  C   UNL A   1      34.858  31.628  29.046  1.00  0.00     0.016 A 
ATOM     34  C   UNL A   1      36.229  33.532  28.404  1.00  0.00     0.016 A 
ATOM     35  C   UNL A   1      36.003  30.899  29.354  1.00  0.00     0.010 A 
ATOM     36  C   UNL A   1      37.378  32.805  28.733  1.00  0.00     0.010 A 
ATOM     37  C   UNL A   1      37.264  31.506  29.258  1.00  0.00    -0.014 A 
BRANCH  37  38
ATOM     38  C   UNL A   1      38.410  30.863  29.938  1.00  0.00     0.031 A 
ATOM     39  C   UNL A   1      38.676  31.222  31.376  1.00  0.00     0.074 A 
ATOM     40  C   UNL A   1      39.167  29.938  29.325  1.00  0.00     0.049 A 
ATOM     41  N   UNL A   1      39.556  30.728  32.209  1.00  0.00    -0.248 NA
ATOM     42  C   UNL A   1      37.823  32.275  31.956  1.00  0.00     0.031 C 
ATOM     43  C   UNL A   1      38.996  29.476  27.951  1.00  0.00     0.029 A 
ATOM     44  N   UNL A   1      40.231  29.213  29.799  1.00  0.00    -0.354 N 
ATOM     45  C   UNL A   1      39.339  31.382  33.414  1.00  0.00     0.074 A 
ATOM     46  C   UNL A   1      38.269  32.331  33.202  1.00  0.00     0.031 C 
ATOM     47  C   UNL A   1      39.927  28.540  27.689  1.00  0.00     0.029 A 
ATOM     48  C   UNL A   1      40.756  28.342  28.879  1.00  0.00     0.049 A 
ATOM     49  H   UNL A   1      40.584  29.307  30.713  1.00  0.00     0.167 HD
ATOM     50  C   UNL A   1      39.966  31.200  34.599  1.00  0.00     0.037 A 
ATOM     51  C   UNL A   1      41.786  27.483  28.989  1.00  0.00     0.037 A 
ATOM     52  C   UNL A   1      41.048  30.284  34.819  1.00  0.00     0.049 A 
ATOM     53  C   UNL A   1      42.533  27.371  30.291  1.00  0.00     0.074 A 
ATOM     54  C   UNL A   1      41.744  30.031  35.987  1.00  0.00     0.029 A 
ATOM     55  N   UNL A   1      41.599  29.476  33.838  1.00  0.00    -0.354 N 
ATOM     56  N   UNL A   1      42.302  27.973  31.431  1.00  0.00    -0.248 NA
ATOM     57  C   UNL A   1      43.688  26.460  30.315  1.00  0.00     0.031 C 
ATOM     58  C   UNL A   1      42.736  29.083  35.706  1.00  0.00     0.029 A 
ATOM     59  C   UNL A   1      42.644  28.740  34.366  1.00  0.00     0.049 A 
ATOM     60  H   UNL A   1      41.292  29.432  32.903  1.00  0.00     0.167 HD
ATOM     61  C   UNL A   1      43.268  27.504  32.310  1.00  0.00     0.074 A 
ATOM     62  C   UNL A   1      44.091  26.568  31.574  1.00  0.00     0.031 C 
ATOM     63  C   UNL A   1      43.452  27.818  33.615  1.00  0.00     0.037 A 
BRANCH  50  64
ATOM     64  C   UNL A   1      39.485  32.022  35.749  1.00  0.00     0.064 A 
ATOM     65  C   UNL A   1      40.030  33.288  36.004  1.00  0.00     0.173 A 
ATOM     66  C   UNL A   1      38.475  31.549  36.596  1.00  0.00     0.173 A 
ATOM     67  F   UNL A   1      41.012  33.769  35.227  1.00  0.00    -0.203 F 
ATOM     68  C   UNL A   1      39.583  34.053  37.077  1.00  0.00     0.198 A 
ATOM     69  C   UNL A   1      38.026  32.318  37.665  1.00  0.00     0.198 A 
ATOM     70  F   UNL A   1      37.938  30.336  36.394  1.00  0.00    -0.203 F 
ATOM     71  F   UNL A   1      40.129  35.252  37.319  1.00  0.00    -0.200 F 
ATOM     72  C   UNL A   1      38.580  33.568  37.906  1.00  0.00     0.200 A 
ATOM     73  F   UNL A   1      37.063  31.847  38.469  1.00  0.00    -0.200 F 
ATOM     74  F   UNL A   1      38.154  34.302  38.943  1.00  0.00    -0.200 F 
ENDBRANCH  50  64
BRANCH  51  75
ATOM     75  C   UNL A   1      42.179  26.652  27.828  1.00  0.00     0.064 A 
ATOM     76  C   UNL A   1      43.160  27.090  26.930  1.00  0.00     0.173 A 
ATOM     77  C   UNL A   1      41.571  25.413  27.590  1.00  0.00     0.173 A 
ATOM     78  F   UNL A   1      43.749  28.282  27.111  1.00  0.00    -0.203 F 
ATOM     79  C   UNL A   1      43.517  26.316  25.828  1.00  0.00     0.198 A 
ATOM     80  C   UNL A   1      41.936  24.636  26.494  1.00  0.00     0.198 A 
ATOM     81  F   UNL A   1      40.620  24.961  28.421  1.00  0.00    -0.203 F 
ATOM     82  F   UNL A   1      44.442  26.764  24.969  1.00  0.00    -0.200 F 
ATOM     83  C   UNL A   1      42.907  25.089  25.613  1.00  0.00     0.200 A 
ATOM     84  F   UNL A   1      41.342  23.452  26.287  1.00  0.00    -0.200 F 
ATOM     85  F   UNL A   1      43.247  24.347  24.550  1.00  0.00    -0.200 F 
ENDBRANCH  51  75
BRANCH  63  86
ATOM     86  C   UNL A   1      44.580  27.146  34.330  1.00  0.00     0.064 A 
ATOM     87  C   UNL A   1      45.826  27.773  34.460  1.00  0.00     0.173 A 
ATOM     88  C   UNL A   1      44.398  25.894  34.933  1.00  0.00     0.173 A 
ATOM     89  F   UNL A   1      46.044  28.966  33.888  1.00  0.00    -0.203 F 
ATOM     90  C   UNL A   1      46.858  27.164  35.169  1.00  0.00     0.198 A 
ATOM     91  C   UNL A   1      45.429  25.292  35.648  1.00  0.00     0.198 A 
ATOM     92  F   UNL A   1      43.220  25.260  34.831  1.00  0.00    -0.203 F 
ATOM     93  F   UNL A   1      48.048  27.770  35.270  1.00  0.00    -0.200 F 
ATOM     94  C   UNL A   1      46.657  25.927  35.765  1.00  0.00     0.200 A 
ATOM     95  F   UNL A   1      45.235  24.098  36.224  1.00  0.00    -0.200 F 
ATOM     96  F   UNL A   1      47.651  25.343  36.449  1.00  0.00    -0.200 F 
ENDBRANCH  63  86
ENDBRANCH  37  38
ENDBRANCH  30  32
ENDBRANCH  29  30
ENDBRANCH  28  29
ENDBRANCH  27  28
ENDBRANCH  26  27
ENDBRANCH   1  26
TORSDOF 17
ENDMDL
