MODEL 1
REMARK VINA RESULT:     -13.0      0.000      0.000
REMARK SMILES CN1C(=O)C[C@@H](C(=O)OCCOCCOC(=O)c2ccc(-c3c4nc(c(-c5c(F)c(F)c(F)c(F)c5F)c5ccc([nH]5)c(-c5c(F)c(F)c(F)c(F)c5F)c5nc(c(-c6c(F)c(F)c(F)c(F)c6F)c6ccc3[nH]6)C=C5)C=C4)cc2)C12CCN(c1ccc(Cl)cn1)CC2
REMARK SMILES IDX 13 1 12 2 11 3 10 4 9 5 7 6 8 7 6 8 1 9 2 10 3 11 81 12 4 13
REMARK SMILES IDX 5 14 82 15 93 16 83 17 92 18 84 19 85 20 86 21 91 22 87 23
REMARK SMILES IDX 90 24 88 25 89 26 14 27 15 28 16 29 17 30 18 31 19 32 80 33
REMARK SMILES IDX 20 34 79 35 21 36 22 37 23 38 73 39 24 40 78 41 72 42 74 43
REMARK SMILES IDX 25 44 77 45 71 46 70 47 26 49 58 50 38 51 57 52 39 53 42 54
REMARK SMILES IDX 56 55 75 56 40 57 41 58 55 60 76 61 43 62 27 63 28 64 36 65
REMARK SMILES IDX 29 66 30 67 34 68 37 69 31 70 32 71 35 72 33 73 59 74 60 75
REMARK SMILES IDX 68 76 61 77 62 78 66 79 69 80 63 81 64 82 67 83 65 84 44 85
REMARK SMILES IDX 45 86 53 87 46 88 47 89 51 90 54 91 48 92 49 93 52 94 50 95
REMARK H PARENT 74 48 42 59
REMARK Flexibility Score: inf
ROOT
ATOM      1  C   UNL A   1      31.773  29.634  25.091  1.00  0.00     0.202 C 
ENDROOT
BRANCH   1   2
ATOM      2  O   UNL A   1      31.684  28.298  25.576  1.00  0.00    -0.374 OA
BRANCH   2   3
ATOM      3  C   UNL A   1      30.753  27.417  24.955  1.00  0.00     0.202 C 
BRANCH   3   4
ATOM      4  C   UNL A   1      30.307  26.174  25.738  1.00  0.00     0.261 C 
BRANCH   4   5
ATOM      5  O   UNL A   1      30.829  24.908  25.271  1.00  0.00    -0.463 OA
BRANCH   5   6
ATOM      6  C   UNL A   1      31.782  24.363  26.065  1.00  0.00     0.311 C 
ATOM      7  O   UNL A   1      31.679  24.262  27.286  1.00  0.00    -0.252 OA
BRANCH   6   8
ATOM      8  C   UNL A   1      33.085  23.994  25.386  1.00  0.00     0.134 C 
ATOM      9  C   UNL A   1      33.303  23.898  21.629  1.00  0.00     0.147 C 
ATOM     10  N   UNL A   1      33.354  24.174  23.055  1.00  0.00    -0.339 N 
ATOM     11  C   UNL A   1      33.652  25.428  23.553  1.00  0.00     0.223 C 
ATOM     12  C   UNL A   1      33.219  23.140  24.097  1.00  0.00     0.060 C 
ATOM     13  O   UNL A   1      33.834  26.445  22.905  1.00  0.00    -0.275 OA
ATOM     14  C   UNL A   1      33.773  25.326  25.046  1.00  0.00     0.118 C 
ATOM     15  C   UNL A   1      32.065  22.172  23.765  1.00  0.00     0.051 C 
ATOM     16  C   UNL A   1      34.566  22.339  24.179  1.00  0.00     0.051 C 
ATOM     17  C   UNL A   1      32.054  20.919  24.624  1.00  0.00     0.120 C 
ATOM     18  C   UNL A   1      34.474  21.056  25.017  1.00  0.00     0.120 C 
ATOM     19  N   UNL A   1      33.355  20.275  24.514  1.00  0.00    -0.356 N 
BRANCH  19  20
ATOM     20  C   UNL A   1      33.356  18.908  24.767  1.00  0.00     0.128 A 
ATOM     21  C   UNL A   1      34.396  18.128  24.251  1.00  0.00     0.048 A 
ATOM     22  N   UNL A   1      32.356  18.355  25.484  1.00  0.00    -0.238 NA
ATOM     23  C   UNL A   1      34.401  16.748  24.442  1.00  0.00     0.026 A 
ATOM     24  C   UNL A   1      32.373  17.005  25.648  1.00  0.00     0.134 A 
ATOM     25  C   UNL A   1      33.357  16.171  25.145  1.00  0.00     0.059 A 
ATOM     26  Cl  UNL A   1      33.292  14.473  25.376  1.00  0.00    -0.083 Cl
ENDBRANCH  19  20
ENDBRANCH   6   8
ENDBRANCH   5   6
ENDBRANCH   4   5
ENDBRANCH   3   4
ENDBRANCH   2   3
ENDBRANCH   1   2
BRANCH   1  27
ATOM     27  C   UNL A   1      31.777  30.737  26.153  1.00  0.00     0.261 C 
BRANCH  27  28
ATOM     28  O   UNL A   1      32.756  30.476  27.174  1.00  0.00    -0.460 OA
BRANCH  28  29
ATOM     29  C   UNL A   1      33.513  31.556  27.482  1.00  0.00     0.338 C 
ATOM     30  O   UNL A   1      33.135  32.705  27.624  1.00  0.00    -0.246 OA
BRANCH  29  31
ATOM     31  C   UNL A   1      34.885  31.134  27.809  1.00  0.00     0.060 A 
ATOM     32  C   UNL A   1      35.112  29.771  28.034  1.00  0.00     0.016 A 
ATOM     33  C   UNL A   1      35.895  32.071  28.033  1.00  0.00     0.016 A 
ATOM     34  C   UNL A   1      36.337  29.346  28.544  1.00  0.00     0.010 A 
ATOM     35  C   UNL A   1      37.125  31.641  28.546  1.00  0.00     0.010 A 
ATOM     36  C   UNL A   1      37.336  30.283  28.846  1.00  0.00    -0.014 A 
BRANCH  36  37
ATOM     37  C   UNL A   1      38.531  29.845  29.612  1.00  0.00     0.031 A 
ATOM     38  C   UNL A   1      38.744  30.372  31.005  1.00  0.00     0.074 A 
ATOM     39  C   UNL A   1      39.387  28.945  29.096  1.00  0.00     0.049 A 
ATOM     40  N   UNL A   1      39.683  30.084  31.871  1.00  0.00    -0.248 NA
ATOM     41  C   UNL A   1      37.763  31.356  31.490  1.00  0.00     0.031 C 
ATOM     42  C   UNL A   1      39.278  28.345  27.768  1.00  0.00     0.029 A 
ATOM     43  N   UNL A   1      40.514  28.376  29.633  1.00  0.00    -0.354 N 
ATOM     44  C   UNL A   1      39.405  30.842  33.000  1.00  0.00     0.074 A 
ATOM     45  C   UNL A   1      38.232  31.633  32.699  1.00  0.00     0.031 C 
ATOM     46  C   UNL A   1      40.298  27.487  27.593  1.00  0.00     0.029 A 
ATOM     47  C   UNL A   1      41.141  27.492  28.788  1.00  0.00     0.049 A 
ATOM     48  H   UNL A   1      40.843  28.581  30.539  1.00  0.00     0.167 HD
ATOM     49  C   UNL A   1      40.058  30.866  34.186  1.00  0.00     0.037 A 
ATOM     50  C   UNL A   1      42.268  26.775  28.960  1.00  0.00     0.037 A 
ATOM     51  C   UNL A   1      41.227  30.080  34.487  1.00  0.00     0.049 A 
ATOM     52  C   UNL A   1      43.007  26.860  30.270  1.00  0.00     0.074 A 
ATOM     53  C   UNL A   1      41.947  30.020  35.667  1.00  0.00     0.029 A 
ATOM     54  N   UNL A   1      41.850  29.223  33.593  1.00  0.00    -0.354 N 
ATOM     55  N   UNL A   1      42.710  27.546  31.347  1.00  0.00    -0.248 NA
ATOM     56  C   UNL A   1      44.237  26.063  30.391  1.00  0.00     0.031 C 
ATOM     57  C   UNL A   1      43.033  29.159  35.472  1.00  0.00     0.029 A 
ATOM     58  C   UNL A   1      42.962  28.649  34.186  1.00  0.00     0.049 A 
ATOM     59  H   UNL A   1      41.548  29.049  32.672  1.00  0.00     0.167 HD
ATOM     60  C   UNL A   1      43.697  27.246  32.277  1.00  0.00     0.074 A 
ATOM     61  C   UNL A   1      44.596  26.304  31.644  1.00  0.00     0.031 C 
ATOM     62  C   UNL A   1      43.844  27.708  33.543  1.00  0.00     0.037 A 
BRANCH  49  63
ATOM     63  C   UNL A   1      39.531  31.786  35.248  1.00  0.00     0.064 A 
ATOM     64  C   UNL A   1      38.626  31.341  36.223  1.00  0.00     0.173 A 
ATOM     65  C   UNL A   1      39.963  33.120  35.312  1.00  0.00     0.173 A 
ATOM     66  F   UNL A   1      38.173  30.078  36.196  1.00  0.00    -0.203 F 
ATOM     67  C   UNL A   1      38.152  32.204  37.208  1.00  0.00     0.198 A 
ATOM     68  C   UNL A   1      39.507  33.973  36.313  1.00  0.00     0.198 A 
ATOM     69  F   UNL A   1      40.831  33.594  34.406  1.00  0.00    -0.203 F 
ATOM     70  F   UNL A   1      37.255  31.770  38.103  1.00  0.00    -0.200 F 
ATOM     71  C   UNL A   1      38.597  33.517  37.256  1.00  0.00     0.200 A 
ATOM     72  F   UNL A   1      39.946  35.239  36.365  1.00  0.00    -0.200 F 
ATOM     73  F   UNL A   1      38.144  34.345  38.207  1.00  0.00    -0.200 F 
ENDBRANCH  49  63
BRANCH  50  74
ATOM     74  C   UNL A   1      42.765  25.904  27.864  1.00  0.00     0.064 A 
ATOM     75  C   UNL A   1      42.337  24.574  27.744  1.00  0.00     0.173 A 
ATOM     76  C   UNL A   1      43.690  26.379  26.924  1.00  0.00     0.173 A 
ATOM     77  F   UNL A   1      41.474  24.065  28.635  1.00  0.00    -0.203 F 
ATOM     78  C   UNL A   1      42.828  23.750  26.732  1.00  0.00     0.198 A 
ATOM     79  C   UNL A   1      44.159  25.563  25.897  1.00  0.00     0.198 A 
ATOM     80  F   UNL A   1      44.132  27.643  26.999  1.00  0.00    -0.203 F 
ATOM     81  F   UNL A   1      42.435  22.470  26.665  1.00  0.00    -0.200 F 
ATOM     82  C   UNL A   1      43.733  24.246  25.806  1.00  0.00     0.200 A 
ATOM     83  F   UNL A   1      45.027  26.049  25.000  1.00  0.00    -0.200 F 
ATOM     84  F   UNL A   1      44.201  23.454  24.833  1.00  0.00    -0.200 F 
ENDBRANCH  50  74
BRANCH  62  85
ATOM     85  C   UNL A   1      45.005  27.185  34.338  1.00  0.00     0.064 A 
ATOM     86  C   UNL A   1      46.238  27.852  34.362  1.00  0.00     0.173 A 
ATOM     87  C   UNL A   1      44.867  26.028  35.121  1.00  0.00     0.173 A 
ATOM     88  F   UNL A   1      46.425  28.953  33.620  1.00  0.00    -0.203 F 
ATOM     89  C   UNL A   1      47.299  27.366  35.124  1.00  0.00     0.198 A 
ATOM     90  C   UNL A   1      45.920  25.560  35.901  1.00  0.00     0.198 A 
ATOM     91  F   UNL A   1      43.705  25.359  35.137  1.00  0.00    -0.203 F 
ATOM     92  F   UNL A   1      48.482  27.995  35.099  1.00  0.00    -0.200 F 
ATOM     93  C   UNL A   1      47.137  26.226  35.897  1.00  0.00     0.200 A 
ATOM     94  F   UNL A   1      45.757  24.467  36.657  1.00  0.00    -0.200 F 
ATOM     95  F   UNL A   1      48.156  25.765  36.635  1.00  0.00    -0.200 F 
ENDBRANCH  62  85
ENDBRANCH  36  37
ENDBRANCH  29  31
ENDBRANCH  28  29
ENDBRANCH  27  28
ENDBRANCH   1  27
TORSDOF 15
ENDMDL
MODEL 2
REMARK VINA RESULT:     -12.8      0.588      7.085
REMARK SMILES CN1C(=O)C[C@@H](C(=O)OCCOCCOC(=O)c2ccc(-c3c4nc(c(-c5c(F)c(F)c(F)c(F)c5F)c5ccc([nH]5)c(-c5c(F)c(F)c(F)c(F)c5F)c5nc(c(-c6c(F)c(F)c(F)c(F)c6F)c6ccc3[nH]6)C=C5)C=C4)cc2)C12CCN(c1ccc(Cl)cn1)CC2
REMARK SMILES IDX 13 1 12 2 11 3 10 4 9 5 7 6 8 7 6 8 1 9 2 10 3 11 81 12 4 13
REMARK SMILES IDX 5 14 82 15 93 16 83 17 92 18 84 19 85 20 86 21 91 22 87 23
REMARK SMILES IDX 90 24 88 25 89 26 14 27 15 28 16 29 17 30 18 31 19 32 80 33
REMARK SMILES IDX 20 34 79 35 21 36 22 37 23 38 73 39 24 40 78 41 72 42 74 43
REMARK SMILES IDX 25 44 77 45 71 46 70 47 26 49 58 50 38 51 57 52 39 53 42 54
REMARK SMILES IDX 56 55 75 56 40 57 41 58 55 60 76 61 43 62 27 63 28 64 36 65
REMARK SMILES IDX 29 66 30 67 34 68 37 69 31 70 32 71 35 72 33 73 59 74 60 75
REMARK SMILES IDX 68 76 61 77 62 78 66 79 69 80 63 81 64 82 67 83 65 84 44 85
REMARK SMILES IDX 45 86 53 87 46 88 47 89 51 90 54 91 48 92 49 93 52 94 50 95
REMARK H PARENT 74 48 42 59
REMARK Flexibility Score: inf
ROOT
ATOM      1  C   UNL A   1      31.277  29.688  24.871  1.00  0.00     0.202 C 
ENDROOT
BRANCH   1   2
ATOM      2  O   UNL A   1      31.513  28.296  25.058  1.00  0.00    -0.374 OA
BRANCH   2   3
ATOM      3  C   UNL A   1      30.422  27.398  24.874  1.00  0.00     0.202 C 
BRANCH   3   4
ATOM      4  C   UNL A   1      30.417  26.098  25.690  1.00  0.00     0.261 C 
BRANCH   4   5
ATOM      5  O   UNL A   1      31.570  25.872  26.533  1.00  0.00    -0.463 OA
BRANCH   5   6
ATOM      6  C   UNL A   1      31.967  24.580  26.613  1.00  0.00     0.311 C 
ATOM      7  O   UNL A   1      31.433  23.744  27.339  1.00  0.00    -0.252 OA
BRANCH   6   8
ATOM      8  C   UNL A   1      33.227  24.221  25.851  1.00  0.00     0.134 C 
ATOM      9  C   UNL A   1      33.260  24.334  22.088  1.00  0.00     0.147 C 
ATOM     10  N   UNL A   1      33.387  24.527  23.523  1.00  0.00    -0.339 N 
ATOM     11  C   UNL A   1      33.740  25.744  24.075  1.00  0.00     0.223 C 
ATOM     12  C   UNL A   1      33.276  23.438  24.511  1.00  0.00     0.060 C 
ATOM     13  O   UNL A   1      33.917  26.792  23.477  1.00  0.00    -0.275 OA
ATOM     14  C   UNL A   1      33.931  25.554  25.551  1.00  0.00     0.118 C 
ATOM     15  C   UNL A   1      32.084  22.517  24.182  1.00  0.00     0.051 C 
ATOM     16  C   UNL A   1      34.605  22.604  24.482  1.00  0.00     0.051 C 
ATOM     17  C   UNL A   1      32.083  21.217  24.970  1.00  0.00     0.120 C 
ATOM     18  C   UNL A   1      34.522  21.278  25.250  1.00  0.00     0.120 C 
ATOM     19  N   UNL A   1      33.360  20.553  24.760  1.00  0.00    -0.356 N 
BRANCH  19  20
ATOM     20  C   UNL A   1      33.340  19.174  24.936  1.00  0.00     0.128 A 
ATOM     21  C   UNL A   1      34.299  18.395  24.280  1.00  0.00     0.048 A 
ATOM     22  N   UNL A   1      32.394  18.608  25.714  1.00  0.00    -0.238 NA
ATOM     23  C   UNL A   1      34.276  17.007  24.393  1.00  0.00     0.026 A 
ATOM     24  C   UNL A   1      32.381  17.251  25.801  1.00  0.00     0.134 A 
ATOM     25  C   UNL A   1      33.284  16.420  25.161  1.00  0.00     0.059 A 
ATOM     26  Cl  UNL A   1      33.184  14.714  25.303  1.00  0.00    -0.083 Cl
ENDBRANCH  19  20
ENDBRANCH   6   8
ENDBRANCH   5   6
ENDBRANCH   4   5
ENDBRANCH   3   4
ENDBRANCH   2   3
ENDBRANCH   1   2
BRANCH   1  27
ATOM     27  C   UNL A   1      31.641  30.596  26.049  1.00  0.00     0.261 C 
BRANCH  27  28
ATOM     28  O   UNL A   1      32.985  30.356  26.499  1.00  0.00    -0.460 OA
BRANCH  28  29
ATOM     29  C   UNL A   1      33.517  31.395  27.185  1.00  0.00     0.338 C 
ATOM     30  O   UNL A   1      32.957  32.424  27.516  1.00  0.00    -0.246 OA
BRANCH  29  31
ATOM     31  C   UNL A   1      34.870  31.050  27.655  1.00  0.00     0.060 A 
ATOM     32  C   UNL A   1      35.145  29.703  27.914  1.00  0.00     0.016 A 
ATOM     33  C   UNL A   1      35.798  32.042  27.972  1.00  0.00     0.016 A 
ATOM     34  C   UNL A   1      36.333  29.347  28.551  1.00  0.00     0.010 A 
ATOM     35  C   UNL A   1      36.991  31.682  28.613  1.00  0.00     0.010 A 
ATOM     36  C   UNL A   1      37.243  30.338  28.945  1.00  0.00    -0.014 A 
BRANCH  36  37
ATOM     37  C   UNL A   1      38.374  29.970  29.834  1.00  0.00     0.031 A 
ATOM     38  C   UNL A   1      39.433  29.030  29.324  1.00  0.00     0.074 A 
ATOM     39  C   UNL A   1      38.489  30.509  31.060  1.00  0.00     0.049 A 
ATOM     40  N   UNL A   1      40.532  28.618  29.906  1.00  0.00    -0.248 NA
ATOM     41  C   UNL A   1      39.228  28.482  27.974  1.00  0.00     0.031 C 
ATOM     42  C   UNL A   1      37.543  31.447  31.660  1.00  0.00     0.029 A 
ATOM     43  N   UNL A   1      39.458  30.348  32.019  1.00  0.00    -0.354 N 
ATOM     44  C   UNL A   1      41.149  27.771  28.995  1.00  0.00     0.074 A 
ATOM     45  C   UNL A   1      40.286  27.696  27.835  1.00  0.00     0.031 C 
ATOM     46  C   UNL A   1      37.978  31.781  32.886  1.00  0.00     0.029 A 
ATOM     47  C   UNL A   1      39.223  31.067  33.166  1.00  0.00     0.049 A 
ATOM     48  H   UNL A   1      40.247  29.770  31.898  1.00  0.00     0.167 HD
ATOM     49  C   UNL A   1      42.335  27.127  29.107  1.00  0.00     0.037 A 
ATOM     50  C   UNL A   1      39.931  31.136  34.309  1.00  0.00     0.037 A 
ATOM     51  C   UNL A   1      43.194  27.199  30.260  1.00  0.00     0.049 A 
ATOM     52  C   UNL A   1      41.221  30.366  34.430  1.00  0.00     0.074 A 
ATOM     53  C   UNL A   1      44.425  26.599  30.459  1.00  0.00     0.029 A 
ATOM     54  N   UNL A   1      42.904  27.911  31.413  1.00  0.00    -0.354 N 
ATOM     55  N   UNL A   1      41.817  29.605  33.545  1.00  0.00    -0.248 NA
ATOM     56  C   UNL A   1      41.940  30.473  35.708  1.00  0.00     0.031 C 
ATOM     57  C   UNL A   1      44.860  26.912  31.752  1.00  0.00     0.029 A 
ATOM     58  C   UNL A   1      43.921  27.745  32.340  1.00  0.00     0.049 A 
ATOM     59  H   UNL A   1      42.096  28.455  31.554  1.00  0.00     0.167 HD
ATOM     60  C   UNL A   1      42.989  29.163  34.147  1.00  0.00     0.074 A 
ATOM     61  C   UNL A   1      43.027  29.753  35.469  1.00  0.00     0.031 C 
ATOM     62  C   UNL A   1      43.947  28.343  33.650  1.00  0.00     0.037 A 
BRANCH  49  63
ATOM     63  C   UNL A   1      42.768  26.270  27.953  1.00  0.00     0.064 A 
ATOM     64  C   UNL A   1      42.313  24.951  27.806  1.00  0.00     0.173 A 
ATOM     65  C   UNL A   1      43.622  26.785  26.965  1.00  0.00     0.173 A 
ATOM     66  F   UNL A   1      41.506  24.409  28.730  1.00  0.00    -0.203 F 
ATOM     67  C   UNL A   1      42.716  24.170  26.725  1.00  0.00     0.198 A 
ATOM     68  C   UNL A   1      44.002  26.010  25.872  1.00  0.00     0.198 A 
ATOM     69  F   UNL A   1      44.082  28.041  27.057  1.00  0.00    -0.203 F 
ATOM     70  F   UNL A   1      42.304  22.900  26.627  1.00  0.00    -0.200 F 
ATOM     71  C   UNL A   1      43.555  24.702  25.757  1.00  0.00     0.200 A 
ATOM     72  F   UNL A   1      44.805  26.528  24.932  1.00  0.00    -0.200 F 
ATOM     73  F   UNL A   1      43.939  23.952  24.715  1.00  0.00    -0.200 F 
ENDBRANCH  49  63
BRANCH  50  74
ATOM     74  C   UNL A   1      39.441  31.973  35.435  1.00  0.00     0.064 A 
ATOM     75  C   UNL A   1      38.557  31.456  36.391  1.00  0.00     0.173 A 
ATOM     76  C   UNL A   1      39.836  33.312  35.568  1.00  0.00     0.173 A 
ATOM     77  F   UNL A   1      38.128  30.189  36.292  1.00  0.00    -0.203 F 
ATOM     78  C   UNL A   1      38.075  32.251  37.430  1.00  0.00     0.198 A 
ATOM     79  C   UNL A   1      39.375  34.098  36.621  1.00  0.00     0.198 A 
ATOM     80  F   UNL A   1      40.678  33.854  34.676  1.00  0.00    -0.203 F 
ATOM     81  F   UNL A   1      37.197  31.745  38.307  1.00  0.00    -0.200 F 
ATOM     82  C   UNL A   1      38.489  33.570  37.548  1.00  0.00     0.200 A 
ATOM     83  F   UNL A   1      39.785  35.368  36.736  1.00  0.00    -0.200 F 
ATOM     84  F   UNL A   1      38.027  34.332  38.548  1.00  0.00    -0.200 F 
ENDBRANCH  50  74
BRANCH  62  85
ATOM     85  C   UNL A   1      45.132  28.055  34.525  1.00  0.00     0.064 A 
ATOM     86  C   UNL A   1      46.260  28.887  34.530  1.00  0.00     0.173 A 
ATOM     87  C   UNL A   1      45.117  26.960  35.403  1.00  0.00     0.173 A 
ATOM     88  F   UNL A   1      46.328  29.938  33.699  1.00  0.00    -0.203 F 
ATOM     89  C   UNL A   1      47.342  28.619  35.365  1.00  0.00     0.198 A 
ATOM     90  C   UNL A   1      46.188  26.710  36.255  1.00  0.00     0.198 A 
ATOM     91  F   UNL A   1      44.057  26.139  35.441  1.00  0.00    -0.203 F 
ATOM     92  F   UNL A   1      48.429  29.403  35.323  1.00  0.00    -0.200 F 
ATOM     93  C   UNL A   1      47.303  27.536  36.232  1.00  0.00     0.200 A 
ATOM     94  F   UNL A   1      46.143  25.672  37.100  1.00  0.00    -0.200 F 
ATOM     95  F   UNL A   1      48.341  27.285  37.040  1.00  0.00    -0.200 F 
ENDBRANCH  62  85
ENDBRANCH  36  37
ENDBRANCH  29  31
ENDBRANCH  28  29
ENDBRANCH  27  28
ENDBRANCH   1  27
TORSDOF 15
ENDMDL
MODEL 3
REMARK VINA RESULT:     -12.5      1.350      2.392
REMARK SMILES CN1C(=O)C[C@@H](C(=O)OCCOCCOC(=O)c2ccc(-c3c4nc(c(-c5c(F)c(F)c(F)c(F)c5F)c5ccc([nH]5)c(-c5c(F)c(F)c(F)c(F)c5F)c5nc(c(-c6c(F)c(F)c(F)c(F)c6F)c6ccc3[nH]6)C=C5)C=C4)cc2)C12CCN(c1ccc(Cl)cn1)CC2
REMARK SMILES IDX 13 1 12 2 11 3 10 4 9 5 7 6 8 7 6 8 1 9 2 10 3 11 81 12 4 13
REMARK SMILES IDX 5 14 82 15 93 16 83 17 92 18 84 19 85 20 86 21 91 22 87 23
REMARK SMILES IDX 90 24 88 25 89 26 14 27 15 28 16 29 17 30 18 31 19 32 80 33
REMARK SMILES IDX 20 34 79 35 21 36 22 37 23 38 73 39 24 40 78 41 72 42 74 43
REMARK SMILES IDX 25 44 77 45 71 46 70 47 26 49 58 50 38 51 57 52 39 53 42 54
REMARK SMILES IDX 56 55 75 56 40 57 41 58 55 60 76 61 43 62 27 63 28 64 36 65
REMARK SMILES IDX 29 66 30 67 34 68 37 69 31 70 32 71 35 72 33 73 59 74 60 75
REMARK SMILES IDX 68 76 61 77 62 78 66 79 69 80 63 81 64 82 67 83 65 84 44 85
REMARK SMILES IDX 45 86 53 87 46 88 47 89 51 90 54 91 48 92 49 93 52 94 50 95
REMARK H PARENT 74 48 42 59
REMARK Flexibility Score: inf
ROOT
ATOM      1  C   UNL A   1      31.633  30.777  26.175  1.00  0.00     0.202 C 
ENDROOT
BRANCH   1   2
ATOM      2  O   UNL A   1      32.829  30.194  25.665  1.00  0.00    -0.374 OA
BRANCH   2   3
ATOM      3  C   UNL A   1      32.758  28.878  25.125  1.00  0.00     0.202 C 
BRANCH   3   4
ATOM      4  C   UNL A   1      33.658  28.543  23.928  1.00  0.00     0.261 C 
BRANCH   4   5
ATOM      5  O   UNL A   1      32.979  28.127  22.720  1.00  0.00    -0.463 OA
BRANCH   5   6
ATOM      6  C   UNL A   1      33.110  26.812  22.422  1.00  0.00     0.311 C 
ATOM      7  O   UNL A   1      34.132  26.317  21.950  1.00  0.00    -0.252 OA
BRANCH   6   8
ATOM      8  C   UNL A   1      31.861  25.967  22.568  1.00  0.00     0.134 C 
ATOM      9  C   UNL A   1      29.944  25.965  25.808  1.00  0.00     0.147 C 
ATOM     10  N   UNL A   1      30.480  26.128  24.467  1.00  0.00    -0.339 N 
ATOM     11  C   UNL A   1      30.039  27.120  23.612  1.00  0.00     0.223 C 
ATOM     12  C   UNL A   1      31.440  25.196  23.848  1.00  0.00     0.060 C 
ATOM     13  O   UNL A   1      29.233  27.998  23.869  1.00  0.00    -0.275 OA
ATOM     14  C   UNL A   1      30.681  26.906  22.272  1.00  0.00     0.118 C 
ATOM     15  C   UNL A   1      32.554  24.812  24.844  1.00  0.00     0.051 C 
ATOM     16  C   UNL A   1      30.665  23.905  23.407  1.00  0.00     0.051 C 
ATOM     17  C   UNL A   1      33.403  23.638  24.385  1.00  0.00     0.120 C 
ATOM     18  C   UNL A   1      31.580  22.738  23.007  1.00  0.00     0.120 C 
ATOM     19  N   UNL A   1      32.520  22.518  24.096  1.00  0.00    -0.356 N 
BRANCH  19  20
ATOM     20  C   UNL A   1      33.112  21.264  24.192  1.00  0.00     0.128 A 
ATOM     21  C   UNL A   1      32.399  20.145  23.748  1.00  0.00     0.048 A 
ATOM     22  N   UNL A   1      34.345  21.140  24.724  1.00  0.00    -0.238 NA
ATOM     23  C   UNL A   1      32.941  18.868  23.878  1.00  0.00     0.026 A 
ATOM     24  C   UNL A   1      34.851  19.885  24.853  1.00  0.00     0.134 A 
ATOM     25  C   UNL A   1      34.191  18.734  24.457  1.00  0.00     0.059 A 
ATOM     26  Cl  UNL A   1      34.891  17.183  24.677  1.00  0.00    -0.083 Cl
ENDBRANCH  19  20
ENDBRANCH   6   8
ENDBRANCH   5   6
ENDBRANCH   4   5
ENDBRANCH   3   4
ENDBRANCH   2   3
ENDBRANCH   1   2
BRANCH   1  27
ATOM     27  C   UNL A   1      31.810  32.027  27.041  1.00  0.00     0.261 C 
BRANCH  27  28
ATOM     28  O   UNL A   1      33.081  32.655  26.800  1.00  0.00    -0.460 OA
BRANCH  28  29
ATOM     29  C   UNL A   1      33.638  33.188  27.914  1.00  0.00     0.338 C 
ATOM     30  O   UNL A   1      33.131  33.981  28.685  1.00  0.00    -0.246 OA
BRANCH  29  31
ATOM     31  C   UNL A   1      34.930  32.537  28.192  1.00  0.00     0.060 A 
ATOM     32  C   UNL A   1      34.918  31.174  28.508  1.00  0.00     0.016 A 
ATOM     33  C   UNL A   1      36.107  33.280  28.284  1.00  0.00     0.016 A 
ATOM     34  C   UNL A   1      36.078  30.559  28.977  1.00  0.00     0.010 A 
ATOM     35  C   UNL A   1      37.272  32.661  28.757  1.00  0.00     0.010 A 
ATOM     36  C   UNL A   1      37.251  31.309  29.148  1.00  0.00    -0.014 A 
BRANCH  36  37
ATOM     37  C   UNL A   1      38.396  30.706  29.875  1.00  0.00     0.031 A 
ATOM     38  C   UNL A   1      38.629  31.076  31.315  1.00  0.00     0.074 A 
ATOM     39  C   UNL A   1      39.187  29.796  29.279  1.00  0.00     0.049 A 
ATOM     40  N   UNL A   1      39.531  30.631  32.154  1.00  0.00    -0.248 NA
ATOM     41  C   UNL A   1      37.722  32.082  31.888  1.00  0.00     0.031 C 
ATOM     42  C   UNL A   1      39.051  29.339  27.897  1.00  0.00     0.029 A 
ATOM     43  N   UNL A   1      40.259  29.089  29.765  1.00  0.00    -0.354 N 
ATOM     44  C   UNL A   1      39.296  31.295  33.351  1.00  0.00     0.074 A 
ATOM     45  C   UNL A   1      38.193  32.202  33.122  1.00  0.00     0.031 C 
ATOM     46  C   UNL A   1      40.003  28.425  27.646  1.00  0.00     0.029 A 
ATOM     47  C   UNL A   1      40.826  28.246  28.841  1.00  0.00     0.049 A 
ATOM     48  H   UNL A   1      40.590  29.178  30.688  1.00  0.00     0.167 HD
ATOM     49  C   UNL A   1      39.932  31.150  34.538  1.00  0.00     0.037 A 
ATOM     50  C   UNL A   1      41.891  27.429  28.949  1.00  0.00     0.037 A 
ATOM     51  C   UNL A   1      41.031  30.249  34.768  1.00  0.00     0.049 A 
ATOM     52  C   UNL A   1      42.616  27.326  30.266  1.00  0.00     0.074 A 
ATOM     53  C   UNL A   1      41.727  30.017  35.941  1.00  0.00     0.029 A 
ATOM     54  N   UNL A   1      41.598  29.437  33.798  1.00  0.00    -0.354 N 
ATOM     55  N   UNL A   1      42.357  27.925  31.403  1.00  0.00    -0.248 NA
ATOM     56  C   UNL A   1      43.779  26.427  30.316  1.00  0.00     0.031 C 
ATOM     57  C   UNL A   1      42.746  29.096  35.670  1.00  0.00     0.029 A 
ATOM     58  C   UNL A   1      42.654  28.721  34.339  1.00  0.00     0.049 A 
ATOM     59  H   UNL A   1      41.297  29.378  32.863  1.00  0.00     0.167 HD
ATOM     60  C   UNL A   1      43.305  27.458  32.306  1.00  0.00     0.074 A 
ATOM     61  C   UNL A   1      44.136  26.515  31.589  1.00  0.00     0.031 C 
ATOM     62  C   UNL A   1      43.469  27.782  33.613  1.00  0.00     0.037 A 
BRANCH  49  63
ATOM     63  C   UNL A   1      39.463  32.001  35.682  1.00  0.00     0.064 A 
ATOM     64  C   UNL A   1      38.458  31.565  36.558  1.00  0.00     0.173 A 
ATOM     65  C   UNL A   1      40.049  33.253  35.925  1.00  0.00     0.173 A 
ATOM     66  F   UNL A   1      37.858  30.382  36.360  1.00  0.00    -0.203 F 
ATOM     67  C   UNL A   1      38.039  32.361  37.621  1.00  0.00     0.198 A 
ATOM     68  C   UNL A   1      39.646  34.035  37.004  1.00  0.00     0.198 A 
ATOM     69  F   UNL A   1      41.017  33.714  35.119  1.00  0.00    -0.203 F 
ATOM     70  F   UNL A   1      37.048  31.944  38.420  1.00  0.00    -0.200 F 
ATOM     71  C   UNL A   1      38.637  33.593  37.847  1.00  0.00     0.200 A 
ATOM     72  F   UNL A   1      40.232  35.220  37.226  1.00  0.00    -0.200 F 
ATOM     73  F   UNL A   1      38.237  34.356  38.872  1.00  0.00    -0.200 F 
ENDBRANCH  49  63
BRANCH  50  74
ATOM     74  C   UNL A   1      42.336  26.632  27.776  1.00  0.00     0.064 A 
ATOM     75  C   UNL A   1      43.299  27.127  26.886  1.00  0.00     0.173 A 
ATOM     76  C   UNL A   1      41.796  25.365  27.514  1.00  0.00     0.173 A 
ATOM     77  F   UNL A   1      43.825  28.346  27.079  1.00  0.00    -0.203 F 
ATOM     78  C   UNL A   1      43.693  26.390  25.770  1.00  0.00     0.198 A 
ATOM     79  C   UNL A   1      42.209  24.618  26.414  1.00  0.00     0.198 A 
ATOM     80  F   UNL A   1      40.869  24.848  28.335  1.00  0.00    -0.203 F 
ATOM     81  F   UNL A   1      44.584  26.905  24.912  1.00  0.00    -0.200 F 
ATOM     82  C   UNL A   1      43.153  25.134  25.538  1.00  0.00     0.200 A 
ATOM     83  F   UNL A   1      41.692  23.402  26.198  1.00  0.00    -0.200 F 
ATOM     84  F   UNL A   1      43.535  24.427  24.467  1.00  0.00    -0.200 F 
ENDBRANCH  50  74
BRANCH  62  85
ATOM     85  C   UNL A   1      44.574  27.092  34.360  1.00  0.00     0.064 A 
ATOM     86  C   UNL A   1      45.849  27.663  34.475  1.00  0.00     0.173 A 
ATOM     87  C   UNL A   1      44.339  25.870  35.007  1.00  0.00     0.173 A 
ATOM     88  F   UNL A   1      46.127  28.824  33.862  1.00  0.00    -0.203 F 
ATOM     89  C   UNL A   1      46.858  27.023  35.191  1.00  0.00     0.198 A 
ATOM     90  C   UNL A   1      45.341  25.245  35.744  1.00  0.00     0.198 A 
ATOM     91  F   UNL A   1      43.134  25.287  34.933  1.00  0.00    -0.203 F 
ATOM     92  F   UNL A   1      48.082  27.565  35.252  1.00  0.00    -0.200 F 
ATOM     93  C   UNL A   1      46.601  25.819  35.831  1.00  0.00     0.200 A 
ATOM     94  F   UNL A   1      45.087  24.089  36.372  1.00  0.00    -0.200 F 
ATOM     95  F   UNL A   1      47.570  25.209  36.526  1.00  0.00    -0.200 F 
ENDBRANCH  62  85
ENDBRANCH  36  37
ENDBRANCH  29  31
ENDBRANCH  28  29
ENDBRANCH  27  28
ENDBRANCH   1  27
TORSDOF 15
ENDMDL
