MODEL 1
REMARK VINA RESULT:     -11.9      0.000      0.000
REMARK SMILES Cc1ccnc(C(=O)c2[nH]c3cc(F)ccc3c2CC(=O)OCCOCCOC(=O)c2ccc(-c3c4nc(c(-c5c(F)c(F)c(F)c(F)c5F)c5ccc([nH]5)c(-c5c(F)c(F)c(F)c(F)c5F)c5nc(c(-c6c(F)c(F)c(F)c(F)c6F)c6ccc3[nH]6)C=C5)C=C4)cc2)c1
REMARK SMILES IDX 24 1 23 2 22 3 20 4 21 5 19 6 18 7 9 8 10 9 11 10 17 12
REMARK SMILES IDX 12 13 16 14 13 15 15 16 14 17 7 18 8 19 6 20 1 21 2 22 3 23
REMARK SMILES IDX 94 24 4 25 5 26 25 27 26 28 27 29 28 30 29 31 30 32 31 33
REMARK SMILES IDX 32 34 93 35 33 36 92 37 34 38 35 39 36 40 86 41 37 42 91 43
REMARK SMILES IDX 85 44 87 45 38 46 90 47 84 48 83 49 39 51 71 52 51 53 70 54
REMARK SMILES IDX 52 55 55 56 69 57 88 58 53 59 54 60 68 62 89 63 56 64 40 65
REMARK SMILES IDX 41 66 49 67 42 68 43 69 47 70 50 71 44 72 45 73 48 74 46 75
REMARK SMILES IDX 72 76 73 77 81 78 74 79 75 80 79 81 82 82 76 83 77 84 80 85
REMARK SMILES IDX 78 86 57 87 58 88 66 89 59 90 60 91 64 92 67 93 61 94 62 95
REMARK SMILES IDX 65 96 63 97
REMARK H PARENT 10 11 87 50 55 61
REMARK Flexibility Score: inf
ROOT
ATOM      1  C   UNL A   1      33.528  23.063  26.956  1.00  0.00     0.202 C 
ENDROOT
BRANCH   1   2
ATOM      2  C   UNL A   1      32.177  23.396  26.314  1.00  0.00     0.261 C 
BRANCH   2   3
ATOM      3  O   UNL A   1      31.976  24.811  26.095  1.00  0.00    -0.463 OA
BRANCH   3   4
ATOM      4  C   UNL A   1      31.072  25.115  25.123  1.00  0.00     0.310 C 
ATOM      5  O   UNL A   1      30.842  24.392  24.154  1.00  0.00    -0.252 OA
BRANCH   4   6
ATOM      6  C   UNL A   1      30.412  26.471  25.238  1.00  0.00     0.161 C 
BRANCH   6   7
ATOM      7  C   UNL A   1      30.720  27.540  24.220  1.00  0.00     0.000 A 
ATOM      8  C   UNL A   1      31.924  28.235  24.059  1.00  0.00     0.093 A 
ATOM      9  N   UNL A   1      31.733  29.119  23.017  1.00  0.00    -0.351 N 
ATOM     10  C   UNL A   1      30.400  29.202  22.691  1.00  0.00     0.049 A 
ATOM     11  H   UNL A   1      32.453  29.621  22.568  1.00  0.00     0.167 HD
ATOM     12  C   UNL A   1      29.744  28.204  23.406  1.00  0.00     0.004 A 
ATOM     13  C   UNL A   1      29.726  30.090  21.840  1.00  0.00     0.066 A 
ATOM     14  C   UNL A   1      28.342  28.084  23.270  1.00  0.00     0.013 A 
ATOM     15  C   UNL A   1      28.339  29.965  21.759  1.00  0.00     0.125 A 
ATOM     16  C   UNL A   1      27.649  28.984  22.455  1.00  0.00     0.040 A 
ATOM     17  F   UNL A   1      27.653  30.830  20.999  1.00  0.00    -0.207 F 
BRANCH   8  18
ATOM     18  C   UNL A   1      33.153  28.063  24.828  1.00  0.00     0.227 C 
ATOM     19  O   UNL A   1      33.938  27.145  24.591  1.00  0.00    -0.285 OA
BRANCH  18  20
ATOM     20  C   UNL A   1      33.490  28.960  25.976  1.00  0.00     0.113 A 
ATOM     21  C   UNL A   1      36.317  29.681  28.388  1.00  0.00     0.044 C 
ATOM     22  C   UNL A   1      35.026  29.769  27.630  1.00  0.00    -0.047 A 
ATOM     23  C   UNL A   1      34.218  30.901  27.758  1.00  0.00     0.023 A 
ATOM     24  C   UNL A   1      34.658  28.779  26.711  1.00  0.00     0.036 A 
ATOM     25  C   UNL A   1      33.060  30.984  27.002  1.00  0.00     0.112 A 
ATOM     26  N   UNL A   1      32.670  30.032  26.130  1.00  0.00    -0.253 NA
ENDBRANCH  18  20
ENDBRANCH   8  18
ENDBRANCH   6   7
ENDBRANCH   4   6
ENDBRANCH   3   4
ENDBRANCH   2   3
ENDBRANCH   1   2
BRANCH   1  27
ATOM     27  O   UNL A   1      34.634  22.789  26.099  1.00  0.00    -0.374 OA
BRANCH  27  28
ATOM     28  C   UNL A   1      34.895  21.419  25.800  1.00  0.00     0.202 C 
BRANCH  28  29
ATOM     29  C   UNL A   1      36.338  21.048  25.425  1.00  0.00     0.261 C 
BRANCH  29  30
ATOM     30  O   UNL A   1      37.274  22.120  25.619  1.00  0.00    -0.460 OA
BRANCH  30  31
ATOM     31  C   UNL A   1      38.517  21.722  25.980  1.00  0.00     0.338 C 
ATOM     32  O   UNL A   1      39.038  20.629  25.808  1.00  0.00    -0.246 OA
BRANCH  31  33
ATOM     33  C   UNL A   1      39.265  22.876  26.499  1.00  0.00     0.060 A 
ATOM     34  C   UNL A   1      38.839  24.154  26.116  1.00  0.00     0.016 A 
ATOM     35  C   UNL A   1      40.383  22.710  27.318  1.00  0.00     0.016 A 
ATOM     36  C   UNL A   1      39.541  25.277  26.544  1.00  0.00     0.010 A 
ATOM     37  C   UNL A   1      41.095  23.836  27.735  1.00  0.00     0.010 A 
ATOM     38  C   UNL A   1      40.685  25.122  27.337  1.00  0.00    -0.014 A 
BRANCH  38  39
ATOM     39  C   UNL A   1      41.506  26.305  27.679  1.00  0.00     0.031 A 
ATOM     40  C   UNL A   1      40.912  27.383  28.537  1.00  0.00     0.074 A 
ATOM     41  C   UNL A   1      42.770  26.398  27.229  1.00  0.00     0.049 A 
ATOM     42  N   UNL A   1      41.430  28.524  28.914  1.00  0.00    -0.248 NA
ATOM     43  C   UNL A   1      39.548  27.147  29.037  1.00  0.00     0.031 C 
ATOM     44  C   UNL A   1      43.452  25.388  26.421  1.00  0.00     0.029 A 
ATOM     45  N   UNL A   1      43.701  27.394  27.380  1.00  0.00    -0.354 N 
ATOM     46  C   UNL A   1      40.456  29.142  29.686  1.00  0.00     0.074 A 
ATOM     47  C   UNL A   1      39.307  28.265  29.707  1.00  0.00     0.031 C 
ATOM     48  C   UNL A   1      44.692  25.821  26.138  1.00  0.00     0.029 A 
ATOM     49  C   UNL A   1      44.875  27.152  26.710  1.00  0.00     0.049 A 
ATOM     50  H   UNL A   1      43.544  28.203  27.918  1.00  0.00     0.167 HD
ATOM     51  C   UNL A   1      40.524  30.337  30.321  1.00  0.00     0.037 A 
ATOM     52  C   UNL A   1      45.960  27.935  26.556  1.00  0.00     0.037 A 
ATOM     53  C   UNL A   1      41.678  31.196  30.293  1.00  0.00     0.049 A 
ATOM     54  C   UNL A   1      45.973  29.294  27.208  1.00  0.00     0.074 A 
ATOM     55  C   UNL A   1      41.869  32.407  30.935  1.00  0.00     0.029 A 
ATOM     56  N   UNL A   1      42.835  30.939  29.570  1.00  0.00    -0.354 N 
ATOM     57  N   UNL A   1      45.069  29.854  27.975  1.00  0.00    -0.248 NA
ATOM     58  C   UNL A   1      47.156  30.133  26.968  1.00  0.00     0.031 C 
ATOM     59  C   UNL A   1      43.114  32.914  30.549  1.00  0.00     0.029 A 
ATOM     60  C   UNL A   1      43.726  31.991  29.716  1.00  0.00     0.049 A 
ATOM     61  H   UNL A   1      42.999  30.130  29.034  1.00  0.00     0.167 HD
ATOM     62  C   UNL A   1      45.581  31.096  28.328  1.00  0.00     0.074 A 
ATOM     63  C   UNL A   1      46.886  31.198  27.709  1.00  0.00     0.031 C 
ATOM     64  C   UNL A   1      45.021  32.069  29.089  1.00  0.00     0.037 A 
BRANCH  51  65
ATOM     65  C   UNL A   1      39.313  30.804  31.075  1.00  0.00     0.064 A 
ATOM     66  C   UNL A   1      38.324  31.593  30.472  1.00  0.00     0.173 A 
ATOM     67  C   UNL A   1      39.113  30.404  32.405  1.00  0.00     0.173 A 
ATOM     68  F   UNL A   1      38.472  32.013  29.206  1.00  0.00    -0.203 F 
ATOM     69  C   UNL A   1      37.185  31.976  31.177  1.00  0.00     0.198 A 
ATOM     70  C   UNL A   1      37.961  30.765  33.098  1.00  0.00     0.198 A 
ATOM     71  F   UNL A   1      40.028  29.646  33.029  1.00  0.00    -0.203 F 
ATOM     72  F   UNL A   1      36.268  32.760  30.591  1.00  0.00    -0.200 F 
ATOM     73  C   UNL A   1      37.000  31.554  32.485  1.00  0.00     0.200 A 
ATOM     74  F   UNL A   1      37.778  30.345  34.358  1.00  0.00    -0.200 F 
ATOM     75  F   UNL A   1      35.896  31.912  33.157  1.00  0.00    -0.200 F 
ENDBRANCH  51  65
BRANCH  52  76
ATOM     76  C   UNL A   1      47.110  27.475  25.732  1.00  0.00     0.064 A 
ATOM     77  C   UNL A   1      48.213  26.839  26.318  1.00  0.00     0.173 A 
ATOM     78  C   UNL A   1      47.150  27.696  24.347  1.00  0.00     0.173 A 
ATOM     79  F   UNL A   1      48.237  26.627  27.642  1.00  0.00    -0.203 F 
ATOM     80  C   UNL A   1      49.319  26.464  25.558  1.00  0.00     0.198 A 
ATOM     81  C   UNL A   1      48.241  27.291  23.581  1.00  0.00     0.198 A 
ATOM     82  F   UNL A   1      46.125  28.304  23.733  1.00  0.00    -0.203 F 
ATOM     83  F   UNL A   1      50.383  25.910  26.155  1.00  0.00    -0.200 F 
ATOM     84  C   UNL A   1      49.331  26.685  24.189  1.00  0.00     0.200 A 
ATOM     85  F   UNL A   1      48.242  27.496  22.257  1.00  0.00    -0.200 F 
ATOM     86  F   UNL A   1      50.395  26.328  23.458  1.00  0.00    -0.200 F 
ENDBRANCH  52  76
BRANCH  64  87
ATOM     87  C   UNL A   1      45.826  33.317  29.310  1.00  0.00     0.064 A 
ATOM     88  C   UNL A   1      46.806  33.390  30.310  1.00  0.00     0.173 A 
ATOM     89  C   UNL A   1      45.648  34.435  28.481  1.00  0.00     0.173 A 
ATOM     90  F   UNL A   1      47.004  32.353  31.139  1.00  0.00    -0.203 F 
ATOM     91  C   UNL A   1      47.560  34.547  30.490  1.00  0.00     0.198 A 
ATOM     92  C   UNL A   1      46.427  35.577  28.641  1.00  0.00     0.198 A 
ATOM     93  F   UNL A   1      44.729  34.413  27.503  1.00  0.00    -0.203 F 
ATOM     94  F   UNL A   1      48.455  34.612  31.485  1.00  0.00    -0.200 F 
ATOM     95  C   UNL A   1      47.376  35.635  29.650  1.00  0.00     0.200 A 
ATOM     96  F   UNL A   1      46.260  36.621  27.818  1.00  0.00    -0.200 F 
ATOM     97  F   UNL A   1      48.111  36.743  29.817  1.00  0.00    -0.200 F 
ENDBRANCH  64  87
ENDBRANCH  38  39
ENDBRANCH  31  33
ENDBRANCH  30  31
ENDBRANCH  29  30
ENDBRANCH  28  29
ENDBRANCH  27  28
ENDBRANCH   1  27
TORSDOF 17
ENDMDL
MODEL 2
REMARK VINA RESULT:     -11.8      2.550      4.443
REMARK SMILES Cc1ccnc(C(=O)c2[nH]c3cc(F)ccc3c2CC(=O)OCCOCCOC(=O)c2ccc(-c3c4nc(c(-c5c(F)c(F)c(F)c(F)c5F)c5ccc([nH]5)c(-c5c(F)c(F)c(F)c(F)c5F)c5nc(c(-c6c(F)c(F)c(F)c(F)c6F)c6ccc3[nH]6)C=C5)C=C4)cc2)c1
REMARK SMILES IDX 24 1 23 2 22 3 20 4 21 5 19 6 18 7 9 8 10 9 11 10 17 12
REMARK SMILES IDX 12 13 16 14 13 15 15 16 14 17 7 18 8 19 6 20 1 21 2 22 3 23
REMARK SMILES IDX 94 24 4 25 5 26 25 27 26 28 27 29 28 30 29 31 30 32 31 33
REMARK SMILES IDX 32 34 93 35 33 36 92 37 34 38 35 39 36 40 86 41 37 42 91 43
REMARK SMILES IDX 85 44 87 45 38 46 90 47 84 48 83 49 39 51 71 52 51 53 70 54
REMARK SMILES IDX 52 55 55 56 69 57 88 58 53 59 54 60 68 62 89 63 56 64 40 65
REMARK SMILES IDX 41 66 49 67 42 68 43 69 47 70 50 71 44 72 45 73 48 74 46 75
REMARK SMILES IDX 72 76 73 77 81 78 74 79 75 80 79 81 82 82 76 83 77 84 80 85
REMARK SMILES IDX 78 86 57 87 58 88 66 89 59 90 60 91 64 92 67 93 61 94 62 95
REMARK SMILES IDX 65 96 63 97
REMARK H PARENT 10 11 87 50 55 61
REMARK Flexibility Score: inf
ROOT
ATOM      1  C   UNL A   1      38.514  23.138  26.143  1.00  0.00     0.202 C 
ENDROOT
BRANCH   1   2
ATOM      2  C   UNL A   1      37.212  23.299  25.350  1.00  0.00     0.261 C 
BRANCH   2   3
ATOM      3  O   UNL A   1      36.177  23.997  26.078  1.00  0.00    -0.463 OA
BRANCH   3   4
ATOM      4  C   UNL A   1      35.150  24.456  25.310  1.00  0.00     0.310 C 
ATOM      5  O   UNL A   1      34.201  25.101  25.755  1.00  0.00    -0.252 OA
BRANCH   4   6
ATOM      6  C   UNL A   1      35.178  24.042  23.856  1.00  0.00     0.161 C 
BRANCH   6   7
ATOM      7  C   UNL A   1      34.086  23.157  23.310  1.00  0.00     0.000 A 
ATOM      8  C   UNL A   1      33.000  23.542  22.516  1.00  0.00     0.093 A 
ATOM      9  N   UNL A   1      32.264  22.400  22.274  1.00  0.00    -0.351 N 
ATOM     10  C   UNL A   1      32.681  21.373  23.088  1.00  0.00     0.049 A 
ATOM     11  H   UNL A   1      31.540  22.330  21.609  1.00  0.00     0.167 HD
ATOM     12  C   UNL A   1      33.839  21.807  23.727  1.00  0.00     0.004 A 
ATOM     13  C   UNL A   1      32.116  20.112  23.321  1.00  0.00     0.066 A 
ATOM     14  C   UNL A   1      34.468  20.940  24.650  1.00  0.00     0.013 A 
ATOM     15  C   UNL A   1      32.742  19.299  24.266  1.00  0.00     0.125 A 
ATOM     16  C   UNL A   1      33.897  19.693  24.923  1.00  0.00     0.040 A 
ATOM     17  F   UNL A   1      32.201  18.107  24.557  1.00  0.00    -0.207 F 
BRANCH   8  18
ATOM     18  C   UNL A   1      32.698  24.882  22.023  1.00  0.00     0.227 C 
ATOM     19  O   UNL A   1      33.279  25.357  21.048  1.00  0.00    -0.285 OA
BRANCH  18  20
ATOM     20  C   UNL A   1      31.705  25.764  22.712  1.00  0.00     0.113 A 
ATOM     21  C   UNL A   1      30.092  29.171  22.371  1.00  0.00     0.044 C 
ATOM     22  C   UNL A   1      30.420  27.784  22.837  1.00  0.00    -0.047 A 
ATOM     23  C   UNL A   1      29.581  27.137  23.747  1.00  0.00     0.023 A 
ATOM     24  C   UNL A   1      31.503  27.078  22.301  1.00  0.00     0.036 A 
ATOM     25  C   UNL A   1      29.874  25.835  24.117  1.00  0.00     0.112 A 
ATOM     26  N   UNL A   1      30.925  25.142  23.634  1.00  0.00    -0.253 NA
ENDBRANCH  18  20
ENDBRANCH   8  18
ENDBRANCH   6   7
ENDBRANCH   4   6
ENDBRANCH   3   4
ENDBRANCH   2   3
ENDBRANCH   1   2
BRANCH   1  27
ATOM     27  O   UNL A   1      38.977  21.818  26.421  1.00  0.00    -0.374 OA
BRANCH  27  28
ATOM     28  C   UNL A   1      38.546  20.784  25.540  1.00  0.00     0.202 C 
BRANCH  28  29
ATOM     29  C   UNL A   1      39.475  19.573  25.376  1.00  0.00     0.261 C 
BRANCH  29  30
ATOM     30  O   UNL A   1      40.404  19.412  26.460  1.00  0.00    -0.460 OA
BRANCH  30  31
ATOM     31  C   UNL A   1      41.698  19.632  26.129  1.00  0.00     0.338 C 
ATOM     32  O   UNL A   1      42.460  18.887  25.527  1.00  0.00    -0.246 OA
BRANCH  31  33
ATOM     33  C   UNL A   1      42.058  21.017  26.467  1.00  0.00     0.060 A 
ATOM     34  C   UNL A   1      42.246  21.917  25.411  1.00  0.00     0.016 A 
ATOM     35  C   UNL A   1      42.241  21.418  27.791  1.00  0.00     0.016 A 
ATOM     36  C   UNL A   1      42.631  23.228  25.676  1.00  0.00     0.010 A 
ATOM     37  C   UNL A   1      42.643  22.729  28.055  1.00  0.00     0.010 A 
ATOM     38  C   UNL A   1      42.854  23.634  26.998  1.00  0.00    -0.014 A 
BRANCH  38  39
ATOM     39  C   UNL A   1      43.392  24.984  27.271  1.00  0.00     0.031 A 
ATOM     40  C   UNL A   1      42.480  26.035  27.834  1.00  0.00     0.074 A 
ATOM     41  C   UNL A   1      44.686  25.256  27.021  1.00  0.00     0.049 A 
ATOM     42  N   UNL A   1      42.726  27.292  28.098  1.00  0.00    -0.248 NA
ATOM     43  C   UNL A   1      41.104  25.613  28.140  1.00  0.00     0.031 C 
ATOM     44  C   UNL A   1      45.662  24.295  26.508  1.00  0.00     0.029 A 
ATOM     45  N   UNL A   1      45.397  26.420  27.155  1.00  0.00    -0.354 N 
ATOM     46  C   UNL A   1      41.536  27.812  28.592  1.00  0.00     0.074 A 
ATOM     47  C   UNL A   1      40.562  26.743  28.571  1.00  0.00     0.031 C 
ATOM     48  C   UNL A   1      46.846  24.913  26.361  1.00  0.00     0.029 A 
ATOM     49  C   UNL A   1      46.699  26.319  26.731  1.00  0.00     0.049 A 
ATOM     50  H   UNL A   1      45.012  27.249  27.520  1.00  0.00     0.167 HD
ATOM     51  C   UNL A   1      41.289  29.071  29.026  1.00  0.00     0.037 A 
ATOM     52  C   UNL A   1      47.651  27.266  26.628  1.00  0.00     0.037 A 
ATOM     53  C   UNL A   1      42.272  30.122  29.044  1.00  0.00     0.049 A 
ATOM     54  C   UNL A   1      47.320  28.677  27.042  1.00  0.00     0.074 A 
ATOM     55  C   UNL A   1      42.139  31.421  29.502  1.00  0.00     0.029 A 
ATOM     56  N   UNL A   1      43.569  29.995  28.568  1.00  0.00    -0.354 N 
ATOM     57  N   UNL A   1      46.209  29.152  27.552  1.00  0.00    -0.248 NA
ATOM     58  C   UNL A   1      48.374  29.685  26.862  1.00  0.00     0.031 C 
ATOM     59  C   UNL A   1      43.334  32.098  29.244  1.00  0.00     0.029 A 
ATOM     60  C   UNL A   1      44.234  31.206  28.682  1.00  0.00     0.049 A 
ATOM     61  H   UNL A   1      43.961  29.168  28.205  1.00  0.00     0.167 HD
ATOM     62  C   UNL A   1      46.437  30.503  27.775  1.00  0.00     0.074 A 
ATOM     63  C   UNL A   1      47.800  30.768  27.366  1.00  0.00     0.031 C 
ATOM     64  C   UNL A   1      45.593  31.445  28.267  1.00  0.00     0.037 A 
BRANCH  51  65
ATOM     65  C   UNL A   1      39.898  29.395  29.488  1.00  0.00     0.064 A 
ATOM     66  C   UNL A   1      38.861  29.667  28.585  1.00  0.00     0.173 A 
ATOM     67  C   UNL A   1      39.588  29.375  30.857  1.00  0.00     0.173 A 
ATOM     68  F   UNL A   1      39.107  29.712  27.267  1.00  0.00    -0.203 F 
ATOM     69  C   UNL A   1      37.567  29.920  29.035  1.00  0.00     0.198 A 
ATOM     70  C   UNL A   1      38.288  29.601  31.302  1.00  0.00     0.198 A 
ATOM     71  F   UNL A   1      40.542  29.118  31.764  1.00  0.00    -0.203 F 
ATOM     72  F   UNL A   1      36.598  30.212  28.156  1.00  0.00    -0.200 F 
ATOM     73  C   UNL A   1      37.280  29.877  30.391  1.00  0.00     0.200 A 
ATOM     74  F   UNL A   1      38.010  29.546  32.612  1.00  0.00    -0.200 F 
ATOM     75  F   UNL A   1      36.031  30.107  30.822  1.00  0.00    -0.200 F 
ENDBRANCH  51  65
BRANCH  52  76
ATOM     76  C   UNL A   1      48.995  26.927  26.086  1.00  0.00     0.064 A 
ATOM     77  C   UNL A   1      50.050  26.570  26.936  1.00  0.00     0.173 A 
ATOM     78  C   UNL A   1      49.263  26.989  24.710  1.00  0.00     0.173 A 
ATOM     79  F   UNL A   1      49.854  26.521  28.262  1.00  0.00    -0.203 F 
ATOM     80  C   UNL A   1      51.326  26.314  26.436  1.00  0.00     0.198 A 
ATOM     81  C   UNL A   1      50.530  26.700  24.207  1.00  0.00     0.198 A 
ATOM     82  F   UNL A   1      48.293  27.329  23.849  1.00  0.00    -0.203 F 
ATOM     83  F   UNL A   1      52.329  26.033  27.279  1.00  0.00    -0.200 F 
ATOM     84  C   UNL A   1      51.564  26.374  25.072  1.00  0.00     0.200 A 
ATOM     85  F   UNL A   1      50.752  26.748  22.886  1.00  0.00    -0.200 F 
ATOM     86  F   UNL A   1      52.791  26.132  24.591  1.00  0.00    -0.200 F 
ENDBRANCH  52  76
BRANCH  64  87
ATOM     87  C   UNL A   1      46.129  32.840  28.407  1.00  0.00     0.064 A 
ATOM     88  C   UNL A   1      45.987  33.786  27.381  1.00  0.00     0.173 A 
ATOM     89  C   UNL A   1      46.749  33.249  29.597  1.00  0.00     0.173 A 
ATOM     90  F   UNL A   1      45.415  33.440  26.218  1.00  0.00    -0.203 F 
ATOM     91  C   UNL A   1      46.469  35.083  27.533  1.00  0.00     0.198 A 
ATOM     92  C   UNL A   1      47.198  34.556  29.758  1.00  0.00     0.198 A 
ATOM     93  F   UNL A   1      46.901  32.385  30.613  1.00  0.00    -0.203 F 
ATOM     94  F   UNL A   1      46.368  35.956  26.520  1.00  0.00    -0.200 F 
ATOM     95  C   UNL A   1      47.066  35.469  28.724  1.00  0.00     0.200 A 
ATOM     96  F   UNL A   1      47.759  34.932  30.916  1.00  0.00    -0.200 F 
ATOM     97  F   UNL A   1      47.520  36.721  28.872  1.00  0.00    -0.200 F 
ENDBRANCH  64  87
ENDBRANCH  38  39
ENDBRANCH  31  33
ENDBRANCH  30  31
ENDBRANCH  29  30
ENDBRANCH  28  29
ENDBRANCH  27  28
ENDBRANCH   1  27
TORSDOF 17
ENDMDL
MODEL 3
REMARK VINA RESULT:     -11.8      4.833     10.256
REMARK SMILES Cc1ccnc(C(=O)c2[nH]c3cc(F)ccc3c2CC(=O)OCCOCCOC(=O)c2ccc(-c3c4nc(c(-c5c(F)c(F)c(F)c(F)c5F)c5ccc([nH]5)c(-c5c(F)c(F)c(F)c(F)c5F)c5nc(c(-c6c(F)c(F)c(F)c(F)c6F)c6ccc3[nH]6)C=C5)C=C4)cc2)c1
REMARK SMILES IDX 24 1 23 2 22 3 20 4 21 5 19 6 18 7 9 8 10 9 11 10 17 12
REMARK SMILES IDX 12 13 16 14 13 15 15 16 14 17 7 18 8 19 6 20 1 21 2 22 3 23
REMARK SMILES IDX 94 24 4 25 5 26 25 27 26 28 27 29 28 30 29 31 30 32 31 33
REMARK SMILES IDX 32 34 93 35 33 36 92 37 34 38 35 39 36 40 86 41 37 42 91 43
REMARK SMILES IDX 85 44 87 45 38 46 90 47 84 48 83 49 39 51 71 52 51 53 70 54
REMARK SMILES IDX 52 55 55 56 69 57 88 58 53 59 54 60 68 62 89 63 56 64 40 65
REMARK SMILES IDX 41 66 49 67 42 68 43 69 47 70 50 71 44 72 45 73 48 74 46 75
REMARK SMILES IDX 72 76 73 77 81 78 74 79 75 80 79 81 82 82 76 83 77 84 80 85
REMARK SMILES IDX 78 86 57 87 58 88 66 89 59 90 60 91 64 92 67 93 61 94 62 95
REMARK SMILES IDX 65 96 63 97
REMARK H PARENT 10 11 87 50 55 61
REMARK Flexibility Score: inf
ROOT
ATOM      1  C   UNL A   1      34.309  30.842  27.226  1.00  0.00     0.202 C 
ENDROOT
BRANCH   1   2
ATOM      2  C   UNL A   1      34.672  29.365  27.417  1.00  0.00     0.261 C 
BRANCH   2   3
ATOM      3  O   UNL A   1      33.526  28.511  27.630  1.00  0.00    -0.463 OA
BRANCH   3   4
ATOM      4  C   UNL A   1      33.020  27.941  26.501  1.00  0.00     0.310 C 
ATOM      5  O   UNL A   1      31.845  27.600  26.377  1.00  0.00    -0.252 OA
BRANCH   4   6
ATOM      6  C   UNL A   1      34.021  27.648  25.405  1.00  0.00     0.161 C 
BRANCH   6   7
ATOM      7  C   UNL A   1      33.695  26.619  24.352  1.00  0.00     0.000 A 
ATOM      8  C   UNL A   1      32.881  26.787  23.226  1.00  0.00     0.093 A 
ATOM      9  N   UNL A   1      32.867  25.576  22.565  1.00  0.00    -0.351 N 
ATOM     10  C   UNL A   1      33.411  24.589  23.353  1.00  0.00     0.049 A 
ATOM     11  H   UNL A   1      32.516  25.438  21.655  1.00  0.00     0.167 HD
ATOM     12  C   UNL A   1      33.965  25.216  24.466  1.00  0.00     0.004 A 
ATOM     13  C   UNL A   1      33.436  23.198  23.178  1.00  0.00     0.066 A 
ATOM     14  C   UNL A   1      34.576  24.416  25.459  1.00  0.00     0.013 A 
ATOM     15  C   UNL A   1      34.014  22.439  24.196  1.00  0.00     0.125 A 
ATOM     16  C   UNL A   1      34.578  23.025  25.319  1.00  0.00     0.040 A 
ATOM     17  F   UNL A   1      34.010  21.102  24.092  1.00  0.00    -0.207 F 
BRANCH   8  18
ATOM     18  C   UNL A   1      32.185  28.002  22.813  1.00  0.00     0.227 C 
ATOM     19  O   UNL A   1      32.785  28.943  22.295  1.00  0.00    -0.285 OA
BRANCH  18  20
ATOM     20  C   UNL A   1      30.719  28.183  23.048  1.00  0.00     0.113 A 
ATOM     21  C   UNL A   1      27.894  30.554  22.197  1.00  0.00     0.044 C 
ATOM     22  C   UNL A   1      28.666  29.370  22.699  1.00  0.00    -0.047 A 
ATOM     23  C   UNL A   1      27.988  28.228  23.134  1.00  0.00     0.023 A 
ATOM     24  C   UNL A   1      30.064  29.343  22.647  1.00  0.00     0.036 A 
ATOM     25  C   UNL A   1      28.724  27.127  23.537  1.00  0.00     0.112 A 
ATOM     26  N   UNL A   1      30.072  27.086  23.521  1.00  0.00    -0.253 NA
ENDBRANCH  18  20
ENDBRANCH   8  18
ENDBRANCH   6   7
ENDBRANCH   4   6
ENDBRANCH   3   4
ENDBRANCH   2   3
ENDBRANCH   1   2
BRANCH   1  27
ATOM     27  O   UNL A   1      33.111  31.326  27.830  1.00  0.00    -0.374 OA
BRANCH  27  28
ATOM     28  C   UNL A   1      32.232  32.084  27.003  1.00  0.00     0.202 C 
BRANCH  28  29
ATOM     29  C   UNL A   1      32.398  33.611  27.020  1.00  0.00     0.261 C 
BRANCH  29  30
ATOM     30  O   UNL A   1      32.157  34.199  28.308  1.00  0.00    -0.460 OA
BRANCH  30  31
ATOM     31  C   UNL A   1      33.099  35.087  28.706  1.00  0.00     0.338 C 
ATOM     32  O   UNL A   1      33.014  36.307  28.749  1.00  0.00    -0.246 OA
BRANCH  31  33
ATOM     33  C   UNL A   1      34.251  34.360  29.256  1.00  0.00     0.060 A 
ATOM     34  C   UNL A   1      34.019  33.483  30.324  1.00  0.00     0.016 A 
ATOM     35  C   UNL A   1      35.540  34.556  28.759  1.00  0.00     0.016 A 
ATOM     36  C   UNL A   1      35.083  32.805  30.910  1.00  0.00     0.010 A 
ATOM     37  C   UNL A   1      36.610  33.886  29.357  1.00  0.00     0.010 A 
ATOM     38  C   UNL A   1      36.387  33.021  30.444  1.00  0.00    -0.014 A 
BRANCH  38  39
ATOM     39  C   UNL A   1      37.530  32.405  31.152  1.00  0.00     0.031 A 
ATOM     40  C   UNL A   1      38.261  31.264  30.505  1.00  0.00     0.074 A 
ATOM     41  C   UNL A   1      37.908  32.873  32.355  1.00  0.00     0.049 A 
ATOM     42  N   UNL A   1      39.253  30.546  30.967  1.00  0.00    -0.248 NA
ATOM     43  C   UNL A   1      37.815  30.879  29.157  1.00  0.00     0.031 C 
ATOM     44  C   UNL A   1      37.287  34.000  33.051  1.00  0.00     0.029 A 
ATOM     45  N   UNL A   1      38.896  32.454  33.207  1.00  0.00    -0.354 N 
ATOM     46  C   UNL A   1      39.541  29.621  29.973  1.00  0.00     0.074 A 
ATOM     47  C   UNL A   1      38.609  29.852  28.892  1.00  0.00     0.031 C 
ATOM     48  C   UNL A   1      37.904  34.176  34.231  1.00  0.00     0.029 A 
ATOM     49  C   UNL A   1      38.933  33.152  34.390  1.00  0.00     0.049 A 
ATOM     50  H   UNL A   1      39.520  31.723  32.993  1.00  0.00     0.167 HD
ATOM     51  C   UNL A   1      40.504  28.669  29.969  1.00  0.00     0.037 A 
ATOM     52  C   UNL A   1      39.695  32.961  35.483  1.00  0.00     0.037 A 
ATOM     53  C   UNL A   1      41.427  28.456  31.053  1.00  0.00     0.049 A 
ATOM     54  C   UNL A   1      40.703  31.840  35.480  1.00  0.00     0.074 A 
ATOM     55  C   UNL A   1      42.468  27.548  31.134  1.00  0.00     0.029 A 
ATOM     56  N   UNL A   1      41.410  29.154  32.251  1.00  0.00    -0.354 N 
ATOM     57  N   UNL A   1      41.004  31.000  34.519  1.00  0.00    -0.248 NA
ATOM     58  C   UNL A   1      41.474  31.638  36.714  1.00  0.00     0.031 C 
ATOM     59  C   UNL A   1      43.038  27.651  32.407  1.00  0.00     0.029 A 
ATOM     60  C   UNL A   1      42.393  28.666  33.097  1.00  0.00     0.049 A 
ATOM     61  H   UNL A   1      40.790  29.888  32.470  1.00  0.00     0.167 HD
ATOM     62  C   UNL A   1      42.012  30.187  35.023  1.00  0.00     0.074 A 
ATOM     63  C   UNL A   1      42.287  30.651  36.367  1.00  0.00     0.031 C 
ATOM     64  C   UNL A   1      42.648  29.146  34.431  1.00  0.00     0.037 A 
BRANCH  51  65
ATOM     65  C   UNL A   1      40.595  27.764  28.775  1.00  0.00     0.064 A 
ATOM     66  C   UNL A   1      39.867  26.568  28.694  1.00  0.00     0.173 A 
ATOM     67  C   UNL A   1      41.378  28.131  27.670  1.00  0.00     0.173 A 
ATOM     68  F   UNL A   1      39.114  26.165  29.728  1.00  0.00    -0.203 F 
ATOM     69  C   UNL A   1      39.931  25.766  27.556  1.00  0.00     0.198 A 
ATOM     70  C   UNL A   1      41.417  27.342  26.523  1.00  0.00     0.198 A 
ATOM     71  F   UNL A   1      42.092  29.267  27.693  1.00  0.00    -0.203 F 
ATOM     72  F   UNL A   1      39.254  24.610  27.515  1.00  0.00    -0.200 F 
ATOM     73  C   UNL A   1      40.697  26.158  26.470  1.00  0.00     0.200 A 
ATOM     74  F   UNL A   1      42.148  27.729  25.469  1.00  0.00    -0.200 F 
ATOM     75  F   UNL A   1      40.745  25.393  25.370  1.00  0.00    -0.200 F 
ENDBRANCH  51  65
BRANCH  52  76
ATOM     76  C   UNL A   1      39.521  33.825  36.682  1.00  0.00     0.064 A 
ATOM     77  C   UNL A   1      40.189  35.052  36.795  1.00  0.00     0.173 A 
ATOM     78  C   UNL A   1      38.714  33.425  37.759  1.00  0.00     0.173 A 
ATOM     79  F   UNL A   1      40.993  35.469  35.806  1.00  0.00    -0.203 F 
ATOM     80  C   UNL A   1      40.078  35.832  37.944  1.00  0.00     0.198 A 
ATOM     81  C   UNL A   1      38.576  34.221  38.893  1.00  0.00     0.198 A 
ATOM     82  F   UNL A   1      38.055  32.258  37.708  1.00  0.00    -0.203 F 
ATOM     83  F   UNL A   1      40.774  36.972  38.047  1.00  0.00    -0.200 F 
ATOM     84  C   UNL A   1      39.267  35.419  38.991  1.00  0.00     0.200 A 
ATOM     85  F   UNL A   1      37.782  33.823  39.897  1.00  0.00    -0.200 F 
ATOM     86  F   UNL A   1      39.163  36.168  40.097  1.00  0.00    -0.200 F 
ENDBRANCH  52  76
BRANCH  64  87
ATOM     87  C   UNL A   1      43.716  28.452  35.228  1.00  0.00     0.064 A 
ATOM     88  C   UNL A   1      45.051  28.882  35.194  1.00  0.00     0.173 A 
ATOM     89  C   UNL A   1      43.393  27.376  36.067  1.00  0.00     0.173 A 
ATOM     90  F   UNL A   1      45.413  29.897  34.395  1.00  0.00    -0.203 F 
ATOM     91  C   UNL A   1      46.027  28.243  35.954  1.00  0.00     0.198 A 
ATOM     92  C   UNL A   1      44.365  26.762  36.851  1.00  0.00     0.198 A 
ATOM     93  F   UNL A   1      42.129  26.932  36.142  1.00  0.00    -0.203 F 
ATOM     94  F   UNL A   1      47.305  28.639  35.868  1.00  0.00    -0.200 F 
ATOM     95  C   UNL A   1      45.681  27.190  36.788  1.00  0.00     0.200 A 
ATOM     96  F   UNL A   1      44.026  25.756  37.670  1.00  0.00    -0.200 F 
ATOM     97  F   UNL A   1      46.621  26.584  37.527  1.00  0.00    -0.200 F 
ENDBRANCH  64  87
ENDBRANCH  38  39
ENDBRANCH  31  33
ENDBRANCH  30  31
ENDBRANCH  29  30
ENDBRANCH  28  29
ENDBRANCH  27  28
ENDBRANCH   1  27
TORSDOF 17
ENDMDL
