MODEL 1
REMARK VINA RESULT:     -11.6      0.000      0.000
REMARK SMILES C=CC[C@@]1(C(=O)OCCOCCOC(=O)c2ccc(-c3c4nc(c(-c5c(F)c(F)c(F)c(F)c5F)c5ccc([nH]5)c(-c5c(F)c(F)c(F)c(F)c5F)c5nc(c(-c6c(F)c(F)c(F)c(F)c6F)c6ccc3[nH]6)C=C5)C=C4)cc2)CCCN(C(=O)c2ccc3c(c2)OCO3)C1
REMARK SMILES IDX 10 1 9 2 8 3 7 4 5 5 6 6 4 7 79 8 94 9 80 10 82 11 81 12
REMARK SMILES IDX 3 13 2 14 1 15 83 16 84 17 85 18 86 19 90 20 87 21 89 22
REMARK SMILES IDX 88 23 91 24 93 25 92 26 11 27 12 28 13 29 14 30 15 31 16 32
REMARK SMILES IDX 17 33 78 34 18 35 77 36 19 37 20 38 21 39 71 40 22 41 76 42
REMARK SMILES IDX 70 43 72 44 23 45 75 46 69 47 68 48 24 50 56 51 36 52 55 53
REMARK SMILES IDX 37 54 40 55 54 56 73 57 38 58 39 59 53 61 74 62 41 63 25 64
REMARK SMILES IDX 26 65 34 66 27 67 28 68 32 69 35 70 29 71 30 72 33 73 31 74
REMARK SMILES IDX 57 75 58 76 66 77 59 78 60 79 64 80 67 81 61 82 62 83 65 84
REMARK SMILES IDX 63 85 42 86 43 87 51 88 44 89 45 90 49 91 52 92 46 93 47 94
REMARK SMILES IDX 50 95 48 96
REMARK H PARENT 72 49 40 60
REMARK Flexibility Score: inf
ROOT
ATOM      1  O   UNL A   1      37.453  21.499  25.819  1.00  0.00    -0.374 OA
ENDROOT
BRANCH   1   2
ATOM      2  C   UNL A   1      36.738  21.409  24.593  1.00  0.00     0.202 C 
BRANCH   2   3
ATOM      3  C   UNL A   1      36.672  22.667  23.716  1.00  0.00     0.261 C 
BRANCH   3   4
ATOM      4  O   UNL A   1      35.440  23.416  23.785  1.00  0.00    -0.463 OA
BRANCH   4   5
ATOM      5  C   UNL A   1      35.153  23.954  25.007  1.00  0.00     0.314 C 
ATOM      6  O   UNL A   1      35.975  24.586  25.661  1.00  0.00    -0.252 OA
BRANCH   5   7
ATOM      7  C   UNL A   1      33.725  23.634  25.508  1.00  0.00     0.089 C 
ATOM      8  C   UNL A   1      33.764  23.240  26.997  1.00  0.00     0.023 C 
ATOM      9  C   UNL A   1      33.031  22.546  24.650  1.00  0.00     0.138 C 
ATOM     10  C   UNL A   1      34.209  21.803  27.222  1.00  0.00     0.023 C 
ATOM     11  N   UNL A   1      33.179  21.143  25.048  1.00  0.00    -0.337 N 
ATOM     12  C   UNL A   1      33.322  20.833  26.469  1.00  0.00     0.120 C 
BRANCH   7  13
ATOM     13  C   UNL A   1      32.877  24.947  25.300  1.00  0.00     0.047 C 
BRANCH  13  14
ATOM     14  C   UNL A   1      31.404  24.776  25.023  1.00  0.00    -0.034 C 
ATOM     15  C   UNL A   1      30.445  25.577  25.500  1.00  0.00     0.004 C 
ENDBRANCH  13  14
ENDBRANCH   7  13
BRANCH  11  16
ATOM     16  C   UNL A   1      32.781  20.185  24.097  1.00  0.00     0.254 C 
ATOM     17  O   UNL A   1      32.152  20.460  23.078  1.00  0.00    -0.269 OA
BRANCH  16  18
ATOM     18  C   UNL A   1      33.160  18.769  24.305  1.00  0.00     0.043 A 
ATOM     19  C   UNL A   1      34.525  18.432  24.224  1.00  0.00     0.018 A 
ATOM     20  C   UNL A   1      32.198  17.803  24.621  1.00  0.00     0.064 A 
ATOM     21  C   UNL A   1      34.959  17.151  24.575  1.00  0.00     0.051 A 
ATOM     22  C   UNL A   1      32.659  16.551  24.967  1.00  0.00     0.166 A 
ATOM     23  C   UNL A   1      34.001  16.240  24.966  1.00  0.00     0.165 A 
ATOM     24  O   UNL A   1      31.890  15.509  25.381  1.00  0.00    -0.454 OA
ATOM     25  O   UNL A   1      34.241  14.974  25.395  1.00  0.00    -0.454 OA
ATOM     26  C   UNL A   1      32.903  14.532  25.705  1.00  0.00     0.468 C 
ENDBRANCH  16  18
ENDBRANCH  11  16
ENDBRANCH   5   7
ENDBRANCH   4   5
ENDBRANCH   3   4
ENDBRANCH   2   3
ENDBRANCH   1   2
BRANCH   1  27
ATOM     27  C   UNL A   1      38.878  21.424  25.751  1.00  0.00     0.202 C 
BRANCH  27  28
ATOM     28  C   UNL A   1      39.473  20.028  25.553  1.00  0.00     0.261 C 
BRANCH  28  29
ATOM     29  O   UNL A   1      40.332  19.641  26.648  1.00  0.00    -0.460 OA
BRANCH  29  30
ATOM     30  C   UNL A   1      41.608  19.410  26.271  1.00  0.00     0.338 C 
ATOM     31  O   UNL A   1      42.049  18.389  25.754  1.00  0.00    -0.246 OA
BRANCH  30  32
ATOM     32  C   UNL A   1      42.457  20.599  26.444  1.00  0.00     0.060 A 
ATOM     33  C   UNL A   1      42.465  21.198  27.708  1.00  0.00     0.016 A 
ATOM     34  C   UNL A   1      43.064  21.231  25.356  1.00  0.00     0.016 A 
ATOM     35  C   UNL A   1      43.013  22.467  27.874  1.00  0.00     0.010 A 
ATOM     36  C   UNL A   1      43.598  22.516  25.520  1.00  0.00     0.010 A 
ATOM     37  C   UNL A   1      43.535  23.156  26.769  1.00  0.00    -0.014 A 
BRANCH  37  38
ATOM     38  C   UNL A   1      43.916  24.579  26.925  1.00  0.00     0.031 A 
ATOM     39  C   UNL A   1      42.893  25.583  27.376  1.00  0.00     0.074 A 
ATOM     40  C   UNL A   1      45.187  24.960  26.712  1.00  0.00     0.049 A 
ATOM     41  N   UNL A   1      43.050  26.848  27.676  1.00  0.00    -0.248 NA
ATOM     42  C   UNL A   1      41.510  25.101  27.508  1.00  0.00     0.031 C 
ATOM     43  C   UNL A   1      46.266  24.077  26.277  1.00  0.00     0.029 A 
ATOM     44  N   UNL A   1      45.781  26.189  26.837  1.00  0.00    -0.354 N 
ATOM     45  C   UNL A   1      41.795  27.306  28.056  1.00  0.00     0.074 A 
ATOM     46  C   UNL A   1      40.878  26.195  27.909  1.00  0.00     0.031 C 
ATOM     47  C   UNL A   1      47.395  24.796  26.163  1.00  0.00     0.029 A 
ATOM     48  C   UNL A   1      47.114  26.189  26.513  1.00  0.00     0.049 A 
ATOM     49  H   UNL A   1      45.298  26.995  27.132  1.00  0.00     0.167 HD
ATOM     50  C   UNL A   1      41.445  28.538  28.500  1.00  0.00     0.037 A 
ATOM     51  C   UNL A   1      48.006  27.196  26.501  1.00  0.00     0.037 A 
ATOM     52  C   UNL A   1      42.356  29.646  28.630  1.00  0.00     0.049 A 
ATOM     53  C   UNL A   1      47.583  28.567  26.953  1.00  0.00     0.074 A 
ATOM     54  C   UNL A   1      42.105  30.920  29.112  1.00  0.00     0.029 A 
ATOM     55  N   UNL A   1      43.693  29.616  28.261  1.00  0.00    -0.354 N 
ATOM     56  N   UNL A   1      46.412  28.970  27.383  1.00  0.00    -0.248 NA
ATOM     57  C   UNL A   1      48.609  29.618  26.934  1.00  0.00     0.031 C 
ATOM     58  C   UNL A   1      43.278  31.673  28.991  1.00  0.00     0.029 A 
ATOM     59  C   UNL A   1      44.271  30.857  28.474  1.00  0.00     0.049 A 
ATOM     60  H   UNL A   1      44.161  28.828  27.901  1.00  0.00     0.167 HD
ATOM     61  C   UNL A   1      46.565  30.312  27.706  1.00  0.00     0.074 A 
ATOM     62  C   UNL A   1      47.946  30.652  27.432  1.00  0.00     0.031 C 
ATOM     63  C   UNL A   1      45.645  31.181  28.189  1.00  0.00     0.037 A 
BRANCH  50  64
ATOM     64  C   UNL A   1      40.011  28.761  28.876  1.00  0.00     0.064 A 
ATOM     65  C   UNL A   1      39.563  28.574  30.192  1.00  0.00     0.173 A 
ATOM     66  C   UNL A   1      39.088  29.225  27.927  1.00  0.00     0.173 A 
ATOM     67  F   UNL A   1      40.407  28.125  31.133  1.00  0.00    -0.203 F 
ATOM     68  C   UNL A   1      38.239  28.830  30.541  1.00  0.00     0.198 A 
ATOM     69  C   UNL A   1      37.770  29.500  28.284  1.00  0.00     0.198 A 
ATOM     70  F   UNL A   1      39.468  29.425  26.656  1.00  0.00    -0.203 F 
ATOM     71  F   UNL A   1      37.827  28.620  31.798  1.00  0.00    -0.200 F 
ATOM     72  C   UNL A   1      37.346  29.299  29.590  1.00  0.00     0.200 A 
ATOM     73  F   UNL A   1      36.911  29.963  27.365  1.00  0.00    -0.200 F 
ATOM     74  F   UNL A   1      36.075  29.555  29.929  1.00  0.00    -0.200 F 
ENDBRANCH  50  64
BRANCH  51  75
ATOM     75  C   UNL A   1      49.396  26.932  26.058  1.00  0.00     0.064 A 
ATOM     76  C   UNL A   1      50.388  26.552  26.971  1.00  0.00     0.173 A 
ATOM     77  C   UNL A   1      49.753  27.038  24.706  1.00  0.00     0.173 A 
ATOM     78  F   UNL A   1      50.096  26.459  28.276  1.00  0.00    -0.203 F 
ATOM     79  C   UNL A   1      51.690  26.293  26.548  1.00  0.00     0.198 A 
ATOM     80  C   UNL A   1      51.049  26.758  24.282  1.00  0.00     0.198 A 
ATOM     81  F   UNL A   1      48.837  27.398  23.795  1.00  0.00    -0.203 F 
ATOM     82  F   UNL A   1      52.628  25.959  27.443  1.00  0.00    -0.200 F 
ATOM     83  C   UNL A   1      52.018  26.390  25.204  1.00  0.00     0.200 A 
ATOM     84  F   UNL A   1      51.359  26.841  22.981  1.00  0.00    -0.200 F 
ATOM     85  F   UNL A   1      53.268  26.131  24.796  1.00  0.00    -0.200 F 
ENDBRANCH  51  75
BRANCH  63  86
ATOM     86  C   UNL A   1      46.106  32.582  28.464  1.00  0.00     0.064 A 
ATOM     87  C   UNL A   1      46.064  33.574  27.474  1.00  0.00     0.173 A 
ATOM     88  C   UNL A   1      46.564  32.945  29.740  1.00  0.00     0.173 A 
ATOM     89  F   UNL A   1      45.648  33.272  26.234  1.00  0.00    -0.203 F 
ATOM     90  C   UNL A   1      46.485  34.873  27.744  1.00  0.00     0.198 A 
ATOM     91  C   UNL A   1      46.963  34.249  30.013  1.00  0.00     0.198 A 
ATOM     92  F   UNL A   1      46.618  32.033  30.723  1.00  0.00    -0.203 F 
ATOM     93  F   UNL A   1      46.476  35.794  26.771  1.00  0.00    -0.200 F 
ATOM     94  C   UNL A   1      46.929  35.211  29.015  1.00  0.00     0.200 A 
ATOM     95  F   UNL A   1      47.384  34.577  31.243  1.00  0.00    -0.200 F 
ATOM     96  F   UNL A   1      47.333  36.462  29.273  1.00  0.00    -0.200 F 
ENDBRANCH  63  86
ENDBRANCH  37  38
ENDBRANCH  30  32
ENDBRANCH  29  30
ENDBRANCH  28  29
ENDBRANCH  27  28
ENDBRANCH   1  27
TORSDOF 18
ENDMDL
MODEL 2
REMARK VINA RESULT:     -11.5      6.319     11.145
REMARK SMILES C=CC[C@@]1(C(=O)OCCOCCOC(=O)c2ccc(-c3c4nc(c(-c5c(F)c(F)c(F)c(F)c5F)c5ccc([nH]5)c(-c5c(F)c(F)c(F)c(F)c5F)c5nc(c(-c6c(F)c(F)c(F)c(F)c6F)c6ccc3[nH]6)C=C5)C=C4)cc2)CCCN(C(=O)c2ccc3c(c2)OCO3)C1
REMARK SMILES IDX 10 1 9 2 8 3 7 4 5 5 6 6 4 7 79 8 94 9 80 10 82 11 81 12
REMARK SMILES IDX 3 13 2 14 1 15 83 16 84 17 85 18 86 19 90 20 87 21 89 22
REMARK SMILES IDX 88 23 91 24 93 25 92 26 11 27 12 28 13 29 14 30 15 31 16 32
REMARK SMILES IDX 17 33 78 34 18 35 77 36 19 37 20 38 21 39 71 40 22 41 76 42
REMARK SMILES IDX 70 43 72 44 23 45 75 46 69 47 68 48 24 50 56 51 36 52 55 53
REMARK SMILES IDX 37 54 40 55 54 56 73 57 38 58 39 59 53 61 74 62 41 63 25 64
REMARK SMILES IDX 26 65 34 66 27 67 28 68 32 69 35 70 29 71 30 72 33 73 31 74
REMARK SMILES IDX 57 75 58 76 66 77 59 78 60 79 64 80 67 81 61 82 62 83 65 84
REMARK SMILES IDX 63 85 42 86 43 87 51 88 44 89 45 90 49 91 52 92 46 93 47 94
REMARK SMILES IDX 50 95 48 96
REMARK H PARENT 72 49 40 60
REMARK Flexibility Score: inf
ROOT
ATOM      1  O   UNL A   1      32.252  30.940  27.047  1.00  0.00    -0.374 OA
ENDROOT
BRANCH   1   2
ATOM      2  C   UNL A   1      32.361  29.559  26.726  1.00  0.00     0.202 C 
BRANCH   2   3
ATOM      3  C   UNL A   1      33.710  28.874  26.989  1.00  0.00     0.261 C 
BRANCH   3   4
ATOM      4  O   UNL A   1      34.000  27.724  26.167  1.00  0.00    -0.463 OA
BRANCH   4   5
ATOM      5  C   UNL A   1      32.921  26.952  25.842  1.00  0.00     0.314 C 
ATOM      6  O   UNL A   1      32.170  26.477  26.687  1.00  0.00    -0.252 OA
BRANCH   5   7
ATOM      7  C   UNL A   1      32.781  26.684  24.325  1.00  0.00     0.089 C 
ATOM      8  C   UNL A   1      33.731  27.605  23.537  1.00  0.00     0.023 C 
ATOM      9  C   UNL A   1      31.317  26.826  23.836  1.00  0.00     0.138 C 
ATOM     10  C   UNL A   1      33.196  29.021  23.378  1.00  0.00     0.023 C 
ATOM     11  N   UNL A   1      30.864  28.136  23.360  1.00  0.00    -0.337 N 
ATOM     12  C   UNL A   1      31.834  29.017  22.714  1.00  0.00     0.120 C 
BRANCH   7  13
ATOM     13  C   UNL A   1      33.160  25.170  24.105  1.00  0.00     0.047 C 
BRANCH  13  14
ATOM     14  C   UNL A   1      34.502  24.716  24.624  1.00  0.00    -0.034 C 
ATOM     15  C   UNL A   1      34.994  23.481  24.475  1.00  0.00     0.004 C 
ENDBRANCH  13  14
ENDBRANCH   7  13
BRANCH  11  16
ATOM     16  C   UNL A   1      29.474  28.288  23.199  1.00  0.00     0.254 C 
ATOM     17  O   UNL A   1      28.667  27.377  23.363  1.00  0.00    -0.269 OA
BRANCH  16  18
ATOM     18  C   UNL A   1      28.936  29.622  22.845  1.00  0.00     0.043 A 
ATOM     19  C   UNL A   1      29.039  30.651  23.800  1.00  0.00     0.018 A 
ATOM     20  C   UNL A   1      28.386  29.866  21.581  1.00  0.00     0.064 A 
ATOM     21  C   UNL A   1      28.704  31.965  23.463  1.00  0.00     0.051 A 
ATOM     22  C   UNL A   1      28.070  31.174  21.278  1.00  0.00     0.166 A 
ATOM     23  C   UNL A   1      28.245  32.196  22.184  1.00  0.00     0.165 A 
ATOM     24  O   UNL A   1      27.605  31.620  20.081  1.00  0.00    -0.454 OA
ATOM     25  O   UNL A   1      27.928  33.410  21.664  1.00  0.00    -0.454 OA
ATOM     26  C   UNL A   1      27.572  33.045  20.314  1.00  0.00     0.468 C 
ENDBRANCH  16  18
ENDBRANCH  11  16
ENDBRANCH   5   7
ENDBRANCH   4   5
ENDBRANCH   3   4
ENDBRANCH   2   3
ENDBRANCH   1   2
BRANCH   1  27
ATOM     27  C   UNL A   1      33.347  31.537  27.743  1.00  0.00     0.202 C 
BRANCH  27  28
ATOM     28  C   UNL A   1      33.552  33.038  27.523  1.00  0.00     0.261 C 
BRANCH  28  29
ATOM     29  O   UNL A   1      32.517  33.827  28.150  1.00  0.00    -0.460 OA
BRANCH  29  30
ATOM     30  C   UNL A   1      32.989  34.921  28.785  1.00  0.00     0.338 C 
ATOM     31  O   UNL A   1      32.498  36.044  28.779  1.00  0.00    -0.246 OA
BRANCH  30  32
ATOM     32  C   UNL A   1      34.156  34.609  29.625  1.00  0.00     0.060 A 
ATOM     33  C   UNL A   1      35.419  34.766  29.046  1.00  0.00     0.016 A 
ATOM     34  C   UNL A   1      34.019  33.988  30.869  1.00  0.00     0.016 A 
ATOM     35  C   UNL A   1      36.543  34.234  29.672  1.00  0.00     0.010 A 
ATOM     36  C   UNL A   1      35.147  33.435  31.488  1.00  0.00     0.010 A 
ATOM     37  C   UNL A   1      36.406  33.517  30.870  1.00  0.00    -0.014 A 
BRANCH  37  38
ATOM     38  C   UNL A   1      37.576  32.782  31.405  1.00  0.00     0.031 A 
ATOM     39  C   UNL A   1      38.137  33.145  32.751  1.00  0.00     0.074 A 
ATOM     40  C   UNL A   1      38.102  31.761  30.707  1.00  0.00     0.049 A 
ATOM     41  N   UNL A   1      39.082  32.556  33.441  1.00  0.00    -0.248 NA
ATOM     42  C   UNL A   1      37.556  34.324  33.411  1.00  0.00     0.031 C 
ATOM     43  C   UNL A   1      37.642  31.316  29.395  1.00  0.00     0.029 A 
ATOM     44  N   UNL A   1      39.137  30.915  31.012  1.00  0.00    -0.354 N 
ATOM     45  C   UNL A   1      39.193  33.276  34.623  1.00  0.00     0.074 A 
ATOM     46  C   UNL A   1      38.248  34.370  34.541  1.00  0.00     0.031 C 
ATOM     47  C   UNL A   1      38.399  30.278  28.999  1.00  0.00     0.029 A 
ATOM     48  C   UNL A   1      39.397  29.993  30.030  1.00  0.00     0.049 A 
ATOM     49  H   UNL A   1      39.645  30.963  31.854  1.00  0.00     0.167 HD
ATOM     50  C   UNL A   1      40.000  33.036  35.685  1.00  0.00     0.037 A 
ATOM     51  C   UNL A   1      40.331  29.027  29.970  1.00  0.00     0.037 A 
ATOM     52  C   UNL A   1      40.951  31.956  35.757  1.00  0.00     0.049 A 
ATOM     53  C   UNL A   1      41.249  28.808  31.142  1.00  0.00     0.074 A 
ATOM     54  C   UNL A   1      41.782  31.605  36.808  1.00  0.00     0.029 A 
ATOM     55  N   UNL A   1      41.208  31.061  34.729  1.00  0.00    -0.354 N 
ATOM     56  N   UNL A   1      41.294  29.447  32.287  1.00  0.00    -0.248 NA
ATOM     57  C   UNL A   1      42.235  27.726  31.021  1.00  0.00     0.031 C 
ATOM     58  C   UNL A   1      42.574  30.527  36.397  1.00  0.00     0.029 A 
ATOM     59  C   UNL A   1      42.207  30.179  35.108  1.00  0.00     0.049 A 
ATOM     60  H   UNL A   1      40.748  31.054  33.859  1.00  0.00     0.167 HD
ATOM     61  C   UNL A   1      42.293  28.832  33.028  1.00  0.00     0.074 A 
ATOM     62  C   UNL A   1      42.823  27.761  32.208  1.00  0.00     0.031 C 
ATOM     63  C   UNL A   1      42.728  29.124  34.277  1.00  0.00     0.037 A 
BRANCH  50  64
ATOM     64  C   UNL A   1      39.898  33.961  36.860  1.00  0.00     0.064 A 
ATOM     65  C   UNL A   1      40.584  35.184  36.890  1.00  0.00     0.173 A 
ATOM     66  C   UNL A   1      39.057  33.652  37.940  1.00  0.00     0.173 A 
ATOM     67  F   UNL A   1      41.405  35.520  35.884  1.00  0.00    -0.203 F 
ATOM     68  C   UNL A   1      40.444  36.058  37.965  1.00  0.00     0.198 A 
ATOM     69  C   UNL A   1      38.903  34.538  39.004  1.00  0.00     0.198 A 
ATOM     70  F   UNL A   1      38.374  32.498  37.956  1.00  0.00    -0.203 F 
ATOM     71  F   UNL A   1      41.130  37.209  37.985  1.00  0.00    -0.200 F 
ATOM     72  C   UNL A   1      39.599  35.738  39.017  1.00  0.00     0.200 A 
ATOM     73  F   UNL A   1      38.078  34.232  40.015  1.00  0.00    -0.200 F 
ATOM     74  F   UNL A   1      39.457  36.584  40.046  1.00  0.00    -0.200 F 
ENDBRANCH  50  64
BRANCH  51  75
ATOM     75  C   UNL A   1      40.429  28.182  28.755  1.00  0.00     0.064 A 
ATOM     76  C   UNL A   1      41.219  28.568  27.666  1.00  0.00     0.173 A 
ATOM     77  C   UNL A   1      39.746  26.960  28.672  1.00  0.00     0.173 A 
ATOM     78  F   UNL A   1      41.873  29.739  27.694  1.00  0.00    -0.203 F 
ATOM     79  C   UNL A   1      41.318  27.765  26.531  1.00  0.00     0.198 A 
ATOM     80  C   UNL A   1      39.862  26.148  27.546  1.00  0.00     0.198 A 
ATOM     81  F   UNL A   1      38.978  26.548  29.691  1.00  0.00    -0.203 F 
ATOM     82  F   UNL A   1      42.057  28.169  25.490  1.00  0.00    -0.200 F 
ATOM     83  C   UNL A   1      40.645  26.553  26.475  1.00  0.00     0.200 A 
ATOM     84  F   UNL A   1      39.221  24.973  27.501  1.00  0.00    -0.200 F 
ATOM     85  F   UNL A   1      40.748  25.777  25.388  1.00  0.00    -0.200 F 
ENDBRANCH  51  75
BRANCH  63  86
ATOM     86  C   UNL A   1      43.825  28.268  34.839  1.00  0.00     0.064 A 
ATOM     87  C   UNL A   1      43.545  27.076  35.522  1.00  0.00     0.173 A 
ATOM     88  C   UNL A   1      45.170  28.627  34.665  1.00  0.00     0.173 A 
ATOM     89  F   UNL A   1      42.274  26.698  35.727  1.00  0.00    -0.203 F 
ATOM     90  C   UNL A   1      44.572  26.285  36.030  1.00  0.00     0.198 A 
ATOM     91  C   UNL A   1      46.195  27.823  35.154  1.00  0.00     0.198 A 
ATOM     92  F   UNL A   1      45.489  29.756  34.013  1.00  0.00    -0.203 F 
ATOM     93  F   UNL A   1      44.280  25.172  36.717  1.00  0.00    -0.200 F 
ATOM     94  C   UNL A   1      45.896  26.656  35.841  1.00  0.00     0.200 A 
ATOM     95  F   UNL A   1      47.473  28.178  34.964  1.00  0.00    -0.200 F 
ATOM     96  F   UNL A   1      46.882  25.893  36.331  1.00  0.00    -0.200 F 
ENDBRANCH  63  86
ENDBRANCH  37  38
ENDBRANCH  30  32
ENDBRANCH  29  30
ENDBRANCH  28  29
ENDBRANCH  27  28
ENDBRANCH   1  27
TORSDOF 18
ENDMDL
MODEL 3
REMARK VINA RESULT:     -11.5      5.855     10.165
REMARK SMILES C=CC[C@@]1(C(=O)OCCOCCOC(=O)c2ccc(-c3c4nc(c(-c5c(F)c(F)c(F)c(F)c5F)c5ccc([nH]5)c(-c5c(F)c(F)c(F)c(F)c5F)c5nc(c(-c6c(F)c(F)c(F)c(F)c6F)c6ccc3[nH]6)C=C5)C=C4)cc2)CCCN(C(=O)c2ccc3c(c2)OCO3)C1
REMARK SMILES IDX 10 1 9 2 8 3 7 4 5 5 6 6 4 7 79 8 94 9 80 10 82 11 81 12
REMARK SMILES IDX 3 13 2 14 1 15 83 16 84 17 85 18 86 19 90 20 87 21 89 22
REMARK SMILES IDX 88 23 91 24 93 25 92 26 11 27 12 28 13 29 14 30 15 31 16 32
REMARK SMILES IDX 17 33 78 34 18 35 77 36 19 37 20 38 21 39 71 40 22 41 76 42
REMARK SMILES IDX 70 43 72 44 23 45 75 46 69 47 68 48 24 50 56 51 36 52 55 53
REMARK SMILES IDX 37 54 40 55 54 56 73 57 38 58 39 59 53 61 74 62 41 63 25 64
REMARK SMILES IDX 26 65 34 66 27 67 28 68 32 69 35 70 29 71 30 72 33 73 31 74
REMARK SMILES IDX 57 75 58 76 66 77 59 78 60 79 64 80 67 81 61 82 62 83 65 84
REMARK SMILES IDX 63 85 42 86 43 87 51 88 44 89 45 90 49 91 52 92 46 93 47 94
REMARK SMILES IDX 50 95 48 96
REMARK H PARENT 72 49 40 60
REMARK Flexibility Score: inf
ROOT
ATOM      1  O   UNL A   1      32.885  30.660  27.316  1.00  0.00    -0.374 OA
ENDROOT
BRANCH   1   2
ATOM      2  C   UNL A   1      33.663  29.620  26.737  1.00  0.00     0.202 C 
BRANCH   2   3
ATOM      3  C   UNL A   1      32.947  28.636  25.801  1.00  0.00     0.261 C 
BRANCH   3   4
ATOM      4  O   UNL A   1      32.655  29.131  24.476  1.00  0.00    -0.463 OA
BRANCH   4   5
ATOM      5  C   UNL A   1      31.338  29.397  24.230  1.00  0.00     0.314 C 
ATOM      6  O   UNL A   1      30.695  30.212  24.883  1.00  0.00    -0.252 OA
BRANCH   5   7
ATOM      7  C   UNL A   1      30.727  28.530  23.104  1.00  0.00     0.089 C 
ATOM      8  C   UNL A   1      29.537  27.719  23.650  1.00  0.00     0.023 C 
ATOM      9  C   UNL A   1      31.780  27.613  22.432  1.00  0.00     0.138 C 
ATOM     10  C   UNL A   1      29.963  26.482  24.427  1.00  0.00     0.023 C 
ATOM     11  N   UNL A   1      31.980  26.266  22.974  1.00  0.00    -0.337 N 
ATOM     12  C   UNL A   1      30.840  25.582  23.580  1.00  0.00     0.120 C 
BRANCH   7  13
ATOM     13  C   UNL A   1      30.254  29.530  21.981  1.00  0.00     0.047 C 
BRANCH  13  14
ATOM     14  C   UNL A   1      28.894  30.161  22.153  1.00  0.00    -0.034 C 
ATOM     15  C   UNL A   1      28.124  30.589  21.146  1.00  0.00     0.004 C 
ENDBRANCH  13  14
ENDBRANCH   7  13
BRANCH  11  16
ATOM     16  C   UNL A   1      33.126  25.582  22.526  1.00  0.00     0.254 C 
ATOM     17  O   UNL A   1      33.645  25.774  21.430  1.00  0.00    -0.269 OA
BRANCH  16  18
ATOM     18  C   UNL A   1      33.771  24.598  23.425  1.00  0.00     0.043 A 
ATOM     19  C   UNL A   1      34.468  25.086  24.547  1.00  0.00     0.018 A 
ATOM     20  C   UNL A   1      33.651  23.223  23.196  1.00  0.00     0.064 A 
ATOM     21  C   UNL A   1      34.951  24.206  25.518  1.00  0.00     0.051 A 
ATOM     22  C   UNL A   1      34.133  22.381  24.175  1.00  0.00     0.166 A 
ATOM     23  C   UNL A   1      34.746  22.858  25.313  1.00  0.00     0.165 A 
ATOM     24  O   UNL A   1      34.036  21.024  24.173  1.00  0.00    -0.454 OA
ATOM     25  O   UNL A   1      35.092  21.864  26.171  1.00  0.00    -0.454 OA
ATOM     26  C   UNL A   1      34.595  20.707  25.467  1.00  0.00     0.468 C 
ENDBRANCH  16  18
ENDBRANCH  11  16
ENDBRANCH   5   7
ENDBRANCH   4   5
ENDBRANCH   3   4
ENDBRANCH   2   3
ENDBRANCH   1   2
BRANCH   1  27
ATOM     27  C   UNL A   1      33.587  31.796  27.824  1.00  0.00     0.202 C 
BRANCH  27  28
ATOM     28  C   UNL A   1      33.051  33.167  27.406  1.00  0.00     0.261 C 
BRANCH  28  29
ATOM     29  O   UNL A   1      32.373  33.841  28.488  1.00  0.00    -0.460 OA
BRANCH  29  30
ATOM     30  C   UNL A   1      32.998  34.968  28.891  1.00  0.00     0.338 C 
ATOM     31  O   UNL A   1      32.614  36.121  28.726  1.00  0.00    -0.246 OA
BRANCH  30  32
ATOM     32  C   UNL A   1      34.198  34.676  29.691  1.00  0.00     0.060 A 
ATOM     33  C   UNL A   1      35.432  34.745  29.035  1.00  0.00     0.016 A 
ATOM     34  C   UNL A   1      34.110  34.152  30.982  1.00  0.00     0.016 A 
ATOM     35  C   UNL A   1      36.571  34.219  29.640  1.00  0.00     0.010 A 
ATOM     36  C   UNL A   1      35.252  33.605  31.581  1.00  0.00     0.010 A 
ATOM     37  C   UNL A   1      36.477  33.598  30.893  1.00  0.00    -0.014 A 
BRANCH  37  38
ATOM     38  C   UNL A   1      37.651  32.861  31.419  1.00  0.00     0.031 A 
ATOM     39  C   UNL A   1      38.245  33.248  32.745  1.00  0.00     0.074 A 
ATOM     40  C   UNL A   1      38.150  31.818  30.734  1.00  0.00     0.049 A 
ATOM     41  N   UNL A   1      39.199  32.665  33.427  1.00  0.00    -0.248 NA
ATOM     42  C   UNL A   1      37.692  34.449  33.389  1.00  0.00     0.031 C 
ATOM     43  C   UNL A   1      37.656  31.348  29.443  1.00  0.00     0.029 A 
ATOM     44  N   UNL A   1      39.182  30.968  31.036  1.00  0.00    -0.354 N 
ATOM     45  C   UNL A   1      39.344  33.410  34.589  1.00  0.00     0.074 A 
ATOM     46  C   UNL A   1      38.409  34.513  34.503  1.00  0.00     0.031 C 
ATOM     47  C   UNL A   1      38.392  30.293  29.055  1.00  0.00     0.029 A 
ATOM     48  C   UNL A   1      39.410  30.020  30.070  1.00  0.00     0.049 A 
ATOM     49  H   UNL A   1      39.709  31.030  31.865  1.00  0.00     0.167 HD
ATOM     50  C   UNL A   1      40.172  33.185  35.638  1.00  0.00     0.037 A 
ATOM     51  C   UNL A   1      40.332  29.042  30.012  1.00  0.00     0.037 A 
ATOM     52  C   UNL A   1      41.112  32.097  35.715  1.00  0.00     0.049 A 
ATOM     53  C   UNL A   1      41.273  28.841  31.169  1.00  0.00     0.074 A 
ATOM     54  C   UNL A   1      41.963  31.761  36.755  1.00  0.00     0.029 A 
ATOM     55  N   UNL A   1      41.336  31.176  34.702  1.00  0.00    -0.354 N 
ATOM     56  N   UNL A   1      41.350  29.505  32.297  1.00  0.00    -0.248 NA
ATOM     57  C   UNL A   1      42.245  27.745  31.051  1.00  0.00     0.031 C 
ATOM     58  C   UNL A   1      42.733  30.664  36.352  1.00  0.00     0.029 A 
ATOM     59  C   UNL A   1      42.334  30.291  35.080  1.00  0.00     0.049 A 
ATOM     60  H   UNL A   1      40.857  31.154  33.843  1.00  0.00     0.167 HD
ATOM     61  C   UNL A   1      42.359  28.895  33.030  1.00  0.00     0.074 A 
ATOM     62  C   UNL A   1      42.859  27.801  32.224  1.00  0.00     0.031 C 
ATOM     63  C   UNL A   1      42.825  29.212  34.262  1.00  0.00     0.037 A 
BRANCH  50  64
ATOM     64  C   UNL A   1      40.106  34.139  36.794  1.00  0.00     0.064 A 
ATOM     65  C   UNL A   1      39.232  33.923  37.869  1.00  0.00     0.173 A 
ATOM     66  C   UNL A   1      40.968  35.244  36.858  1.00  0.00     0.173 A 
ATOM     67  F   UNL A   1      38.383  32.885  37.851  1.00  0.00    -0.203 F 
ATOM     68  C   UNL A   1      39.212  34.789  38.960  1.00  0.00     0.198 A 
ATOM     69  C   UNL A   1      40.960  36.095  37.960  1.00  0.00     0.198 A 
ATOM     70  F   UNL A   1      41.827  35.489  35.857  1.00  0.00    -0.203 F 
ATOM     71  F   UNL A   1      38.350  34.579  39.965  1.00  0.00    -0.200 F 
ATOM     72  C   UNL A   1      40.080  35.869  39.009  1.00  0.00     0.200 A 
ATOM     73  F   UNL A   1      41.808  37.132  38.010  1.00  0.00    -0.200 F 
ATOM     74  F   UNL A   1      40.068  36.695  40.064  1.00  0.00    -0.200 F 
ENDBRANCH  50  64
BRANCH  51  75
ATOM     75  C   UNL A   1      40.394  28.169  28.816  1.00  0.00     0.064 A 
ATOM     76  C   UNL A   1      41.171  28.517  27.704  1.00  0.00     0.173 A 
ATOM     77  C   UNL A   1      39.688  26.958  28.771  1.00  0.00     0.173 A 
ATOM     78  F   UNL A   1      41.846  29.675  27.695  1.00  0.00    -0.203 F 
ATOM     79  C   UNL A   1      41.236  27.686  26.587  1.00  0.00     0.198 A 
ATOM     80  C   UNL A   1      39.770  26.119  27.663  1.00  0.00     0.198 A 
ATOM     81  F   UNL A   1      38.931  26.583  29.813  1.00  0.00    -0.203 F 
ATOM     82  F   UNL A   1      41.964  28.053  25.524  1.00  0.00    -0.200 F 
ATOM     83  C   UNL A   1      40.541  26.486  26.570  1.00  0.00     0.200 A 
ATOM     84  F   UNL A   1      39.107  24.955  27.656  1.00  0.00    -0.200 F 
ATOM     85  F   UNL A   1      40.611  25.684  25.499  1.00  0.00    -0.200 F 
ENDBRANCH  51  75
BRANCH  63  86
ATOM     86  C   UNL A   1      43.924  28.356  34.819  1.00  0.00     0.064 A 
ATOM     87  C   UNL A   1      43.647  27.186  35.540  1.00  0.00     0.173 A 
ATOM     88  C   UNL A   1      45.269  28.693  34.604  1.00  0.00     0.173 A 
ATOM     89  F   UNL A   1      42.376  26.830  35.785  1.00  0.00    -0.203 F 
ATOM     90  C   UNL A   1      44.676  26.395  36.044  1.00  0.00     0.198 A 
ATOM     91  C   UNL A   1      46.295  27.889  35.089  1.00  0.00     0.198 A 
ATOM     92  F   UNL A   1      45.586  29.801  33.915  1.00  0.00    -0.203 F 
ATOM     93  F   UNL A   1      44.387  25.303  36.766  1.00  0.00    -0.200 F 
ATOM     94  C   UNL A   1      45.999  26.744  35.813  1.00  0.00     0.200 A 
ATOM     95  F   UNL A   1      47.573  28.222  34.859  1.00  0.00    -0.200 F 
ATOM     96  F   UNL A   1      46.988  25.981  36.299  1.00  0.00    -0.200 F 
ENDBRANCH  63  86
ENDBRANCH  37  38
ENDBRANCH  30  32
ENDBRANCH  29  30
ENDBRANCH  28  29
ENDBRANCH  27  28
ENDBRANCH   1  27
TORSDOF 18
ENDMDL
