MODEL 1
REMARK VINA RESULT:     -11.5      0.000      0.000
REMARK SMILES CCOc1cc(F)ccc1NC(=O)CC1(C(=O)OCCOCCOC(=O)c2ccc(-c3c4nc(c(-c5c(F)c(F)c(F)c(F)c5F)c5ccc([nH]5)c(-c5c(F)c(F)c(F)c(F)c5F)c5nc(c(-c6c(F)c(F)c(F)c(F)c6F)c6ccc3[nH]6)C=C5)C=C4)cc2)CCCCC1
REMARK SMILES IDX 19 1 18 2 16 3 17 4 15 5 90 6 94 7 91 8 93 9 92 10 14 11
REMARK SMILES IDX 12 12 11 13 13 15 10 16 4 17 5 18 6 19 9 20 7 21 8 22 3 23
REMARK SMILES IDX 2 24 1 25 20 26 21 27 22 28 23 29 24 30 25 31 26 32 27 33
REMARK SMILES IDX 28 34 89 35 29 36 88 37 30 38 31 39 32 40 82 41 33 42 87 43
REMARK SMILES IDX 81 44 83 45 34 46 86 47 80 48 79 49 35 51 67 52 47 53 66 54
REMARK SMILES IDX 48 55 51 56 65 57 84 58 49 59 50 60 64 62 85 63 52 64 36 65
REMARK SMILES IDX 37 66 45 67 38 68 39 69 43 70 46 71 40 72 41 73 44 74 42 75
REMARK SMILES IDX 68 76 69 77 77 78 70 79 71 80 75 81 78 82 72 83 73 84 76 85
REMARK SMILES IDX 74 86 53 87 54 88 62 89 55 90 56 91 60 92 63 93 57 94 58 95
REMARK SMILES IDX 61 96 59 97
REMARK H PARENT 11 14 83 50 51 61
REMARK Flexibility Score: inf
ROOT
ATOM      1  C   UNL A   1      32.665  27.053  26.065  1.00  0.00     0.261 C 
ENDROOT
BRANCH   1   2
ATOM      2  O   UNL A   1      32.109  26.209  25.046  1.00  0.00    -0.463 OA
BRANCH   2   3
ATOM      3  C   UNL A   1      33.016  25.588  24.251  1.00  0.00     0.312 C 
ATOM      4  O   UNL A   1      34.225  25.605  24.452  1.00  0.00    -0.252 OA
BRANCH   3   5
ATOM      5  C   UNL A   1      32.386  24.930  23.013  1.00  0.00     0.077 C 
ATOM      6  C   UNL A   1      31.187  24.117  23.550  1.00  0.00     0.019 C 
ATOM      7  C   UNL A   1      33.298  23.959  22.203  1.00  0.00     0.019 C 
ATOM      8  C   UNL A   1      31.590  22.847  24.298  1.00  0.00     0.001 C 
ATOM      9  C   UNL A   1      33.626  22.622  22.866  1.00  0.00     0.001 C 
ATOM     10  C   UNL A   1      32.385  21.922  23.395  1.00  0.00     0.000 C 
BRANCH   5  11
ATOM     11  C   UNL A   1      31.960  26.049  22.000  1.00  0.00     0.119 C 
BRANCH  11  12
ATOM     12  C   UNL A   1      32.216  27.519  22.334  1.00  0.00     0.225 C 
ATOM     13  N   UNL A   1      31.235  28.341  22.806  1.00  0.00    -0.323 N 
ATOM     14  H   UNL A   1      31.545  29.227  23.102  1.00  0.00     0.170 HD
ATOM     15  O   UNL A   1      33.362  27.968  22.220  1.00  0.00    -0.275 OA
BRANCH  13  16
ATOM     16  C   UNL A   1      29.855  28.128  22.937  1.00  0.00     0.084 A 
ATOM     17  C   UNL A   1      28.984  29.115  22.433  1.00  0.00     0.145 A 
ATOM     18  C   UNL A   1      27.632  29.063  22.765  1.00  0.00     0.087 A 
ATOM     19  C   UNL A   1      27.152  28.006  23.530  1.00  0.00     0.127 A 
ATOM     20  C   UNL A   1      29.335  27.012  23.597  1.00  0.00     0.033 A 
ATOM     21  F   UNL A   1      25.862  27.985  23.888  1.00  0.00    -0.207 F 
ATOM     22  C   UNL A   1      27.978  26.958  23.910  1.00  0.00     0.041 A 
BRANCH  17  23
ATOM     23  O   UNL A   1      29.518  30.048  21.584  1.00  0.00    -0.492 OA
BRANCH  23  24
ATOM     24  C   UNL A   1      28.671  31.125  21.178  1.00  0.00     0.226 C 
ATOM     25  C   UNL A   1      28.727  32.313  22.129  1.00  0.00     0.049 C 
ENDBRANCH  23  24
ENDBRANCH  17  23
ENDBRANCH  13  16
ENDBRANCH  11  12
ENDBRANCH   5  11
ENDBRANCH   3   5
ENDBRANCH   2   3
ENDBRANCH   1   2
BRANCH   1  26
ATOM     26  C   UNL A   1      31.810  28.300  26.297  1.00  0.00     0.202 C 
BRANCH  26  27
ATOM     27  O   UNL A   1      32.160  29.466  25.559  1.00  0.00    -0.374 OA
BRANCH  27  28
ATOM     28  C   UNL A   1      31.230  30.548  25.528  1.00  0.00     0.202 C 
BRANCH  28  29
ATOM     29  C   UNL A   1      31.522  31.742  26.450  1.00  0.00     0.261 C 
BRANCH  29  30
ATOM     30  O   UNL A   1      32.566  31.474  27.409  1.00  0.00    -0.460 OA
BRANCH  30  31
ATOM     31  C   UNL A   1      33.469  32.468  27.568  1.00  0.00     0.338 C 
ATOM     32  O   UNL A   1      33.253  33.678  27.580  1.00  0.00    -0.246 OA
BRANCH  31  33
ATOM     33  C   UNL A   1      34.793  31.922  27.901  1.00  0.00     0.060 A 
ATOM     34  C   UNL A   1      34.919  30.531  28.032  1.00  0.00     0.016 A 
ATOM     35  C   UNL A   1      35.855  32.765  28.225  1.00  0.00     0.016 A 
ATOM     36  C   UNL A   1      36.099  29.981  28.531  1.00  0.00     0.010 A 
ATOM     37  C   UNL A   1      37.032  32.212  28.741  1.00  0.00     0.010 A 
ATOM     38  C   UNL A   1      37.145  30.822  28.930  1.00  0.00    -0.014 A 
BRANCH  38  39
ATOM     39  C   UNL A   1      38.281  30.270  29.707  1.00  0.00     0.031 A 
ATOM     40  C   UNL A   1      38.482  30.738  31.123  1.00  0.00     0.074 A 
ATOM     41  C   UNL A   1      39.103  29.349  29.178  1.00  0.00     0.049 A 
ATOM     42  N   UNL A   1      39.460  30.479  31.953  1.00  0.00    -0.248 NA
ATOM     43  C   UNL A   1      37.435  31.609  31.681  1.00  0.00     0.031 C 
ATOM     44  C   UNL A   1      38.960  28.753  27.852  1.00  0.00     0.029 A 
ATOM     45  N   UNL A   1      40.228  28.755  29.696  1.00  0.00    -0.354 N 
ATOM     46  C   UNL A   1      39.148  31.157  33.124  1.00  0.00     0.074 A 
ATOM     47  C   UNL A   1      37.903  31.856  32.896  1.00  0.00     0.031 C 
ATOM     48  C   UNL A   1      39.965  27.881  27.656  1.00  0.00     0.029 A 
ATOM     49  C   UNL A   1      40.846  27.893  28.824  1.00  0.00     0.049 A 
ATOM     50  H   UNL A   1      40.559  28.930  30.607  1.00  0.00     0.167 HD
ATOM     51  C   UNL A   1      39.837  31.184  34.288  1.00  0.00     0.037 A 
ATOM     52  C   UNL A   1      42.005  27.217  28.946  1.00  0.00     0.037 A 
ATOM     53  C   UNL A   1      41.075  30.487  34.514  1.00  0.00     0.049 A 
ATOM     54  C   UNL A   1      42.816  27.359  30.209  1.00  0.00     0.074 A 
ATOM     55  C   UNL A   1      41.863  30.476  35.650  1.00  0.00     0.029 A 
ATOM     56  N   UNL A   1      41.700  29.673  33.582  1.00  0.00    -0.354 N 
ATOM     57  N   UNL A   1      42.536  28.030  31.300  1.00  0.00    -0.248 NA
ATOM     58  C   UNL A   1      44.109  26.659  30.255  1.00  0.00     0.031 C 
ATOM     59  C   UNL A   1      42.988  29.688  35.394  1.00  0.00     0.029 A 
ATOM     60  C   UNL A   1      42.873  29.167  34.114  1.00  0.00     0.049 A 
ATOM     61  H   UNL A   1      41.360  29.483  32.678  1.00  0.00     0.167 HD
ATOM     62  C   UNL A   1      43.595  27.807  32.171  1.00  0.00     0.074 A 
ATOM     63  C   UNL A   1      44.527  26.938  31.483  1.00  0.00     0.031 C 
ATOM     64  C   UNL A   1      43.776  28.280  33.428  1.00  0.00     0.037 A 
BRANCH  51  65
ATOM     65  C   UNL A   1      39.283  32.006  35.414  1.00  0.00     0.064 A 
ATOM     66  C   UNL A   1      39.646  33.354  35.556  1.00  0.00     0.173 A 
ATOM     67  C   UNL A   1      38.459  31.438  36.396  1.00  0.00     0.173 A 
ATOM     68  F   UNL A   1      40.436  33.941  34.644  1.00  0.00    -0.203 F 
ATOM     69  C   UNL A   1      39.220  34.098  36.651  1.00  0.00     0.198 A 
ATOM     70  C   UNL A   1      38.014  32.193  37.479  1.00  0.00     0.198 A 
ATOM     71  F   UNL A   1      38.074  30.157  36.297  1.00  0.00    -0.203 F 
ATOM     72  F   UNL A   1      39.608  35.373  36.785  1.00  0.00    -0.200 F 
ATOM     73  C   UNL A   1      38.403  33.518  37.610  1.00  0.00     0.200 A 
ATOM     74  F   UNL A   1      37.209  31.637  38.394  1.00  0.00    -0.200 F 
ATOM     75  F   UNL A   1      37.991  34.236  38.664  1.00  0.00    -0.200 F 
ENDBRANCH  51  65
BRANCH  52  76
ATOM     76  C   UNL A   1      42.479  26.351  27.835  1.00  0.00     0.064 A 
ATOM     77  C   UNL A   1      43.376  26.828  26.867  1.00  0.00     0.173 A 
ATOM     78  C   UNL A   1      42.046  25.023  27.722  1.00  0.00     0.173 A 
ATOM     79  F   UNL A   1      43.826  28.089  26.933  1.00  0.00    -0.203 F 
ATOM     80  C   UNL A   1      43.805  26.017  25.819  1.00  0.00     0.198 A 
ATOM     81  C   UNL A   1      42.496  24.203  26.689  1.00  0.00     0.198 A 
ATOM     82  F   UNL A   1      41.210  24.512  28.639  1.00  0.00    -0.203 F 
ATOM     83  F   UNL A   1      44.640  26.507  24.894  1.00  0.00    -0.200 F 
ATOM     84  C   UNL A   1      43.369  24.703  25.734  1.00  0.00     0.200 A 
ATOM     85  F   UNL A   1      42.094  22.927  26.625  1.00  0.00    -0.200 F 
ATOM     86  F   UNL A   1      43.795  23.918  24.735  1.00  0.00    -0.200 F 
ENDBRANCH  52  76
BRANCH  64  87
ATOM     87  C   UNL A   1      44.998  27.840  34.178  1.00  0.00     0.064 A 
ATOM     88  C   UNL A   1      44.951  26.700  34.996  1.00  0.00     0.173 A 
ATOM     89  C   UNL A   1      46.171  28.607  34.183  1.00  0.00     0.173 A 
ATOM     90  F   UNL A   1      43.846  25.940  35.033  1.00  0.00    -0.203 F 
ATOM     91  C   UNL A   1      46.026  26.358  35.809  1.00  0.00     0.198 A 
ATOM     92  C   UNL A   1      47.254  28.247  34.980  1.00  0.00     0.198 A 
ATOM     93  F   UNL A   1      46.266  29.699  33.410  1.00  0.00    -0.203 F 
ATOM     94  F   UNL A   1      45.942  25.290  36.616  1.00  0.00    -0.200 F 
ATOM     95  C   UNL A   1      47.176  27.132  35.802  1.00  0.00     0.200 A 
ATOM     96  F   UNL A   1      48.373  28.985  34.959  1.00  0.00    -0.200 F 
ATOM     97  F   UNL A   1      48.211  26.804  36.589  1.00  0.00    -0.200 F 
ENDBRANCH  64  87
ENDBRANCH  38  39
ENDBRANCH  31  33
ENDBRANCH  30  31
ENDBRANCH  29  30
ENDBRANCH  28  29
ENDBRANCH  27  28
ENDBRANCH  26  27
ENDBRANCH   1  26
TORSDOF 19
ENDMDL
MODEL 2
REMARK VINA RESULT:     -11.4      2.553      8.416
REMARK SMILES CCOc1cc(F)ccc1NC(=O)CC1(C(=O)OCCOCCOC(=O)c2ccc(-c3c4nc(c(-c5c(F)c(F)c(F)c(F)c5F)c5ccc([nH]5)c(-c5c(F)c(F)c(F)c(F)c5F)c5nc(c(-c6c(F)c(F)c(F)c(F)c6F)c6ccc3[nH]6)C=C5)C=C4)cc2)CCCCC1
REMARK SMILES IDX 19 1 18 2 16 3 17 4 15 5 90 6 94 7 91 8 93 9 92 10 14 11
REMARK SMILES IDX 12 12 11 13 13 15 10 16 4 17 5 18 6 19 9 20 7 21 8 22 3 23
REMARK SMILES IDX 2 24 1 25 20 26 21 27 22 28 23 29 24 30 25 31 26 32 27 33
REMARK SMILES IDX 28 34 89 35 29 36 88 37 30 38 31 39 32 40 82 41 33 42 87 43
REMARK SMILES IDX 81 44 83 45 34 46 86 47 80 48 79 49 35 51 67 52 47 53 66 54
REMARK SMILES IDX 48 55 51 56 65 57 84 58 49 59 50 60 64 62 85 63 52 64 36 65
REMARK SMILES IDX 37 66 45 67 38 68 39 69 43 70 46 71 40 72 41 73 44 74 42 75
REMARK SMILES IDX 68 76 69 77 77 78 70 79 71 80 75 81 78 82 72 83 73 84 76 85
REMARK SMILES IDX 74 86 53 87 54 88 62 89 55 90 56 91 60 92 63 93 57 94 58 95
REMARK SMILES IDX 61 96 59 97
REMARK H PARENT 11 14 83 50 51 61
REMARK Flexibility Score: inf
ROOT
ATOM      1  C   UNL A   1      31.775  28.180  27.486  1.00  0.00     0.261 C 
ENDROOT
BRANCH   1   2
ATOM      2  O   UNL A   1      31.411  26.939  26.863  1.00  0.00    -0.463 OA
BRANCH   2   3
ATOM      3  C   UNL A   1      32.349  26.410  26.038  1.00  0.00     0.312 C 
ATOM      4  O   UNL A   1      33.556  26.578  26.178  1.00  0.00    -0.252 OA
BRANCH   3   5
ATOM      5  C   UNL A   1      31.747  25.647  24.847  1.00  0.00     0.077 C 
ATOM      6  C   UNL A   1      32.590  26.070  23.623  1.00  0.00     0.019 C 
ATOM      7  C   UNL A   1      30.250  25.936  24.521  1.00  0.00     0.019 C 
ATOM      8  C   UNL A   1      32.306  27.492  23.143  1.00  0.00     0.001 C 
ATOM      9  C   UNL A   1      29.938  27.307  23.922  1.00  0.00     0.001 C 
ATOM     10  C   UNL A   1      30.847  27.645  22.752  1.00  0.00     0.000 C 
BRANCH   5  11
ATOM     11  C   UNL A   1      31.823  24.107  25.138  1.00  0.00     0.119 C 
BRANCH  11  12
ATOM     12  C   UNL A   1      32.055  23.609  26.565  1.00  0.00     0.225 C 
ATOM     13  N   UNL A   1      33.259  23.119  26.979  1.00  0.00    -0.323 N 
ATOM     14  H   UNL A   1      33.324  22.947  27.946  1.00  0.00     0.170 HD
ATOM     15  O   UNL A   1      31.136  23.699  27.387  1.00  0.00    -0.275 OA
BRANCH  13  16
ATOM     16  C   UNL A   1      34.419  22.820  26.250  1.00  0.00     0.084 A 
ATOM     17  C   UNL A   1      34.712  21.464  26.005  1.00  0.00     0.145 A 
ATOM     18  C   UNL A   1      35.969  21.118  25.511  1.00  0.00     0.087 A 
ATOM     19  C   UNL A   1      36.887  22.117  25.207  1.00  0.00     0.127 A 
ATOM     20  C   UNL A   1      35.305  23.813  25.823  1.00  0.00     0.033 A 
ATOM     21  F   UNL A   1      38.110  21.779  24.780  1.00  0.00    -0.207 F 
ATOM     22  C   UNL A   1      36.553  23.460  25.314  1.00  0.00     0.041 A 
BRANCH  17  23
ATOM     23  O   UNL A   1      33.707  20.557  26.213  1.00  0.00    -0.492 OA
BRANCH  23  24
ATOM     24  C   UNL A   1      33.286  19.777  25.091  1.00  0.00     0.226 C 
ATOM     25  C   UNL A   1      32.613  20.611  24.010  1.00  0.00     0.049 C 
ENDBRANCH  23  24
ENDBRANCH  17  23
ENDBRANCH  13  16
ENDBRANCH  11  12
ENDBRANCH   5  11
ENDBRANCH   3   5
ENDBRANCH   2   3
ENDBRANCH   1   2
BRANCH   1  26
ATOM     26  C   UNL A   1      31.844  29.324  26.472  1.00  0.00     0.202 C 
BRANCH  26  27
ATOM     27  O   UNL A   1      32.095  30.626  26.990  1.00  0.00    -0.374 OA
BRANCH  27  28
ATOM     28  C   UNL A   1      31.333  31.715  26.469  1.00  0.00     0.202 C 
BRANCH  28  29
ATOM     29  C   UNL A   1      31.773  33.129  26.878  1.00  0.00     0.261 C 
BRANCH  29  30
ATOM     30  O   UNL A   1      33.054  33.154  27.541  1.00  0.00    -0.460 OA
BRANCH  30  31
ATOM     31  C   UNL A   1      33.245  34.192  28.385  1.00  0.00     0.338 C 
ATOM     32  O   UNL A   1      32.529  35.181  28.527  1.00  0.00    -0.246 OA
BRANCH  31  33
ATOM     33  C   UNL A   1      34.381  33.933  29.282  1.00  0.00     0.060 A 
ATOM     34  C   UNL A   1      35.656  34.346  28.869  1.00  0.00     0.016 A 
ATOM     35  C   UNL A   1      34.223  33.166  30.436  1.00  0.00     0.016 A 
ATOM     36  C   UNL A   1      36.784  33.956  29.589  1.00  0.00     0.010 A 
ATOM     37  C   UNL A   1      35.358  32.762  31.148  1.00  0.00     0.010 A 
ATOM     38  C   UNL A   1      36.644  33.125  30.707  1.00  0.00    -0.014 A 
BRANCH  38  39
ATOM     39  C   UNL A   1      37.841  32.488  31.308  1.00  0.00     0.031 A 
ATOM     40  C   UNL A   1      38.523  31.377  30.557  1.00  0.00     0.074 A 
ATOM     41  C   UNL A   1      38.332  32.906  32.487  1.00  0.00     0.049 A 
ATOM     42  N   UNL A   1      39.511  30.606  30.930  1.00  0.00    -0.248 NA
ATOM     43  C   UNL A   1      38.027  31.105  29.198  1.00  0.00     0.031 C 
ATOM     44  C   UNL A   1      37.815  34.028  33.266  1.00  0.00     0.029 A 
ATOM     45  N   UNL A   1      39.380  32.429  33.235  1.00  0.00    -0.354 N 
ATOM     46  C   UNL A   1      39.751  29.757  29.857  1.00  0.00     0.074 A 
ATOM     47  C   UNL A   1      38.794  30.090  28.825  1.00  0.00     0.031 C 
ATOM     48  C   UNL A   1      38.544  34.150  34.390  1.00  0.00     0.029 A 
ATOM     49  C   UNL A   1      39.547  33.087  34.429  1.00  0.00     0.049 A 
ATOM     50  H   UNL A   1      39.958  31.687  32.943  1.00  0.00     0.167 HD
ATOM     51  C   UNL A   1      40.692  28.792  29.743  1.00  0.00     0.037 A 
ATOM     52  C   UNL A   1      40.394  32.836  35.447  1.00  0.00     0.037 A 
ATOM     53  C   UNL A   1      41.644  28.463  30.771  1.00  0.00     0.049 A 
ATOM     54  C   UNL A   1      41.354  31.678  35.345  1.00  0.00     0.074 A 
ATOM     55  C   UNL A   1      42.618  27.482  30.761  1.00  0.00     0.029 A 
ATOM     56  N   UNL A   1      41.739  29.113  31.992  1.00  0.00    -0.354 N 
ATOM     57  N   UNL A   1      41.553  30.855  34.343  1.00  0.00    -0.248 NA
ATOM     58  C   UNL A   1      42.200  31.406  36.517  1.00  0.00     0.031 C 
ATOM     59  C   UNL A   1      43.279  27.510  31.991  1.00  0.00     0.029 A 
ATOM     60  C   UNL A   1      42.748  28.542  32.748  1.00  0.00     0.049 A 
ATOM     61  H   UNL A   1      41.175  29.867  32.277  1.00  0.00     0.167 HD
ATOM     62  C   UNL A   1      42.565  29.994  34.749  1.00  0.00     0.074 A 
ATOM     63  C   UNL A   1      42.941  30.392  36.090  1.00  0.00     0.031 C 
ATOM     64  C   UNL A   1      43.131  28.968  34.070  1.00  0.00     0.037 A 
BRANCH  51  65
ATOM     65  C   UNL A   1      40.740  28.004  28.469  1.00  0.00     0.064 A 
ATOM     66  C   UNL A   1      40.062  26.780  28.363  1.00  0.00     0.173 A 
ATOM     67  C   UNL A   1      41.522  28.420  27.381  1.00  0.00     0.173 A 
ATOM     68  F   UNL A   1      39.305  26.338  29.378  1.00  0.00    -0.203 F 
ATOM     69  C   UNL A   1      40.182  25.992  27.223  1.00  0.00     0.198 A 
ATOM     70  C   UNL A   1      41.620  27.640  26.232  1.00  0.00     0.198 A 
ATOM     71  F   UNL A   1      42.178  29.589  27.430  1.00  0.00    -0.203 F 
ATOM     72  F   UNL A   1      39.554  24.810  27.159  1.00  0.00    -0.200 F 
ATOM     73  C   UNL A   1      40.958  26.423  26.158  1.00  0.00     0.200 A 
ATOM     74  F   UNL A   1      42.355  28.066  25.196  1.00  0.00    -0.200 F 
ATOM     75  F   UNL A   1      41.071  25.664  25.059  1.00  0.00    -0.200 F 
ENDBRANCH  51  65
BRANCH  52  76
ATOM     76  C   UNL A   1      40.366  33.692  36.662  1.00  0.00     0.064 A 
ATOM     77  C   UNL A   1      39.488  33.427  37.723  1.00  0.00     0.173 A 
ATOM     78  C   UNL A   1      41.224  34.793  36.787  1.00  0.00     0.173 A 
ATOM     79  F   UNL A   1      38.650  32.382  37.657  1.00  0.00    -0.203 F 
ATOM     80  C   UNL A   1      39.455  34.242  38.853  1.00  0.00     0.198 A 
ATOM     81  C   UNL A   1      41.210  35.592  37.929  1.00  0.00     0.198 A 
ATOM     82  F   UNL A   1      42.102  35.071  35.811  1.00  0.00    -0.203 F 
ATOM     83  F   UNL A   1      38.587  33.981  39.839  1.00  0.00    -0.200 F 
ATOM     84  C   UNL A   1      40.320  35.320  38.958  1.00  0.00     0.200 A 
ATOM     85  F   UNL A   1      42.066  36.617  38.038  1.00  0.00    -0.200 F 
ATOM     86  F   UNL A   1      40.300  36.094  40.052  1.00  0.00    -0.200 F 
ENDBRANCH  52  76
BRANCH  64  87
ATOM     87  C   UNL A   1      44.253  28.220  34.726  1.00  0.00     0.064 A 
ATOM     88  C   UNL A   1      45.583  28.612  34.507  1.00  0.00     0.173 A 
ATOM     89  C   UNL A   1      44.022  27.054  35.468  1.00  0.00     0.173 A 
ATOM     90  F   UNL A   1      45.855  29.715  33.794  1.00  0.00    -0.203 F 
ATOM     91  C   UNL A   1      46.642  27.848  34.989  1.00  0.00     0.198 A 
ATOM     92  C   UNL A   1      45.084  26.306  35.969  1.00  0.00     0.198 A 
ATOM     93  F   UNL A   1      42.768  26.646  35.711  1.00  0.00    -0.203 F 
ATOM     94  F   UNL A   1      47.904  28.217  34.730  1.00  0.00    -0.200 F 
ATOM     95  C   UNL A   1      46.392  26.696  35.718  1.00  0.00     0.200 A 
ATOM     96  F   UNL A   1      44.842  25.203  36.689  1.00  0.00    -0.200 F 
ATOM     97  F   UNL A   1      47.412  25.958  36.178  1.00  0.00    -0.200 F 
ENDBRANCH  64  87
ENDBRANCH  38  39
ENDBRANCH  31  33
ENDBRANCH  30  31
ENDBRANCH  29  30
ENDBRANCH  28  29
ENDBRANCH  27  28
ENDBRANCH  26  27
ENDBRANCH   1  26
TORSDOF 19
ENDMDL
MODEL 3
REMARK VINA RESULT:     -11.4      2.419      3.909
REMARK SMILES CCOc1cc(F)ccc1NC(=O)CC1(C(=O)OCCOCCOC(=O)c2ccc(-c3c4nc(c(-c5c(F)c(F)c(F)c(F)c5F)c5ccc([nH]5)c(-c5c(F)c(F)c(F)c(F)c5F)c5nc(c(-c6c(F)c(F)c(F)c(F)c6F)c6ccc3[nH]6)C=C5)C=C4)cc2)CCCCC1
REMARK SMILES IDX 19 1 18 2 16 3 17 4 15 5 90 6 94 7 91 8 93 9 92 10 14 11
REMARK SMILES IDX 12 12 11 13 13 15 10 16 4 17 5 18 6 19 9 20 7 21 8 22 3 23
REMARK SMILES IDX 2 24 1 25 20 26 21 27 22 28 23 29 24 30 25 31 26 32 27 33
REMARK SMILES IDX 28 34 89 35 29 36 88 37 30 38 31 39 32 40 82 41 33 42 87 43
REMARK SMILES IDX 81 44 83 45 34 46 86 47 80 48 79 49 35 51 67 52 47 53 66 54
REMARK SMILES IDX 48 55 51 56 65 57 84 58 49 59 50 60 64 62 85 63 52 64 36 65
REMARK SMILES IDX 37 66 45 67 38 68 39 69 43 70 46 71 40 72 41 73 44 74 42 75
REMARK SMILES IDX 68 76 69 77 77 78 70 79 71 80 75 81 78 82 72 83 73 84 76 85
REMARK SMILES IDX 74 86 53 87 54 88 62 89 55 90 56 91 60 92 63 93 57 94 58 95
REMARK SMILES IDX 61 96 59 97
REMARK H PARENT 11 14 83 50 51 61
REMARK Flexibility Score: inf
ROOT
ATOM      1  C   UNL A   1      33.987  31.057  27.644  1.00  0.00     0.261 C 
ENDROOT
BRANCH   1   2
ATOM      2  O   UNL A   1      33.366  30.359  26.555  1.00  0.00    -0.463 OA
BRANCH   2   3
ATOM      3  C   UNL A   1      33.840  29.109  26.325  1.00  0.00     0.312 C 
ATOM      4  O   UNL A   1      34.852  28.655  26.847  1.00  0.00    -0.252 OA
BRANCH   3   5
ATOM      5  C   UNL A   1      33.030  28.338  25.270  1.00  0.00     0.077 C 
ATOM      6  C   UNL A   1      31.621  28.170  25.881  1.00  0.00     0.019 C 
ATOM      7  C   UNL A   1      33.557  26.922  24.887  1.00  0.00     0.019 C 
ATOM      8  C   UNL A   1      31.557  27.140  27.008  1.00  0.00     0.001 C 
ATOM      9  C   UNL A   1      33.401  25.829  25.944  1.00  0.00     0.001 C 
ATOM     10  C   UNL A   1      31.991  25.773  26.509  1.00  0.00     0.000 C 
BRANCH   5  11
ATOM     11  C   UNL A   1      33.021  29.159  23.933  1.00  0.00     0.119 C 
BRANCH  11  12
ATOM     12  C   UNL A   1      33.234  28.446  22.597  1.00  0.00     0.225 C 
ATOM     13  N   UNL A   1      32.259  27.692  22.009  1.00  0.00    -0.323 N 
ATOM     14  H   UNL A   1      32.467  27.387  21.097  1.00  0.00     0.170 HD
ATOM     15  O   UNL A   1      34.307  28.596  22.003  1.00  0.00    -0.275 OA
BRANCH  13  16
ATOM     16  C   UNL A   1      31.010  27.282  22.496  1.00  0.00     0.084 A 
ATOM     17  C   UNL A   1      29.955  28.215  22.477  1.00  0.00     0.145 A 
ATOM     18  C   UNL A   1      28.783  27.933  23.176  1.00  0.00     0.087 A 
ATOM     19  C   UNL A   1      28.647  26.710  23.825  1.00  0.00     0.127 A 
ATOM     20  C   UNL A   1      30.808  26.013  23.047  1.00  0.00     0.033 A 
ATOM     21  F   UNL A   1      27.540  26.462  24.536  1.00  0.00    -0.207 F 
ATOM     22  C   UNL A   1      29.626  25.732  23.729  1.00  0.00     0.041 A 
BRANCH  17  23
ATOM     23  O   UNL A   1      30.124  29.338  21.710  1.00  0.00    -0.492 OA
BRANCH  23  24
ATOM     24  C   UNL A   1      29.479  30.535  22.149  1.00  0.00     0.226 C 
ATOM     25  C   UNL A   1      28.410  31.020  21.180  1.00  0.00     0.049 C 
ENDBRANCH  23  24
ENDBRANCH  17  23
ENDBRANCH  13  16
ENDBRANCH  11  12
ENDBRANCH   5  11
ENDBRANCH   3   5
ENDBRANCH   2   3
ENDBRANCH   1   2
BRANCH   1  26
ATOM     26  C   UNL A   1      33.612  32.541  27.653  1.00  0.00     0.202 C 
BRANCH  26  27
ATOM     27  O   UNL A   1      34.662  33.467  27.909  1.00  0.00    -0.374 OA
BRANCH  27  28
ATOM     28  C   UNL A   1      34.316  34.747  28.436  1.00  0.00     0.202 C 
BRANCH  28  29
ATOM     29  C   UNL A   1      33.111  34.804  29.388  1.00  0.00     0.261 C 
BRANCH  29  30
ATOM     30  O   UNL A   1      33.210  35.863  30.364  1.00  0.00    -0.460 OA
BRANCH  30  31
ATOM     31  C   UNL A   1      32.829  35.527  31.617  1.00  0.00     0.338 C 
ATOM     32  O   UNL A   1      31.694  35.562  32.087  1.00  0.00    -0.246 OA
BRANCH  31  33
ATOM     33  C   UNL A   1      33.950  34.935  32.361  1.00  0.00     0.060 A 
ATOM     34  C   UNL A   1      35.205  35.555  32.270  1.00  0.00     0.016 A 
ATOM     35  C   UNL A   1      33.809  33.710  33.013  1.00  0.00     0.016 A 
ATOM     36  C   UNL A   1      36.333  34.930  32.797  1.00  0.00     0.010 A 
ATOM     37  C   UNL A   1      34.947  33.076  33.527  1.00  0.00     0.010 A 
ATOM     38  C   UNL A   1      36.217  33.666  33.389  1.00  0.00    -0.014 A 
BRANCH  38  39
ATOM     39  C   UNL A   1      37.436  32.881  33.701  1.00  0.00     0.031 A 
ATOM     40  C   UNL A   1      38.139  33.128  35.007  1.00  0.00     0.074 A 
ATOM     41  C   UNL A   1      37.894  31.944  32.854  1.00  0.00     0.049 A 
ATOM     42  N   UNL A   1      39.272  32.644  35.446  1.00  0.00    -0.248 NA
ATOM     43  C   UNL A   1      37.470  34.040  35.950  1.00  0.00     0.031 C 
ATOM     44  C   UNL A   1      37.253  31.550  31.602  1.00  0.00     0.029 A 
ATOM     45  N   UNL A   1      39.015  31.153  32.923  1.00  0.00    -0.354 N 
ATOM     46  C   UNL A   1      39.453  33.193  36.708  1.00  0.00     0.074 A 
ATOM     47  C   UNL A   1      38.326  34.064  36.961  1.00  0.00     0.031 C 
ATOM     48  C   UNL A   1      37.995  30.596  31.014  1.00  0.00     0.029 A 
ATOM     49  C   UNL A   1      39.186  30.345  31.825  1.00  0.00     0.049 A 
ATOM     50  H   UNL A   1      39.637  31.163  33.686  1.00  0.00     0.167 HD
ATOM     51  C   UNL A   1      40.466  32.982  37.580  1.00  0.00     0.037 A 
ATOM     52  C   UNL A   1      40.203  29.522  31.502  1.00  0.00     0.037 A 
ATOM     53  C   UNL A   1      41.585  32.114  37.327  1.00  0.00     0.049 A 
ATOM     54  C   UNL A   1      41.379  29.395  32.438  1.00  0.00     0.074 A 
ATOM     55  C   UNL A   1      42.676  31.857  38.137  1.00  0.00     0.029 A 
ATOM     56  N   UNL A   1      41.751  31.360  36.176  1.00  0.00    -0.354 N 
ATOM     57  N   UNL A   1      41.562  29.945  33.614  1.00  0.00    -0.248 NA
ATOM     58  C   UNL A   1      42.493  28.542  31.997  1.00  0.00     0.031 C 
ATOM     59  C   UNL A   1      43.524  30.977  37.460  1.00  0.00     0.029 A 
ATOM     60  C   UNL A   1      42.936  30.648  36.249  1.00  0.00     0.049 A 
ATOM     61  H   UNL A   1      41.120  31.335  35.420  1.00  0.00     0.167 HD
ATOM     62  C   UNL A   1      42.791  29.480  34.067  1.00  0.00     0.074 A 
ATOM     63  C   UNL A   1      43.312  28.603  33.040  1.00  0.00     0.031 C 
ATOM     64  C   UNL A   1      43.427  29.756  35.231  1.00  0.00     0.037 A 
BRANCH  51  65
ATOM     65  C   UNL A   1      40.427  33.708  38.891  1.00  0.00     0.064 A 
ATOM     66  C   UNL A   1      41.193  34.868  39.084  1.00  0.00     0.173 A 
ATOM     67  C   UNL A   1      39.697  33.212  39.981  1.00  0.00     0.173 A 
ATOM     68  F   UNL A   1      41.912  35.379  38.073  1.00  0.00    -0.203 F 
ATOM     69  C   UNL A   1      41.245  35.493  40.326  1.00  0.00     0.198 A 
ATOM     70  C   UNL A   1      39.732  33.854  41.216  1.00  0.00     0.198 A 
ATOM     71  F   UNL A   1      38.939  32.114  39.842  1.00  0.00    -0.203 F 
ATOM     72  F   UNL A   1      42.012  36.579  40.497  1.00  0.00    -0.200 F 
ATOM     73  C   UNL A   1      40.513  34.987  41.390  1.00  0.00     0.200 A 
ATOM     74  F   UNL A   1      39.010  33.376  42.238  1.00  0.00    -0.200 F 
ATOM     75  F   UNL A   1      40.562  35.592  42.585  1.00  0.00    -0.200 F 
ENDBRANCH  51  65
BRANCH  52  76
ATOM     76  C   UNL A   1      40.163  28.760  30.227  1.00  0.00     0.064 A 
ATOM     77  C   UNL A   1      40.743  29.265  29.054  1.00  0.00     0.173 A 
ATOM     78  C   UNL A   1      39.546  27.503  30.158  1.00  0.00     0.173 A 
ATOM     79  F   UNL A   1      41.352  30.460  29.067  1.00  0.00    -0.203 F 
ATOM     80  C   UNL A   1      40.690  28.553  27.858  1.00  0.00     0.198 A 
ATOM     81  C   UNL A   1      39.516  26.779  28.968  1.00  0.00     0.198 A 
ATOM     82  F   UNL A   1      39.002  26.964  31.260  1.00  0.00    -0.203 F 
ATOM     83  F   UNL A   1      41.228  29.073  26.747  1.00  0.00    -0.200 F 
ATOM     84  C   UNL A   1      40.081  27.308  27.817  1.00  0.00     0.200 A 
ATOM     85  F   UNL A   1      38.952  25.564  28.938  1.00  0.00    -0.200 F 
ATOM     86  F   UNL A   1      40.045  26.616  26.670  1.00  0.00    -0.200 F 
ENDBRANCH  52  76
BRANCH  64  87
ATOM     87  C   UNL A   1      44.736  29.075  35.499  1.00  0.00     0.064 A 
ATOM     88  C   UNL A   1      44.763  27.834  36.156  1.00  0.00     0.173 A 
ATOM     89  C   UNL A   1      45.959  29.698  35.215  1.00  0.00     0.173 A 
ATOM     90  F   UNL A   1      43.618  27.204  36.458  1.00  0.00    -0.203 F 
ATOM     91  C   UNL A   1      45.968  27.255  36.541  1.00  0.00     0.198 A 
ATOM     92  C   UNL A   1      47.163  29.103  35.581  1.00  0.00     0.198 A 
ATOM     93  F   UNL A   1      45.983  30.879  34.581  1.00  0.00    -0.203 F 
ATOM     94  F   UNL A   1      45.968  26.092  37.207  1.00  0.00    -0.200 F 
ATOM     95  C   UNL A   1      47.166  27.890  36.254  1.00  0.00     0.200 A 
ATOM     96  F   UNL A   1      48.322  29.708  35.288  1.00  0.00    -0.200 F 
ATOM     97  F   UNL A   1      48.327  27.333  36.629  1.00  0.00    -0.200 F 
ENDBRANCH  64  87
ENDBRANCH  38  39
ENDBRANCH  31  33
ENDBRANCH  30  31
ENDBRANCH  29  30
ENDBRANCH  28  29
ENDBRANCH  27  28
ENDBRANCH  26  27
ENDBRANCH   1  26
TORSDOF 19
ENDMDL
