MODEL 1
REMARK VINA RESULT:     -11.7      0.000      0.000
REMARK SMILES Cc1cc(C)c(NC(=O)C2(C)CCCC2)c(C(=O)OCCOCCOC(=O)c2ccc(-c3c4nc(c(-c5c(F)c(F)c(F)c(F)c5F)c5ccc([nH]5)c(-c5c(F)c(F)c(F)c(F)c5F)c5nc(c(-c6c(F)c(F)c(F)c(F)c6F)c6ccc3[nH]6)C=C5)C=C4)cc2)c1
REMARK SMILES IDX 22 1 21 2 20 3 19 4 17 5 18 6 16 7 1 8 2 9 3 10 91 11 4 12
REMARK SMILES IDX 5 13 6 14 7 15 8 16 9 18 10 19 11 20 12 21 15 22 13 23 14 24
REMARK SMILES IDX 23 25 24 26 25 27 26 28 27 29 28 30 29 31 90 32 30 33 89 34
REMARK SMILES IDX 31 35 32 36 33 37 83 38 34 39 88 40 82 41 84 42 35 43 87 44
REMARK SMILES IDX 81 45 80 46 36 48 68 49 48 50 67 51 49 52 52 53 66 54 85 55
REMARK SMILES IDX 50 56 51 57 65 59 86 60 53 61 37 62 38 63 46 64 39 65 40 66
REMARK SMILES IDX 44 67 47 68 41 69 42 70 45 71 43 72 69 73 70 74 78 75 71 76
REMARK SMILES IDX 72 77 76 78 79 79 73 80 74 81 77 82 75 83 54 84 55 85 63 86
REMARK SMILES IDX 56 87 57 88 61 89 64 90 58 91 59 92 62 93 60 94
REMARK H PARENT 7 17 84 47 52 58
REMARK Flexibility Score: inf
ROOT
ATOM      1  O   UNL A   1      32.670  28.916  25.231  1.00  0.00    -0.374 OA
ENDROOT
BRANCH   1   2
ATOM      2  C   UNL A   1      33.646  29.342  24.284  1.00  0.00     0.202 C 
BRANCH   2   3
ATOM      3  C   UNL A   1      33.449  28.886  22.833  1.00  0.00     0.261 C 
BRANCH   3   4
ATOM      4  O   UNL A   1      34.020  27.587  22.593  1.00  0.00    -0.460 OA
BRANCH   4   5
ATOM      5  C   UNL A   1      33.188  26.648  22.073  1.00  0.00     0.340 C 
ATOM      6  O   UNL A   1      33.310  26.062  21.007  1.00  0.00    -0.246 OA
BRANCH   5   7
ATOM      7  C   UNL A   1      32.209  26.248  23.117  1.00  0.00     0.084 A 
ATOM      8  C   UNL A   1      28.458  26.548  23.706  1.00  0.00     0.044 C 
ATOM      9  C   UNL A   1      29.923  26.314  23.922  1.00  0.00    -0.050 A 
ATOM     10  C   UNL A   1      30.385  25.852  25.156  1.00  0.00     0.009 A 
ATOM     11  C   UNL A   1      30.851  26.554  22.913  1.00  0.00     0.021 A 
ATOM     12  C   UNL A   1      31.754  25.620  25.403  1.00  0.00    -0.026 A 
ATOM     13  C   UNL A   1      32.126  25.406  26.843  1.00  0.00     0.046 C 
ATOM     14  C   UNL A   1      32.667  25.682  24.336  1.00  0.00     0.058 A 
BRANCH  14  15
ATOM     15  N   UNL A   1      34.010  25.218  24.392  1.00  0.00    -0.325 N 
ATOM     16  C   UNL A   1      34.490  23.999  24.804  1.00  0.00     0.230 C 
ATOM     17  H   UNL A   1      34.692  25.861  24.093  1.00  0.00     0.169 HD
ATOM     18  O   UNL A   1      34.830  23.838  25.976  1.00  0.00    -0.274 OA
BRANCH  16  19
ATOM     19  C   UNL A   1      34.706  22.903  23.712  1.00  0.00     0.047 C 
ATOM     20  C   UNL A   1      36.124  22.943  23.133  1.00  0.00     0.022 C 
ATOM     21  C   UNL A   1      34.396  21.502  24.279  1.00  0.00     0.016 C 
ATOM     22  C   UNL A   1      33.665  22.969  22.582  1.00  0.00     0.016 C 
ATOM     23  C   UNL A   1      32.874  21.379  24.254  1.00  0.00     0.001 C 
ATOM     24  C   UNL A   1      32.402  22.309  23.141  1.00  0.00     0.001 C 
ENDBRANCH  16  19
ENDBRANCH  14  15
ENDBRANCH   5   7
ENDBRANCH   4   5
ENDBRANCH   3   4
ENDBRANCH   2   3
ENDBRANCH   1   2
BRANCH   1  25
ATOM     25  C   UNL A   1      31.480  29.696  25.347  1.00  0.00     0.202 C 
BRANCH  25  26
ATOM     26  C   UNL A   1      31.579  31.011  26.130  1.00  0.00     0.261 C 
BRANCH  26  27
ATOM     27  O   UNL A   1      32.499  30.929  27.235  1.00  0.00    -0.460 OA
BRANCH  27  28
ATOM     28  C   UNL A   1      33.305  32.005  27.382  1.00  0.00     0.338 C 
ATOM     29  O   UNL A   1      33.005  33.186  27.264  1.00  0.00    -0.246 OA
BRANCH  28  30
ATOM     30  C   UNL A   1      34.625  31.582  27.878  1.00  0.00     0.060 A 
ATOM     31  C   UNL A   1      34.780  30.241  28.250  1.00  0.00     0.016 A 
ATOM     32  C   UNL A   1      35.665  32.496  28.059  1.00  0.00     0.016 A 
ATOM     33  C   UNL A   1      35.964  29.816  28.849  1.00  0.00     0.010 A 
ATOM     34  C   UNL A   1      36.851  32.068  28.666  1.00  0.00     0.010 A 
ATOM     35  C   UNL A   1      36.992  30.735  29.094  1.00  0.00    -0.014 A 
BRANCH  35  36
ATOM     36  C   UNL A   1      38.160  30.330  29.915  1.00  0.00     0.031 A 
ATOM     37  C   UNL A   1      39.152  29.353  29.348  1.00  0.00     0.074 A 
ATOM     38  C   UNL A   1      38.345  30.844  31.143  1.00  0.00     0.049 A 
ATOM     39  N   UNL A   1      40.213  28.826  29.904  1.00  0.00    -0.248 NA
ATOM     40  C   UNL A   1      38.909  28.905  27.968  1.00  0.00     0.031 C 
ATOM     41  C   UNL A   1      37.474  31.824  31.786  1.00  0.00     0.029 A 
ATOM     42  N   UNL A   1      39.325  30.600  32.073  1.00  0.00    -0.354 N 
ATOM     43  C   UNL A   1      40.761  27.983  28.946  1.00  0.00     0.074 A 
ATOM     44  C   UNL A   1      39.895  28.039  27.788  1.00  0.00     0.031 C 
ATOM     45  C   UNL A   1      37.951  32.092  33.013  1.00  0.00     0.029 A 
ATOM     46  C   UNL A   1      39.139  31.275  33.254  1.00  0.00     0.049 A 
ATOM     47  H   UNL A   1      40.087  29.999  31.910  1.00  0.00     0.167 HD
ATOM     48  C   UNL A   1      41.890  27.237  29.023  1.00  0.00     0.037 A 
ATOM     49  C   UNL A   1      39.835  31.218  34.406  1.00  0.00     0.037 A 
ATOM     50  C   UNL A   1      42.747  27.183  30.180  1.00  0.00     0.049 A 
ATOM     51  C   UNL A   1      41.047  30.327  34.494  1.00  0.00     0.074 A 
ATOM     52  C   UNL A   1      43.923  26.474  30.352  1.00  0.00     0.029 A 
ATOM     53  N   UNL A   1      42.511  27.859  31.369  1.00  0.00    -0.354 N 
ATOM     54  N   UNL A   1      41.574  29.551  33.577  1.00  0.00    -0.248 NA
ATOM     55  C   UNL A   1      41.763  30.307  35.777  1.00  0.00     0.031 C 
ATOM     56  C   UNL A   1      44.366  26.674  31.663  1.00  0.00     0.029 A 
ATOM     57  C   UNL A   1      43.504  27.560  32.289  1.00  0.00     0.049 A 
ATOM     58  H   UNL A   1      41.752  28.463  31.534  1.00  0.00     0.167 HD
ATOM     59  C   UNL A   1      42.696  28.976  34.160  1.00  0.00     0.074 A 
ATOM     60  C   UNL A   1      42.781  29.502  35.506  1.00  0.00     0.031 C 
ATOM     61  C   UNL A   1      43.578  28.094  33.627  1.00  0.00     0.037 A 
BRANCH  48  62
ATOM     62  C   UNL A   1      42.245  26.394  27.831  1.00  0.00     0.064 A 
ATOM     63  C   UNL A   1      43.186  26.818  26.879  1.00  0.00     0.173 A 
ATOM     64  C   UNL A   1      41.652  25.136  27.649  1.00  0.00     0.173 A 
ATOM     65  F   UNL A   1      43.775  28.018  26.998  1.00  0.00    -0.203 F 
ATOM     66  C   UNL A   1      43.491  26.029  25.772  1.00  0.00     0.198 A 
ATOM     67  C   UNL A   1      41.985  24.336  26.559  1.00  0.00     0.198 A 
ATOM     68  F   UNL A   1      40.751  24.678  28.531  1.00  0.00    -0.203 F 
ATOM     69  F   UNL A   1      44.350  26.480  24.847  1.00  0.00    -0.200 F 
ATOM     70  C   UNL A   1      42.896  24.787  25.616  1.00  0.00     0.200 A 
ATOM     71  F   UNL A   1      41.418  23.129  26.419  1.00  0.00    -0.200 F 
ATOM     72  F   UNL A   1      43.193  24.028  24.553  1.00  0.00    -0.200 F 
ENDBRANCH  48  62
BRANCH  49  73
ATOM     73  C   UNL A   1      39.394  32.024  35.575  1.00  0.00     0.064 A 
ATOM     74  C   UNL A   1      39.870  33.326  35.778  1.00  0.00     0.173 A 
ATOM     75  C   UNL A   1      38.487  31.508  36.512  1.00  0.00     0.173 A 
ATOM     76  F   UNL A   1      40.758  33.856  34.924  1.00  0.00    -0.203 F 
ATOM     77  C   UNL A   1      39.468  34.075  36.883  1.00  0.00     0.198 A 
ATOM     78  C   UNL A   1      38.062  32.267  37.599  1.00  0.00     0.198 A 
ATOM     79  F   UNL A   1      38.000  30.266  36.363  1.00  0.00    -0.203 F 
ATOM     80  F   UNL A   1      39.973  35.300  37.078  1.00  0.00    -0.200 F 
ATOM     81  C   UNL A   1      38.559  33.548  37.788  1.00  0.00     0.200 A 
ATOM     82  F   UNL A   1      37.171  31.760  38.462  1.00  0.00    -0.200 F 
ATOM     83  F   UNL A   1      38.166  34.272  38.845  1.00  0.00    -0.200 F 
ENDBRANCH  49  73
BRANCH  61  84
ATOM     84  C   UNL A   1      44.735  27.668  34.485  1.00  0.00     0.064 A 
ATOM     85  C   UNL A   1      45.933  28.398  34.527  1.00  0.00     0.173 A 
ATOM     86  C   UNL A   1      44.630  26.536  35.308  1.00  0.00     0.173 A 
ATOM     87  F   UNL A   1      46.092  29.480  33.749  1.00  0.00    -0.203 F 
ATOM     88  C   UNL A   1      46.990  27.995  35.339  1.00  0.00     0.198 A 
ATOM     89  C   UNL A   1      45.676  26.155  36.144  1.00  0.00     0.198 A 
ATOM     90  F   UNL A   1      43.505  25.806  35.313  1.00  0.00    -0.203 F 
ATOM     91  F   UNL A   1      48.143  28.679  35.325  1.00  0.00    -0.200 F 
ATOM     92  C   UNL A   1      46.858  26.879  36.153  1.00  0.00     0.200 A 
ATOM     93  F   UNL A   1      45.540  25.085  36.941  1.00  0.00    -0.200 F 
ATOM     94  F   UNL A   1      47.873  26.498  36.940  1.00  0.00    -0.200 F 
ENDBRANCH  61  84
ENDBRANCH  35  36
ENDBRANCH  28  30
ENDBRANCH  27  28
ENDBRANCH  26  27
ENDBRANCH  25  26
ENDBRANCH   1  25
TORSDOF 16
ENDMDL
MODEL 2
REMARK VINA RESULT:     -11.5      0.449      7.156
REMARK SMILES Cc1cc(C)c(NC(=O)C2(C)CCCC2)c(C(=O)OCCOCCOC(=O)c2ccc(-c3c4nc(c(-c5c(F)c(F)c(F)c(F)c5F)c5ccc([nH]5)c(-c5c(F)c(F)c(F)c(F)c5F)c5nc(c(-c6c(F)c(F)c(F)c(F)c6F)c6ccc3[nH]6)C=C5)C=C4)cc2)c1
REMARK SMILES IDX 22 1 21 2 20 3 19 4 17 5 18 6 16 7 1 8 2 9 3 10 91 11 4 12
REMARK SMILES IDX 5 13 6 14 7 15 8 16 9 18 10 19 11 20 12 21 15 22 13 23 14 24
REMARK SMILES IDX 23 25 24 26 25 27 26 28 27 29 28 30 29 31 90 32 30 33 89 34
REMARK SMILES IDX 31 35 32 36 33 37 83 38 34 39 88 40 82 41 84 42 35 43 87 44
REMARK SMILES IDX 81 45 80 46 36 48 68 49 48 50 67 51 49 52 52 53 66 54 85 55
REMARK SMILES IDX 50 56 51 57 65 59 86 60 53 61 37 62 38 63 46 64 39 65 40 66
REMARK SMILES IDX 44 67 47 68 41 69 42 70 45 71 43 72 69 73 70 74 78 75 71 76
REMARK SMILES IDX 72 77 76 78 79 79 73 80 74 81 77 82 75 83 54 84 55 85 63 86
REMARK SMILES IDX 56 87 57 88 61 89 64 90 58 91 59 92 62 93 60 94
REMARK H PARENT 7 17 84 47 52 58
REMARK Flexibility Score: inf
ROOT
ATOM      1  O   UNL A   1      33.019  28.755  25.091  1.00  0.00    -0.374 OA
ENDROOT
BRANCH   1   2
ATOM      2  C   UNL A   1      33.757  29.337  24.021  1.00  0.00     0.202 C 
BRANCH   2   3
ATOM      3  C   UNL A   1      33.566  28.716  22.630  1.00  0.00     0.261 C 
BRANCH   3   4
ATOM      4  O   UNL A   1      34.004  27.346  22.586  1.00  0.00    -0.460 OA
BRANCH   4   5
ATOM      5  C   UNL A   1      33.119  26.445  22.087  1.00  0.00     0.340 C 
ATOM      6  O   UNL A   1      33.194  25.849  21.022  1.00  0.00    -0.246 OA
BRANCH   5   7
ATOM      7  C   UNL A   1      32.141  26.097  23.150  1.00  0.00     0.084 A 
ATOM      8  C   UNL A   1      28.396  26.453  23.743  1.00  0.00     0.044 C 
ATOM      9  C   UNL A   1      29.860  26.216  23.962  1.00  0.00    -0.050 A 
ATOM     10  C   UNL A   1      30.324  25.802  25.212  1.00  0.00     0.009 A 
ATOM     11  C   UNL A   1      30.786  26.406  22.940  1.00  0.00     0.021 A 
ATOM     12  C   UNL A   1      31.693  25.569  25.463  1.00  0.00    -0.026 A 
ATOM     13  C   UNL A   1      32.069  25.412  26.908  1.00  0.00     0.046 C 
ATOM     14  C   UNL A   1      32.601  25.579  24.390  1.00  0.00     0.058 A 
BRANCH  14  15
ATOM     15  N   UNL A   1      33.941  25.106  24.460  1.00  0.00    -0.325 N 
ATOM     16  C   UNL A   1      34.408  23.885  24.877  1.00  0.00     0.230 C 
ATOM     17  H   UNL A   1      34.629  25.745  24.167  1.00  0.00     0.169 HD
ATOM     18  O   UNL A   1      34.735  23.722  26.052  1.00  0.00    -0.274 OA
BRANCH  16  19
ATOM     19  C   UNL A   1      34.628  22.787  23.787  1.00  0.00     0.047 C 
ATOM     20  C   UNL A   1      36.002  22.909  23.120  1.00  0.00     0.022 C 
ATOM     21  C   UNL A   1      34.448  21.378  24.390  1.00  0.00     0.016 C 
ATOM     22  C   UNL A   1      33.518  22.767  22.724  1.00  0.00     0.016 C 
ATOM     23  C   UNL A   1      32.938  21.156  24.462  1.00  0.00     0.001 C 
ATOM     24  C   UNL A   1      32.338  22.034  23.369  1.00  0.00     0.001 C 
ENDBRANCH  16  19
ENDBRANCH  14  15
ENDBRANCH   5   7
ENDBRANCH   4   5
ENDBRANCH   3   4
ENDBRANCH   2   3
ENDBRANCH   1   2
BRANCH   1  25
ATOM     25  C   UNL A   1      31.773  29.360  25.438  1.00  0.00     0.202 C 
BRANCH  25  26
ATOM     26  C   UNL A   1      31.825  30.758  26.067  1.00  0.00     0.261 C 
BRANCH  26  27
ATOM     27  O   UNL A   1      32.547  30.778  27.312  1.00  0.00    -0.460 OA
BRANCH  27  28
ATOM     28  C   UNL A   1      33.383  31.831  27.465  1.00  0.00     0.338 C 
ATOM     29  O   UNL A   1      33.103  33.022  27.409  1.00  0.00    -0.246 OA
BRANCH  28  30
ATOM     30  C   UNL A   1      34.714  31.362  27.882  1.00  0.00     0.060 A 
ATOM     31  C   UNL A   1      34.867  29.997  28.153  1.00  0.00     0.016 A 
ATOM     32  C   UNL A   1      35.771  32.251  28.091  1.00  0.00     0.016 A 
ATOM     33  C   UNL A   1      36.066  29.519  28.677  1.00  0.00     0.010 A 
ATOM     34  C   UNL A   1      36.972  31.771  28.623  1.00  0.00     0.010 A 
ATOM     35  C   UNL A   1      37.113  30.409  28.951  1.00  0.00    -0.014 A 
BRANCH  35  36
ATOM     36  C   UNL A   1      38.304  29.937  29.698  1.00  0.00     0.031 A 
ATOM     37  C   UNL A   1      38.551  30.455  31.087  1.00  0.00     0.074 A 
ATOM     38  C   UNL A   1      39.144  29.040  29.152  1.00  0.00     0.049 A 
ATOM     39  N   UNL A   1      39.550  30.216  31.900  1.00  0.00    -0.248 NA
ATOM     40  C   UNL A   1      37.538  31.372  31.631  1.00  0.00     0.031 C 
ATOM     41  C   UNL A   1      38.990  28.440  27.830  1.00  0.00     0.029 A 
ATOM     42  N   UNL A   1      40.301  28.489  29.643  1.00  0.00    -0.354 N 
ATOM     43  C   UNL A   1      39.287  30.956  33.046  1.00  0.00     0.074 A 
ATOM     44  C   UNL A   1      38.057  31.680  32.810  1.00  0.00     0.031 C 
ATOM     45  C   UNL A   1      40.023  27.609  27.607  1.00  0.00     0.029 A 
ATOM     46  C   UNL A   1      40.926  27.649  28.756  1.00  0.00     0.049 A 
ATOM     47  H   UNL A   1      40.650  28.678  30.544  1.00  0.00     0.167 HD
ATOM     48  C   UNL A   1      40.003  31.016  34.195  1.00  0.00     0.037 A 
ATOM     49  C   UNL A   1      42.107  27.007  28.851  1.00  0.00     0.037 A 
ATOM     50  C   UNL A   1      41.230  30.295  34.423  1.00  0.00     0.049 A 
ATOM     51  C   UNL A   1      42.923  27.145  30.111  1.00  0.00     0.074 A 
ATOM     52  C   UNL A   1      42.021  30.273  35.558  1.00  0.00     0.029 A 
ATOM     53  N   UNL A   1      41.848  29.474  33.490  1.00  0.00    -0.354 N 
ATOM     54  N   UNL A   1      42.658  27.825  31.200  1.00  0.00    -0.248 NA
ATOM     55  C   UNL A   1      44.202  26.422  30.154  1.00  0.00     0.031 C 
ATOM     56  C   UNL A   1      43.147  29.488  35.291  1.00  0.00     0.029 A 
ATOM     57  C   UNL A   1      43.026  28.966  34.013  1.00  0.00     0.049 A 
ATOM     58  H   UNL A   1      41.500  29.281  32.589  1.00  0.00     0.167 HD
ATOM     59  C   UNL A   1      43.717  27.589  32.067  1.00  0.00     0.074 A 
ATOM     60  C   UNL A   1      44.624  26.693  31.381  1.00  0.00     0.031 C 
ATOM     61  C   UNL A   1      43.920  28.070  33.319  1.00  0.00     0.037 A 
BRANCH  48  62
ATOM     62  C   UNL A   1      39.493  31.919  35.282  1.00  0.00     0.064 A 
ATOM     63  C   UNL A   1      39.882  33.265  35.370  1.00  0.00     0.173 A 
ATOM     64  C   UNL A   1      38.587  31.437  36.238  1.00  0.00     0.173 A 
ATOM     65  F   UNL A   1      40.757  33.774  34.488  1.00  0.00    -0.203 F 
ATOM     66  C   UNL A   1      39.411  34.082  36.394  1.00  0.00     0.198 A 
ATOM     67  C   UNL A   1      38.091  32.267  37.240  1.00  0.00     0.198 A 
ATOM     68  F   UNL A   1      38.176  30.161  36.199  1.00  0.00    -0.203 F 
ATOM     69  F   UNL A   1      39.841  35.349  36.490  1.00  0.00    -0.200 F 
ATOM     70  C   UNL A   1      38.511  33.586  37.324  1.00  0.00     0.200 A 
ATOM     71  F   UNL A   1      37.210  31.787  38.130  1.00  0.00    -0.200 F 
ATOM     72  F   UNL A   1      38.055  34.374  38.306  1.00  0.00    -0.200 F 
ENDBRANCH  48  62
BRANCH  49  73
ATOM     73  C   UNL A   1      42.592  26.182  27.714  1.00  0.00     0.064 A 
ATOM     74  C   UNL A   1      43.497  26.699  26.778  1.00  0.00     0.173 A 
ATOM     75  C   UNL A   1      42.160  24.858  27.540  1.00  0.00     0.173 A 
ATOM     76  F   UNL A   1      43.922  27.967  26.886  1.00  0.00    -0.203 F 
ATOM     77  C   UNL A   1      43.939  25.930  25.703  1.00  0.00     0.198 A 
ATOM     78  C   UNL A   1      42.625  24.081  26.484  1.00  0.00     0.198 A 
ATOM     79  F   UNL A   1      41.294  24.315  28.409  1.00  0.00    -0.203 F 
ATOM     80  F   UNL A   1      44.770  26.463  24.798  1.00  0.00    -0.200 F 
ATOM     81  C   UNL A   1      43.509  24.619  25.561  1.00  0.00     0.200 A 
ATOM     82  F   UNL A   1      42.219  22.810  26.359  1.00  0.00    -0.200 F 
ATOM     83  F   UNL A   1      43.942  23.877  24.532  1.00  0.00    -0.200 F 
ENDBRANCH  49  73
BRANCH  61  84
ATOM     84  C   UNL A   1      45.149  27.608  34.048  1.00  0.00     0.064 A 
ATOM     85  C   UNL A   1      46.354  28.325  33.995  1.00  0.00     0.173 A 
ATOM     86  C   UNL A   1      45.110  26.453  34.844  1.00  0.00     0.173 A 
ATOM     87  F   UNL A   1      46.451  29.429  33.237  1.00  0.00    -0.203 F 
ATOM     88  C   UNL A   1      47.480  27.887  34.689  1.00  0.00     0.198 A 
ATOM     89  C   UNL A   1      46.227  26.037  35.563  1.00  0.00     0.198 A 
ATOM     90  F   UNL A   1      43.981  25.733  34.937  1.00  0.00    -0.203 F 
ATOM     91  F   UNL A   1      48.634  28.560  34.583  1.00  0.00    -0.200 F 
ATOM     92  C   UNL A   1      47.413  26.749  35.479  1.00  0.00     0.200 A 
ATOM     93  F   UNL A   1      46.155  24.945  36.338  1.00  0.00    -0.200 F 
ATOM     94  F   UNL A   1      48.495  26.334  36.153  1.00  0.00    -0.200 F 
ENDBRANCH  61  84
ENDBRANCH  35  36
ENDBRANCH  28  30
ENDBRANCH  27  28
ENDBRANCH  26  27
ENDBRANCH  25  26
ENDBRANCH   1  25
TORSDOF 16
ENDMDL
MODEL 3
REMARK VINA RESULT:     -11.4      2.648      8.628
REMARK SMILES Cc1cc(C)c(NC(=O)C2(C)CCCC2)c(C(=O)OCCOCCOC(=O)c2ccc(-c3c4nc(c(-c5c(F)c(F)c(F)c(F)c5F)c5ccc([nH]5)c(-c5c(F)c(F)c(F)c(F)c5F)c5nc(c(-c6c(F)c(F)c(F)c(F)c6F)c6ccc3[nH]6)C=C5)C=C4)cc2)c1
REMARK SMILES IDX 22 1 21 2 20 3 19 4 17 5 18 6 16 7 1 8 2 9 3 10 91 11 4 12
REMARK SMILES IDX 5 13 6 14 7 15 8 16 9 18 10 19 11 20 12 21 15 22 13 23 14 24
REMARK SMILES IDX 23 25 24 26 25 27 26 28 27 29 28 30 29 31 90 32 30 33 89 34
REMARK SMILES IDX 31 35 32 36 33 37 83 38 34 39 88 40 82 41 84 42 35 43 87 44
REMARK SMILES IDX 81 45 80 46 36 48 68 49 48 50 67 51 49 52 52 53 66 54 85 55
REMARK SMILES IDX 50 56 51 57 65 59 86 60 53 61 37 62 38 63 46 64 39 65 40 66
REMARK SMILES IDX 44 67 47 68 41 69 42 70 45 71 43 72 69 73 70 74 78 75 71 76
REMARK SMILES IDX 72 77 76 78 79 79 73 80 74 81 77 82 75 83 54 84 55 85 63 86
REMARK SMILES IDX 56 87 57 88 61 89 64 90 58 91 59 92 62 93 60 94
REMARK H PARENT 7 17 84 47 52 58
REMARK Flexibility Score: inf
ROOT
ATOM      1  O   UNL A   1      33.602  32.796  28.546  1.00  0.00    -0.374 OA
ENDROOT
BRANCH   1   2
ATOM      2  C   UNL A   1      34.305  31.959  27.631  1.00  0.00     0.202 C 
BRANCH   2   3
ATOM      3  C   UNL A   1      33.852  30.495  27.544  1.00  0.00     0.261 C 
BRANCH   3   4
ATOM      4  O   UNL A   1      33.406  30.146  26.222  1.00  0.00    -0.460 OA
BRANCH   4   5
ATOM      5  C   UNL A   1      32.064  30.168  26.012  1.00  0.00     0.340 C 
ATOM      6  O   UNL A   1      31.333  31.148  26.013  1.00  0.00    -0.246 OA
BRANCH   5   7
ATOM      7  C   UNL A   1      31.633  28.828  25.535  1.00  0.00     0.084 A 
ATOM      8  C   UNL A   1      31.710  25.239  26.807  1.00  0.00     0.044 C 
ATOM      9  C   UNL A   1      31.577  26.434  25.911  1.00  0.00    -0.050 A 
ATOM     10  C   UNL A   1      31.181  26.273  24.582  1.00  0.00     0.009 A 
ATOM     11  C   UNL A   1      31.846  27.719  26.373  1.00  0.00     0.021 A 
ATOM     12  C   UNL A   1      31.044  27.369  23.704  1.00  0.00    -0.026 A 
ATOM     13  C   UNL A   1      30.897  27.021  22.251  1.00  0.00     0.046 C 
ATOM     14  C   UNL A   1      31.133  28.676  24.214  1.00  0.00     0.058 A 
BRANCH  14  15
ATOM     15  N   UNL A   1      30.757  29.849  23.504  1.00  0.00    -0.325 N 
ATOM     16  C   UNL A   1      29.963  29.972  22.392  1.00  0.00     0.230 C 
ATOM     17  H   UNL A   1      31.118  30.692  23.862  1.00  0.00     0.169 HD
ATOM     18  O   UNL A   1      30.471  29.966  21.271  1.00  0.00    -0.274 OA
BRANCH  16  19
ATOM     19  C   UNL A   1      28.443  30.252  22.619  1.00  0.00     0.047 C 
ATOM     20  C   UNL A   1      27.679  28.983  23.010  1.00  0.00     0.022 C 
ATOM     21  C   UNL A   1      28.245  31.348  23.688  1.00  0.00     0.016 C 
ATOM     22  C   UNL A   1      27.771  30.931  21.414  1.00  0.00     0.016 C 
ATOM     23  C   UNL A   1      28.490  32.671  22.964  1.00  0.00     0.001 C 
ATOM     24  C   UNL A   1      28.160  32.409  21.499  1.00  0.00     0.001 C 
ENDBRANCH  16  19
ENDBRANCH  14  15
ENDBRANCH   5   7
ENDBRANCH   4   5
ENDBRANCH   3   4
ENDBRANCH   2   3
ENDBRANCH   1   2
BRANCH   1  25
ATOM     25  C   UNL A   1      33.313  34.131  28.128  1.00  0.00     0.202 C 
BRANCH  25  26
ATOM     26  C   UNL A   1      33.361  35.226  29.201  1.00  0.00     0.261 C 
BRANCH  26  27
ATOM     27  O   UNL A   1      32.513  34.935  30.327  1.00  0.00    -0.460 OA
BRANCH  27  28
ATOM     28  C   UNL A   1      32.840  35.587  31.466  1.00  0.00     0.338 C 
ATOM     29  O   UNL A   1      32.247  36.524  31.987  1.00  0.00    -0.246 OA
BRANCH  28  30
ATOM     30  C   UNL A   1      33.965  34.910  32.130  1.00  0.00     0.060 A 
ATOM     31  C   UNL A   1      35.214  35.541  32.099  1.00  0.00     0.016 A 
ATOM     32  C   UNL A   1      33.823  33.641  32.697  1.00  0.00     0.016 A 
ATOM     33  C   UNL A   1      36.339  34.887  32.594  1.00  0.00     0.010 A 
ATOM     34  C   UNL A   1      34.955  32.983  33.189  1.00  0.00     0.010 A 
ATOM     35  C   UNL A   1      36.223  33.589  33.108  1.00  0.00    -0.014 A 
BRANCH  35  36
ATOM     36  C   UNL A   1      37.446  32.817  33.441  1.00  0.00     0.031 A 
ATOM     37  C   UNL A   1      38.166  33.103  34.729  1.00  0.00     0.074 A 
ATOM     38  C   UNL A   1      37.897  31.859  32.613  1.00  0.00     0.049 A 
ATOM     39  N   UNL A   1      39.275  32.586  35.196  1.00  0.00    -0.248 NA
ATOM     40  C   UNL A   1      37.556  34.114  35.606  1.00  0.00     0.031 C 
ATOM     41  C   UNL A   1      37.266  31.467  31.356  1.00  0.00     0.029 A 
ATOM     42  N   UNL A   1      39.001  31.049  32.706  1.00  0.00    -0.354 N 
ATOM     43  C   UNL A   1      39.497  33.211  36.416  1.00  0.00     0.074 A 
ATOM     44  C   UNL A   1      38.430  34.171  36.600  1.00  0.00     0.031 C 
ATOM     45  C   UNL A   1      38.000  30.496  30.785  1.00  0.00     0.029 A 
ATOM     46  C   UNL A   1      39.169  30.227  31.619  1.00  0.00     0.049 A 
ATOM     47  H   UNL A   1      39.614  31.056  33.476  1.00  0.00     0.167 HD
ATOM     48  C   UNL A   1      40.495  32.995  37.307  1.00  0.00     0.037 A 
ATOM     49  C   UNL A   1      40.168  29.373  31.321  1.00  0.00     0.037 A 
ATOM     50  C   UNL A   1      41.557  32.040  37.116  1.00  0.00     0.049 A 
ATOM     51  C   UNL A   1      41.307  29.202  32.293  1.00  0.00     0.074 A 
ATOM     52  C   UNL A   1      42.605  31.732  37.966  1.00  0.00     0.029 A 
ATOM     53  N   UNL A   1      41.710  31.244  35.989  1.00  0.00    -0.354 N 
ATOM     54  N   UNL A   1      41.498  29.776  33.456  1.00  0.00    -0.248 NA
ATOM     55  C   UNL A   1      42.367  28.258  31.911  1.00  0.00     0.031 C 
ATOM     56  C   UNL A   1      43.424  30.795  37.329  1.00  0.00     0.029 A 
ATOM     57  C   UNL A   1      42.852  30.468  36.109  1.00  0.00     0.049 A 
ATOM     58  H   UNL A   1      41.097  31.232  35.219  1.00  0.00     0.167 HD
ATOM     59  C   UNL A   1      42.680  29.245  33.957  1.00  0.00     0.074 A 
ATOM     60  C   UNL A   1      43.155  28.291  32.977  1.00  0.00     0.031 C 
ATOM     61  C   UNL A   1      43.313  29.519  35.125  1.00  0.00     0.037 A 
BRANCH  48  62
ATOM     62  C   UNL A   1      40.503  33.832  38.554  1.00  0.00     0.064 A 
ATOM     63  C   UNL A   1      39.779  33.461  39.699  1.00  0.00     0.173 A 
ATOM     64  C   UNL A   1      41.260  35.012  38.614  1.00  0.00     0.173 A 
ATOM     65  F   UNL A   1      39.029  32.349  39.693  1.00  0.00    -0.203 F 
ATOM     66  C   UNL A   1      39.786  34.258  40.841  1.00  0.00     0.198 A 
ATOM     67  C   UNL A   1      41.291  35.788  39.769  1.00  0.00     0.198 A 
ATOM     68  F   UNL A   1      41.975  35.412  37.551  1.00  0.00    -0.203 F 
ATOM     69  F   UNL A   1      39.043  33.912  41.902  1.00  0.00    -0.200 F 
ATOM     70  C   UNL A   1      40.546  35.417  40.878  1.00  0.00     0.200 A 
ATOM     71  F   UNL A   1      42.038  36.901  39.807  1.00  0.00    -0.200 F 
ATOM     72  F   UNL A   1      40.555  36.180  41.979  1.00  0.00    -0.200 F 
ENDBRANCH  48  62
BRANCH  49  73
ATOM     73  C   UNL A   1      40.140  28.623  30.038  1.00  0.00     0.064 A 
ATOM     74  C   UNL A   1      39.519  27.371  29.944  1.00  0.00     0.173 A 
ATOM     75  C   UNL A   1      40.735  29.145  28.879  1.00  0.00     0.173 A 
ATOM     76  F   UNL A   1      38.958  26.818  31.030  1.00  0.00    -0.203 F 
ATOM     77  C   UNL A   1      39.508  26.662  28.744  1.00  0.00     0.198 A 
ATOM     78  C   UNL A   1      40.696  28.450  27.674  1.00  0.00     0.198 A 
ATOM     79  F   UNL A   1      41.342  30.341  28.916  1.00  0.00    -0.203 F 
ATOM     80  F   UNL A   1      38.945  25.447  28.693  1.00  0.00    -0.200 F 
ATOM     81  C   UNL A   1      40.089  27.205  27.608  1.00  0.00     0.200 A 
ATOM     82  F   UNL A   1      41.246  28.985  26.575  1.00  0.00    -0.200 F 
ATOM     83  F   UNL A   1      40.069  26.527  26.453  1.00  0.00    -0.200 F 
ENDBRANCH  49  73
BRANCH  61  84
ATOM     84  C   UNL A   1      44.569  28.753  35.429  1.00  0.00     0.064 A 
ATOM     85  C   UNL A   1      45.836  29.236  35.069  1.00  0.00     0.173 A 
ATOM     86  C   UNL A   1      44.506  27.537  36.127  1.00  0.00     0.173 A 
ATOM     87  F   UNL A   1      45.952  30.386  34.387  1.00  0.00    -0.203 F 
ATOM     88  C   UNL A   1      46.990  28.517  35.372  1.00  0.00     0.198 A 
ATOM     89  C   UNL A   1      45.663  26.838  36.459  1.00  0.00     0.198 A 
ATOM     90  F   UNL A   1      43.321  27.032  36.502  1.00  0.00    -0.203 F 
ATOM     91  F   UNL A   1      48.185  28.973  34.973  1.00  0.00    -0.200 F 
ATOM     92  C   UNL A   1      46.904  27.323  36.073  1.00  0.00     0.200 A 
ATOM     93  F   UNL A   1      45.578  25.692  37.150  1.00  0.00    -0.200 F 
ATOM     94  F   UNL A   1      48.016  26.638  36.372  1.00  0.00    -0.200 F 
ENDBRANCH  61  84
ENDBRANCH  35  36
ENDBRANCH  28  30
ENDBRANCH  27  28
ENDBRANCH  26  27
ENDBRANCH  25  26
ENDBRANCH   1  25
TORSDOF 16
ENDMDL
