MODEL 1
REMARK VINA RESULT:     -11.2      0.000      0.000
REMARK SMILES O=C(C[N@@H+](Cc1nc(-c2ccco2)no1)CC(F)(F)F)OCCOCCOC(=O)c1ccc(-c2c3nc(c(-c4c(F)c(F)c(F)c(F)c4F)c4ccc([nH]4)c(-c4c(F)c(F)c(F)c(F)c4F)c4nc(c(-c5c(F)c(F)c(F)c(F)c5F)c5ccc2[nH]5)C=C4)C=C3)cc1
REMARK SMILES IDX 23 1 22 2 21 3 2 4 1 5 3 6 4 7 5 9 6 10 7 11 15 12 8 13
REMARK SMILES IDX 14 14 9 15 10 16 13 17 11 18 12 19 16 20 17 21 18 22 19 23
REMARK SMILES IDX 20 24 24 25 25 26 26 27 27 28 28 29 29 30 30 31 31 32 92 33
REMARK SMILES IDX 32 34 91 35 33 36 34 37 35 38 85 39 36 40 90 41 84 42 86 43
REMARK SMILES IDX 37 44 89 45 83 46 82 47 38 49 70 50 50 51 69 52 51 53 54 54
REMARK SMILES IDX 68 55 87 56 52 57 53 58 67 60 88 61 55 62 39 63 40 64 48 65
REMARK SMILES IDX 41 66 42 67 46 68 49 69 43 70 44 71 47 72 45 73 71 74 72 75
REMARK SMILES IDX 80 76 73 77 74 78 78 79 81 80 75 81 76 82 79 83 77 84 56 85
REMARK SMILES IDX 57 86 65 87 58 88 59 89 63 90 66 91 60 92 61 93 64 94 62 95
REMARK H PARENT 4 8 86 48 54 59
REMARK Flexibility Score: inf
ROOT
ATOM      1  C   UNL A   1      35.634  22.574  26.133  1.00  0.00     0.202 C 
ENDROOT
BRANCH   1   2
ATOM      2  C   UNL A   1      34.300  23.081  26.670  1.00  0.00     0.261 C 
BRANCH   2   3
ATOM      3  O   UNL A   1      34.083  24.469  26.357  1.00  0.00    -0.459 OA
BRANCH   3   4
ATOM      4  C   UNL A   1      33.174  24.914  25.459  1.00  0.00     0.361 C 
ATOM      5  O   UNL A   1      32.000  25.063  25.792  1.00  0.00    -0.245 OA
BRANCH   4   6
ATOM      6  C   UNL A   1      33.629  25.206  24.037  1.00  0.00     0.387 C 
BRANCH   6   7
ATOM      7  N   UNL A   1      32.561  24.994  23.044  1.00  0.00    -0.310 N 
ATOM      8  H   UNL A   1      31.687  24.874  23.556  1.00  0.00     0.349 HD
BRANCH   7   9
ATOM      9  C   UNL A   1      32.319  26.196  22.218  1.00  0.00     0.364 C 
BRANCH   9  10
ATOM     10  C   UNL A   1      31.439  27.208  22.851  1.00  0.00     0.282 A 
ATOM     11  N   UNL A   1      30.321  27.699  22.383  1.00  0.00    -0.183 NA
ATOM     12  O   UNL A   1      31.957  27.924  23.892  1.00  0.00    -0.333 OA
ATOM     13  C   UNL A   1      30.242  28.898  23.047  1.00  0.00     0.238 A 
ATOM     14  N   UNL A   1      31.155  29.063  24.014  1.00  0.00    -0.053 NA
BRANCH  13  15
ATOM     15  C   UNL A   1      29.335  29.966  22.555  1.00  0.00     0.174 A 
ATOM     16  C   UNL A   1      28.589  30.791  23.377  1.00  0.00     0.054 A 
ATOM     17  O   UNL A   1      29.019  30.215  21.251  1.00  0.00    -0.461 OA
ATOM     18  C   UNL A   1      27.745  31.549  22.535  1.00  0.00     0.043 A 
ATOM     19  C   UNL A   1      28.035  31.150  21.252  1.00  0.00     0.196 A 
ENDBRANCH  13  15
ENDBRANCH   9  10
ENDBRANCH   7   9
BRANCH   7  20
ATOM     20  C   UNL A   1      32.673  23.702  22.320  1.00  0.00     0.380 C 
BRANCH  20  21
ATOM     21  C   UNL A   1      32.521  22.309  22.982  1.00  0.00     0.438 C 
ATOM     22  F   UNL A   1      31.591  22.280  23.955  1.00  0.00    -0.165 F 
ATOM     23  F   UNL A   1      32.153  21.395  22.050  1.00  0.00    -0.165 F 
ATOM     24  F   UNL A   1      33.693  21.885  23.502  1.00  0.00    -0.165 F 
ENDBRANCH  20  21
ENDBRANCH   7  20
ENDBRANCH   6   7
ENDBRANCH   4   6
ENDBRANCH   3   4
ENDBRANCH   2   3
ENDBRANCH   1   2
BRANCH   1  25
ATOM     25  O   UNL A   1      35.784  21.156  26.085  1.00  0.00    -0.374 OA
BRANCH  25  26
ATOM     26  C   UNL A   1      36.453  20.631  24.930  1.00  0.00     0.202 C 
BRANCH  26  27
ATOM     27  C   UNL A   1      37.911  20.216  25.142  1.00  0.00     0.261 C 
BRANCH  27  28
ATOM     28  O   UNL A   1      38.746  21.367  25.330  1.00  0.00    -0.460 OA
BRANCH  28  29
ATOM     29  C   UNL A   1      39.814  21.156  26.129  1.00  0.00     0.338 C 
ATOM     30  O   UNL A   1      40.561  20.185  26.128  1.00  0.00    -0.246 OA
BRANCH  29  31
ATOM     31  C   UNL A   1      40.106  22.380  26.896  1.00  0.00     0.060 A 
ATOM     32  C   UNL A   1      39.291  23.493  26.656  1.00  0.00     0.016 A 
ATOM     33  C   UNL A   1      41.169  22.454  27.803  1.00  0.00     0.016 A 
ATOM     34  C   UNL A   1      39.605  24.717  27.226  1.00  0.00     0.010 A 
ATOM     35  C   UNL A   1      41.487  23.685  28.375  1.00  0.00     0.010 A 
ATOM     36  C   UNL A   1      40.749  24.830  28.026  1.00  0.00    -0.014 A 
BRANCH  36  37
ATOM     37  C   UNL A   1      41.311  26.177  28.253  1.00  0.00     0.031 A 
ATOM     38  C   UNL A   1      42.677  26.471  27.694  1.00  0.00     0.074 A 
ATOM     39  C   UNL A   1      40.592  27.130  28.866  1.00  0.00     0.049 A 
ATOM     40  N   UNL A   1      43.374  27.577  27.730  1.00  0.00    -0.248 NA
ATOM     41  C   UNL A   1      43.352  25.361  26.997  1.00  0.00     0.031 C 
ATOM     42  C   UNL A   1      39.243  26.959  29.398  1.00  0.00     0.029 A 
ATOM     43  N   UNL A   1      40.901  28.438  29.133  1.00  0.00    -0.354 N 
ATOM     44  C   UNL A   1      44.567  27.290  27.078  1.00  0.00     0.074 A 
ATOM     45  C   UNL A   1      44.520  25.901  26.685  1.00  0.00     0.031 C 
ATOM     46  C   UNL A   1      38.835  28.123  29.930  1.00  0.00     0.029 A 
ATOM     47  C   UNL A   1      39.906  29.109  29.796  1.00  0.00     0.049 A 
ATOM     48  H   UNL A   1      41.755  28.855  28.875  1.00  0.00     0.167 HD
ATOM     49  C   UNL A   1      45.605  28.119  26.820  1.00  0.00     0.037 A 
ATOM     50  C   UNL A   1      39.879  30.377  30.249  1.00  0.00     0.037 A 
ATOM     51  C   UNL A   1      45.633  29.504  27.207  1.00  0.00     0.049 A 
ATOM     52  C   UNL A   1      41.069  31.264  29.994  1.00  0.00     0.074 A 
ATOM     53  C   UNL A   1      46.620  30.445  26.982  1.00  0.00     0.029 A 
ATOM     54  N   UNL A   1      44.621  30.143  27.909  1.00  0.00    -0.354 N 
ATOM     55  N   UNL A   1      42.184  30.998  29.355  1.00  0.00    -0.248 NA
ATOM     56  C   UNL A   1      40.992  32.635  30.517  1.00  0.00     0.031 C 
ATOM     57  C   UNL A   1      46.231  31.638  27.598  1.00  0.00     0.029 A 
ATOM     58  C   UNL A   1      44.971  31.460  28.149  1.00  0.00     0.049 A 
ATOM     59  H   UNL A   1      43.778  29.722  28.195  1.00  0.00     0.167 HD
ATOM     60  C   UNL A   1      42.922  32.175  29.363  1.00  0.00     0.074 A 
ATOM     61  C   UNL A   1      42.122  33.159  30.063  1.00  0.00     0.031 C 
ATOM     62  C   UNL A   1      44.148  32.423  28.839  1.00  0.00     0.037 A 
BRANCH  49  63
ATOM     63  C   UNL A   1      46.803  27.538  26.123  1.00  0.00     0.064 A 
ATOM     64  C   UNL A   1      46.968  27.620  24.732  1.00  0.00     0.173 A 
ATOM     65  C   UNL A   1      47.808  26.899  26.865  1.00  0.00     0.173 A 
ATOM     66  F   UNL A   1      46.028  28.203  23.973  1.00  0.00    -0.203 F 
ATOM     67  C   UNL A   1      48.079  27.058  24.107  1.00  0.00     0.198 A 
ATOM     68  C   UNL A   1      48.933  26.367  26.241  1.00  0.00     0.198 A 
ATOM     69  F   UNL A   1      47.700  26.790  28.197  1.00  0.00    -0.203 F 
ATOM     70  F   UNL A   1      48.189  27.099  22.772  1.00  0.00    -0.200 F 
ATOM     71  C   UNL A   1      49.065  26.439  24.863  1.00  0.00     0.200 A 
ATOM     72  F   UNL A   1      49.888  25.779  26.974  1.00  0.00    -0.200 F 
ATOM     73  F   UNL A   1      50.136  25.904  24.262  1.00  0.00    -0.200 F 
ENDBRANCH  49  63
BRANCH  50  74
ATOM     74  C   UNL A   1      38.684  30.883  30.973  1.00  0.00     0.064 A 
ATOM     75  C   UNL A   1      37.611  31.464  30.283  1.00  0.00     0.173 A 
ATOM     76  C   UNL A   1      38.594  30.808  32.371  1.00  0.00     0.173 A 
ATOM     77  F   UNL A   1      37.658  31.577  28.947  1.00  0.00    -0.203 F 
ATOM     78  C   UNL A   1      36.506  31.969  30.963  1.00  0.00     0.198 A 
ATOM     79  C   UNL A   1      37.474  31.287  33.048  1.00  0.00     0.198 A 
ATOM     80  F   UNL A   1      39.592  30.260  33.080  1.00  0.00    -0.203 F 
ATOM     81  F   UNL A   1      35.516  32.562  30.281  1.00  0.00    -0.200 F 
ATOM     82  C   UNL A   1      36.435  31.874  32.345  1.00  0.00     0.200 A 
ATOM     83  F   UNL A   1      37.404  31.180  34.382  1.00  0.00    -0.200 F 
ATOM     84  F   UNL A   1      35.369  32.358  32.998  1.00  0.00    -0.200 F 
ENDBRANCH  50  74
BRANCH  62  85
ATOM     85  C   UNL A   1      44.672  33.826  28.954  1.00  0.00     0.064 A 
ATOM     86  C   UNL A   1      45.460  34.237  30.037  1.00  0.00     0.173 A 
ATOM     87  C   UNL A   1      44.395  34.766  27.948  1.00  0.00     0.173 A 
ATOM     88  F   UNL A   1      45.744  33.380  31.031  1.00  0.00    -0.203 F 
ATOM     89  C   UNL A   1      45.921  35.548  30.130  1.00  0.00     0.198 A 
ATOM     90  C   UNL A   1      44.887  36.065  28.026  1.00  0.00     0.198 A 
ATOM     91  F   UNL A   1      43.653  34.422  26.884  1.00  0.00    -0.203 F 
ATOM     92  F   UNL A   1      46.619  35.936  31.206  1.00  0.00    -0.200 F 
ATOM     93  C   UNL A   1      45.639  36.458  29.122  1.00  0.00     0.200 A 
ATOM     94  F   UNL A   1      44.629  36.938  27.042  1.00  0.00    -0.200 F 
ATOM     95  F   UNL A   1      46.084  37.719  29.212  1.00  0.00    -0.200 F 
ENDBRANCH  62  85
ENDBRANCH  36  37
ENDBRANCH  29  31
ENDBRANCH  28  29
ENDBRANCH  27  28
ENDBRANCH  26  27
ENDBRANCH  25  26
ENDBRANCH   1  25
TORSDOF 20
ENDMDL
MODEL 2
REMARK VINA RESULT:     -11.1      1.868      2.826
REMARK SMILES O=C(C[N@@H+](Cc1nc(-c2ccco2)no1)CC(F)(F)F)OCCOCCOC(=O)c1ccc(-c2c3nc(c(-c4c(F)c(F)c(F)c(F)c4F)c4ccc([nH]4)c(-c4c(F)c(F)c(F)c(F)c4F)c4nc(c(-c5c(F)c(F)c(F)c(F)c5F)c5ccc2[nH]5)C=C4)C=C3)cc1
REMARK SMILES IDX 23 1 22 2 21 3 2 4 1 5 3 6 4 7 5 9 6 10 7 11 15 12 8 13
REMARK SMILES IDX 14 14 9 15 10 16 13 17 11 18 12 19 16 20 17 21 18 22 19 23
REMARK SMILES IDX 20 24 24 25 25 26 26 27 27 28 28 29 29 30 30 31 31 32 92 33
REMARK SMILES IDX 32 34 91 35 33 36 34 37 35 38 85 39 36 40 90 41 84 42 86 43
REMARK SMILES IDX 37 44 89 45 83 46 82 47 38 49 70 50 50 51 69 52 51 53 54 54
REMARK SMILES IDX 68 55 87 56 52 57 53 58 67 60 88 61 55 62 39 63 40 64 48 65
REMARK SMILES IDX 41 66 42 67 46 68 49 69 43 70 44 71 47 72 45 73 71 74 72 75
REMARK SMILES IDX 80 76 73 77 74 78 78 79 81 80 75 81 76 82 79 83 77 84 56 85
REMARK SMILES IDX 57 86 65 87 58 88 59 89 63 90 66 91 60 92 61 93 64 94 62 95
REMARK H PARENT 4 8 86 48 54 59
REMARK Flexibility Score: inf
ROOT
ATOM      1  C   UNL A   1      34.832  22.191  25.346  1.00  0.00     0.202 C 
ENDROOT
BRANCH   1   2
ATOM      2  C   UNL A   1      33.529  21.437  25.584  1.00  0.00     0.261 C 
BRANCH   2   3
ATOM      3  O   UNL A   1      32.380  22.300  25.495  1.00  0.00    -0.459 OA
BRANCH   3   4
ATOM      4  C   UNL A   1      32.204  23.415  26.242  1.00  0.00     0.361 C 
ATOM      5  O   UNL A   1      31.724  23.331  27.371  1.00  0.00    -0.245 OA
BRANCH   4   6
ATOM      6  C   UNL A   1      32.592  24.762  25.652  1.00  0.00     0.387 C 
BRANCH   6   7
ATOM      7  N   UNL A   1      31.900  25.045  24.382  1.00  0.00    -0.310 N 
ATOM      8  H   UNL A   1      31.458  24.179  24.074  1.00  0.00     0.349 HD
BRANCH   7   9
ATOM      9  C   UNL A   1      30.764  25.974  24.559  1.00  0.00     0.364 C 
BRANCH   9  10
ATOM     10  C   UNL A   1      30.996  27.043  25.562  1.00  0.00     0.282 A 
ATOM     11  N   UNL A   1      31.697  28.135  25.416  1.00  0.00    -0.183 NA
ATOM     12  O   UNL A   1      30.695  26.755  26.862  1.00  0.00    -0.333 OA
ATOM     13  C   UNL A   1      32.014  28.441  26.716  1.00  0.00     0.238 A 
ATOM     14  N   UNL A   1      31.388  27.691  27.635  1.00  0.00    -0.053 NA
BRANCH  13  15
ATOM     15  C   UNL A   1      33.117  29.390  27.014  1.00  0.00     0.174 A 
ATOM     16  C   UNL A   1      34.434  29.014  27.207  1.00  0.00     0.054 A 
ATOM     17  O   UNL A   1      32.985  30.728  27.252  1.00  0.00    -0.461 OA
ATOM     18  C   UNL A   1      35.130  30.170  27.626  1.00  0.00     0.043 A 
ATOM     19  C   UNL A   1      34.201  31.182  27.651  1.00  0.00     0.196 A 
ENDBRANCH  13  15
ENDBRANCH   9  10
ENDBRANCH   7   9
BRANCH   7  20
ATOM     20  C   UNL A   1      32.824  25.334  23.255  1.00  0.00     0.380 C 
BRANCH  20  21
ATOM     21  C   UNL A   1      32.552  26.376  22.141  1.00  0.00     0.438 C 
ATOM     22  F   UNL A   1      33.278  26.165  21.027  1.00  0.00    -0.165 F 
ATOM     23  F   UNL A   1      31.245  26.332  21.780  1.00  0.00    -0.165 F 
ATOM     24  F   UNL A   1      32.796  27.631  22.576  1.00  0.00    -0.165 F 
ENDBRANCH  20  21
ENDBRANCH   7  20
ENDBRANCH   6   7
ENDBRANCH   4   6
ENDBRANCH   3   4
ENDBRANCH   2   3
ENDBRANCH   1   2
BRANCH   1  25
ATOM     25  O   UNL A   1      36.017  21.535  25.792  1.00  0.00    -0.374 OA
BRANCH  25  26
ATOM     26  C   UNL A   1      36.444  20.408  25.013  1.00  0.00     0.202 C 
BRANCH  26  27
ATOM     27  C   UNL A   1      37.952  20.144  25.001  1.00  0.00     0.261 C 
BRANCH  27  28
ATOM     28  O   UNL A   1      38.679  21.334  25.337  1.00  0.00    -0.460 OA
BRANCH  28  29
ATOM     29  C   UNL A   1      39.757  21.125  26.123  1.00  0.00     0.338 C 
ATOM     30  O   UNL A   1      40.502  20.153  26.118  1.00  0.00    -0.246 OA
BRANCH  29  31
ATOM     31  C   UNL A   1      40.062  22.353  26.879  1.00  0.00     0.060 A 
ATOM     32  C   UNL A   1      39.269  23.478  26.616  1.00  0.00     0.016 A 
ATOM     33  C   UNL A   1      41.116  22.420  27.796  1.00  0.00     0.016 A 
ATOM     34  C   UNL A   1      39.598  24.703  27.175  1.00  0.00     0.010 A 
ATOM     35  C   UNL A   1      41.449  23.653  28.358  1.00  0.00     0.010 A 
ATOM     36  C   UNL A   1      40.735  24.805  27.986  1.00  0.00    -0.014 A 
BRANCH  36  37
ATOM     37  C   UNL A   1      41.318  26.145  28.204  1.00  0.00     0.031 A 
ATOM     38  C   UNL A   1      42.682  26.418  27.630  1.00  0.00     0.074 A 
ATOM     39  C   UNL A   1      40.619  27.110  28.820  1.00  0.00     0.049 A 
ATOM     40  N   UNL A   1      43.395  27.515  27.656  1.00  0.00    -0.248 NA
ATOM     41  C   UNL A   1      43.334  25.297  26.930  1.00  0.00     0.031 C 
ATOM     42  C   UNL A   1      39.273  26.959  29.367  1.00  0.00     0.029 A 
ATOM     43  N   UNL A   1      40.948  28.414  29.081  1.00  0.00    -0.354 N 
ATOM     44  C   UNL A   1      44.578  27.209  26.992  1.00  0.00     0.074 A 
ATOM     45  C   UNL A   1      44.506  25.820  26.604  1.00  0.00     0.031 C 
ATOM     46  C   UNL A   1      38.886  28.131  29.899  1.00  0.00     0.029 A 
ATOM     47  C   UNL A   1      39.969  29.101  29.752  1.00  0.00     0.049 A 
ATOM     48  H   UNL A   1      41.805  28.819  28.813  1.00  0.00     0.167 HD
ATOM     49  C   UNL A   1      45.624  28.023  26.722  1.00  0.00     0.037 A 
ATOM     50  C   UNL A   1      39.964  30.370  30.201  1.00  0.00     0.037 A 
ATOM     51  C   UNL A   1      45.675  29.408  27.104  1.00  0.00     0.049 A 
ATOM     52  C   UNL A   1      41.164  31.241  29.931  1.00  0.00     0.074 A 
ATOM     53  C   UNL A   1      46.673  30.335  26.866  1.00  0.00     0.029 A 
ATOM     54  N   UNL A   1      44.679  30.064  27.814  1.00  0.00    -0.354 N 
ATOM     55  N   UNL A   1      42.268  30.957  29.281  1.00  0.00    -0.248 NA
ATOM     56  C   UNL A   1      41.111  32.614  30.450  1.00  0.00     0.031 C 
ATOM     57  C   UNL A   1      46.306  31.536  27.482  1.00  0.00     0.029 A 
ATOM     58  C   UNL A   1      45.049  31.377  28.046  1.00  0.00     0.049 A 
ATOM     59  H   UNL A   1      43.833  29.655  28.109  1.00  0.00     0.167 HD
ATOM     60  C   UNL A   1      43.023  32.123  29.278  1.00  0.00     0.074 A 
ATOM     61  C   UNL A   1      42.244  33.120  29.984  1.00  0.00     0.031 C 
ATOM     62  C   UNL A   1      44.247  32.353  28.741  1.00  0.00     0.037 A 
BRANCH  49  63
ATOM     63  C   UNL A   1      46.806  27.424  26.015  1.00  0.00     0.064 A 
ATOM     64  C   UNL A   1      47.794  26.698  26.698  1.00  0.00     0.173 A 
ATOM     65  C   UNL A   1      46.945  27.571  24.626  1.00  0.00     0.173 A 
ATOM     66  F   UNL A   1      47.720  26.545  28.029  1.00  0.00    -0.203 F 
ATOM     67  C   UNL A   1      48.891  26.167  26.022  1.00  0.00     0.198 A 
ATOM     68  C   UNL A   1      48.025  27.010  23.949  1.00  0.00     0.198 A 
ATOM     69  F   UNL A   1      46.033  28.257  23.924  1.00  0.00    -0.203 F 
ATOM     70  F   UNL A   1      49.850  25.525  26.704  1.00  0.00    -0.200 F 
ATOM     71  C   UNL A   1      49.001  26.316  24.648  1.00  0.00     0.200 A 
ATOM     72  F   UNL A   1      48.124  27.147  22.620  1.00  0.00    -0.200 F 
ATOM     73  F   UNL A   1      50.053  25.799  23.998  1.00  0.00    -0.200 F 
ENDBRANCH  49  63
BRANCH  50  74
ATOM     74  C   UNL A   1      38.784  30.895  30.935  1.00  0.00     0.064 A 
ATOM     75  C   UNL A   1      38.701  30.805  32.332  1.00  0.00     0.173 A 
ATOM     76  C   UNL A   1      37.709  31.488  30.257  1.00  0.00     0.173 A 
ATOM     77  F   UNL A   1      39.694  30.229  33.025  1.00  0.00    -0.203 F 
ATOM     78  C   UNL A   1      37.580  31.267  33.018  1.00  0.00     0.198 A 
ATOM     79  C   UNL A   1      36.602  31.978  30.947  1.00  0.00     0.198 A 
ATOM     80  F   UNL A   1      37.739  31.602  28.920  1.00  0.00    -0.203 F 
ATOM     81  F   UNL A   1      37.507  31.125  34.349  1.00  0.00    -0.200 F 
ATOM     82  C   UNL A   1      36.535  31.859  32.326  1.00  0.00     0.200 A 
ATOM     83  F   UNL A   1      35.601  32.562  30.275  1.00  0.00    -0.200 F 
ATOM     84  F   UNL A   1      35.458  32.306  32.987  1.00  0.00    -0.200 F 
ENDBRANCH  50  74
BRANCH  62  85
ATOM     85  C   UNL A   1      44.791  33.749  28.847  1.00  0.00     0.064 A 
ATOM     86  C   UNL A   1      45.600  34.151  29.918  1.00  0.00     0.173 A 
ATOM     87  C   UNL A   1      44.513  34.691  27.843  1.00  0.00     0.173 A 
ATOM     88  F   UNL A   1      45.885  33.292  30.910  1.00  0.00    -0.203 F 
ATOM     89  C   UNL A   1      46.079  35.455  30.003  1.00  0.00     0.198 A 
ATOM     90  C   UNL A   1      45.024  35.983  27.912  1.00  0.00     0.198 A 
ATOM     91  F   UNL A   1      43.753  34.355  26.790  1.00  0.00    -0.203 F 
ATOM     92  F   UNL A   1      46.798  35.836  31.069  1.00  0.00    -0.200 F 
ATOM     93  C   UNL A   1      45.796  36.368  28.997  1.00  0.00     0.200 A 
ATOM     94  F   UNL A   1      44.765  36.858  26.930  1.00  0.00    -0.200 F 
ATOM     95  F   UNL A   1      46.260  37.622  29.079  1.00  0.00    -0.200 F 
ENDBRANCH  62  85
ENDBRANCH  36  37
ENDBRANCH  29  31
ENDBRANCH  28  29
ENDBRANCH  27  28
ENDBRANCH  26  27
ENDBRANCH  25  26
ENDBRANCH   1  25
TORSDOF 20
ENDMDL
MODEL 3
REMARK VINA RESULT:     -11.0      1.420      2.274
REMARK SMILES O=C(C[N@@H+](Cc1nc(-c2ccco2)no1)CC(F)(F)F)OCCOCCOC(=O)c1ccc(-c2c3nc(c(-c4c(F)c(F)c(F)c(F)c4F)c4ccc([nH]4)c(-c4c(F)c(F)c(F)c(F)c4F)c4nc(c(-c5c(F)c(F)c(F)c(F)c5F)c5ccc2[nH]5)C=C4)C=C3)cc1
REMARK SMILES IDX 23 1 22 2 21 3 2 4 1 5 3 6 4 7 5 9 6 10 7 11 15 12 8 13
REMARK SMILES IDX 14 14 9 15 10 16 13 17 11 18 12 19 16 20 17 21 18 22 19 23
REMARK SMILES IDX 20 24 24 25 25 26 26 27 27 28 28 29 29 30 30 31 31 32 92 33
REMARK SMILES IDX 32 34 91 35 33 36 34 37 35 38 85 39 36 40 90 41 84 42 86 43
REMARK SMILES IDX 37 44 89 45 83 46 82 47 38 49 70 50 50 51 69 52 51 53 54 54
REMARK SMILES IDX 68 55 87 56 52 57 53 58 67 60 88 61 55 62 39 63 40 64 48 65
REMARK SMILES IDX 41 66 42 67 46 68 49 69 43 70 44 71 47 72 45 73 71 74 72 75
REMARK SMILES IDX 80 76 73 77 74 78 78 79 81 80 75 81 76 82 79 83 77 84 56 85
REMARK SMILES IDX 57 86 65 87 58 88 59 89 63 90 66 91 60 92 61 93 64 94 62 95
REMARK H PARENT 4 8 86 48 54 59
REMARK Flexibility Score: inf
ROOT
ATOM      1  C   UNL A   1      36.084  20.918  25.294  1.00  0.00     0.202 C 
ENDROOT
BRANCH   1   2
ATOM      2  C   UNL A   1      35.778  22.048  24.318  1.00  0.00     0.261 C 
BRANCH   2   3
ATOM      3  O   UNL A   1      34.371  22.346  24.259  1.00  0.00    -0.459 OA
BRANCH   3   4
ATOM      4  C   UNL A   1      33.741  22.837  23.166  1.00  0.00     0.361 C 
ATOM      5  O   UNL A   1      34.381  23.430  22.301  1.00  0.00    -0.245 OA
BRANCH   4   6
ATOM      6  C   UNL A   1      32.236  22.656  23.045  1.00  0.00     0.387 C 
BRANCH   6   7
ATOM      7  N   UNL A   1      31.485  23.491  24.001  1.00  0.00    -0.310 N 
ATOM      8  H   UNL A   1      32.121  24.211  24.344  1.00  0.00     0.349 HD
BRANCH   7   9
ATOM      9  C   UNL A   1      30.407  24.261  23.344  1.00  0.00     0.364 C 
BRANCH   9  10
ATOM     10  C   UNL A   1      30.627  25.729  23.325  1.00  0.00     0.282 A 
ATOM     11  N   UNL A   1      29.738  26.671  23.496  1.00  0.00    -0.183 NA
ATOM     12  O   UNL A   1      31.806  26.177  22.803  1.00  0.00    -0.333 OA
ATOM     13  C   UNL A   1      30.332  27.735  22.865  1.00  0.00     0.238 A 
ATOM     14  N   UNL A   1      31.601  27.523  22.487  1.00  0.00    -0.053 NA
BRANCH  13  15
ATOM     15  C   UNL A   1      29.525  28.920  22.476  1.00  0.00     0.174 A 
ATOM     16  C   UNL A   1      28.270  29.205  22.981  1.00  0.00     0.054 A 
ATOM     17  O   UNL A   1      29.840  29.822  21.500  1.00  0.00    -0.461 OA
ATOM     18  C   UNL A   1      27.776  30.307  22.249  1.00  0.00     0.043 A 
ATOM     19  C   UNL A   1      28.763  30.636  21.350  1.00  0.00     0.196 A 
ENDBRANCH  13  15
ENDBRANCH   9  10
ENDBRANCH   7   9
BRANCH   7  20
ATOM     20  C   UNL A   1      31.124  22.779  25.253  1.00  0.00     0.380 C 
BRANCH  20  21
ATOM     21  C   UNL A   1      31.003  23.454  26.643  1.00  0.00     0.438 C 
ATOM     22  F   UNL A   1      29.751  23.428  27.139  1.00  0.00    -0.165 F 
ATOM     23  F   UNL A   1      31.799  22.815  27.536  1.00  0.00    -0.165 F 
ATOM     24  F   UNL A   1      31.417  24.738  26.600  1.00  0.00    -0.165 F 
ENDBRANCH  20  21
ENDBRANCH   7  20
ENDBRANCH   6   7
ENDBRANCH   4   6
ENDBRANCH   3   4
ENDBRANCH   2   3
ENDBRANCH   1   2
BRANCH   1  25
ATOM     25  O   UNL A   1      37.200  20.095  24.957  1.00  0.00    -0.374 OA
BRANCH  25  26
ATOM     26  C   UNL A   1      38.491  20.599  25.329  1.00  0.00     0.202 C 
BRANCH  26  27
ATOM     27  C   UNL A   1      39.523  19.543  25.729  1.00  0.00     0.261 C 
BRANCH  27  28
ATOM     28  O   UNL A   1      40.313  19.996  26.838  1.00  0.00    -0.460 OA
BRANCH  28  29
ATOM     29  C   UNL A   1      41.438  20.654  26.487  1.00  0.00     0.338 C 
ATOM     30  O   UNL A   1      42.270  20.312  25.656  1.00  0.00    -0.246 OA
BRANCH  29  31
ATOM     31  C   UNL A   1      41.441  21.992  27.107  1.00  0.00     0.060 A 
ATOM     32  C   UNL A   1      40.762  23.011  26.426  1.00  0.00     0.016 A 
ATOM     33  C   UNL A   1      42.117  22.257  28.302  1.00  0.00     0.016 A 
ATOM     34  C   UNL A   1      40.854  24.321  26.871  1.00  0.00     0.010 A 
ATOM     35  C   UNL A   1      42.213  23.576  28.748  1.00  0.00     0.010 A 
ATOM     36  C   UNL A   1      41.644  24.613  27.989  1.00  0.00    -0.014 A 
BRANCH  36  37
ATOM     37  C   UNL A   1      42.089  26.009  28.184  1.00  0.00     0.031 A 
ATOM     38  C   UNL A   1      43.407  26.415  27.581  1.00  0.00     0.074 A 
ATOM     39  C   UNL A   1      41.305  26.903  28.805  1.00  0.00     0.049 A 
ATOM     40  N   UNL A   1      44.002  27.579  27.583  1.00  0.00    -0.248 NA
ATOM     41  C   UNL A   1      44.159  25.359  26.879  1.00  0.00     0.031 C 
ATOM     42  C   UNL A   1      39.992  26.620  29.379  1.00  0.00     0.029 A 
ATOM     43  N   UNL A   1      41.502  28.237  29.047  1.00  0.00    -0.354 N 
ATOM     44  C   UNL A   1      45.198  27.390  26.900  1.00  0.00     0.074 A 
ATOM     45  C   UNL A   1      45.264  25.996  26.526  1.00  0.00     0.031 C 
ATOM     46  C   UNL A   1      39.496  27.751  29.907  1.00  0.00     0.029 A 
ATOM     47  C   UNL A   1      40.470  28.826  29.730  1.00  0.00     0.049 A 
ATOM     48  H   UNL A   1      42.307  28.725  28.759  1.00  0.00     0.167 HD
ATOM     49  C   UNL A   1      46.149  28.305  26.602  1.00  0.00     0.037 A 
ATOM     50  C   UNL A   1      40.341  30.093  30.168  1.00  0.00     0.037 A 
ATOM     51  C   UNL A   1      46.064  29.692  26.971  1.00  0.00     0.049 A 
ATOM     52  C   UNL A   1      41.440  31.080  29.867  1.00  0.00     0.074 A 
ATOM     53  C   UNL A   1      46.956  30.714  26.705  1.00  0.00     0.029 A 
ATOM     54  N   UNL A   1      45.018  30.249  27.694  1.00  0.00    -0.354 N 
ATOM     55  N   UNL A   1      42.555  30.905  29.199  1.00  0.00    -0.248 NA
ATOM     56  C   UNL A   1      41.255  32.446  30.375  1.00  0.00     0.031 C 
ATOM     57  C   UNL A   1      46.478  31.877  27.317  1.00  0.00     0.029 A 
ATOM     58  C   UNL A   1      45.255  31.596  27.907  1.00  0.00     0.049 A 
ATOM     59  H   UNL A   1      44.225  29.758  28.009  1.00  0.00     0.167 HD
ATOM     60  C   UNL A   1      43.185  32.142  29.171  1.00  0.00     0.074 A 
ATOM     61  C   UNL A   1      42.320  33.061  29.882  1.00  0.00     0.031 C 
ATOM     62  C   UNL A   1      44.369  32.491  28.608  1.00  0.00     0.037 A 
BRANCH  49  63
ATOM     63  C   UNL A   1      47.375  27.823  25.878  1.00  0.00     0.064 A 
ATOM     64  C   UNL A   1      48.542  27.446  26.559  1.00  0.00     0.173 A 
ATOM     65  C   UNL A   1      47.373  27.727  24.478  1.00  0.00     0.173 A 
ATOM     66  F   UNL A   1      48.605  27.538  27.896  1.00  0.00    -0.203 F 
ATOM     67  C   UNL A   1      49.672  27.019  25.863  1.00  0.00     0.198 A 
ATOM     68  C   UNL A   1      48.492  27.268  23.788  1.00  0.00     0.198 A 
ATOM     69  F   UNL A   1      46.285  28.077  23.777  1.00  0.00    -0.203 F 
ATOM     70  F   UNL A   1      50.795  26.717  26.530  1.00  0.00    -0.200 F 
ATOM     71  C   UNL A   1      49.644  26.923  24.480  1.00  0.00     0.200 A 
ATOM     72  F   UNL A   1      48.458  27.166  22.453  1.00  0.00    -0.200 F 
ATOM     73  F   UNL A   1      50.728  26.506  23.812  1.00  0.00    -0.200 F 
ENDBRANCH  49  63
BRANCH  50  74
ATOM     74  C   UNL A   1      39.127  30.501  30.920  1.00  0.00     0.064 A 
ATOM     75  C   UNL A   1      38.012  31.037  30.259  1.00  0.00     0.173 A 
ATOM     76  C   UNL A   1      39.058  30.375  32.315  1.00  0.00     0.173 A 
ATOM     77  F   UNL A   1      38.037  31.197  28.928  1.00  0.00    -0.203 F 
ATOM     78  C   UNL A   1      36.886  31.452  30.967  1.00  0.00     0.198 A 
ATOM     79  C   UNL A   1      37.919  30.762  33.019  1.00  0.00     0.198 A 
ATOM     80  F   UNL A   1      40.096  29.867  32.996  1.00  0.00    -0.203 F 
ATOM     81  F   UNL A   1      35.854  32.005  30.315  1.00  0.00    -0.200 F 
ATOM     82  C   UNL A   1      36.838  31.308  32.345  1.00  0.00     0.200 A 
ATOM     83  F   UNL A   1      37.871  30.608  34.349  1.00  0.00    -0.200 F 
ATOM     84  F   UNL A   1      35.752  31.704  33.025  1.00  0.00    -0.200 F 
ENDBRANCH  50  74
BRANCH  62  85
ATOM     85  C   UNL A   1      44.767  33.937  28.690  1.00  0.00     0.064 A 
ATOM     86  C   UNL A   1      44.362  34.874  27.729  1.00  0.00     0.173 A 
ATOM     87  C   UNL A   1      45.549  34.393  29.763  1.00  0.00     0.173 A 
ATOM     88  F   UNL A   1      43.623  34.486  26.677  1.00  0.00    -0.203 F 
ATOM     89  C   UNL A   1      44.757  36.205  27.817  1.00  0.00     0.198 A 
ATOM     90  C   UNL A   1      45.912  35.732  29.868  1.00  0.00     0.198 A 
ATOM     91  F   UNL A   1      45.955  33.541  30.717  1.00  0.00    -0.203 F 
ATOM     92  F   UNL A   1      44.412  37.070  26.853  1.00  0.00    -0.200 F 
ATOM     93  C   UNL A   1      45.526  36.635  28.889  1.00  0.00     0.200 A 
ATOM     94  F   UNL A   1      46.639  36.148  30.914  1.00  0.00    -0.200 F 
ATOM     95  F   UNL A   1      45.904  37.917  28.974  1.00  0.00    -0.200 F 
ENDBRANCH  62  85
ENDBRANCH  36  37
ENDBRANCH  29  31
ENDBRANCH  28  29
ENDBRANCH  27  28
ENDBRANCH  26  27
ENDBRANCH  25  26
ENDBRANCH   1  25
TORSDOF 20
ENDMDL
