MODEL 1
REMARK VINA RESULT:     -11.5      0.000      0.000
REMARK SMILES N#C/C(=C\c1ccc(Oc2ccccc2Cl)c([N+](=O)[O-])c1)C(=O)OCCOCCOC(=O)c1ccc(-c2c3nc(c(-c4c(F)c(F)c(F)c(F)c4F)c4ccc([nH]4)c(-c4c(F)c(F)c(F)c(F)c4F)c4nc(c(-c5c(F)c(F)c(F)c(F)c5F)c5ccc2[nH]5)C=C4)C=C3)cc1
REMARK SMILES IDX 26 1 25 2 24 3 22 4 23 5 3 6 4 7 2 8 1 9 5 10 6 11 21 12
REMARK SMILES IDX 7 13 17 14 8 15 18 16 19 17 20 18 9 19 10 20 11 21 15 22
REMARK SMILES IDX 12 23 14 24 16 25 13 26 27 27 28 28 29 29 30 30 31 31 32 32
REMARK SMILES IDX 33 33 34 34 95 35 35 36 94 37 36 38 37 39 38 40 88 41 39 42
REMARK SMILES IDX 93 43 87 44 89 45 40 46 92 47 86 48 85 49 41 51 73 52 53 53
REMARK SMILES IDX 72 54 54 55 57 56 71 57 90 58 55 59 56 60 70 62 91 63 58 64
REMARK SMILES IDX 42 65 43 66 51 67 44 68 45 69 49 70 52 71 46 72 47 73 50 74
REMARK SMILES IDX 48 75 74 76 75 77 83 78 76 79 77 80 81 81 84 82 78 83 79 84
REMARK SMILES IDX 82 85 80 86 59 87 60 88 68 89 61 90 62 91 66 92 69 93 63 94
REMARK SMILES IDX 64 95 67 96 65 97
REMARK H PARENT 89 50 57 61
REMARK Flexibility Score: inf
ROOT
ATOM      1  C   UNL A   1      43.607  19.865  25.565  1.00  0.00     0.202 C 
ENDROOT
BRANCH   1   2
ATOM      2  C   UNL A   1      42.185  19.849  26.128  1.00  0.00     0.261 C 
BRANCH   2   3
ATOM      3  O   UNL A   1      41.516  21.095  25.871  1.00  0.00    -0.459 OA
BRANCH   3   4
ATOM      4  C   UNL A   1      40.514  21.367  26.741  1.00  0.00     0.348 C 
ATOM      5  O   UNL A   1      40.540  21.175  27.948  1.00  0.00    -0.245 OA
BRANCH   4   6
ATOM      6  C   UNL A   1      39.390  22.059  26.080  1.00  0.00     0.138 C 
ATOM      7  C   UNL A   1      38.488  21.402  25.318  1.00  0.00     0.035 C 
BRANCH   6   8
ATOM      8  C   UNL A   1      39.084  23.433  26.652  1.00  0.00     0.107 C 
ATOM      9  N   UNL A   1      38.830  24.574  27.126  1.00  0.00    -0.192 NA
ENDBRANCH   6   8
BRANCH   7  10
ATOM     10  C   UNL A   1      37.126  21.929  25.064  1.00  0.00    -0.017 A 
ATOM     11  C   UNL A   1      36.886  22.639  23.883  1.00  0.00     0.012 A 
ATOM     12  C   UNL A   1      36.032  21.611  25.875  1.00  0.00     0.098 A 
ATOM     13  C   UNL A   1      35.577  22.970  23.498  1.00  0.00     0.055 A 
ATOM     14  C   UNL A   1      34.719  21.862  25.431  1.00  0.00     0.312 A 
ATOM     15  C   UNL A   1      34.463  22.573  24.255  1.00  0.00     0.204 A 
BRANCH  14  16
ATOM     16  N   UNL A   1      33.686  21.194  26.194  1.00  0.00     0.066 N 
ATOM     17  O   UNL A   1      33.332  21.726  27.254  1.00  0.00    -0.258 OA
ATOM     18  O   UNL A   1      33.178  20.184  25.687  1.00  0.00    -0.258 OA
ENDBRANCH  14  16
BRANCH  15  19
ATOM     19  O   UNL A   1      33.272  22.946  23.670  1.00  0.00    -0.449 OA
BRANCH  19  20
ATOM     20  C   UNL A   1      33.018  24.254  23.345  1.00  0.00     0.146 A 
ATOM     21  C   UNL A   1      32.787  24.513  21.989  1.00  0.00     0.049 A 
ATOM     22  C   UNL A   1      33.044  25.310  24.261  1.00  0.00     0.083 A 
ATOM     23  C   UNL A   1      32.482  25.807  21.565  1.00  0.00     0.004 A 
ATOM     24  C   UNL A   1      32.717  26.602  23.836  1.00  0.00     0.024 A 
ATOM     25  Cl  UNL A   1      33.457  25.073  25.920  1.00  0.00    -0.080 Cl
ATOM     26  C   UNL A   1      32.425  26.845  22.492  1.00  0.00     0.002 A 
ENDBRANCH  19  20
ENDBRANCH  15  19
ENDBRANCH   7  10
ENDBRANCH   4   6
ENDBRANCH   3   4
ENDBRANCH   2   3
ENDBRANCH   1   2
BRANCH   1  27
ATOM     27  O   UNL A   1      44.400  21.031  25.782  1.00  0.00    -0.374 OA
BRANCH  27  28
ATOM     28  C   UNL A   1      45.193  21.548  24.720  1.00  0.00     0.202 C 
BRANCH  28  29
ATOM     29  C   UNL A   1      44.627  22.681  23.852  1.00  0.00     0.261 C 
BRANCH  29  30
ATOM     30  O   UNL A   1      43.809  23.617  24.571  1.00  0.00    -0.460 OA
BRANCH  30  31
ATOM     31  C   UNL A   1      44.482  24.708  25.016  1.00  0.00     0.338 C 
ATOM     32  O   UNL A   1      45.567  25.121  24.629  1.00  0.00    -0.246 OA
BRANCH  31  33
ATOM     33  C   UNL A   1      43.649  25.481  25.950  1.00  0.00     0.060 A 
ATOM     34  C   UNL A   1      43.841  26.868  25.993  1.00  0.00     0.016 A 
ATOM     35  C   UNL A   1      42.777  24.853  26.842  1.00  0.00     0.016 A 
ATOM     36  C   UNL A   1      43.193  27.632  26.958  1.00  0.00     0.010 A 
ATOM     37  C   UNL A   1      42.138  25.621  27.822  1.00  0.00     0.010 A 
ATOM     38  C   UNL A   1      42.371  27.005  27.905  1.00  0.00    -0.014 A 
BRANCH  38  39
ATOM     39  C   UNL A   1      41.887  27.784  29.068  1.00  0.00     0.031 A 
ATOM     40  C   UNL A   1      42.640  27.702  30.365  1.00  0.00     0.074 A 
ATOM     41  C   UNL A   1      40.813  28.584  28.957  1.00  0.00     0.049 A 
ATOM     42  N   UNL A   1      42.387  28.279  31.512  1.00  0.00    -0.248 NA
ATOM     43  C   UNL A   1      43.842  26.853  30.369  1.00  0.00     0.031 C 
ATOM     44  C   UNL A   1      40.026  28.775  27.741  1.00  0.00     0.029 A 
ATOM     45  N   UNL A   1      40.197  29.381  29.888  1.00  0.00    -0.354 N 
ATOM     46  C   UNL A   1      43.397  27.868  32.371  1.00  0.00     0.074 A 
ATOM     47  C   UNL A   1      44.247  26.964  31.625  1.00  0.00     0.031 C 
ATOM     48  C   UNL A   1      39.016  29.622  28.005  1.00  0.00     0.029 A 
ATOM     49  C   UNL A   1      39.074  30.011  29.414  1.00  0.00     0.049 A 
ATOM     50  H   UNL A   1      40.528  29.489  30.809  1.00  0.00     0.167 HD
ATOM     51  C   UNL A   1      43.604  28.222  33.661  1.00  0.00     0.037 A 
ATOM     52  C   UNL A   1      38.184  30.794  30.052  1.00  0.00     0.037 A 
ATOM     53  C   UNL A   1      42.752  29.113  34.404  1.00  0.00     0.049 A 
ATOM     54  C   UNL A   1      38.396  31.121  31.507  1.00  0.00     0.074 A 
ATOM     55  C   UNL A   1      42.877  29.538  35.714  1.00  0.00     0.029 A 
ATOM     56  N   UNL A   1      41.609  29.713  33.896  1.00  0.00    -0.354 N 
ATOM     57  N   UNL A   1      39.363  30.743  32.307  1.00  0.00    -0.248 NA
ATOM     58  C   UNL A   1      37.394  31.987  32.144  1.00  0.00     0.031 C 
ATOM     59  C   UNL A   1      41.785  30.360  36.014  1.00  0.00     0.029 A 
ATOM     60  C   UNL A   1      41.005  30.487  34.875  1.00  0.00     0.049 A 
ATOM     61  H   UNL A   1      41.274  29.605  32.976  1.00  0.00     0.167 HD
ATOM     62  C   UNL A   1      39.101  31.341  33.533  1.00  0.00     0.074 A 
ATOM     63  C   UNL A   1      37.890  32.117  33.367  1.00  0.00     0.031 C 
ATOM     64  C   UNL A   1      39.800  31.254  34.692  1.00  0.00     0.037 A 
BRANCH  51  65
ATOM     65  C   UNL A   1      44.788  27.620  34.358  1.00  0.00     0.064 A 
ATOM     66  C   UNL A   1      44.701  26.386  35.021  1.00  0.00     0.173 A 
ATOM     67  C   UNL A   1      46.028  28.276  34.351  1.00  0.00     0.173 A 
ATOM     68  F   UNL A   1      43.534  25.727  35.070  1.00  0.00    -0.203 F 
ATOM     69  C   UNL A   1      45.806  25.844  35.674  1.00  0.00     0.198 A 
ATOM     70  C   UNL A   1      47.137  27.718  34.982  1.00  0.00     0.198 A 
ATOM     71  F   UNL A   1      46.164  29.457  33.730  1.00  0.00    -0.203 F 
ATOM     72  F   UNL A   1      45.688  24.689  36.342  1.00  0.00    -0.200 F 
ATOM     73  C   UNL A   1      47.024  26.508  35.649  1.00  0.00     0.200 A 
ATOM     74  F   UNL A   1      48.315  28.356  34.949  1.00  0.00    -0.200 F 
ATOM     75  F   UNL A   1      48.086  25.985  36.277  1.00  0.00    -0.200 F 
ENDBRANCH  51  65
BRANCH  52  76
ATOM     76  C   UNL A   1      37.001  31.312  29.318  1.00  0.00     0.064 A 
ATOM     77  C   UNL A   1      35.921  30.479  29.000  1.00  0.00     0.173 A 
ATOM     78  C   UNL A   1      36.930  32.656  28.921  1.00  0.00     0.173 A 
ATOM     79  F   UNL A   1      35.954  29.181  29.338  1.00  0.00    -0.203 F 
ATOM     80  C   UNL A   1      34.819  30.967  28.301  1.00  0.00     0.198 A 
ATOM     81  C   UNL A   1      35.816  33.148  28.245  1.00  0.00     0.198 A 
ATOM     82  F   UNL A   1      37.939  33.494  29.203  1.00  0.00    -0.203 F 
ATOM     83  F   UNL A   1      33.815  30.141  27.976  1.00  0.00    -0.200 F 
ATOM     84  C   UNL A   1      34.764  32.303  27.930  1.00  0.00     0.200 A 
ATOM     85  F   UNL A   1      35.763  34.443  27.902  1.00  0.00    -0.200 F 
ATOM     86  F   UNL A   1      33.700  32.773  27.266  1.00  0.00    -0.200 F 
ENDBRANCH  52  76
BRANCH  64  87
ATOM     87  C   UNL A   1      39.288  32.040  35.865  1.00  0.00     0.064 A 
ATOM     88  C   UNL A   1      39.697  33.360  36.099  1.00  0.00     0.173 A 
ATOM     89  C   UNL A   1      38.344  31.478  36.737  1.00  0.00     0.173 A 
ATOM     90  F   UNL A   1      40.609  33.937  35.302  1.00  0.00    -0.203 F 
ATOM     91  C   UNL A   1      39.195  34.082  37.179  1.00  0.00     0.198 A 
ATOM     92  C   UNL A   1      37.824  32.212  37.799  1.00  0.00     0.198 A 
ATOM     93  F   UNL A   1      37.916  30.220  36.552  1.00  0.00    -0.203 F 
ATOM     94  F   UNL A   1      39.632  35.329  37.410  1.00  0.00    -0.200 F 
ATOM     95  C   UNL A   1      38.254  33.511  38.024  1.00  0.00     0.200 A 
ATOM     96  F   UNL A   1      36.906  31.663  38.607  1.00  0.00    -0.200 F 
ATOM     97  F   UNL A   1      37.768  34.210  39.058  1.00  0.00    -0.200 F 
ENDBRANCH  64  87
ENDBRANCH  38  39
ENDBRANCH  31  33
ENDBRANCH  30  31
ENDBRANCH  29  30
ENDBRANCH  28  29
ENDBRANCH  27  28
ENDBRANCH   1  27
TORSDOF 19
ENDMDL
MODEL 2
REMARK VINA RESULT:     -11.2      3.327      9.186
REMARK SMILES N#C/C(=C\c1ccc(Oc2ccccc2Cl)c([N+](=O)[O-])c1)C(=O)OCCOCCOC(=O)c1ccc(-c2c3nc(c(-c4c(F)c(F)c(F)c(F)c4F)c4ccc([nH]4)c(-c4c(F)c(F)c(F)c(F)c4F)c4nc(c(-c5c(F)c(F)c(F)c(F)c5F)c5ccc2[nH]5)C=C4)C=C3)cc1
REMARK SMILES IDX 26 1 25 2 24 3 22 4 23 5 3 6 4 7 2 8 1 9 5 10 6 11 21 12
REMARK SMILES IDX 7 13 17 14 8 15 18 16 19 17 20 18 9 19 10 20 11 21 15 22
REMARK SMILES IDX 12 23 14 24 16 25 13 26 27 27 28 28 29 29 30 30 31 31 32 32
REMARK SMILES IDX 33 33 34 34 95 35 35 36 94 37 36 38 37 39 38 40 88 41 39 42
REMARK SMILES IDX 93 43 87 44 89 45 40 46 92 47 86 48 85 49 41 51 73 52 53 53
REMARK SMILES IDX 72 54 54 55 57 56 71 57 90 58 55 59 56 60 70 62 91 63 58 64
REMARK SMILES IDX 42 65 43 66 51 67 44 68 45 69 49 70 52 71 46 72 47 73 50 74
REMARK SMILES IDX 48 75 74 76 75 77 83 78 76 79 77 80 81 81 84 82 78 83 79 84
REMARK SMILES IDX 82 85 80 86 59 87 60 88 68 89 61 90 62 91 66 92 69 93 63 94
REMARK SMILES IDX 64 95 67 96 65 97
REMARK H PARENT 89 50 57 61
REMARK Flexibility Score: inf
ROOT
ATOM      1  C   UNL A   1      29.886  31.537  24.624  1.00  0.00     0.202 C 
ENDROOT
BRANCH   1   2
ATOM      2  C   UNL A   1      29.351  30.623  23.520  1.00  0.00     0.261 C 
BRANCH   2   3
ATOM      3  O   UNL A   1      29.664  29.247  23.794  1.00  0.00    -0.459 OA
BRANCH   3   4
ATOM      4  C   UNL A   1      30.406  28.652  22.831  1.00  0.00     0.348 C 
ATOM      5  O   UNL A   1      30.282  28.815  21.626  1.00  0.00    -0.245 OA
BRANCH   4   6
ATOM      6  C   UNL A   1      31.504  27.848  23.405  1.00  0.00     0.138 C 
ATOM      7  C   UNL A   1      31.456  27.358  24.663  1.00  0.00     0.035 C 
BRANCH   6   8
ATOM      8  C   UNL A   1      32.457  27.271  22.371  1.00  0.00     0.107 C 
ATOM      9  N   UNL A   1      33.248  26.793  21.514  1.00  0.00    -0.192 NA
ENDBRANCH   6   8
BRANCH   7  10
ATOM     10  C   UNL A   1      32.253  26.184  25.090  1.00  0.00    -0.017 A 
ATOM     11  C   UNL A   1      33.646  26.300  25.153  1.00  0.00     0.012 A 
ATOM     12  C   UNL A   1      31.667  25.016  25.588  1.00  0.00     0.098 A 
ATOM     13  C   UNL A   1      34.424  25.296  25.752  1.00  0.00     0.055 A 
ATOM     14  C   UNL A   1      32.446  24.062  26.272  1.00  0.00     0.312 A 
ATOM     15  C   UNL A   1      33.839  24.163  26.340  1.00  0.00     0.204 A 
BRANCH  14  16
ATOM     16  N   UNL A   1      31.684  23.084  27.020  1.00  0.00     0.066 N 
ATOM     17  O   UNL A   1      30.572  22.774  26.575  1.00  0.00    -0.258 OA
ATOM     18  O   UNL A   1      32.240  22.572  28.001  1.00  0.00    -0.258 OA
ENDBRANCH  14  16
BRANCH  15  19
ATOM     19  O   UNL A   1      34.774  23.335  26.923  1.00  0.00    -0.449 OA
BRANCH  19  20
ATOM     20  C   UNL A   1      35.527  22.470  26.171  1.00  0.00     0.146 A 
ATOM     21  C   UNL A   1      34.896  21.277  25.798  1.00  0.00     0.049 A 
ATOM     22  C   UNL A   1      36.866  22.686  25.831  1.00  0.00     0.083 A 
ATOM     23  C   UNL A   1      35.568  20.350  25.001  1.00  0.00     0.004 A 
ATOM     24  C   UNL A   1      37.529  21.765  25.013  1.00  0.00     0.024 A 
ATOM     25  Cl  UNL A   1      37.736  24.073  26.377  1.00  0.00    -0.080 Cl
ATOM     26  C   UNL A   1      36.875  20.605  24.591  1.00  0.00     0.002 A 
ENDBRANCH  19  20
ENDBRANCH  15  19
ENDBRANCH   7  10
ENDBRANCH   4   6
ENDBRANCH   3   4
ENDBRANCH   2   3
ENDBRANCH   1   2
BRANCH   1  27
ATOM     27  O   UNL A   1      31.093  31.156  25.281  1.00  0.00    -0.374 OA
BRANCH  27  28
ATOM     28  C   UNL A   1      31.334  31.593  26.614  1.00  0.00     0.202 C 
BRANCH  28  29
ATOM     29  C   UNL A   1      31.995  32.961  26.840  1.00  0.00     0.261 C 
BRANCH  29  30
ATOM     30  O   UNL A   1      32.715  33.066  28.078  1.00  0.00    -0.460 OA
BRANCH  30  31
ATOM     31  C   UNL A   1      33.833  33.830  28.001  1.00  0.00     0.338 C 
ATOM     32  O   UNL A   1      33.897  35.039  27.823  1.00  0.00    -0.246 OA
BRANCH  31  33
ATOM     33  C   UNL A   1      35.024  33.033  28.337  1.00  0.00     0.060 A 
ATOM     34  C   UNL A   1      34.817  31.732  28.813  1.00  0.00     0.016 A 
ATOM     35  C   UNL A   1      36.307  33.582  28.293  1.00  0.00     0.016 A 
ATOM     36  C   UNL A   1      35.891  30.985  29.288  1.00  0.00     0.010 A 
ATOM     37  C   UNL A   1      37.383  32.835  28.785  1.00  0.00     0.010 A 
ATOM     38  C   UNL A   1      37.173  31.550  29.316  1.00  0.00    -0.014 A 
BRANCH  38  39
ATOM     39  C   UNL A   1      38.255  30.848  30.044  1.00  0.00     0.031 A 
ATOM     40  C   UNL A   1      38.506  31.191  31.485  1.00  0.00     0.074 A 
ATOM     41  C   UNL A   1      38.978  29.890  29.440  1.00  0.00     0.049 A 
ATOM     42  N   UNL A   1      39.408  30.719  32.307  1.00  0.00    -0.248 NA
ATOM     43  C   UNL A   1      37.618  32.203  32.079  1.00  0.00     0.031 C 
ATOM     44  C   UNL A   1      38.800  29.445  28.059  1.00  0.00     0.029 A 
ATOM     45  N   UNL A   1      40.012  29.124  29.912  1.00  0.00    -0.354 N 
ATOM     46  C   UNL A   1      39.195  31.372  33.514  1.00  0.00     0.074 A 
ATOM     47  C   UNL A   1      38.103  32.300  33.307  1.00  0.00     0.031 C 
ATOM     48  C   UNL A   1      39.710  28.493  27.789  1.00  0.00     0.029 A 
ATOM     49  C   UNL A   1      40.548  28.283  28.970  1.00  0.00     0.049 A 
ATOM     50  H   UNL A   1      40.340  29.173  30.840  1.00  0.00     0.167 HD
ATOM     51  C   UNL A   1      39.844  31.206  34.690  1.00  0.00     0.037 A 
ATOM     52  C   UNL A   1      41.607  27.456  29.047  1.00  0.00     0.037 A 
ATOM     53  C   UNL A   1      40.936  30.290  34.890  1.00  0.00     0.049 A 
ATOM     54  C   UNL A   1      42.358  27.335  30.346  1.00  0.00     0.074 A 
ATOM     55  C   UNL A   1      41.658  30.043  36.044  1.00  0.00     0.029 A 
ATOM     56  N   UNL A   1      41.467  29.472  33.904  1.00  0.00    -0.354 N 
ATOM     57  N   UNL A   1      42.141  27.943  31.487  1.00  0.00    -0.248 NA
ATOM     58  C   UNL A   1      43.500  26.409  30.369  1.00  0.00     0.031 C 
ATOM     59  C   UNL A   1      42.656  29.109  35.745  1.00  0.00     0.029 A 
ATOM     60  C   UNL A   1      42.524  28.736  34.417  1.00  0.00     0.049 A 
ATOM     61  H   UNL A   1      41.143  29.421  32.976  1.00  0.00     0.167 HD
ATOM     62  C   UNL A   1      43.099  27.459  32.368  1.00  0.00     0.074 A 
ATOM     63  C   UNL A   1      43.892  26.497  31.633  1.00  0.00     0.031 C 
ATOM     64  C   UNL A   1      43.303  27.782  33.670  1.00  0.00     0.037 A 
BRANCH  51  65
ATOM     65  C   UNL A   1      39.402  32.054  35.847  1.00  0.00     0.064 A 
ATOM     66  C   UNL A   1      39.988  33.302  36.108  1.00  0.00     0.173 A 
ATOM     67  C   UNL A   1      38.372  31.621  36.694  1.00  0.00     0.173 A 
ATOM     68  F   UNL A   1      40.988  33.753  35.336  1.00  0.00    -0.203 F 
ATOM     69  C   UNL A   1      39.576  34.073  37.192  1.00  0.00     0.198 A 
ATOM     70  C   UNL A   1      37.943  32.407  37.760  1.00  0.00     0.198 A 
ATOM     71  F   UNL A   1      37.778  30.436  36.486  1.00  0.00    -0.203 F 
ATOM     72  F   UNL A   1      40.182  35.240  37.452  1.00  0.00    -0.200 F 
ATOM     73  C   UNL A   1      38.550  33.628  38.013  1.00  0.00     0.200 A 
ATOM     74  F   UNL A   1      36.947  31.980  38.547  1.00  0.00    -0.200 F 
ATOM     75  F   UNL A   1      38.154  34.372  39.055  1.00  0.00    -0.200 F 
ENDBRANCH  51  65
BRANCH  52  76
ATOM     76  C   UNL A   1      42.028  26.686  27.848  1.00  0.00     0.064 A 
ATOM     77  C   UNL A   1      41.470  25.435  27.554  1.00  0.00     0.173 A 
ATOM     78  C   UNL A   1      42.997  27.192  26.969  1.00  0.00     0.173 A 
ATOM     79  F   UNL A   1      40.556  24.900  28.377  1.00  0.00    -0.203 F 
ATOM     80  C   UNL A   1      41.876  24.712  26.434  1.00  0.00     0.198 A 
ATOM     81  C   UNL A   1      43.383  26.481  25.836  1.00  0.00     0.198 A 
ATOM     82  F   UNL A   1      43.560  28.387  27.206  1.00  0.00    -0.203 F 
ATOM     83  F   UNL A   1      41.354  23.501  26.196  1.00  0.00    -0.200 F 
ATOM     84  C   UNL A   1      42.827  25.239  25.572  1.00  0.00     0.200 A 
ATOM     85  F   UNL A   1      44.292  27.000  24.999  1.00  0.00    -0.200 F 
ATOM     86  F   UNL A   1      43.210  24.547  24.491  1.00  0.00    -0.200 F 
ENDBRANCH  52  76
BRANCH  64  87
ATOM     87  C   UNL A   1      44.412  27.071  34.389  1.00  0.00     0.064 A 
ATOM     88  C   UNL A   1      44.209  25.830  35.009  1.00  0.00     0.173 A 
ATOM     89  C   UNL A   1      45.704  27.617  34.419  1.00  0.00     0.173 A 
ATOM     90  F   UNL A   1      42.988  25.272  35.021  1.00  0.00    -0.203 F 
ATOM     91  C   UNL A   1      45.254  25.173  35.653  1.00  0.00     0.198 A 
ATOM     92  C   UNL A   1      46.753  26.944  35.040  1.00  0.00     0.198 A 
ATOM     93  F   UNL A   1      45.953  28.799  33.835  1.00  0.00    -0.203 F 
ATOM     94  F   UNL A   1      45.027  24.008  36.278  1.00  0.00    -0.200 F 
ATOM     95  C   UNL A   1      46.526  25.726  35.662  1.00  0.00     0.200 A 
ATOM     96  F   UNL A   1      47.983  27.475  35.037  1.00  0.00    -0.200 F 
ATOM     97  F   UNL A   1      47.532  25.089  36.277  1.00  0.00    -0.200 F 
ENDBRANCH  64  87
ENDBRANCH  38  39
ENDBRANCH  31  33
ENDBRANCH  30  31
ENDBRANCH  29  30
ENDBRANCH  28  29
ENDBRANCH  27  28
ENDBRANCH   1  27
TORSDOF 19
ENDMDL
MODEL 3
REMARK VINA RESULT:     -11.2      1.576      2.652
REMARK SMILES N#C/C(=C\c1ccc(Oc2ccccc2Cl)c([N+](=O)[O-])c1)C(=O)OCCOCCOC(=O)c1ccc(-c2c3nc(c(-c4c(F)c(F)c(F)c(F)c4F)c4ccc([nH]4)c(-c4c(F)c(F)c(F)c(F)c4F)c4nc(c(-c5c(F)c(F)c(F)c(F)c5F)c5ccc2[nH]5)C=C4)C=C3)cc1
REMARK SMILES IDX 26 1 25 2 24 3 22 4 23 5 3 6 4 7 2 8 1 9 5 10 6 11 21 12
REMARK SMILES IDX 7 13 17 14 8 15 18 16 19 17 20 18 9 19 10 20 11 21 15 22
REMARK SMILES IDX 12 23 14 24 16 25 13 26 27 27 28 28 29 29 30 30 31 31 32 32
REMARK SMILES IDX 33 33 34 34 95 35 35 36 94 37 36 38 37 39 38 40 88 41 39 42
REMARK SMILES IDX 93 43 87 44 89 45 40 46 92 47 86 48 85 49 41 51 73 52 53 53
REMARK SMILES IDX 72 54 54 55 57 56 71 57 90 58 55 59 56 60 70 62 91 63 58 64
REMARK SMILES IDX 42 65 43 66 51 67 44 68 45 69 49 70 52 71 46 72 47 73 50 74
REMARK SMILES IDX 48 75 74 76 75 77 83 78 76 79 77 80 81 81 84 82 78 83 79 84
REMARK SMILES IDX 82 85 80 86 59 87 60 88 68 89 61 90 62 91 66 92 69 93 63 94
REMARK SMILES IDX 64 95 67 96 65 97
REMARK H PARENT 89 50 57 61
REMARK Flexibility Score: inf
ROOT
ATOM      1  C   UNL A   1      41.231  22.132  26.450  1.00  0.00     0.202 C 
ENDROOT
BRANCH   1   2
ATOM      2  C   UNL A   1      39.972  21.266  26.510  1.00  0.00     0.261 C 
BRANCH   2   3
ATOM      3  O   UNL A   1      38.838  21.966  25.971  1.00  0.00    -0.459 OA
BRANCH   3   4
ATOM      4  C   UNL A   1      37.966  21.170  25.309  1.00  0.00     0.348 C 
ATOM      5  O   UNL A   1      38.153  20.002  25.001  1.00  0.00    -0.245 OA
BRANCH   4   6
ATOM      6  C   UNL A   1      36.670  21.841  25.092  1.00  0.00     0.138 C 
ATOM      7  C   UNL A   1      35.870  22.213  26.116  1.00  0.00     0.035 C 
BRANCH   6   8
ATOM      8  C   UNL A   1      36.508  22.448  23.708  1.00  0.00     0.107 C 
ATOM      9  N   UNL A   1      36.375  22.952  22.559  1.00  0.00    -0.192 NA
ENDBRANCH   6   8
BRANCH   7  10
ATOM     10  C   UNL A   1      34.856  23.286  25.985  1.00  0.00    -0.017 A 
ATOM     11  C   UNL A   1      35.188  24.447  25.278  1.00  0.00     0.012 A 
ATOM     12  C   UNL A   1      33.530  23.124  26.398  1.00  0.00     0.098 A 
ATOM     13  C   UNL A   1      34.204  25.391  24.945  1.00  0.00     0.055 A 
ATOM     14  C   UNL A   1      32.535  24.028  25.975  1.00  0.00     0.312 A 
ATOM     15  C   UNL A   1      32.852  25.193  25.271  1.00  0.00     0.204 A 
BRANCH  14  16
ATOM     16  N   UNL A   1      31.177  23.572  26.183  1.00  0.00     0.066 N 
ATOM     17  O   UNL A   1      30.690  22.833  25.319  1.00  0.00    -0.258 OA
ATOM     18  O   UNL A   1      30.637  23.889  27.252  1.00  0.00    -0.258 OA
ENDBRANCH  14  16
BRANCH  15  19
ATOM     19  O   UNL A   1      32.047  26.208  24.800  1.00  0.00    -0.449 OA
BRANCH  19  20
ATOM     20  C   UNL A   1      31.963  27.412  25.451  1.00  0.00     0.146 A 
ATOM     21  C   UNL A   1      31.499  27.362  26.770  1.00  0.00     0.049 A 
ATOM     22  C   UNL A   1      32.245  28.646  24.857  1.00  0.00     0.083 A 
ATOM     23  C   UNL A   1      31.415  28.531  27.527  1.00  0.00     0.004 A 
ATOM     24  C   UNL A   1      32.181  29.813  25.626  1.00  0.00     0.024 A 
ATOM     25  Cl  UNL A   1      32.690  28.783  23.195  1.00  0.00    -0.080 Cl
ATOM     26  C   UNL A   1      31.777  29.751  26.961  1.00  0.00     0.002 A 
ENDBRANCH  19  20
ENDBRANCH  15  19
ENDBRANCH   7  10
ENDBRANCH   4   6
ENDBRANCH   3   4
ENDBRANCH   2   3
ENDBRANCH   1   2
BRANCH   1  27
ATOM     27  O   UNL A   1      42.166  21.882  25.403  1.00  0.00    -0.374 OA
BRANCH  27  28
ATOM     28  C   UNL A   1      43.404  21.248  25.703  1.00  0.00     0.202 C 
BRANCH  28  29
ATOM     29  C   UNL A   1      44.713  21.977  25.368  1.00  0.00     0.261 C 
BRANCH  29  30
ATOM     30  O   UNL A   1      45.103  22.959  26.342  1.00  0.00    -0.460 OA
BRANCH  30  31
ATOM     31  C   UNL A   1      45.087  24.233  25.876  1.00  0.00     0.338 C 
ATOM     32  O   UNL A   1      45.579  24.651  24.837  1.00  0.00    -0.246 OA
BRANCH  31  33
ATOM     33  C   UNL A   1      44.224  25.077  26.718  1.00  0.00     0.060 A 
ATOM     34  C   UNL A   1      44.532  26.442  26.795  1.00  0.00     0.016 A 
ATOM     35  C   UNL A   1      43.206  24.529  27.501  1.00  0.00     0.016 A 
ATOM     36  C   UNL A   1      43.848  27.261  27.688  1.00  0.00     0.010 A 
ATOM     37  C   UNL A   1      42.530  25.351  28.409  1.00  0.00     0.010 A 
ATOM     38  C   UNL A   1      42.873  26.710  28.530  1.00  0.00    -0.014 A 
BRANCH  38  39
ATOM     39  C   UNL A   1      42.330  27.530  29.638  1.00  0.00     0.031 A 
ATOM     40  C   UNL A   1      43.020  27.499  30.973  1.00  0.00     0.074 A 
ATOM     41  C   UNL A   1      41.261  28.320  29.446  1.00  0.00     0.049 A 
ATOM     42  N   UNL A   1      42.709  28.118  32.083  1.00  0.00    -0.248 NA
ATOM     43  C   UNL A   1      44.222  26.656  31.067  1.00  0.00     0.031 C 
ATOM     44  C   UNL A   1      40.533  28.462  28.186  1.00  0.00     0.029 A 
ATOM     45  N   UNL A   1      40.598  29.148  30.315  1.00  0.00    -0.354 N 
ATOM     46  C   UNL A   1      43.677  27.743  33.005  1.00  0.00     0.074 A 
ATOM     47  C   UNL A   1      44.565  26.816  32.336  1.00  0.00     0.031 C 
ATOM     48  C   UNL A   1      39.510  29.314  28.369  1.00  0.00     0.029 A 
ATOM     49  C   UNL A   1      39.499  29.755  29.764  1.00  0.00     0.049 A 
ATOM     50  H   UNL A   1      40.884  29.293  31.246  1.00  0.00     0.167 HD
ATOM     51  C   UNL A   1      43.821  28.146  34.290  1.00  0.00     0.037 A 
ATOM     52  C   UNL A   1      38.576  30.558  30.328  1.00  0.00     0.037 A 
ATOM     53  C   UNL A   1      42.931  29.061  34.956  1.00  0.00     0.049 A 
ATOM     54  C   UNL A   1      38.716  30.939  31.778  1.00  0.00     0.074 A 
ATOM     55  C   UNL A   1      42.991  29.535  36.254  1.00  0.00     0.029 A 
ATOM     56  N   UNL A   1      41.813  29.636  34.372  1.00  0.00    -0.354 N 
ATOM     57  N   UNL A   1      39.644  30.596  32.638  1.00  0.00    -0.248 NA
ATOM     58  C   UNL A   1      37.683  31.824  32.333  1.00  0.00     0.031 C 
ATOM     59  C   UNL A   1      41.884  30.362  36.470  1.00  0.00     0.029 A 
ATOM     60  C   UNL A   1      41.160  30.443  35.291  1.00  0.00     0.049 A 
ATOM     61  H   UNL A   1      41.524  29.493  33.441  1.00  0.00     0.167 HD
ATOM     62  C   UNL A   1      39.321  31.238  33.826  1.00  0.00     0.074 A 
ATOM     63  C   UNL A   1      38.118  32.002  33.573  1.00  0.00     0.031 C 
ATOM     64  C   UNL A   1      39.964  31.198  35.021  1.00  0.00     0.037 A 
BRANCH  51  65
ATOM     65  C   UNL A   1      44.971  27.575  35.066  1.00  0.00     0.064 A 
ATOM     66  C   UNL A   1      44.827  26.420  35.850  1.00  0.00     0.173 A 
ATOM     67  C   UNL A   1      46.235  28.181  35.014  1.00  0.00     0.173 A 
ATOM     68  F   UNL A   1      43.635  25.813  35.945  1.00  0.00    -0.203 F 
ATOM     69  C   UNL A   1      45.901  25.908  36.574  1.00  0.00     0.198 A 
ATOM     70  C   UNL A   1      47.313  27.651  35.717  1.00  0.00     0.198 A 
ATOM     71  F   UNL A   1      46.426  29.286  34.278  1.00  0.00    -0.203 F 
ATOM     72  F   UNL A   1      45.729  24.833  37.355  1.00  0.00    -0.200 F 
ATOM     73  C   UNL A   1      47.144  26.521  36.503  1.00  0.00     0.200 A 
ATOM     74  F   UNL A   1      48.515  28.238  35.640  1.00  0.00    -0.200 F 
ATOM     75  F   UNL A   1      48.177  26.026  37.200  1.00  0.00    -0.200 F 
ENDBRANCH  51  65
BRANCH  52  76
ATOM     76  C   UNL A   1      37.430  31.043  29.518  1.00  0.00     0.064 A 
ATOM     77  C   UNL A   1      37.404  32.344  29.000  1.00  0.00     0.173 A 
ATOM     78  C   UNL A   1      36.335  30.209  29.245  1.00  0.00     0.173 A 
ATOM     79  F   UNL A   1      38.417  33.186  29.253  1.00  0.00    -0.203 F 
ATOM     80  C   UNL A   1      36.321  32.798  28.250  1.00  0.00     0.198 A 
ATOM     81  C   UNL A   1      35.265  30.655  28.474  1.00  0.00     0.198 A 
ATOM     82  F   UNL A   1      36.313  28.954  29.718  1.00  0.00    -0.203 F 
ATOM     83  F   UNL A   1      36.303  34.059  27.797  1.00  0.00    -0.200 F 
ATOM     84  C   UNL A   1      35.255  31.951  27.981  1.00  0.00     0.200 A 
ATOM     85  F   UNL A   1      34.245  29.828  28.206  1.00  0.00    -0.200 F 
ATOM     86  F   UNL A   1      34.218  32.385  27.253  1.00  0.00    -0.200 F 
ENDBRANCH  52  76
BRANCH  64  87
ATOM     87  C   UNL A   1      39.393  32.024  36.137  1.00  0.00     0.064 A 
ATOM     88  C   UNL A   1      38.345  31.551  36.939  1.00  0.00     0.173 A 
ATOM     89  C   UNL A   1      39.933  33.284  36.435  1.00  0.00     0.173 A 
ATOM     90  F   UNL A   1      37.785  30.358  36.685  1.00  0.00    -0.203 F 
ATOM     91  C   UNL A   1      37.842  32.321  37.985  1.00  0.00     0.198 A 
ATOM     92  C   UNL A   1      39.446  34.039  37.498  1.00  0.00     0.198 A 
ATOM     93  F   UNL A   1      40.942  33.779  35.701  1.00  0.00    -0.203 F 
ATOM     94  F   UNL A   1      36.810  31.868  38.711  1.00  0.00    -0.200 F 
ATOM     95  C   UNL A   1      38.397  33.560  38.269  1.00  0.00     0.200 A 
ATOM     96  F   UNL A   1      39.992  35.230  37.778  1.00  0.00    -0.200 F 
ATOM     97  F   UNL A   1      37.916  34.296  39.279  1.00  0.00    -0.200 F 
ENDBRANCH  64  87
ENDBRANCH  38  39
ENDBRANCH  31  33
ENDBRANCH  30  31
ENDBRANCH  29  30
ENDBRANCH  28  29
ENDBRANCH  27  28
ENDBRANCH   1  27
TORSDOF 19
ENDMDL
