MODEL 1
REMARK VINA RESULT:     -10.2      0.000      0.000
REMARK SMILES CC[C@@H](C)[C@@H](NC(=O)[C@H](C)[NH3+])C(=O)OCCOCCOC(=O)c1ccc(-c2c3nc(c(-c4c(F)c(F)c(F)c(F)c4F)c4ccc([nH]4)c(-c4c(F)c(F)c(F)c(F)c4F)c4nc(c(-c5c(F)c(F)c(F)c(F)c5F)c5ccc2[nH]5)C=C4)C=C3)cc1
REMARK SMILES IDX 16 1 15 2 14 3 12 4 13 5 5 6 3 7 4 8 2 9 1 10 6 11 7 12 8 14
REMARK SMILES IDX 9 15 10 16 11 17 17 21 18 22 19 23 20 24 21 25 22 26 23 27
REMARK SMILES IDX 24 28 85 29 25 30 84 31 26 32 27 33 28 34 78 35 29 36 83 37
REMARK SMILES IDX 77 38 79 39 30 40 82 41 76 42 75 43 31 45 63 46 43 47 62 48
REMARK SMILES IDX 44 49 47 50 61 51 80 52 45 53 46 54 60 56 81 57 48 58 32 59
REMARK SMILES IDX 33 60 41 61 34 62 35 63 39 64 42 65 36 66 37 67 40 68 38 69
REMARK SMILES IDX 64 70 65 71 73 72 66 73 67 74 71 75 74 76 68 77 69 78 72 79
REMARK SMILES IDX 70 80 49 81 50 82 58 83 51 84 52 85 56 86 59 87 53 88 54 89
REMARK SMILES IDX 57 90 55 91
REMARK H PARENT 6 13 11 18 11 19 11 20 79 44 47 55
REMARK Flexibility Score: inf
ROOT
ATOM      1  C   UNL A   1      32.144  28.555  23.410  1.00  0.00     0.202 C 
ENDROOT
BRANCH   1   2
ATOM      2  C   UNL A   1      33.578  28.268  23.852  1.00  0.00     0.261 C 
BRANCH   2   3
ATOM      3  O   UNL A   1      33.955  26.879  23.700  1.00  0.00    -0.462 OA
BRANCH   3   4
ATOM      4  C   UNL A   1      33.742  26.100  24.799  1.00  0.00     0.328 C 
ATOM      5  O   UNL A   1      34.028  26.435  25.944  1.00  0.00    -0.250 OA
BRANCH   4   6
ATOM      6  C   UNL A   1      33.300  24.661  24.466  1.00  0.00     0.195 C 
BRANCH   6   7
ATOM      7  C   UNL A   1      33.986  23.815  23.354  1.00  0.00     0.019 C 
ATOM      8  C   UNL A   1      32.976  23.078  22.476  1.00  0.00     0.010 C 
BRANCH   7   9
ATOM      9  C   UNL A   1      34.961  22.799  24.022  1.00  0.00     0.002 C 
ATOM     10  C   UNL A   1      36.358  23.326  24.322  1.00  0.00     0.004 C 
ENDBRANCH   7   9
ENDBRANCH   6   7
BRANCH   6  11
ATOM     11  N   UNL A   1      33.023  23.880  25.688  1.00  0.00    -0.337 N 
ATOM     12  C   UNL A   1      31.951  23.812  26.529  1.00  0.00     0.278 C 
ATOM     13  H   UNL A   1      33.764  23.287  25.949  1.00  0.00     0.164 HD
ATOM     14  O   UNL A   1      32.146  23.275  27.624  1.00  0.00    -0.268 OA
BRANCH  12  15
ATOM     15  C   UNL A   1      30.546  24.273  26.077  1.00  0.00     0.267 C 
ATOM     16  C   UNL A   1      30.386  25.783  26.123  1.00  0.00     0.086 C 
BRANCH  15  17
ATOM     17  N   UNL A   1      29.500  23.671  26.928  1.00  0.00    -0.348 N 
ATOM     18  H   UNL A   1      28.595  24.081  26.696  1.00  0.00     0.345 HD
ATOM     19  H   UNL A   1      29.713  23.854  27.909  1.00  0.00     0.345 HD
ATOM     20  H   UNL A   1      29.469  22.665  26.769  1.00  0.00     0.345 HD
ENDBRANCH  15  17
ENDBRANCH  12  15
ENDBRANCH   6  11
ENDBRANCH   4   6
ENDBRANCH   3   4
ENDBRANCH   2   3
ENDBRANCH   1   2
BRANCH   1  21
ATOM     21  O   UNL A   1      31.406  29.423  24.265  1.00  0.00    -0.374 OA
BRANCH  21  22
ATOM     22  C   UNL A   1      31.784  29.451  25.639  1.00  0.00     0.202 C 
BRANCH  22  23
ATOM     23  C   UNL A   1      31.780  30.844  26.285  1.00  0.00     0.261 C 
BRANCH  23  24
ATOM     24  O   UNL A   1      32.543  30.891  27.511  1.00  0.00    -0.460 OA
BRANCH  24  25
ATOM     25  C   UNL A   1      33.394  31.938  27.606  1.00  0.00     0.338 C 
ATOM     26  O   UNL A   1      33.103  33.128  27.637  1.00  0.00    -0.246 OA
BRANCH  25  27
ATOM     27  C   UNL A   1      34.787  31.493  27.798  1.00  0.00     0.060 A 
ATOM     28  C   UNL A   1      35.005  30.123  27.982  1.00  0.00     0.016 A 
ATOM     29  C   UNL A   1      35.826  32.407  27.993  1.00  0.00     0.016 A 
ATOM     30  C   UNL A   1      36.239  29.666  28.443  1.00  0.00     0.010 A 
ATOM     31  C   UNL A   1      37.066  31.945  28.459  1.00  0.00     0.010 A 
ATOM     32  C   UNL A   1      37.260  30.581  28.740  1.00  0.00    -0.014 A 
BRANCH  32  33
ATOM     33  C   UNL A   1      38.440  30.116  29.517  1.00  0.00     0.031 A 
ATOM     34  C   UNL A   1      38.621  30.600  30.933  1.00  0.00     0.074 A 
ATOM     35  C   UNL A   1      39.306  29.223  29.006  1.00  0.00     0.049 A 
ATOM     36  N   UNL A   1      39.558  30.307  31.801  1.00  0.00    -0.248 NA
ATOM     37  C   UNL A   1      37.606  31.538  31.441  1.00  0.00     0.031 C 
ATOM     38  C   UNL A   1      39.230  28.644  27.668  1.00  0.00     0.029 A 
ATOM     39  N   UNL A   1      40.422  28.646  29.563  1.00  0.00    -0.354 N 
ATOM     40  C   UNL A   1      39.245  31.018  32.952  1.00  0.00     0.074 A 
ATOM     41  C   UNL A   1      38.051  31.784  32.665  1.00  0.00     0.031 C 
ATOM     42  C   UNL A   1      40.259  27.795  27.503  1.00  0.00     0.029 A 
ATOM     43  C   UNL A   1      41.076  27.787  28.717  1.00  0.00     0.049 A 
ATOM     44  H   UNL A   1      40.723  28.831  30.482  1.00  0.00     0.167 HD
ATOM     45  C   UNL A   1      39.883  31.024  34.148  1.00  0.00     0.037 A 
ATOM     46  C   UNL A   1      42.212  27.084  28.896  1.00  0.00     0.037 A 
ATOM     47  C   UNL A   1      41.067  30.264  34.448  1.00  0.00     0.049 A 
ATOM     48  C   UNL A   1      42.939  27.154  30.214  1.00  0.00     0.074 A 
ATOM     49  C   UNL A   1      41.775  30.201  35.636  1.00  0.00     0.029 A 
ATOM     50  N   UNL A   1      41.720  29.435  33.550  1.00  0.00    -0.354 N 
ATOM     51  N   UNL A   1      42.623  27.816  31.300  1.00  0.00    -0.248 NA
ATOM     52  C   UNL A   1      44.180  26.374  30.329  1.00  0.00     0.031 C 
ATOM     53  C   UNL A   1      42.878  29.362  35.446  1.00  0.00     0.029 A 
ATOM     54  C   UNL A   1      42.834  28.872  34.152  1.00  0.00     0.049 A 
ATOM     55  H   UNL A   1      41.435  29.271  32.622  1.00  0.00     0.167 HD
ATOM     56  C   UNL A   1      43.611  27.517  32.230  1.00  0.00     0.074 A 
ATOM     57  C   UNL A   1      44.531  26.604  31.587  1.00  0.00     0.031 C 
ATOM     58  C   UNL A   1      43.740  27.960  33.504  1.00  0.00     0.037 A 
BRANCH  45  59
ATOM     59  C   UNL A   1      39.316  31.895  35.228  1.00  0.00     0.064 A 
ATOM     60  C   UNL A   1      38.511  31.366  36.247  1.00  0.00     0.173 A 
ATOM     61  C   UNL A   1      39.620  33.263  35.271  1.00  0.00     0.173 A 
ATOM     62  F   UNL A   1      38.183  30.065  36.240  1.00  0.00    -0.203 F 
ATOM     63  C   UNL A   1      38.013  32.180  37.261  1.00  0.00     0.198 A 
ATOM     64  C   UNL A   1      39.140  34.070  36.299  1.00  0.00     0.198 A 
ATOM     65  F   UNL A   1      40.390  33.815  34.322  1.00  0.00    -0.203 F 
ATOM     66  F   UNL A   1      37.217  31.661  38.205  1.00  0.00    -0.200 F 
ATOM     67  C   UNL A   1      38.334  33.529  37.290  1.00  0.00     0.200 A 
ATOM     68  F   UNL A   1      39.457  35.372  36.331  1.00  0.00    -0.200 F 
ATOM     69  F   UNL A   1      37.861  34.311  38.270  1.00  0.00    -0.200 F 
ENDBRANCH  45  59
BRANCH  46  70
ATOM     70  C   UNL A   1      42.744  26.252  27.788  1.00  0.00     0.064 A 
ATOM     71  C   UNL A   1      43.705  26.754  26.900  1.00  0.00     0.173 A 
ATOM     72  C   UNL A   1      42.286  24.942  27.585  1.00  0.00     0.173 A 
ATOM     73  F   UNL A   1      44.150  28.012  27.037  1.00  0.00    -0.203 F 
ATOM     74  C   UNL A   1      44.179  25.981  25.843  1.00  0.00     0.198 A 
ATOM     75  C   UNL A   1      42.778  24.162  26.542  1.00  0.00     0.198 A 
ATOM     76  F   UNL A   1      41.361  24.420  28.405  1.00  0.00    -0.203 F 
ATOM     77  F   UNL A   1      45.067  26.498  24.983  1.00  0.00    -0.200 F 
ATOM     78  C   UNL A   1      43.721  24.684  25.668  1.00  0.00     0.200 A 
ATOM     79  F   UNL A   1      42.335  22.908  26.379  1.00  0.00    -0.200 F 
ATOM     80  F   UNL A   1      44.177  23.941  24.651  1.00  0.00    -0.200 F 
ENDBRANCH  46  70
BRANCH  58  81
ATOM     81  C   UNL A   1      44.906  27.451  34.300  1.00  0.00     0.064 A 
ATOM     82  C   UNL A   1      44.830  26.256  35.029  1.00  0.00     0.173 A 
ATOM     83  C   UNL A   1      46.127  28.141  34.294  1.00  0.00     0.173 A 
ATOM     84  F   UNL A   1      43.680  25.567  35.076  1.00  0.00    -0.203 F 
ATOM     85  C   UNL A   1      45.929  25.780  35.740  1.00  0.00     0.198 A 
ATOM     86  C   UNL A   1      47.231  27.650  34.987  1.00  0.00     0.198 A 
ATOM     87  F   UNL A   1      46.254  29.285  33.605  1.00  0.00    -0.203 F 
ATOM     88  F   UNL A   1      45.823  24.654  36.460  1.00  0.00    -0.200 F 
ATOM     89  C   UNL A   1      47.130  26.473  35.713  1.00  0.00     0.200 A 
ATOM     90  F   UNL A   1      48.395  28.316  34.950  1.00  0.00    -0.200 F 
ATOM     91  F   UNL A   1      48.189  26.010  36.392  1.00  0.00    -0.200 F 
ENDBRANCH  58  81
ENDBRANCH  32  33
ENDBRANCH  25  27
ENDBRANCH  24  25
ENDBRANCH  23  24
ENDBRANCH  22  23
ENDBRANCH  21  22
ENDBRANCH   1  21
TORSDOF 19
ENDMDL
MODEL 2
REMARK VINA RESULT:     -10.0      4.730     10.135
REMARK SMILES CC[C@@H](C)[C@@H](NC(=O)[C@H](C)[NH3+])C(=O)OCCOCCOC(=O)c1ccc(-c2c3nc(c(-c4c(F)c(F)c(F)c(F)c4F)c4ccc([nH]4)c(-c4c(F)c(F)c(F)c(F)c4F)c4nc(c(-c5c(F)c(F)c(F)c(F)c5F)c5ccc2[nH]5)C=C4)C=C3)cc1
REMARK SMILES IDX 16 1 15 2 14 3 12 4 13 5 5 6 3 7 4 8 2 9 1 10 6 11 7 12 8 14
REMARK SMILES IDX 9 15 10 16 11 17 17 21 18 22 19 23 20 24 21 25 22 26 23 27
REMARK SMILES IDX 24 28 85 29 25 30 84 31 26 32 27 33 28 34 78 35 29 36 83 37
REMARK SMILES IDX 77 38 79 39 30 40 82 41 76 42 75 43 31 45 63 46 43 47 62 48
REMARK SMILES IDX 44 49 47 50 61 51 80 52 45 53 46 54 60 56 81 57 48 58 32 59
REMARK SMILES IDX 33 60 41 61 34 62 35 63 39 64 42 65 36 66 37 67 40 68 38 69
REMARK SMILES IDX 64 70 65 71 73 72 66 73 67 74 71 75 74 76 68 77 69 78 72 79
REMARK SMILES IDX 70 80 49 81 50 82 58 83 51 84 52 85 56 86 59 87 53 88 54 89
REMARK SMILES IDX 57 90 55 91
REMARK H PARENT 6 13 11 18 11 19 11 20 79 44 47 55
REMARK Flexibility Score: inf
ROOT
ATOM      1  C   UNL A   1      36.549  21.855  25.753  1.00  0.00     0.202 C 
ENDROOT
BRANCH   1   2
ATOM      2  C   UNL A   1      35.679  21.423  24.574  1.00  0.00     0.261 C 
BRANCH   2   3
ATOM      3  O   UNL A   1      35.061  22.534  23.882  1.00  0.00    -0.462 OA
BRANCH   3   4
ATOM      4  C   UNL A   1      33.734  22.380  23.612  1.00  0.00     0.328 C 
ATOM      5  O   UNL A   1      33.125  23.032  22.768  1.00  0.00    -0.250 OA
BRANCH   4   6
ATOM      6  C   UNL A   1      32.997  21.461  24.606  1.00  0.00     0.195 C 
BRANCH   6   7
ATOM      7  C   UNL A   1      32.135  22.020  25.775  1.00  0.00     0.019 C 
ATOM      8  C   UNL A   1      30.886  22.751  25.281  1.00  0.00     0.010 C 
BRANCH   7   9
ATOM      9  C   UNL A   1      33.013  22.977  26.637  1.00  0.00     0.002 C 
ATOM     10  C   UNL A   1      33.558  22.385  27.930  1.00  0.00     0.004 C 
ENDBRANCH   7   9
ENDBRANCH   6   7
BRANCH   6  11
ATOM     11  N   UNL A   1      32.360  20.318  23.923  1.00  0.00    -0.337 N 
ATOM     12  C   UNL A   1      32.647  18.985  23.868  1.00  0.00     0.278 C 
ATOM     13  H   UNL A   1      31.566  20.569  23.399  1.00  0.00     0.164 HD
ATOM     14  O   UNL A   1      32.089  18.341  22.975  1.00  0.00    -0.268 OA
BRANCH  12  15
ATOM     15  C   UNL A   1      33.525  18.308  24.946  1.00  0.00     0.267 C 
ATOM     16  C   UNL A   1      34.095  16.979  24.483  1.00  0.00     0.086 C 
BRANCH  15  17
ATOM     17  N   UNL A   1      32.750  18.075  26.180  1.00  0.00    -0.348 N 
ATOM     18  H   UNL A   1      33.222  17.375  26.752  1.00  0.00     0.345 HD
ATOM     19  H   UNL A   1      31.817  17.741  25.938  1.00  0.00     0.345 HD
ATOM     20  H   UNL A   1      32.673  18.946  26.704  1.00  0.00     0.345 HD
ENDBRANCH  15  17
ENDBRANCH  12  15
ENDBRANCH   6  11
ENDBRANCH   4   6
ENDBRANCH   3   4
ENDBRANCH   2   3
ENDBRANCH   1   2
BRANCH   1  21
ATOM     21  O   UNL A   1      37.903  21.415  25.703  1.00  0.00    -0.374 OA
BRANCH  21  22
ATOM     22  C   UNL A   1      38.155  20.176  25.047  1.00  0.00     0.202 C 
BRANCH  22  23
ATOM     23  C   UNL A   1      39.397  19.421  25.541  1.00  0.00     0.261 C 
BRANCH  23  24
ATOM     24  O   UNL A   1      39.979  20.018  26.720  1.00  0.00    -0.460 OA
BRANCH  24  25
ATOM     25  C   UNL A   1      41.157  20.650  26.511  1.00  0.00     0.338 C 
ATOM     26  O   UNL A   1      42.088  20.267  25.813  1.00  0.00    -0.246 OA
BRANCH  25  27
ATOM     27  C   UNL A   1      41.182  21.982  27.144  1.00  0.00     0.060 A 
ATOM     28  C   UNL A   1      40.550  23.030  26.464  1.00  0.00     0.016 A 
ATOM     29  C   UNL A   1      41.971  22.242  28.268  1.00  0.00     0.016 A 
ATOM     30  C   UNL A   1      40.770  24.350  26.854  1.00  0.00     0.010 A 
ATOM     31  C   UNL A   1      42.193  23.572  28.656  1.00  0.00     0.010 A 
ATOM     32  C   UNL A   1      41.640  24.633  27.917  1.00  0.00    -0.014 A 
BRANCH  32  33
ATOM     33  C   UNL A   1      42.106  26.032  28.114  1.00  0.00     0.031 A 
ATOM     34  C   UNL A   1      43.441  26.445  27.550  1.00  0.00     0.074 A 
ATOM     35  C   UNL A   1      41.331  26.947  28.723  1.00  0.00     0.049 A 
ATOM     36  N   UNL A   1      44.033  27.614  27.580  1.00  0.00    -0.248 NA
ATOM     37  C   UNL A   1      44.211  25.402  26.853  1.00  0.00     0.031 C 
ATOM     38  C   UNL A   1      40.006  26.694  29.280  1.00  0.00     0.029 A 
ATOM     39  N   UNL A   1      41.555  28.280  28.969  1.00  0.00    -0.354 N 
ATOM     40  C   UNL A   1      45.237  27.447  26.908  1.00  0.00     0.074 A 
ATOM     41  C   UNL A   1      45.310  26.058  26.508  1.00  0.00     0.031 C 
ATOM     42  C   UNL A   1      39.532  27.836  29.809  1.00  0.00     0.029 A 
ATOM     43  C   UNL A   1      40.530  28.893  29.645  1.00  0.00     0.049 A 
ATOM     44  H   UNL A   1      42.372  28.751  28.688  1.00  0.00     0.167 HD
ATOM     45  C   UNL A   1      46.191  28.369  26.633  1.00  0.00     0.037 A 
ATOM     46  C   UNL A   1      40.416  30.160  30.092  1.00  0.00     0.037 A 
ATOM     47  C   UNL A   1      46.129  29.753  27.020  1.00  0.00     0.049 A 
ATOM     48  C   UNL A   1      41.518  31.152  29.828  1.00  0.00     0.074 A 
ATOM     49  C   UNL A   1      47.046  30.761  26.774  1.00  0.00     0.029 A 
ATOM     50  N   UNL A   1      45.090  30.325  27.736  1.00  0.00    -0.354 N 
ATOM     51  N   UNL A   1      42.643  30.987  29.176  1.00  0.00    -0.248 NA
ATOM     52  C   UNL A   1      41.330  32.510  30.360  1.00  0.00     0.031 C 
ATOM     53  C   UNL A   1      46.580  31.935  27.374  1.00  0.00     0.029 A 
ATOM     54  C   UNL A   1      45.354  31.667  27.960  1.00  0.00     0.049 A 
ATOM     55  H   UNL A   1      44.285  29.849  28.043  1.00  0.00     0.167 HD
ATOM     56  C   UNL A   1      43.284  32.219  29.202  1.00  0.00     0.074 A 
ATOM     57  C   UNL A   1      42.419  33.128  29.923  1.00  0.00     0.031 C 
ATOM     58  C   UNL A   1      44.484  32.564  28.674  1.00  0.00     0.037 A 
BRANCH  45  59
ATOM     59  C   UNL A   1      47.402  27.905  25.881  1.00  0.00     0.064 A 
ATOM     60  C   UNL A   1      48.572  27.513  26.548  1.00  0.00     0.173 A 
ATOM     61  C   UNL A   1      47.376  27.806  24.482  1.00  0.00     0.173 A 
ATOM     62  F   UNL A   1      48.648  27.602  27.884  1.00  0.00    -0.203 F 
ATOM     63  C   UNL A   1      49.680  27.057  25.839  1.00  0.00     0.198 A 
ATOM     64  C   UNL A   1      48.478  27.328  23.778  1.00  0.00     0.198 A 
ATOM     65  F   UNL A   1      46.279  28.164  23.799  1.00  0.00    -0.203 F 
ATOM     66  F   UNL A   1      50.800  26.720  26.494  1.00  0.00    -0.200 F 
ATOM     67  C   UNL A   1      49.630  26.958  24.457  1.00  0.00     0.200 A 
ATOM     68  F   UNL A   1      48.426  27.225  22.443  1.00  0.00    -0.200 F 
ATOM     69  F   UNL A   1      50.695  26.512  23.776  1.00  0.00    -0.200 F 
ENDBRANCH  45  59
BRANCH  46  70
ATOM     70  C   UNL A   1      39.206  30.565  30.850  1.00  0.00     0.064 A 
ATOM     71  C   UNL A   1      39.124  30.384  32.237  1.00  0.00     0.173 A 
ATOM     72  C   UNL A   1      38.099  31.125  30.196  1.00  0.00     0.173 A 
ATOM     73  F   UNL A   1      40.146  29.824  32.900  1.00  0.00    -0.203 F 
ATOM     74  C   UNL A   1      37.975  30.737  32.941  1.00  0.00     0.198 A 
ATOM     75  C   UNL A   1      36.959  31.499  30.904  1.00  0.00     0.198 A 
ATOM     76  F   UNL A   1      38.127  31.311  28.868  1.00  0.00    -0.203 F 
ATOM     77  F   UNL A   1      37.906  30.516  34.260  1.00  0.00    -0.200 F 
ATOM     78  C   UNL A   1      36.896  31.300  32.275  1.00  0.00     0.200 A 
ATOM     79  F   UNL A   1      35.921  32.047  30.257  1.00  0.00    -0.200 F 
ATOM     80  F   UNL A   1      35.791  31.640  32.953  1.00  0.00    -0.200 F 
ENDBRANCH  46  70
BRANCH  58  81
ATOM     81  C   UNL A   1      44.926  33.989  28.834  1.00  0.00     0.064 A 
ATOM     82  C   UNL A   1      45.730  34.390  29.910  1.00  0.00     0.173 A 
ATOM     83  C   UNL A   1      44.581  34.953  27.875  1.00  0.00     0.173 A 
ATOM     84  F   UNL A   1      46.075  33.508  30.860  1.00  0.00    -0.203 F 
ATOM     85  C   UNL A   1      46.157  35.711  30.031  1.00  0.00     0.198 A 
ATOM     86  C   UNL A   1      45.029  36.267  27.986  1.00  0.00     0.198 A 
ATOM     87  F   UNL A   1      43.821  34.617  26.822  1.00  0.00    -0.203 F 
ATOM     88  F   UNL A   1      46.896  36.080  31.087  1.00  0.00    -0.200 F 
ATOM     89  C   UNL A   1      45.813  36.645  29.066  1.00  0.00     0.200 A 
ATOM     90  F   UNL A   1      44.704  37.167  27.047  1.00  0.00    -0.200 F 
ATOM     91  F   UNL A   1      46.230  37.914  29.180  1.00  0.00    -0.200 F 
ENDBRANCH  58  81
ENDBRANCH  32  33
ENDBRANCH  25  27
ENDBRANCH  24  25
ENDBRANCH  23  24
ENDBRANCH  22  23
ENDBRANCH  21  22
ENDBRANCH   1  21
TORSDOF 19
ENDMDL
MODEL 3
REMARK VINA RESULT:     -10.0      1.616      2.791
REMARK SMILES CC[C@@H](C)[C@@H](NC(=O)[C@H](C)[NH3+])C(=O)OCCOCCOC(=O)c1ccc(-c2c3nc(c(-c4c(F)c(F)c(F)c(F)c4F)c4ccc([nH]4)c(-c4c(F)c(F)c(F)c(F)c4F)c4nc(c(-c5c(F)c(F)c(F)c(F)c5F)c5ccc2[nH]5)C=C4)C=C3)cc1
REMARK SMILES IDX 16 1 15 2 14 3 12 4 13 5 5 6 3 7 4 8 2 9 1 10 6 11 7 12 8 14
REMARK SMILES IDX 9 15 10 16 11 17 17 21 18 22 19 23 20 24 21 25 22 26 23 27
REMARK SMILES IDX 24 28 85 29 25 30 84 31 26 32 27 33 28 34 78 35 29 36 83 37
REMARK SMILES IDX 77 38 79 39 30 40 82 41 76 42 75 43 31 45 63 46 43 47 62 48
REMARK SMILES IDX 44 49 47 50 61 51 80 52 45 53 46 54 60 56 81 57 48 58 32 59
REMARK SMILES IDX 33 60 41 61 34 62 35 63 39 64 42 65 36 66 37 67 40 68 38 69
REMARK SMILES IDX 64 70 65 71 73 72 66 73 67 74 71 75 74 76 68 77 69 78 72 79
REMARK SMILES IDX 70 80 49 81 50 82 58 83 51 84 52 85 56 86 59 87 53 88 54 89
REMARK SMILES IDX 57 90 55 91
REMARK H PARENT 6 13 11 18 11 19 11 20 79 44 47 55
REMARK Flexibility Score: inf
ROOT
ATOM      1  C   UNL A   1      32.145  29.990  26.296  1.00  0.00     0.202 C 
ENDROOT
BRANCH   1   2
ATOM      2  C   UNL A   1      31.847  28.565  25.833  1.00  0.00     0.261 C 
BRANCH   2   3
ATOM      3  O   UNL A   1      32.761  28.091  24.816  1.00  0.00    -0.462 OA
BRANCH   3   4
ATOM      4  C   UNL A   1      32.351  28.292  23.532  1.00  0.00     0.328 C 
ATOM      5  O   UNL A   1      32.546  29.329  22.903  1.00  0.00    -0.250 OA
BRANCH   4   6
ATOM      6  C   UNL A   1      31.428  27.183  22.990  1.00  0.00     0.195 C 
BRANCH   6   7
ATOM      7  C   UNL A   1      29.877  27.278  23.069  1.00  0.00     0.019 C 
ATOM      8  C   UNL A   1      29.385  28.724  23.146  1.00  0.00     0.010 C 
BRANCH   7   9
ATOM      9  C   UNL A   1      29.384  26.477  24.312  1.00  0.00     0.002 C 
ATOM     10  C   UNL A   1      30.285  25.331  24.754  1.00  0.00     0.004 C 
ENDBRANCH   7   9
ENDBRANCH   6   7
BRANCH   6  11
ATOM     11  N   UNL A   1      31.903  26.664  21.692  1.00  0.00    -0.337 N 
ATOM     12  C   UNL A   1      32.670  25.592  21.340  1.00  0.00     0.278 C 
ATOM     13  H   UNL A   1      31.605  27.202  20.924  1.00  0.00     0.164 HD
ATOM     14  O   UNL A   1      33.126  25.598  20.192  1.00  0.00    -0.268 OA
BRANCH  12  15
ATOM     15  C   UNL A   1      32.848  24.385  22.290  1.00  0.00     0.267 C 
ATOM     16  C   UNL A   1      34.084  24.509  23.163  1.00  0.00     0.086 C 
BRANCH  15  17
ATOM     17  N   UNL A   1      32.946  23.127  21.523  1.00  0.00    -0.348 N 
ATOM     18  H   UNL A   1      32.690  23.301  20.551  1.00  0.00     0.345 HD
ATOM     19  H   UNL A   1      32.310  22.436  21.922  1.00  0.00     0.345 HD
ATOM     20  H   UNL A   1      33.901  22.775  21.566  1.00  0.00     0.345 HD
ENDBRANCH  15  17
ENDBRANCH  12  15
ENDBRANCH   6  11
ENDBRANCH   4   6
ENDBRANCH   3   4
ENDBRANCH   2   3
ENDBRANCH   1   2
BRANCH   1  21
ATOM     21  O   UNL A   1      31.302  30.998  25.746  1.00  0.00    -0.374 OA
BRANCH  21  22
ATOM     22  C   UNL A   1      31.274  32.254  26.419  1.00  0.00     0.202 C 
BRANCH  22  23
ATOM     23  C   UNL A   1      32.502  32.550  27.291  1.00  0.00     0.261 C 
BRANCH  23  24
ATOM     24  O   UNL A   1      32.646  33.956  27.590  1.00  0.00    -0.460 OA
BRANCH  24  25
ATOM     25  C   UNL A   1      33.394  34.227  28.685  1.00  0.00     0.338 C 
ATOM     26  O   UNL A   1      33.124  35.007  29.591  1.00  0.00    -0.246 OA
BRANCH  25  27
ATOM     27  C   UNL A   1      34.586  33.362  28.760  1.00  0.00     0.060 A 
ATOM     28  C   UNL A   1      34.432  32.104  29.354  1.00  0.00     0.016 A 
ATOM     29  C   UNL A   1      35.859  33.843  28.442  1.00  0.00     0.016 A 
ATOM     30  C   UNL A   1      35.553  31.356  29.709  1.00  0.00     0.010 A 
ATOM     31  C   UNL A   1      36.986  33.089  28.803  1.00  0.00     0.010 A 
ATOM     32  C   UNL A   1      36.840  31.870  29.489  1.00  0.00    -0.014 A 
BRANCH  32  33
ATOM     33  C   UNL A   1      38.000  31.215  30.149  1.00  0.00     0.031 A 
ATOM     34  C   UNL A   1      38.305  31.544  31.589  1.00  0.00     0.074 A 
ATOM     35  C   UNL A   1      38.737  30.289  29.511  1.00  0.00     0.049 A 
ATOM     36  N   UNL A   1      39.248  31.076  32.369  1.00  0.00    -0.248 NA
ATOM     37  C   UNL A   1      37.426  32.530  32.237  1.00  0.00     0.031 C 
ATOM     38  C   UNL A   1      38.530  29.848  28.135  1.00  0.00     0.029 A 
ATOM     39  N   UNL A   1      39.810  29.550  29.947  1.00  0.00    -0.354 N 
ATOM     40  C   UNL A   1      39.073  31.705  33.595  1.00  0.00     0.074 A 
ATOM     41  C   UNL A   1      37.956  32.614  33.449  1.00  0.00     0.031 C 
ATOM     42  C   UNL A   1      39.451  28.916  27.834  1.00  0.00     0.029 A 
ATOM     43  C   UNL A   1      40.324  28.711  28.990  1.00  0.00     0.049 A 
ATOM     44  H   UNL A   1      40.176  29.617  30.858  1.00  0.00     0.167 HD
ATOM     45  C   UNL A   1      39.768  31.534  34.745  1.00  0.00     0.037 A 
ATOM     46  C   UNL A   1      41.384  27.881  29.038  1.00  0.00     0.037 A 
ATOM     47  C   UNL A   1      40.877  30.631  34.905  1.00  0.00     0.049 A 
ATOM     48  C   UNL A   1      42.182  27.752  30.310  1.00  0.00     0.074 A 
ATOM     49  C   UNL A   1      41.634  30.384  36.038  1.00  0.00     0.029 A 
ATOM     50  N   UNL A   1      41.389  29.826  33.900  1.00  0.00    -0.354 N 
ATOM     51  N   UNL A   1      41.995  28.339  31.467  1.00  0.00    -0.248 NA
ATOM     52  C   UNL A   1      43.334  26.840  30.281  1.00  0.00     0.031 C 
ATOM     53  C   UNL A   1      42.628  29.457  35.709  1.00  0.00     0.029 A 
ATOM     54  C   UNL A   1      42.465  29.097  34.382  1.00  0.00     0.049 A 
ATOM     55  H   UNL A   1      41.041  29.779  32.980  1.00  0.00     0.167 HD
ATOM     56  C   UNL A   1      42.991  27.854  32.306  1.00  0.00     0.074 A 
ATOM     57  C   UNL A   1      43.773  26.915  31.530  1.00  0.00     0.031 C 
ATOM     58  C   UNL A   1      43.233  28.161  33.603  1.00  0.00     0.037 A 
BRANCH  45  59
ATOM     59  C   UNL A   1      39.356  32.354  35.929  1.00  0.00     0.064 A 
ATOM     60  C   UNL A   1      38.427  31.873  36.865  1.00  0.00     0.173 A 
ATOM     61  C   UNL A   1      39.929  33.614  36.157  1.00  0.00     0.173 A 
ATOM     62  F   UNL A   1      37.844  30.679  36.682  1.00  0.00    -0.203 F 
ATOM     63  C   UNL A   1      38.073  32.633  37.976  1.00  0.00     0.198 A 
ATOM     64  C   UNL A   1      39.590  34.361  37.282  1.00  0.00     0.198 A 
ATOM     65  F   UNL A   1      40.825  34.115  35.294  1.00  0.00    -0.203 F 
ATOM     66  F   UNL A   1      37.159  32.169  38.839  1.00  0.00    -0.200 F 
ATOM     67  C   UNL A   1      38.659  33.873  38.187  1.00  0.00     0.200 A 
ATOM     68  F   UNL A   1      40.162  35.555  37.489  1.00  0.00    -0.200 F 
ATOM     69  F   UNL A   1      38.323  34.600  39.262  1.00  0.00    -0.200 F 
ENDBRANCH  45  59
BRANCH  46  70
ATOM     70  C   UNL A   1      41.765  27.105  27.831  1.00  0.00     0.064 A 
ATOM     71  C   UNL A   1      41.257  25.818  27.606  1.00  0.00     0.173 A 
ATOM     72  C   UNL A   1      42.663  27.628  26.890  1.00  0.00     0.173 A 
ATOM     73  F   UNL A   1      40.419  25.265  28.494  1.00  0.00    -0.203 F 
ATOM     74  C   UNL A   1      41.640  25.080  26.488  1.00  0.00     0.198 A 
ATOM     75  C   UNL A   1      43.028  26.899  25.761  1.00  0.00     0.198 A 
ATOM     76  F   UNL A   1      43.182  28.852  27.067  1.00  0.00    -0.203 F 
ATOM     77  F   UNL A   1      41.171  23.837  26.316  1.00  0.00    -0.200 F 
ATOM     78  C   UNL A   1      42.520  25.623  25.564  1.00  0.00     0.200 A 
ATOM     79  F   UNL A   1      43.875  27.429  24.868  1.00  0.00    -0.200 F 
ATOM     80  F   UNL A   1      42.889  24.913  24.489  1.00  0.00    -0.200 F 
ENDBRANCH  46  70
BRANCH  58  81
ATOM     81  C   UNL A   1      44.376  27.462  34.279  1.00  0.00     0.064 A 
ATOM     82  C   UNL A   1      44.204  26.226  34.920  1.00  0.00     0.173 A 
ATOM     83  C   UNL A   1      45.666  28.010  34.244  1.00  0.00     0.173 A 
ATOM     84  F   UNL A   1      42.986  25.668  34.992  1.00  0.00    -0.203 F 
ATOM     85  C   UNL A   1      45.280  25.575  35.518  1.00  0.00     0.198 A 
ATOM     86  C   UNL A   1      46.744  27.345  34.822  1.00  0.00     0.198 A 
ATOM     87  F   UNL A   1      45.884  29.186  33.636  1.00  0.00    -0.203 F 
ATOM     88  F   UNL A   1      45.086  24.412  36.157  1.00  0.00    -0.200 F 
ATOM     89  C   UNL A   1      46.549  26.131  35.463  1.00  0.00     0.200 A 
ATOM     90  F   UNL A   1      47.972  27.879  34.759  1.00  0.00    -0.200 F 
ATOM     91  F   UNL A   1      47.584  25.499  36.034  1.00  0.00    -0.200 F 
ENDBRANCH  58  81
ENDBRANCH  32  33
ENDBRANCH  25  27
ENDBRANCH  24  25
ENDBRANCH  23  24
ENDBRANCH  22  23
ENDBRANCH  21  22
ENDBRANCH   1  21
TORSDOF 19
ENDMDL
