MODEL 1
REMARK VINA RESULT:     -12.3      0.000      0.000
REMARK SMILES O=C(C[C@H](C1CCCCC1)N1Cc2ccccc2C1=O)OCCOCCOC(=O)c1ccc(-c2c3nc(c(-c4c(F)c(F)c(F)c(F)c4F)c4ccc([nH]4)c(-c4c(F)c(F)c(F)c(F)c4F)c4nc(c(-c5c(F)c(F)c(F)c(F)c5F)c5ccc2[nH]5)C=C4)C=C3)cc1
REMARK SMILES IDX 24 1 23 2 22 3 21 4 2 5 1 6 3 7 4 8 11 9 12 10 19 11 13 12
REMARK SMILES IDX 18 13 20 14 14 15 17 16 15 17 16 18 5 19 6 20 10 21 7 22
REMARK SMILES IDX 9 23 8 24 25 25 26 26 27 27 28 28 29 29 30 30 31 31 92 32
REMARK SMILES IDX 32 33 91 34 33 35 34 36 35 37 85 38 36 39 90 40 84 41 86 42
REMARK SMILES IDX 37 43 89 44 83 45 82 46 38 48 70 49 50 50 69 51 51 52 54 53
REMARK SMILES IDX 68 54 87 55 52 56 53 57 67 59 88 60 55 61 39 62 40 63 48 64
REMARK SMILES IDX 41 65 42 66 46 67 49 68 43 69 44 70 47 71 45 72 71 73 72 74
REMARK SMILES IDX 80 75 73 76 74 77 78 78 81 79 75 80 76 81 79 82 77 83 56 84
REMARK SMILES IDX 57 85 65 86 58 87 59 88 63 89 66 90 60 91 61 92 64 93 62 94
REMARK H PARENT 86 47 54 58
REMARK Flexibility Score: inf
ROOT
ATOM      1  O   UNL A   1      35.412  21.425  26.061  1.00  0.00    -0.374 OA
ENDROOT
BRANCH   1   2
ATOM      2  C   UNL A   1      34.044  21.302  26.441  1.00  0.00     0.202 C 
BRANCH   2   3
ATOM      3  C   UNL A   1      33.298  22.575  26.812  1.00  0.00     0.261 C 
BRANCH   3   4
ATOM      4  O   UNL A   1      32.384  23.031  25.805  1.00  0.00    -0.463 OA
BRANCH   4   5
ATOM      5  C   UNL A   1      31.300  23.804  26.006  1.00  0.00     0.307 C 
ATOM      6  O   UNL A   1      30.700  23.723  27.078  1.00  0.00    -0.252 OA
BRANCH   5   7
ATOM      7  C   UNL A   1      30.748  24.669  24.898  1.00  0.00     0.148 C 
BRANCH   7   8
ATOM      8  C   UNL A   1      31.496  25.976  24.617  1.00  0.00     0.100 C 
BRANCH   8   9
ATOM      9  N   UNL A   1      30.656  26.962  23.902  1.00  0.00    -0.330 N 
ATOM     10  C   UNL A   1      29.192  27.010  23.945  1.00  0.00     0.156 C 
ATOM     11  C   UNL A   1      31.167  27.932  23.045  1.00  0.00     0.254 C 
ATOM     12  C   UNL A   1      28.872  28.226  23.140  1.00  0.00    -0.016 A 
ATOM     13  C   UNL A   1      30.036  28.745  22.580  1.00  0.00     0.045 A 
ATOM     14  O   UNL A   1      32.326  28.104  22.710  1.00  0.00    -0.269 OA
ATOM     15  C   UNL A   1      27.650  28.836  22.906  1.00  0.00     0.006 A 
ATOM     16  C   UNL A   1      30.036  29.863  21.768  1.00  0.00     0.014 A 
ATOM     17  C   UNL A   1      27.627  29.982  22.104  1.00  0.00     0.000 A 
ATOM     18  C   UNL A   1      28.810  30.491  21.535  1.00  0.00     0.001 A 
ENDBRANCH   8   9
BRANCH   8  19
ATOM     19  C   UNL A   1      32.213  26.554  25.872  1.00  0.00     0.012 C 
ATOM     20  C   UNL A   1      33.568  27.208  25.551  1.00  0.00     0.006 C 
ATOM     21  C   UNL A   1      31.236  27.499  26.611  1.00  0.00     0.006 C 
ATOM     22  C   UNL A   1      34.125  28.054  26.689  1.00  0.00     0.000 C 
ATOM     23  C   UNL A   1      31.875  28.296  27.732  1.00  0.00     0.000 C 
ATOM     24  C   UNL A   1      33.095  29.042  27.215  1.00  0.00     0.000 C 
ENDBRANCH   8  19
ENDBRANCH   7   8
ENDBRANCH   5   7
ENDBRANCH   4   5
ENDBRANCH   3   4
ENDBRANCH   2   3
ENDBRANCH   1   2
BRANCH   1  25
ATOM     25  C   UNL A   1      35.853  20.539  25.022  1.00  0.00     0.202 C 
BRANCH  25  26
ATOM     26  C   UNL A   1      37.363  20.320  24.945  1.00  0.00     0.261 C 
BRANCH  26  27
ATOM     27  O   UNL A   1      38.067  21.465  25.442  1.00  0.00    -0.460 OA
BRANCH  27  28
ATOM     28  C   UNL A   1      39.226  21.180  26.081  1.00  0.00     0.338 C 
ATOM     29  O   UNL A   1      39.844  20.130  26.062  1.00  0.00    -0.246 OA
BRANCH  28  30
ATOM     30  C   UNL A   1      39.774  22.434  26.634  1.00  0.00     0.060 A 
ATOM     31  C   UNL A   1      39.220  23.637  26.173  1.00  0.00     0.016 A 
ATOM     32  C   UNL A   1      40.783  22.435  27.600  1.00  0.00     0.016 A 
ATOM     33  C   UNL A   1      39.730  24.848  26.619  1.00  0.00     0.010 A 
ATOM     34  C   UNL A   1      41.301  23.651  28.040  1.00  0.00     0.010 A 
ATOM     35  C   UNL A   1      40.811  24.855  27.509  1.00  0.00    -0.014 A 
BRANCH  35  36
ATOM     36  C   UNL A   1      41.557  26.113  27.710  1.00  0.00     0.031 A 
ATOM     37  C   UNL A   1      40.883  27.219  28.471  1.00  0.00     0.074 A 
ATOM     38  C   UNL A   1      42.822  26.233  27.275  1.00  0.00     0.049 A 
ATOM     39  N   UNL A   1      41.325  28.413  28.768  1.00  0.00    -0.248 NA
ATOM     40  C   UNL A   1      39.523  26.943  28.965  1.00  0.00     0.031 C 
ATOM     41  C   UNL A   1      43.571  25.201  26.559  1.00  0.00     0.029 A 
ATOM     42  N   UNL A   1      43.696  27.282  27.372  1.00  0.00    -0.354 N 
ATOM     43  C   UNL A   1      40.302  29.024  29.481  1.00  0.00     0.074 A 
ATOM     44  C   UNL A   1      39.199  28.092  29.536  1.00  0.00     0.031 C 
ATOM     45  C   UNL A   1      44.795  25.675  26.273  1.00  0.00     0.029 A 
ATOM     46  C   UNL A   1      44.900  27.049  26.756  1.00  0.00     0.049 A 
ATOM     47  H   UNL A   1      43.483  28.123  27.837  1.00  0.00     0.167 HD
ATOM     48  C   UNL A   1      40.295  30.250  30.052  1.00  0.00     0.037 A 
ATOM     49  C   UNL A   1      45.953  27.870  26.588  1.00  0.00     0.037 A 
ATOM     50  C   UNL A   1      41.400  31.168  29.985  1.00  0.00     0.049 A 
ATOM     51  C   UNL A   1      45.889  29.257  27.176  1.00  0.00     0.074 A 
ATOM     52  C   UNL A   1      41.504  32.437  30.524  1.00  0.00     0.029 A 
ATOM     53  N   UNL A   1      42.596  30.911  29.329  1.00  0.00    -0.354 N 
ATOM     54  N   UNL A   1      44.928  29.823  27.868  1.00  0.00    -0.248 NA
ATOM     55  C   UNL A   1      47.062  30.114  26.970  1.00  0.00     0.031 C 
ATOM     56  C   UNL A   1      42.743  32.968  30.151  1.00  0.00     0.029 A 
ATOM     57  C   UNL A   1      43.436  32.006  29.433  1.00  0.00     0.049 A 
ATOM     58  H   UNL A   1      42.814  30.074  28.860  1.00  0.00     0.167 HD
ATOM     59  C   UNL A   1      45.390  31.090  28.200  1.00  0.00     0.074 A 
ATOM     60  C   UNL A   1      46.730  31.194  27.661  1.00  0.00     0.031 C 
ATOM     61  C   UNL A   1      44.767  32.081  28.884  1.00  0.00     0.037 A 
BRANCH  48  62
ATOM     62  C   UNL A   1      39.054  30.674  30.784  1.00  0.00     0.064 A 
ATOM     63  C   UNL A   1      37.975  31.274  30.118  1.00  0.00     0.173 A 
ATOM     64  C   UNL A   1      38.922  30.432  32.160  1.00  0.00     0.173 A 
ATOM     65  F   UNL A   1      38.057  31.546  28.807  1.00  0.00    -0.203 F 
ATOM     66  C   UNL A   1      36.815  31.629  30.805  1.00  0.00     0.198 A 
ATOM     67  C   UNL A   1      37.751  30.760  32.837  1.00  0.00     0.198 A 
ATOM     68  F   UNL A   1      39.926  29.863  32.845  1.00  0.00    -0.203 F 
ATOM     69  F   UNL A   1      35.813  32.237  30.156  1.00  0.00    -0.200 F 
ATOM     70  C   UNL A   1      36.700  31.361  32.161  1.00  0.00     0.200 A 
ATOM     71  F   UNL A   1      37.637  30.489  34.145  1.00  0.00    -0.200 F 
ATOM     72  F   UNL A   1      35.579  31.687  32.817  1.00  0.00    -0.200 F 
ENDBRANCH  48  62
BRANCH  49  73
ATOM     73  C   UNL A   1      47.142  27.419  25.816  1.00  0.00     0.064 A 
ATOM     74  C   UNL A   1      48.226  26.793  26.447  1.00  0.00     0.173 A 
ATOM     75  C   UNL A   1      47.236  27.642  24.434  1.00  0.00     0.173 A 
ATOM     76  F   UNL A   1      48.196  26.577  27.771  1.00  0.00    -0.203 F 
ATOM     77  C   UNL A   1      49.371  26.442  25.734  1.00  0.00     0.198 A 
ATOM     78  C   UNL A   1      48.364  27.257  23.715  1.00  0.00     0.198 A 
ATOM     79  F   UNL A   1      46.226  28.234  23.778  1.00  0.00    -0.203 F 
ATOM     80  F   UNL A   1      50.419  25.909  26.376  1.00  0.00    -0.200 F 
ATOM     81  C   UNL A   1      49.438  26.671  24.369  1.00  0.00     0.200 A 
ATOM     82  F   UNL A   1      48.418  27.466  22.393  1.00  0.00    -0.200 F 
ATOM     83  F   UNL A   1      50.541  26.338  23.684  1.00  0.00    -0.200 F 
ENDBRANCH  49  73
BRANCH  61  84
ATOM     84  C   UNL A   1      45.547  33.346  29.109  1.00  0.00     0.064 A 
ATOM     85  C   UNL A   1      46.361  33.520  30.238  1.00  0.00     0.173 A 
ATOM     86  C   UNL A   1      45.486  34.392  28.176  1.00  0.00     0.173 A 
ATOM     87  F   UNL A   1      46.446  32.552  31.165  1.00  0.00    -0.203 F 
ATOM     88  C   UNL A   1      47.044  34.714  30.450  1.00  0.00     0.198 A 
ATOM     89  C   UNL A   1      46.202  35.569  28.372  1.00  0.00     0.198 A 
ATOM     90  F   UNL A   1      44.733  34.274  27.072  1.00  0.00    -0.203 F 
ATOM     91  F   UNL A   1      47.755  34.884  31.573  1.00  0.00    -0.200 F 
ATOM     92  C   UNL A   1      46.969  35.734  29.516  1.00  0.00     0.200 A 
ATOM     93  F   UNL A   1      46.143  36.547  27.458  1.00  0.00    -0.200 F 
ATOM     94  F   UNL A   1      47.625  36.884  29.722  1.00  0.00    -0.200 F 
ENDBRANCH  61  84
ENDBRANCH  35  36
ENDBRANCH  28  30
ENDBRANCH  27  28
ENDBRANCH  26  27
ENDBRANCH  25  26
ENDBRANCH   1  25
TORSDOF 17
ENDMDL
MODEL 2
REMARK VINA RESULT:     -12.1      0.626      7.325
REMARK SMILES O=C(C[C@H](C1CCCCC1)N1Cc2ccccc2C1=O)OCCOCCOC(=O)c1ccc(-c2c3nc(c(-c4c(F)c(F)c(F)c(F)c4F)c4ccc([nH]4)c(-c4c(F)c(F)c(F)c(F)c4F)c4nc(c(-c5c(F)c(F)c(F)c(F)c5F)c5ccc2[nH]5)C=C4)C=C3)cc1
REMARK SMILES IDX 24 1 23 2 22 3 21 4 2 5 1 6 3 7 4 8 11 9 12 10 19 11 13 12
REMARK SMILES IDX 18 13 20 14 14 15 17 16 15 17 16 18 5 19 6 20 10 21 7 22
REMARK SMILES IDX 9 23 8 24 25 25 26 26 27 27 28 28 29 29 30 30 31 31 92 32
REMARK SMILES IDX 32 33 91 34 33 35 34 36 35 37 85 38 36 39 90 40 84 41 86 42
REMARK SMILES IDX 37 43 89 44 83 45 82 46 38 48 70 49 50 50 69 51 51 52 54 53
REMARK SMILES IDX 68 54 87 55 52 56 53 57 67 59 88 60 55 61 39 62 40 63 48 64
REMARK SMILES IDX 41 65 42 66 46 67 49 68 43 69 44 70 47 71 45 72 71 73 72 74
REMARK SMILES IDX 80 75 73 76 74 77 78 78 81 79 75 80 76 81 79 82 77 83 56 84
REMARK SMILES IDX 57 85 65 86 58 87 59 88 63 89 66 90 60 91 61 92 64 93 62 94
REMARK H PARENT 86 47 54 58
REMARK Flexibility Score: inf
ROOT
ATOM      1  O   UNL A   1      36.188  21.746  25.599  1.00  0.00    -0.374 OA
ENDROOT
BRANCH   1   2
ATOM      2  C   UNL A   1      34.801  22.005  25.797  1.00  0.00     0.202 C 
BRANCH   2   3
ATOM      3  C   UNL A   1      34.290  23.399  25.464  1.00  0.00     0.261 C 
BRANCH   3   4
ATOM      4  O   UNL A   1      33.090  23.409  24.677  1.00  0.00    -0.463 OA
BRANCH   4   5
ATOM      5  C   UNL A   1      31.846  23.662  25.128  1.00  0.00     0.307 C 
ATOM      6  O   UNL A   1      31.359  22.923  25.983  1.00  0.00    -0.252 OA
BRANCH   5   7
ATOM      7  C   UNL A   1      31.008  24.758  24.512  1.00  0.00     0.148 C 
BRANCH   7   8
ATOM      8  C   UNL A   1      31.679  26.127  24.364  1.00  0.00     0.100 C 
BRANCH   8   9
ATOM      9  N   UNL A   1      30.797  27.117  23.708  1.00  0.00    -0.330 N 
ATOM     10  C   UNL A   1      29.334  27.132  23.798  1.00  0.00     0.156 C 
ATOM     11  C   UNL A   1      31.260  28.126  22.869  1.00  0.00     0.254 C 
ATOM     12  C   UNL A   1      28.964  28.366  23.044  1.00  0.00    -0.016 A 
ATOM     13  C   UNL A   1      30.098  28.928  22.467  1.00  0.00     0.045 A 
ATOM     14  O   UNL A   1      32.404  28.333  22.504  1.00  0.00    -0.269 OA
ATOM     15  C   UNL A   1      27.723  28.957  22.868  1.00  0.00     0.006 A 
ATOM     16  C   UNL A   1      30.050  30.072  21.692  1.00  0.00     0.014 A 
ATOM     17  C   UNL A   1      27.651  30.128  22.106  1.00  0.00     0.000 A 
ATOM     18  C   UNL A   1      28.804  30.680  21.518  1.00  0.00     0.001 A 
ENDBRANCH   8   9
BRANCH   8  19
ATOM     19  C   UNL A   1      32.326  26.638  25.683  1.00  0.00     0.012 C 
ATOM     20  C   UNL A   1      33.650  27.391  25.460  1.00  0.00     0.006 C 
ATOM     21  C   UNL A   1      31.277  27.464  26.464  1.00  0.00     0.006 C 
ATOM     22  C   UNL A   1      34.125  28.170  26.680  1.00  0.00     0.000 C 
ATOM     23  C   UNL A   1      31.837  28.201  27.666  1.00  0.00     0.000 C 
ATOM     24  C   UNL A   1      33.026  29.053  27.250  1.00  0.00     0.000 C 
ENDBRANCH   8  19
ENDBRANCH   7   8
ENDBRANCH   5   7
ENDBRANCH   4   5
ENDBRANCH   3   4
ENDBRANCH   2   3
ENDBRANCH   1   2
BRANCH   1  25
ATOM     25  C   UNL A   1      36.506  20.480  25.001  1.00  0.00     0.202 C 
BRANCH  25  26
ATOM     26  C   UNL A   1      37.978  20.075  25.071  1.00  0.00     0.261 C 
BRANCH  26  27
ATOM     27  O   UNL A   1      38.804  21.211  25.354  1.00  0.00    -0.460 OA
BRANCH  27  28
ATOM     28  C   UNL A   1      39.758  20.994  26.289  1.00  0.00     0.338 C 
ATOM     29  O   UNL A   1      40.374  19.963  26.495  1.00  0.00    -0.246 OA
BRANCH  28  30
ATOM     30  C   UNL A   1      40.126  22.292  26.889  1.00  0.00     0.060 A 
ATOM     31  C   UNL A   1      39.405  23.420  26.475  1.00  0.00     0.016 A 
ATOM     32  C   UNL A   1      41.131  22.400  27.853  1.00  0.00     0.016 A 
ATOM     33  C   UNL A   1      39.740  24.674  26.966  1.00  0.00     0.010 A 
ATOM     34  C   UNL A   1      41.475  23.660  28.339  1.00  0.00     0.010 A 
ATOM     35  C   UNL A   1      40.815  24.801  27.854  1.00  0.00    -0.014 A 
BRANCH  35  36
ATOM     36  C   UNL A   1      41.376  26.144  28.102  1.00  0.00     0.031 A 
ATOM     37  C   UNL A   1      42.760  26.434  27.594  1.00  0.00     0.074 A 
ATOM     38  C   UNL A   1      40.642  27.089  28.711  1.00  0.00     0.049 A 
ATOM     39  N   UNL A   1      43.471  27.527  27.695  1.00  0.00    -0.248 NA
ATOM     40  C   UNL A   1      43.439  25.342  26.875  1.00  0.00     0.031 C 
ATOM     41  C   UNL A   1      39.278  26.910  29.205  1.00  0.00     0.029 A 
ATOM     42  N   UNL A   1      40.948  28.388  29.018  1.00  0.00    -0.354 N 
ATOM     43  C   UNL A   1      44.671  27.254  27.053  1.00  0.00     0.074 A 
ATOM     44  C   UNL A   1      44.617  25.882  26.604  1.00  0.00     0.031 C 
ATOM     45  C   UNL A   1      38.866  28.060  29.765  1.00  0.00     0.029 A 
ATOM     46  C   UNL A   1      39.948  29.039  29.695  1.00  0.00     0.049 A 
ATOM     47  H   UNL A   1      41.803  28.813  28.778  1.00  0.00     0.167 HD
ATOM     48  C   UNL A   1      45.717  28.085  26.844  1.00  0.00     0.037 A 
ATOM     49  C   UNL A   1      39.928  30.280  30.214  1.00  0.00     0.037 A 
ATOM     50  C   UNL A   1      45.757  29.449  27.301  1.00  0.00     0.049 A 
ATOM     51  C   UNL A   1      41.138  31.161  30.026  1.00  0.00     0.074 A 
ATOM     52  C   UNL A   1      46.765  30.383  27.149  1.00  0.00     0.029 A 
ATOM     53  N   UNL A   1      44.737  30.070  28.008  1.00  0.00    -0.354 N 
ATOM     54  N   UNL A   1      42.262  30.906  29.400  1.00  0.00    -0.248 NA
ATOM     55  C   UNL A   1      41.069  32.506  30.607  1.00  0.00     0.031 C 
ATOM     56  C   UNL A   1      46.377  31.553  27.808  1.00  0.00     0.029 A 
ATOM     57  C   UNL A   1      45.100  31.370  28.317  1.00  0.00     0.049 A 
ATOM     58  H   UNL A   1      43.882  29.649  28.253  1.00  0.00     0.167 HD
ATOM     59  C   UNL A   1      43.022  32.065  29.489  1.00  0.00     0.074 A 
ATOM     60  C   UNL A   1      42.215  33.033  30.203  1.00  0.00     0.031 C 
ATOM     61  C   UNL A   1      44.275  32.311  29.030  1.00  0.00     0.037 A 
BRANCH  48  62
ATOM     62  C   UNL A   1      46.906  27.542  26.104  1.00  0.00     0.064 A 
ATOM     63  C   UNL A   1      47.022  27.657  24.711  1.00  0.00     0.173 A 
ATOM     64  C   UNL A   1      47.965  26.943  26.803  1.00  0.00     0.173 A 
ATOM     65  F   UNL A   1      46.029  28.203  23.993  1.00  0.00    -0.203 F 
ATOM     66  C   UNL A   1      48.148  27.180  24.043  1.00  0.00     0.198 A 
ATOM     67  C   UNL A   1      49.101  26.495  26.136  1.00  0.00     0.198 A 
ATOM     68  F   UNL A   1      47.904  26.805  28.136  1.00  0.00    -0.203 F 
ATOM     69  F   UNL A   1      48.219  27.265  22.707  1.00  0.00    -0.200 F 
ATOM     70  C   UNL A   1      49.191  26.610  24.757  1.00  0.00     0.200 A 
ATOM     71  F   UNL A   1      50.114  25.955  26.829  1.00  0.00    -0.200 F 
ATOM     72  F   UNL A   1      50.280  26.167  24.115  1.00  0.00    -0.200 F 
ENDBRANCH  48  62
BRANCH  49  73
ATOM     73  C   UNL A   1      38.744  30.757  30.978  1.00  0.00     0.064 A 
ATOM     74  C   UNL A   1      37.663  31.376  30.334  1.00  0.00     0.173 A 
ATOM     75  C   UNL A   1      38.688  30.640  32.375  1.00  0.00     0.173 A 
ATOM     76  F   UNL A   1      37.677  31.532  29.002  1.00  0.00    -0.203 F 
ATOM     77  C   UNL A   1      36.591  31.891  31.061  1.00  0.00     0.198 A 
ATOM     78  C   UNL A   1      37.599  31.122  33.097  1.00  0.00     0.198 A 
ATOM     79  F   UNL A   1      39.694  30.055  33.042  1.00  0.00    -0.203 F 
ATOM     80  F   UNL A   1      35.605  32.538  30.426  1.00  0.00    -0.200 F 
ATOM     81  C   UNL A   1      36.558  31.761  32.440  1.00  0.00     0.200 A 
ATOM     82  F   UNL A   1      37.565  30.980  34.429  1.00  0.00    -0.200 F 
ATOM     83  F   UNL A   1      35.529  32.260  33.139  1.00  0.00    -0.200 F 
ENDBRANCH  49  73
BRANCH  61  84
ATOM     84  C   UNL A   1      44.825  33.690  29.262  1.00  0.00     0.064 A 
ATOM     85  C   UNL A   1      44.608  34.734  28.350  1.00  0.00     0.173 A 
ATOM     86  C   UNL A   1      45.569  33.972  30.417  1.00  0.00     0.173 A 
ATOM     87  F   UNL A   1      43.911  34.514  27.224  1.00  0.00    -0.203 F 
ATOM     88  C   UNL A   1      45.160  35.994  28.562  1.00  0.00     0.198 A 
ATOM     89  C   UNL A   1      46.085  35.244  30.645  1.00  0.00     0.198 A 
ATOM     90  F   UNL A   1      45.794  33.014  31.329  1.00  0.00    -0.203 F 
ATOM     91  F   UNL A   1      45.003  36.954  27.639  1.00  0.00    -0.200 F 
ATOM     92  C   UNL A   1      45.892  36.250  29.710  1.00  0.00     0.200 A 
ATOM     93  F   UNL A   1      46.777  35.494  31.765  1.00  0.00    -0.200 F 
ATOM     94  F   UNL A   1      46.425  37.463  29.911  1.00  0.00    -0.200 F 
ENDBRANCH  61  84
ENDBRANCH  35  36
ENDBRANCH  28  30
ENDBRANCH  27  28
ENDBRANCH  26  27
ENDBRANCH  25  26
ENDBRANCH   1  25
TORSDOF 17
ENDMDL
MODEL 3
REMARK VINA RESULT:     -12.1      4.244      7.753
REMARK SMILES O=C(C[C@H](C1CCCCC1)N1Cc2ccccc2C1=O)OCCOCCOC(=O)c1ccc(-c2c3nc(c(-c4c(F)c(F)c(F)c(F)c4F)c4ccc([nH]4)c(-c4c(F)c(F)c(F)c(F)c4F)c4nc(c(-c5c(F)c(F)c(F)c(F)c5F)c5ccc2[nH]5)C=C4)C=C3)cc1
REMARK SMILES IDX 24 1 23 2 22 3 21 4 2 5 1 6 3 7 4 8 11 9 12 10 19 11 13 12
REMARK SMILES IDX 18 13 20 14 14 15 17 16 15 17 16 18 5 19 6 20 10 21 7 22
REMARK SMILES IDX 9 23 8 24 25 25 26 26 27 27 28 28 29 29 30 30 31 31 92 32
REMARK SMILES IDX 32 33 91 34 33 35 34 36 35 37 85 38 36 39 90 40 84 41 86 42
REMARK SMILES IDX 37 43 89 44 83 45 82 46 38 48 70 49 50 50 69 51 51 52 54 53
REMARK SMILES IDX 68 54 87 55 52 56 53 57 67 59 88 60 55 61 39 62 40 63 48 64
REMARK SMILES IDX 41 65 42 66 46 67 49 68 43 69 44 70 47 71 45 72 71 73 72 74
REMARK SMILES IDX 80 75 73 76 74 77 78 78 81 79 75 80 76 81 79 82 77 83 56 84
REMARK SMILES IDX 57 85 65 86 58 87 59 88 63 89 66 90 60 91 61 92 64 93 62 94
REMARK H PARENT 86 47 54 58
REMARK Flexibility Score: inf
ROOT
ATOM      1  O   UNL A   1      31.873  29.045  26.352  1.00  0.00    -0.374 OA
ENDROOT
BRANCH   1   2
ATOM      2  C   UNL A   1      31.408  27.841  25.750  1.00  0.00     0.202 C 
BRANCH   2   3
ATOM      3  C   UNL A   1      31.910  26.525  26.326  1.00  0.00     0.261 C 
BRANCH   3   4
ATOM      4  O   UNL A   1      31.037  25.411  26.088  1.00  0.00    -0.463 OA
BRANCH   4   5
ATOM      5  C   UNL A   1      31.260  24.134  26.451  1.00  0.00     0.307 C 
ATOM      6  O   UNL A   1      31.536  23.886  27.625  1.00  0.00    -0.252 OA
BRANCH   5   7
ATOM      7  C   UNL A   1      31.295  23.031  25.420  1.00  0.00     0.148 C 
BRANCH   7   8
ATOM      8  C   UNL A   1      32.637  22.794  24.721  1.00  0.00     0.100 C 
BRANCH   8   9
ATOM      9  N   UNL A   1      32.874  21.363  24.428  1.00  0.00    -0.330 N 
ATOM     10  C   UNL A   1      32.057  20.541  23.532  1.00  0.00     0.156 C 
ATOM     11  C   UNL A   1      33.879  20.610  25.028  1.00  0.00     0.254 C 
ATOM     12  C   UNL A   1      32.777  19.232  23.527  1.00  0.00    -0.016 A 
ATOM     13  C   UNL A   1      33.827  19.266  24.439  1.00  0.00     0.045 A 
ATOM     14  O   UNL A   1      34.667  20.958  25.889  1.00  0.00    -0.269 OA
ATOM     15  C   UNL A   1      32.529  18.089  22.785  1.00  0.00     0.006 A 
ATOM     16  C   UNL A   1      34.655  18.181  24.660  1.00  0.00     0.014 A 
ATOM     17  C   UNL A   1      33.367  16.985  22.975  1.00  0.00     0.000 A 
ATOM     18  C   UNL A   1      34.420  17.027  23.908  1.00  0.00     0.001 A 
ENDBRANCH   8   9
BRANCH   8  19
ATOM     19  C   UNL A   1      32.867  23.732  23.500  1.00  0.00     0.012 C 
ATOM     20  C   UNL A   1      31.562  24.297  22.912  1.00  0.00     0.006 C 
ATOM     21  C   UNL A   1      33.883  24.828  23.900  1.00  0.00     0.006 C 
ATOM     22  C   UNL A   1      31.777  25.453  21.943  1.00  0.00     0.000 C 
ATOM     23  C   UNL A   1      34.037  25.934  22.874  1.00  0.00     0.000 C 
ATOM     24  C   UNL A   1      32.679  26.525  22.534  1.00  0.00     0.000 C 
ENDBRANCH   8  19
ENDBRANCH   7   8
ENDBRANCH   5   7
ENDBRANCH   4   5
ENDBRANCH   3   4
ENDBRANCH   2   3
ENDBRANCH   1   2
BRANCH   1  25
ATOM     25  C   UNL A   1      31.428  30.262  25.737  1.00  0.00     0.202 C 
BRANCH  25  26
ATOM     26  C   UNL A   1      31.770  31.543  26.496  1.00  0.00     0.261 C 
BRANCH  26  27
ATOM     27  O   UNL A   1      32.788  31.297  27.474  1.00  0.00    -0.460 OA
BRANCH  27  28
ATOM     28  C   UNL A   1      33.623  32.340  27.692  1.00  0.00     0.338 C 
ATOM     29  O   UNL A   1      33.334  33.522  27.747  1.00  0.00    -0.246 OA
BRANCH  28  30
ATOM     30  C   UNL A   1      34.938  31.807  28.100  1.00  0.00     0.060 A 
ATOM     31  C   UNL A   1      35.042  30.421  28.283  1.00  0.00     0.016 A 
ATOM     32  C   UNL A   1      36.049  32.635  28.271  1.00  0.00     0.016 A 
ATOM     33  C   UNL A   1      36.239  29.868  28.716  1.00  0.00     0.010 A 
ATOM     34  C   UNL A   1      37.248  32.083  28.714  1.00  0.00     0.010 A 
ATOM     35  C   UNL A   1      37.326  30.707  28.988  1.00  0.00    -0.014 A 
BRANCH  35  36
ATOM     36  C   UNL A   1      38.464  30.168  29.759  1.00  0.00     0.031 A 
ATOM     37  C   UNL A   1      38.636  30.629  31.179  1.00  0.00     0.074 A 
ATOM     38  C   UNL A   1      39.280  29.248  29.219  1.00  0.00     0.049 A 
ATOM     39  N   UNL A   1      39.556  30.310  32.051  1.00  0.00    -0.248 NA
ATOM     40  C   UNL A   1      37.634  31.583  31.686  1.00  0.00     0.031 C 
ATOM     41  C   UNL A   1      39.169  28.714  27.862  1.00  0.00     0.029 A 
ATOM     42  N   UNL A   1      40.365  28.605  29.750  1.00  0.00    -0.354 N 
ATOM     43  C   UNL A   1      39.242  31.019  33.203  1.00  0.00     0.074 A 
ATOM     44  C   UNL A   1      38.076  31.820  32.910  1.00  0.00     0.031 C 
ATOM     45  C   UNL A   1      40.158  27.826  27.664  1.00  0.00     0.029 A 
ATOM     46  C   UNL A   1      40.985  27.758  28.866  1.00  0.00     0.049 A 
ATOM     47  H   UNL A   1      40.673  28.738  30.676  1.00  0.00     0.167 HD
ATOM     48  C   UNL A   1      39.866  30.987  34.402  1.00  0.00     0.037 A 
ATOM     49  C   UNL A   1      42.107  27.030  29.016  1.00  0.00     0.037 A 
ATOM     50  C   UNL A   1      41.029  30.187  34.676  1.00  0.00     0.049 A 
ATOM     51  C   UNL A   1      42.821  27.068  30.344  1.00  0.00     0.074 A 
ATOM     52  C   UNL A   1      41.747  30.077  35.852  1.00  0.00     0.029 A 
ATOM     53  N   UNL A   1      41.649  29.358  33.749  1.00  0.00    -0.354 N 
ATOM     54  N   UNL A   1      42.509  27.724  31.437  1.00  0.00    -0.248 NA
ATOM     55  C   UNL A   1      44.038  26.257  30.461  1.00  0.00     0.031 C 
ATOM     56  C   UNL A   1      42.830  29.223  35.624  1.00  0.00     0.029 A 
ATOM     57  C   UNL A   1      42.752  28.750  34.323  1.00  0.00     0.049 A 
ATOM     58  H   UNL A   1      41.347  29.224  32.822  1.00  0.00     0.167 HD
ATOM     59  C   UNL A   1      43.473  27.384  32.377  1.00  0.00     0.074 A 
ATOM     60  C   UNL A   1      44.362  26.439  31.732  1.00  0.00     0.031 C 
ATOM     61  C   UNL A   1      43.619  27.813  33.655  1.00  0.00     0.037 A 
BRANCH  48  62
ATOM     62  C   UNL A   1      39.315  31.851  35.500  1.00  0.00     0.064 A 
ATOM     63  C   UNL A   1      38.427  31.343  36.460  1.00  0.00     0.173 A 
ATOM     64  C   UNL A   1      39.719  33.189  35.624  1.00  0.00     0.173 A 
ATOM     65  F   UNL A   1      37.993  30.077  36.377  1.00  0.00    -0.203 F 
ATOM     66  C   UNL A   1      37.953  32.147  37.495  1.00  0.00     0.198 A 
ATOM     67  C   UNL A   1      39.267  33.980  36.676  1.00  0.00     0.198 A 
ATOM     68  F   UNL A   1      40.565  33.725  34.730  1.00  0.00    -0.203 F 
ATOM     69  F   UNL A   1      37.074  31.652  38.378  1.00  0.00    -0.200 F 
ATOM     70  C   UNL A   1      38.382  33.461  37.608  1.00  0.00     0.200 A 
ATOM     71  F   UNL A   1      39.692  35.247  36.789  1.00  0.00    -0.200 F 
ATOM     72  F   UNL A   1      37.938  34.228  38.613  1.00  0.00    -0.200 F 
ENDBRANCH  48  62
BRANCH  49  73
ATOM     73  C   UNL A   1      42.637  26.225  27.884  1.00  0.00     0.064 A 
ATOM     74  C   UNL A   1      43.555  26.766  26.972  1.00  0.00     0.173 A 
ATOM     75  C   UNL A   1      42.205  24.908  27.665  1.00  0.00     0.173 A 
ATOM     76  F   UNL A   1      43.983  28.028  27.124  1.00  0.00    -0.203 F 
ATOM     77  C   UNL A   1      43.991  26.035  25.869  1.00  0.00     0.198 A 
ATOM     78  C   UNL A   1      42.670  24.165  26.583  1.00  0.00     0.198 A 
ATOM     79  F   UNL A   1      41.330  24.339  28.508  1.00  0.00    -0.203 F 
ATOM     80  F   UNL A   1      44.814  26.602  24.977  1.00  0.00    -0.200 F 
ATOM     81  C   UNL A   1      43.551  24.735  25.676  1.00  0.00     0.200 A 
ATOM     82  F   UNL A   1      42.254  22.904  26.410  1.00  0.00    -0.200 F 
ATOM     83  F   UNL A   1      43.966  24.034  24.612  1.00  0.00    -0.200 F 
ENDBRANCH  49  73
BRANCH  61  84
ATOM     84  C   UNL A   1      44.763  27.236  34.439  1.00  0.00     0.064 A 
ATOM     85  C   UNL A   1      46.033  27.832  34.438  1.00  0.00     0.173 A 
ATOM     86  C   UNL A   1      44.583  26.077  35.209  1.00  0.00     0.173 A 
ATOM     87  F   UNL A   1      46.261  28.937  33.711  1.00  0.00    -0.203 F 
ATOM     88  C   UNL A   1      47.092  27.261  35.138  1.00  0.00     0.198 A 
ATOM     89  C   UNL A   1      45.634  25.531  35.939  1.00  0.00     0.198 A 
ATOM     90  F   UNL A   1      43.386  25.474  35.256  1.00  0.00    -0.203 F 
ATOM     91  F   UNL A   1      48.314  27.807  35.062  1.00  0.00    -0.200 F 
ATOM     92  C   UNL A   1      46.891  26.115  35.892  1.00  0.00     0.200 A 
ATOM     93  F   UNL A   1      45.433  24.434  36.682  1.00  0.00    -0.200 F 
ATOM     94  F   UNL A   1      47.912  25.565  36.563  1.00  0.00    -0.200 F 
ENDBRANCH  61  84
ENDBRANCH  35  36
ENDBRANCH  28  30
ENDBRANCH  27  28
ENDBRANCH  26  27
ENDBRANCH  25  26
ENDBRANCH   1  25
TORSDOF 17
ENDMDL
