MODEL 1
REMARK VINA RESULT:     -11.2      0.000      0.000
REMARK SMILES O=C(OCCOCCOC(=O)[C@@H](CCc1ccccc1)[C@@H]1CCS(=O)(=O)C1)c1ccc(-c2c3nc(c(-c4c(F)c(F)c(F)c(F)c4F)c4ccc([nH]4)c(-c4c(F)c(F)c(F)c(F)c4F)c4nc(c(-c5c(F)c(F)c(F)c(F)c5F)c5ccc2[nH]5)C=C4)C=C3)cc1
REMARK SMILES IDX 7 1 6 2 5 3 4 4 3 5 2 6 1 7 28 8 29 9 90 10 30 11 89 12
REMARK SMILES IDX 31 13 32 14 33 15 83 16 34 17 88 18 82 19 84 20 35 21 87 22
REMARK SMILES IDX 81 23 80 24 36 26 68 27 48 28 67 29 49 30 52 31 66 32 85 33
REMARK SMILES IDX 50 34 51 35 65 37 86 38 53 39 37 40 38 41 46 42 39 43 40 44
REMARK SMILES IDX 44 45 47 46 41 47 42 48 45 49 43 50 69 51 70 52 78 53 71 54
REMARK SMILES IDX 72 55 76 56 79 57 73 58 74 59 77 60 75 61 54 62 55 63 63 64
REMARK SMILES IDX 56 65 57 66 61 67 64 68 58 69 59 70 62 71 60 72 8 73 9 74
REMARK SMILES IDX 10 75 11 76 12 77 13 78 14 79 15 80 16 81 20 82 17 83 19 84
REMARK SMILES IDX 18 85 21 86 22 87 27 88 23 89 24 90 25 91 26 92
REMARK H PARENT 84 25 52 36
REMARK Flexibility Score: inf
ROOT
ATOM      1  C   UNL A   1      33.429  26.833  23.257  1.00  0.00     0.202 C 
ENDROOT
BRANCH   1   2
ATOM      2  O   UNL A   1      33.175  27.582  24.449  1.00  0.00    -0.374 OA
BRANCH   2   3
ATOM      3  C   UNL A   1      31.906  28.231  24.598  1.00  0.00     0.202 C 
BRANCH   3   4
ATOM      4  C   UNL A   1      31.814  29.537  25.413  1.00  0.00     0.261 C 
BRANCH   4   5
ATOM      5  O   UNL A   1      33.106  30.044  25.794  1.00  0.00    -0.460 OA
BRANCH   5   6
ATOM      6  C   UNL A   1      33.372  30.903  26.814  1.00  0.00     0.338 C 
ATOM      7  O   UNL A   1      32.655  31.884  26.986  1.00  0.00    -0.246 OA
BRANCH   6   8
ATOM      8  C   UNL A   1      34.565  30.731  27.692  1.00  0.00     0.060 A 
ATOM      9  C   UNL A   1      34.839  29.538  28.346  1.00  0.00     0.016 A 
ATOM     10  C   UNL A   1      35.514  31.755  27.799  1.00  0.00     0.016 A 
ATOM     11  C   UNL A   1      35.969  29.316  29.076  1.00  0.00     0.010 A 
ATOM     12  C   UNL A   1      36.699  31.545  28.518  1.00  0.00     0.010 A 
ATOM     13  C   UNL A   1      36.926  30.307  29.130  1.00  0.00    -0.014 A 
BRANCH  13  14
ATOM     14  C   UNL A   1      38.089  29.948  29.935  1.00  0.00     0.031 A 
ATOM     15  C   UNL A   1      39.162  29.157  29.275  1.00  0.00     0.074 A 
ATOM     16  C   UNL A   1      38.268  30.587  31.106  1.00  0.00     0.049 A 
ATOM     17  N   UNL A   1      40.264  28.690  29.783  1.00  0.00    -0.248 NA
ATOM     18  C   UNL A   1      38.989  28.881  27.835  1.00  0.00     0.031 C 
ATOM     19  C   UNL A   1      37.352  31.589  31.672  1.00  0.00     0.029 A 
ATOM     20  N   UNL A   1      39.298  30.543  32.001  1.00  0.00    -0.354 N 
ATOM     21  C   UNL A   1      40.884  28.009  28.748  1.00  0.00     0.074 A 
ATOM     22  C   UNL A   1      40.068  28.160  27.567  1.00  0.00     0.031 C 
ATOM     23  C   UNL A   1      37.869  32.063  32.816  1.00  0.00     0.029 A 
ATOM     24  C   UNL A   1      39.086  31.324  33.111  1.00  0.00     0.049 A 
ATOM     25  H   UNL A   1      40.111  30.005  31.864  1.00  0.00     0.167 HD
ATOM     26  C   UNL A   1      42.020  27.285  28.825  1.00  0.00     0.037 A 
ATOM     27  C   UNL A   1      39.774  31.358  34.266  1.00  0.00     0.037 A 
ATOM     28  C   UNL A   1      42.789  27.188  30.034  1.00  0.00     0.049 A 
ATOM     29  C   UNL A   1      40.960  30.436  34.367  1.00  0.00     0.074 A 
ATOM     30  C   UNL A   1      43.913  26.432  30.291  1.00  0.00     0.029 A 
ATOM     31  N   UNL A   1      42.494  27.890  31.199  1.00  0.00    -0.354 N 
ATOM     32  N   UNL A   1      41.494  29.675  33.439  1.00  0.00    -0.248 NA
ATOM     33  C   UNL A   1      41.616  30.343  35.674  1.00  0.00     0.031 C 
ATOM     34  C   UNL A   1      44.265  26.634  31.629  1.00  0.00     0.029 A 
ATOM     35  C   UNL A   1      43.395  27.559  32.191  1.00  0.00     0.049 A 
ATOM     36  H   UNL A   1      41.752  28.529  31.301  1.00  0.00     0.167 HD
ATOM     37  C   UNL A   1      42.550  29.015  34.044  1.00  0.00     0.074 A 
ATOM     38  C   UNL A   1      42.601  29.495  35.413  1.00  0.00     0.031 C 
ATOM     39  C   UNL A   1      43.394  28.085  33.534  1.00  0.00     0.037 A 
BRANCH  26  40
ATOM     40  C   UNL A   1      42.396  26.468  27.631  1.00  0.00     0.064 A 
ATOM     41  C   UNL A   1      41.830  25.214  27.364  1.00  0.00     0.173 A 
ATOM     42  C   UNL A   1      43.377  26.949  26.749  1.00  0.00     0.173 A 
ATOM     43  F   UNL A   1      40.922  24.692  28.201  1.00  0.00    -0.203 F 
ATOM     44  C   UNL A   1      42.236  24.469  26.259  1.00  0.00     0.198 A 
ATOM     45  C   UNL A   1      43.764  26.212  25.635  1.00  0.00     0.198 A 
ATOM     46  F   UNL A   1      43.969  28.132  26.977  1.00  0.00    -0.203 F 
ATOM     47  F   UNL A   1      41.716  23.253  26.044  1.00  0.00    -0.200 F 
ATOM     48  C   UNL A   1      43.196  24.971  25.392  1.00  0.00     0.200 A 
ATOM     49  F   UNL A   1      44.696  26.699  24.803  1.00  0.00    -0.200 F 
ATOM     50  F   UNL A   1      43.586  24.253  24.330  1.00  0.00    -0.200 F 
ENDBRANCH  26  40
BRANCH  27  51
ATOM     51  C   UNL A   1      39.292  32.156  35.426  1.00  0.00     0.064 A 
ATOM     52  C   UNL A   1      39.709  33.477  35.633  1.00  0.00     0.173 A 
ATOM     53  C   UNL A   1      38.443  31.590  36.395  1.00  0.00     0.173 A 
ATOM     54  F   UNL A   1      40.535  34.063  34.753  1.00  0.00    -0.203 F 
ATOM     55  C   UNL A   1      39.327  34.187  36.773  1.00  0.00     0.198 A 
ATOM     56  C   UNL A   1      38.031  32.312  37.513  1.00  0.00     0.198 A 
ATOM     57  F   UNL A   1      38.013  30.327  36.261  1.00  0.00    -0.203 F 
ATOM     58  F   UNL A   1      39.799  35.424  36.977  1.00  0.00    -0.200 F 
ATOM     59  C   UNL A   1      38.487  33.605  37.710  1.00  0.00     0.200 A 
ATOM     60  F   UNL A   1      37.205  31.748  38.406  1.00  0.00    -0.200 F 
ATOM     61  F   UNL A   1      38.130  34.283  38.808  1.00  0.00    -0.200 F 
ENDBRANCH  27  51
BRANCH  39  62
ATOM     62  C   UNL A   1      44.443  27.559  34.461  1.00  0.00     0.064 A 
ATOM     63  C   UNL A   1      45.669  28.217  34.622  1.00  0.00     0.173 A 
ATOM     64  C   UNL A   1      44.189  26.419  35.237  1.00  0.00     0.173 A 
ATOM     65  F   UNL A   1      45.958  29.299  33.885  1.00  0.00    -0.203 F 
ATOM     66  C   UNL A   1      46.617  27.738  35.518  1.00  0.00     0.198 A 
ATOM     67  C   UNL A   1      45.125  25.963  36.156  1.00  0.00     0.198 A 
ATOM     68  F   UNL A   1      43.023  25.765  35.118  1.00  0.00    -0.203 F 
ATOM     69  F   UNL A   1      47.803  28.352  35.627  1.00  0.00    -0.200 F 
ATOM     70  C   UNL A   1      46.339  26.619  36.292  1.00  0.00     0.200 A 
ATOM     71  F   UNL A   1      44.849  24.895  36.916  1.00  0.00    -0.200 F 
ATOM     72  F   UNL A   1      47.249  26.169  37.167  1.00  0.00    -0.200 F 
ENDBRANCH  39  62
ENDBRANCH  13  14
ENDBRANCH   6   8
ENDBRANCH   5   6
ENDBRANCH   4   5
ENDBRANCH   3   4
ENDBRANCH   2   3
ENDBRANCH   1   2
BRANCH   1  73
ATOM     73  C   UNL A   1      32.706  25.488  23.312  1.00  0.00     0.261 C 
BRANCH  73  74
ATOM     74  O   UNL A   1      33.643  24.512  23.789  1.00  0.00    -0.463 OA
BRANCH  74  75
ATOM     75  C   UNL A   1      33.701  23.380  23.063  1.00  0.00     0.309 C 
ATOM     76  O   UNL A   1      33.869  23.335  21.851  1.00  0.00    -0.252 OA
BRANCH  75  77
ATOM     77  C   UNL A   1      33.496  22.130  23.905  1.00  0.00     0.103 C 
BRANCH  77  78
ATOM     78  C   UNL A   1      32.244  21.207  23.718  1.00  0.00     0.020 C 
BRANCH  78  79
ATOM     79  C   UNL A   1      32.196  19.943  22.824  1.00  0.00     0.036 C 
BRANCH  79  80
ATOM     80  C   UNL A   1      32.626  18.668  23.495  1.00  0.00    -0.048 A 
ATOM     81  C   UNL A   1      32.379  18.478  24.860  1.00  0.00     0.004 A 
ATOM     82  C   UNL A   1      33.337  17.684  22.797  1.00  0.00     0.004 A 
ATOM     83  C   UNL A   1      32.955  17.399  25.535  1.00  0.00     0.000 A 
ATOM     84  C   UNL A   1      33.928  16.620  23.472  1.00  0.00     0.000 A 
ATOM     85  C   UNL A   1      33.760  16.493  24.847  1.00  0.00     0.000 A 
ENDBRANCH  79  80
ENDBRANCH  78  79
ENDBRANCH  77  78
BRANCH  77  86
ATOM     86  C   UNL A   1      34.891  21.495  24.134  1.00  0.00     0.019 C 
ATOM     87  C   UNL A   1      35.110  20.836  25.500  1.00  0.00     0.021 C 
ATOM     88  C   UNL A   1      36.070  22.446  23.890  1.00  0.00     0.141 C 
ATOM     89  C   UNL A   1      35.613  21.904  26.447  1.00  0.00     0.137 C 
ATOM     90  S   UNL A   1      36.675  22.956  25.490  1.00  0.00     0.150 S 
ATOM     91  O   UNL A   1      36.298  24.344  25.712  1.00  0.00    -0.229 OA
ATOM     92  O   UNL A   1      38.034  22.501  25.639  1.00  0.00    -0.229 OA
ENDBRANCH  77  86
ENDBRANCH  75  77
ENDBRANCH  74  75
ENDBRANCH  73  74
ENDBRANCH   1  73
TORSDOF 18
ENDMDL
MODEL 2
REMARK VINA RESULT:     -11.1      4.444      7.800
REMARK SMILES O=C(OCCOCCOC(=O)[C@@H](CCc1ccccc1)[C@@H]1CCS(=O)(=O)C1)c1ccc(-c2c3nc(c(-c4c(F)c(F)c(F)c(F)c4F)c4ccc([nH]4)c(-c4c(F)c(F)c(F)c(F)c4F)c4nc(c(-c5c(F)c(F)c(F)c(F)c5F)c5ccc2[nH]5)C=C4)C=C3)cc1
REMARK SMILES IDX 7 1 6 2 5 3 4 4 3 5 2 6 1 7 28 8 29 9 90 10 30 11 89 12
REMARK SMILES IDX 31 13 32 14 33 15 83 16 34 17 88 18 82 19 84 20 35 21 87 22
REMARK SMILES IDX 81 23 80 24 36 26 68 27 48 28 67 29 49 30 52 31 66 32 85 33
REMARK SMILES IDX 50 34 51 35 65 37 86 38 53 39 37 40 38 41 46 42 39 43 40 44
REMARK SMILES IDX 44 45 47 46 41 47 42 48 45 49 43 50 69 51 70 52 78 53 71 54
REMARK SMILES IDX 72 55 76 56 79 57 73 58 74 59 77 60 75 61 54 62 55 63 63 64
REMARK SMILES IDX 56 65 57 66 61 67 64 68 58 69 59 70 62 71 60 72 8 73 9 74
REMARK SMILES IDX 10 75 11 76 12 77 13 78 14 79 15 80 16 81 20 82 17 83 19 84
REMARK SMILES IDX 18 85 21 86 22 87 27 88 23 89 24 90 25 91 26 92
REMARK H PARENT 84 25 52 36
REMARK Flexibility Score: inf
ROOT
ATOM      1  C   UNL A   1      37.448  22.109  25.231  1.00  0.00     0.202 C 
ENDROOT
BRANCH   1   2
ATOM      2  O   UNL A   1      37.227  20.792  24.718  1.00  0.00    -0.374 OA
BRANCH   2   3
ATOM      3  C   UNL A   1      38.197  19.774  24.992  1.00  0.00     0.202 C 
BRANCH   3   4
ATOM      4  C   UNL A   1      39.384  20.088  25.925  1.00  0.00     0.261 C 
BRANCH   4   5
ATOM      5  O   UNL A   1      40.481  19.173  25.752  1.00  0.00    -0.460 OA
BRANCH   5   6
ATOM      6  C   UNL A   1      41.803  19.456  25.891  1.00  0.00     0.338 C 
ATOM      7  O   UNL A   1      42.636  18.569  25.731  1.00  0.00    -0.246 OA
BRANCH   6   8
ATOM      8  C   UNL A   1      42.275  20.807  26.312  1.00  0.00     0.060 A 
ATOM      9  C   UNL A   1      42.402  21.860  25.417  1.00  0.00     0.016 A 
ATOM     10  C   UNL A   1      42.506  21.082  27.665  1.00  0.00     0.016 A 
ATOM     11  C   UNL A   1      42.735  23.130  25.784  1.00  0.00     0.010 A 
ATOM     12  C   UNL A   1      42.822  22.385  28.075  1.00  0.00     0.010 A 
ATOM     13  C   UNL A   1      42.905  23.408  27.124  1.00  0.00    -0.014 A 
BRANCH  13  14
ATOM     14  C   UNL A   1      43.253  24.800  27.389  1.00  0.00     0.031 A 
ATOM     15  C   UNL A   1      44.587  25.273  26.933  1.00  0.00     0.074 A 
ATOM     16  C   UNL A   1      42.265  25.640  27.750  1.00  0.00     0.049 A 
ATOM     17  N   UNL A   1      45.136  26.442  27.083  1.00  0.00    -0.248 NA
ATOM     18  C   UNL A   1      45.406  24.308  26.174  1.00  0.00     0.031 C 
ATOM     19  C   UNL A   1      40.859  25.256  27.951  1.00  0.00     0.029 A 
ATOM     20  N   UNL A   1      42.267  26.990  27.951  1.00  0.00    -0.354 N 
ATOM     21  C   UNL A   1      46.388  26.336  26.499  1.00  0.00     0.074 A 
ATOM     22  C   UNL A   1      46.507  25.008  25.945  1.00  0.00     0.031 C 
ATOM     23  C   UNL A   1      40.141  26.351  28.243  1.00  0.00     0.029 A 
ATOM     24  C   UNL A   1      41.049  27.481  28.354  1.00  0.00     0.049 A 
ATOM     25  H   UNL A   1      43.062  27.555  27.821  1.00  0.00     0.167 HD
ATOM     26  C   UNL A   1      47.354  27.278  26.485  1.00  0.00     0.037 A 
ATOM     27  C   UNL A   1      40.745  28.698  28.837  1.00  0.00     0.037 A 
ATOM     28  C   UNL A   1      47.161  28.585  27.046  1.00  0.00     0.049 A 
ATOM     29  C   UNL A   1      41.878  29.683  28.934  1.00  0.00     0.074 A 
ATOM     30  C   UNL A   1      48.067  29.616  27.181  1.00  0.00     0.029 A 
ATOM     31  N   UNL A   1      45.951  29.033  27.569  1.00  0.00    -0.354 N 
ATOM     32  N   UNL A   1      43.115  29.562  28.506  1.00  0.00    -0.248 NA
ATOM     33  C   UNL A   1      41.596  30.953  29.609  1.00  0.00     0.031 C 
ATOM     34  C   UNL A   1      47.420  30.668  27.837  1.00  0.00     0.029 A 
ATOM     35  C   UNL A   1      46.095  30.316  28.060  1.00  0.00     0.049 A 
ATOM     36  H   UNL A   1      45.116  28.513  27.587  1.00  0.00     0.167 HD
ATOM     37  C   UNL A   1      43.759  30.737  28.856  1.00  0.00     0.074 A 
ATOM     38  C   UNL A   1      42.763  31.574  29.499  1.00  0.00     0.031 C 
ATOM     39  C   UNL A   1      45.055  31.097  28.682  1.00  0.00     0.037 A 
BRANCH  26  40
ATOM     40  C   UNL A   1      48.700  26.874  25.975  1.00  0.00     0.064 A 
ATOM     41  C   UNL A   1      49.097  27.074  24.646  1.00  0.00     0.173 A 
ATOM     42  C   UNL A   1      49.602  26.239  26.844  1.00  0.00     0.173 A 
ATOM     43  F   UNL A   1      48.254  27.634  23.767  1.00  0.00    -0.203 F 
ATOM     44  C   UNL A   1      50.349  26.648  24.204  1.00  0.00     0.198 A 
ATOM     45  C   UNL A   1      50.859  25.836  26.405  1.00  0.00     0.198 A 
ATOM     46  F   UNL A   1      49.258  26.001  28.119  1.00  0.00    -0.203 F 
ATOM     47  F   UNL A   1      50.693  26.808  22.919  1.00  0.00    -0.200 F 
ATOM     48  C   UNL A   1      51.230  26.038  25.085  1.00  0.00     0.200 A 
ATOM     49  F   UNL A   1      51.705  25.242  27.258  1.00  0.00    -0.200 F 
ATOM     50  F   UNL A   1      52.433  25.629  24.658  1.00  0.00    -0.200 F 
ENDBRANCH  26  40
BRANCH  27  51
ATOM     51  C   UNL A   1      39.391  28.995  29.381  1.00  0.00     0.064 A 
ATOM     52  C   UNL A   1      39.074  28.767  30.727  1.00  0.00     0.173 A 
ATOM     53  C   UNL A   1      38.358  29.461  28.548  1.00  0.00     0.173 A 
ATOM     54  F   UNL A   1      40.013  28.303  31.566  1.00  0.00    -0.203 F 
ATOM     55  C   UNL A   1      37.778  28.958  31.208  1.00  0.00     0.198 A 
ATOM     56  C   UNL A   1      37.074  29.689  29.037  1.00  0.00     0.198 A 
ATOM     57  F   UNL A   1      38.593  29.693  27.248  1.00  0.00    -0.203 F 
ATOM     58  F   UNL A   1      37.490  28.664  32.483  1.00  0.00    -0.200 F 
ATOM     59  C   UNL A   1      36.780  29.421  30.364  1.00  0.00     0.200 A 
ATOM     60  F   UNL A   1      36.119  30.153  28.218  1.00  0.00    -0.200 F 
ATOM     61  F   UNL A   1      35.534  29.595  30.824  1.00  0.00    -0.200 F 
ENDBRANCH  27  51
BRANCH  39  62
ATOM     62  C   UNL A   1      45.440  32.454  29.179  1.00  0.00     0.064 A 
ATOM     63  C   UNL A   1      45.299  33.592  28.373  1.00  0.00     0.173 A 
ATOM     64  C   UNL A   1      45.899  32.618  30.493  1.00  0.00     0.173 A 
ATOM     65  F   UNL A   1      44.882  33.474  27.104  1.00  0.00    -0.203 F 
ATOM     66  C   UNL A   1      45.623  34.851  28.863  1.00  0.00     0.198 A 
ATOM     67  C   UNL A   1      46.189  33.882  30.990  1.00  0.00     0.198 A 
ATOM     68  F   UNL A   1      46.040  31.555  31.299  1.00  0.00    -0.203 F 
ATOM     69  F   UNL A   1      45.526  35.923  28.066  1.00  0.00    -0.200 F 
ATOM     70  C   UNL A   1      46.057  34.996  30.174  1.00  0.00     0.200 A 
ATOM     71  F   UNL A   1      46.589  34.024  32.261  1.00  0.00    -0.200 F 
ATOM     72  F   UNL A   1      46.353  36.213  30.650  1.00  0.00    -0.200 F 
ENDBRANCH  39  62
ENDBRANCH  13  14
ENDBRANCH   6   8
ENDBRANCH   5   6
ENDBRANCH   4   5
ENDBRANCH   3   4
ENDBRANCH   2   3
ENDBRANCH   1   2
BRANCH   1  73
ATOM     73  C   UNL A   1      36.239  22.569  26.046  1.00  0.00     0.261 C 
BRANCH  73  74
ATOM     74  O   UNL A   1      35.231  21.554  25.936  1.00  0.00    -0.463 OA
BRANCH  74  75
ATOM     75  C   UNL A   1      34.009  21.921  26.363  1.00  0.00     0.309 C 
ATOM     76  O   UNL A   1      33.696  22.076  27.537  1.00  0.00    -0.252 OA
BRANCH  75  77
ATOM     77  C   UNL A   1      33.014  22.093  25.225  1.00  0.00     0.103 C 
BRANCH  77  78
ATOM     78  C   UNL A   1      32.106  20.914  24.738  1.00  0.00     0.020 C 
BRANCH  78  79
ATOM     79  C   UNL A   1      32.443  19.955  23.569  1.00  0.00     0.036 C 
BRANCH  79  80
ATOM     80  C   UNL A   1      32.808  18.554  23.975  1.00  0.00    -0.048 A 
ATOM     81  C   UNL A   1      32.554  18.115  25.280  1.00  0.00     0.004 A 
ATOM     82  C   UNL A   1      33.466  17.691  23.091  1.00  0.00     0.004 A 
ATOM     83  C   UNL A   1      33.075  16.899  25.726  1.00  0.00     0.000 A 
ATOM     84  C   UNL A   1      34.003  16.488  23.540  1.00  0.00     0.000 A 
ATOM     85  C   UNL A   1      33.832  16.104  24.866  1.00  0.00     0.000 A 
ENDBRANCH  79  80
ENDBRANCH  78  79
ENDBRANCH  77  78
BRANCH  77  86
ATOM     86  C   UNL A   1      32.422  23.520  25.344  1.00  0.00     0.019 C 
ATOM     87  C   UNL A   1      31.102  23.761  24.604  1.00  0.00     0.021 C 
ATOM     88  C   UNL A   1      33.385  24.644  24.940  1.00  0.00     0.141 C 
ATOM     89  C   UNL A   1      31.441  24.188  23.193  1.00  0.00     0.137 C 
ATOM     90  S   UNL A   1      32.895  25.199  23.315  1.00  0.00     0.150 S 
ATOM     91  O   UNL A   1      33.879  24.737  22.347  1.00  0.00    -0.229 OA
ATOM     92  O   UNL A   1      32.494  26.580  23.397  1.00  0.00    -0.229 OA
ENDBRANCH  77  86
ENDBRANCH  75  77
ENDBRANCH  74  75
ENDBRANCH  73  74
ENDBRANCH   1  73
TORSDOF 18
ENDMDL
MODEL 3
REMARK VINA RESULT:     -11.0      4.592      9.918
REMARK SMILES O=C(OCCOCCOC(=O)[C@@H](CCc1ccccc1)[C@@H]1CCS(=O)(=O)C1)c1ccc(-c2c3nc(c(-c4c(F)c(F)c(F)c(F)c4F)c4ccc([nH]4)c(-c4c(F)c(F)c(F)c(F)c4F)c4nc(c(-c5c(F)c(F)c(F)c(F)c5F)c5ccc2[nH]5)C=C4)C=C3)cc1
REMARK SMILES IDX 7 1 6 2 5 3 4 4 3 5 2 6 1 7 28 8 29 9 90 10 30 11 89 12
REMARK SMILES IDX 31 13 32 14 33 15 83 16 34 17 88 18 82 19 84 20 35 21 87 22
REMARK SMILES IDX 81 23 80 24 36 26 68 27 48 28 67 29 49 30 52 31 66 32 85 33
REMARK SMILES IDX 50 34 51 35 65 37 86 38 53 39 37 40 38 41 46 42 39 43 40 44
REMARK SMILES IDX 44 45 47 46 41 47 42 48 45 49 43 50 69 51 70 52 78 53 71 54
REMARK SMILES IDX 72 55 76 56 79 57 73 58 74 59 77 60 75 61 54 62 55 63 63 64
REMARK SMILES IDX 56 65 57 66 61 67 64 68 58 69 59 70 62 71 60 72 8 73 9 74
REMARK SMILES IDX 10 75 11 76 12 77 13 78 14 79 15 80 16 81 20 82 17 83 19 84
REMARK SMILES IDX 18 85 21 86 22 87 27 88 23 89 24 90 25 91 26 92
REMARK H PARENT 84 25 52 36
REMARK Flexibility Score: inf
ROOT
ATOM      1  C   UNL A   1      37.728  22.271  25.285  1.00  0.00     0.202 C 
ENDROOT
BRANCH   1   2
ATOM      2  O   UNL A   1      37.496  21.018  24.633  1.00  0.00    -0.374 OA
BRANCH   2   3
ATOM      3  C   UNL A   1      38.319  19.898  24.978  1.00  0.00     0.202 C 
BRANCH   3   4
ATOM      4  C   UNL A   1      39.518  20.101  25.927  1.00  0.00     0.261 C 
BRANCH   4   5
ATOM      5  O   UNL A   1      40.564  19.136  25.712  1.00  0.00    -0.460 OA
BRANCH   5   6
ATOM      6  C   UNL A   1      41.900  19.343  25.854  1.00  0.00     0.338 C 
ATOM      7  O   UNL A   1      42.680  18.408  25.702  1.00  0.00    -0.246 OA
BRANCH   6   8
ATOM      8  C   UNL A   1      42.448  20.666  26.269  1.00  0.00     0.060 A 
ATOM      9  C   UNL A   1      42.752  21.663  25.353  1.00  0.00     0.016 A 
ATOM     10  C   UNL A   1      42.573  20.982  27.627  1.00  0.00     0.016 A 
ATOM     11  C   UNL A   1      43.161  22.915  25.704  1.00  0.00     0.010 A 
ATOM     12  C   UNL A   1      42.963  22.270  28.019  1.00  0.00     0.010 A 
ATOM     13  C   UNL A   1      43.227  23.238  27.043  1.00  0.00    -0.014 A 
BRANCH  13  14
ATOM     14  C   UNL A   1      43.671  24.606  27.290  1.00  0.00     0.031 A 
ATOM     15  C   UNL A   1      42.689  25.547  27.892  1.00  0.00     0.074 A 
ATOM     16  C   UNL A   1      44.992  24.860  27.244  1.00  0.00     0.049 A 
ATOM     17  N   UNL A   1      42.830  26.810  28.169  1.00  0.00    -0.248 NA
ATOM     18  C   UNL A   1      41.377  24.984  28.265  1.00  0.00     0.031 C 
ATOM     19  C   UNL A   1      46.032  23.874  26.912  1.00  0.00     0.029 A 
ATOM     20  N   UNL A   1      45.696  25.992  27.533  1.00  0.00    -0.354 N 
ATOM     21  C   UNL A   1      41.608  27.209  28.685  1.00  0.00     0.074 A 
ATOM     22  C   UNL A   1      40.748  26.051  28.733  1.00  0.00     0.031 C 
ATOM     23  C   UNL A   1      47.238  24.451  27.022  1.00  0.00     0.029 A 
ATOM     24  C   UNL A   1      47.047  25.861  27.323  1.00  0.00     0.049 A 
ATOM     25  H   UNL A   1      45.277  26.821  27.860  1.00  0.00     0.167 HD
ATOM     26  C   UNL A   1      41.252  28.462  29.038  1.00  0.00     0.037 A 
ATOM     27  C   UNL A   1      47.997  26.813  27.301  1.00  0.00     0.037 A 
ATOM     28  C   UNL A   1      42.166  29.567  28.975  1.00  0.00     0.049 A 
ATOM     29  C   UNL A   1      47.540  28.222  27.566  1.00  0.00     0.074 A 
ATOM     30  C   UNL A   1      41.933  30.904  29.218  1.00  0.00     0.029 A 
ATOM     31  N   UNL A   1      43.511  29.443  28.636  1.00  0.00    -0.354 N 
ATOM     32  N   UNL A   1      46.352  28.649  27.930  1.00  0.00    -0.248 NA
ATOM     33  C   UNL A   1      48.532  29.285  27.382  1.00  0.00     0.031 C 
ATOM     34  C   UNL A   1      43.123  31.596  28.974  1.00  0.00     0.029 A 
ATOM     35  C   UNL A   1      44.114  30.685  28.632  1.00  0.00     0.049 A 
ATOM     36  H   UNL A   1      43.966  28.594  28.431  1.00  0.00     0.167 HD
ATOM     37  C   UNL A   1      46.451  30.027  28.023  1.00  0.00     0.074 A 
ATOM     38  C   UNL A   1      47.829  30.360  27.711  1.00  0.00     0.031 C 
ATOM     39  C   UNL A   1      45.498  30.944  28.321  1.00  0.00     0.037 A 
BRANCH  26  40
ATOM     40  C   UNL A   1      39.816  28.698  29.379  1.00  0.00     0.064 A 
ATOM     41  C   UNL A   1      38.873  29.122  28.434  1.00  0.00     0.173 A 
ATOM     42  C   UNL A   1      39.386  28.520  30.705  1.00  0.00     0.173 A 
ATOM     43  F   UNL A   1      39.244  29.349  27.165  1.00  0.00    -0.203 F 
ATOM     44  C   UNL A   1      37.551  29.365  28.804  1.00  0.00     0.198 A 
ATOM     45  C   UNL A   1      38.062  28.741  31.066  1.00  0.00     0.198 A 
ATOM     46  F   UNL A   1      40.258  28.141  31.652  1.00  0.00    -0.203 F 
ATOM     47  F   UNL A   1      36.674  29.813  27.896  1.00  0.00    -0.200 F 
ATOM     48  C   UNL A   1      37.146  29.167  30.117  1.00  0.00     0.200 A 
ATOM     49  F   UNL A   1      37.676  28.555  32.335  1.00  0.00    -0.200 F 
ATOM     50  F   UNL A   1      35.875  29.402  30.470  1.00  0.00    -0.200 F 
ENDBRANCH  26  40
BRANCH  27  51
ATOM     51  C   UNL A   1      49.393  26.498  26.889  1.00  0.00     0.064 A 
ATOM     52  C   UNL A   1      50.379  26.169  27.827  1.00  0.00     0.173 A 
ATOM     53  C   UNL A   1      49.788  26.578  25.541  1.00  0.00     0.173 A 
ATOM     54  F   UNL A   1      50.066  26.097  29.130  1.00  0.00    -0.203 F 
ATOM     55  C   UNL A   1      51.706  25.969  27.443  1.00  0.00     0.198 A 
ATOM     56  C   UNL A   1      51.105  26.339  25.153  1.00  0.00     0.198 A 
ATOM     57  F   UNL A   1      48.894  26.896  24.593  1.00  0.00    -0.203 F 
ATOM     58  F   UNL A   1      52.640  25.725  28.372  1.00  0.00    -0.200 F 
ATOM     59  C   UNL A   1      52.067  26.051  26.107  1.00  0.00     0.200 A 
ATOM     60  F   UNL A   1      51.442  26.405  23.857  1.00  0.00    -0.200 F 
ATOM     61  F   UNL A   1      53.342  25.868  25.740  1.00  0.00    -0.200 F 
ENDBRANCH  27  51
BRANCH  39  62
ATOM     62  C   UNL A   1      45.934  32.374  28.340  1.00  0.00     0.064 A 
ATOM     63  C   UNL A   1      45.808  33.190  27.207  1.00  0.00     0.173 A 
ATOM     64  C   UNL A   1      46.428  32.944  29.522  1.00  0.00     0.173 A 
ATOM     65  F   UNL A   1      45.359  32.677  26.052  1.00  0.00    -0.203 F 
ATOM     66  C   UNL A   1      46.180  34.527  27.253  1.00  0.00     0.198 A 
ATOM     67  C   UNL A   1      46.766  34.290  29.573  1.00  0.00     0.198 A 
ATOM     68  F   UNL A   1      46.557  32.198  30.631  1.00  0.00    -0.203 F 
ATOM     69  F   UNL A   1      46.097  35.282  26.150  1.00  0.00    -0.200 F 
ATOM     70  C   UNL A   1      46.648  35.079  28.439  1.00  0.00     0.200 A 
ATOM     71  F   UNL A   1      47.200  34.825  30.722  1.00  0.00    -0.200 F 
ATOM     72  F   UNL A   1      46.991  36.373  28.485  1.00  0.00    -0.200 F 
ENDBRANCH  39  62
ENDBRANCH  13  14
ENDBRANCH   6   8
ENDBRANCH   5   6
ENDBRANCH   4   5
ENDBRANCH   3   4
ENDBRANCH   2   3
ENDBRANCH   1   2
BRANCH   1  73
ATOM     73  C   UNL A   1      36.404  22.886  25.737  1.00  0.00     0.261 C 
BRANCH  73  74
ATOM     74  O   UNL A   1      35.347  22.064  25.222  1.00  0.00    -0.463 OA
BRANCH  74  75
ATOM     75  C   UNL A   1      34.336  21.837  26.081  1.00  0.00     0.309 C 
ATOM     76  O   UNL A   1      34.471  21.404  27.219  1.00  0.00    -0.252 OA
BRANCH  75  77
ATOM     77  C   UNL A   1      32.972  22.138  25.479  1.00  0.00     0.103 C 
BRANCH  77  78
ATOM     78  C   UNL A   1      32.080  21.013  24.854  1.00  0.00     0.020 C 
BRANCH  78  79
ATOM     79  C   UNL A   1      32.496  20.099  23.676  1.00  0.00     0.036 C 
BRANCH  79  80
ATOM     80  C   UNL A   1      32.784  18.670  24.045  1.00  0.00    -0.048 A 
ATOM     81  C   UNL A   1      32.594  18.236  25.363  1.00  0.00     0.004 A 
ATOM     82  C   UNL A   1      33.310  17.770  23.111  1.00  0.00     0.004 A 
ATOM     83  C   UNL A   1      33.054  16.979  25.763  1.00  0.00     0.000 A 
ATOM     84  C   UNL A   1      33.787  16.525  23.512  1.00  0.00     0.000 A 
ATOM     85  C   UNL A   1      33.685  16.141  24.845  1.00  0.00     0.000 A 
ENDBRANCH  79  80
ENDBRANCH  78  79
ENDBRANCH  77  78
BRANCH  77  86
ATOM     86  C   UNL A   1      32.320  23.242  26.349  1.00  0.00     0.019 C 
ATOM     87  C   UNL A   1      30.813  23.444  26.155  1.00  0.00     0.021 C 
ATOM     88  C   UNL A   1      32.986  24.620  26.234  1.00  0.00     0.141 C 
ATOM     89  C   UNL A   1      30.627  24.440  25.030  1.00  0.00     0.137 C 
ATOM     90  S   UNL A   1      31.939  25.625  25.194  1.00  0.00     0.150 S 
ATOM     91  O   UNL A   1      32.588  25.798  23.904  1.00  0.00    -0.229 OA
ATOM     92  O   UNL A   1      31.458  26.744  25.963  1.00  0.00    -0.229 OA
ENDBRANCH  77  86
ENDBRANCH  75  77
ENDBRANCH  74  75
ENDBRANCH  73  74
ENDBRANCH   1  73
TORSDOF 18
ENDMDL
