MODEL 1
REMARK VINA RESULT:     -12.4      0.000      0.000
REMARK SMILES Cc1ccccc1CNc1ccc(C(=O)OCCOCCOC(=O)c2ccc(-c3c4nc(c(-c5c(F)c(F)c(F)c(F)c5F)c5ccc([nH]5)c(-c5c(F)c(F)c(F)c(F)c5F)c5nc(c(-c6c(F)c(F)c(F)c(F)c6F)c6ccc3[nH]6)C=C5)C=C4)cc2)c(F)c1F
REMARK SMILES IDX 18 1 17 2 16 3 14 4 15 5 13 6 10 7 11 8 90 9 12 10 88 11
REMARK SMILES IDX 91 12 89 13 9 14 8 16 7 17 1 18 2 19 3 20 4 21 6 22 5 23
REMARK SMILES IDX 19 24 20 25 21 26 22 27 23 28 24 29 25 30 26 31 87 32 27 33
REMARK SMILES IDX 86 34 28 35 29 36 30 37 80 38 31 39 85 40 79 41 81 42 32 43
REMARK SMILES IDX 84 44 78 45 77 46 33 48 65 49 45 50 64 51 46 52 49 53 63 54
REMARK SMILES IDX 82 55 47 56 48 57 62 59 83 60 50 61 34 62 35 63 43 64 36 65
REMARK SMILES IDX 37 66 41 67 44 68 38 69 39 70 42 71 40 72 66 73 67 74 75 75
REMARK SMILES IDX 68 76 69 77 73 78 76 79 70 80 71 81 74 82 72 83 51 84 52 85
REMARK SMILES IDX 60 86 53 87 54 88 58 89 61 90 55 91 56 92 59 93 57 94
REMARK H PARENT 9 15 81 47 49 58
REMARK Flexibility Score: inf
ROOT
ATOM      1  C   UNL A   1      32.704  29.301  24.674  1.00  0.00     0.202 C 
ENDROOT
BRANCH   1   2
ATOM      2  C   UNL A   1      31.882  28.323  23.903  1.00  0.00     0.261 C 
BRANCH   2   3
ATOM      3  O   UNL A   1      30.719  27.955  24.647  1.00  0.00    -0.460 OA
BRANCH   3   4
ATOM      4  C   UNL A   1      29.843  27.050  24.112  1.00  0.00     0.341 C 
ATOM      5  O   UNL A   1      28.852  27.261  23.470  1.00  0.00    -0.246 OA
BRANCH   4   6
ATOM      6  C   UNL A   1      30.438  25.739  24.416  1.00  0.00     0.099 A 
ATOM      7  C   UNL A   1      31.374  23.185  24.974  1.00  0.00     0.074 A 
ATOM      8  C   UNL A   1      30.990  23.515  23.675  1.00  0.00     0.030 A 
ATOM      9  C   UNL A   1      31.228  24.130  26.001  1.00  0.00     0.182 A 
ATOM     10  C   UNL A   1      30.577  24.795  23.387  1.00  0.00     0.021 A 
ATOM     11  C   UNL A   1      30.757  25.405  25.727  1.00  0.00     0.175 A 
ATOM     12  F   UNL A   1      31.600  23.812  27.252  1.00  0.00    -0.201 F 
ATOM     13  F   UNL A   1      30.636  26.288  26.730  1.00  0.00    -0.203 F 
BRANCH   7  14
ATOM     14  N   UNL A   1      32.089  22.002  25.169  1.00  0.00    -0.379 N 
ATOM     15  H   UNL A   1      32.094  21.509  26.022  1.00  0.00     0.161 HD
BRANCH  14  16
ATOM     16  C   UNL A   1      32.828  21.569  23.989  1.00  0.00     0.149 C 
BRANCH  16  17
ATOM     17  C   UNL A   1      34.296  21.744  24.243  1.00  0.00    -0.026 A 
ATOM     18  C   UNL A   1      34.408  23.972  22.984  1.00  0.00     0.044 C 
ATOM     19  C   UNL A   1      35.022  22.846  23.772  1.00  0.00    -0.046 A 
ATOM     20  C   UNL A   1      36.396  22.906  24.049  1.00  0.00     0.004 A 
ATOM     21  C   UNL A   1      37.039  21.887  24.756  1.00  0.00     0.000 A 
ATOM     22  C   UNL A   1      34.958  20.716  24.952  1.00  0.00     0.006 A 
ATOM     23  C   UNL A   1      36.321  20.786  25.204  1.00  0.00     0.000 A 
ENDBRANCH  16  17
ENDBRANCH  14  16
ENDBRANCH   7  14
ENDBRANCH   4   6
ENDBRANCH   3   4
ENDBRANCH   2   3
ENDBRANCH   1   2
BRANCH   1  24
ATOM     24  O   UNL A   1      31.755  30.156  25.287  1.00  0.00    -0.374 OA
BRANCH  24  25
ATOM     25  C   UNL A   1      32.114  30.664  26.552  1.00  0.00     0.202 C 
BRANCH  25  26
ATOM     26  C   UNL A   1      33.548  30.290  26.946  1.00  0.00     0.261 C 
BRANCH  26  27
ATOM     27  O   UNL A   1      33.986  31.152  28.021  1.00  0.00    -0.460 OA
BRANCH  27  28
ATOM     28  C   UNL A   1      35.294  31.537  28.002  1.00  0.00     0.338 C 
ATOM     29  O   UNL A   1      35.705  32.627  27.637  1.00  0.00    -0.246 OA
BRANCH  28  30
ATOM     30  C   UNL A   1      36.176  30.344  28.199  1.00  0.00     0.060 A 
ATOM     31  C   UNL A   1      36.265  29.728  29.465  1.00  0.00     0.016 A 
ATOM     32  C   UNL A   1      37.141  30.070  27.234  1.00  0.00     0.016 A 
ATOM     33  C   UNL A   1      37.401  28.972  29.813  1.00  0.00     0.010 A 
ATOM     34  C   UNL A   1      38.294  29.413  27.613  1.00  0.00     0.010 A 
ATOM     35  C   UNL A   1      38.461  28.892  28.910  1.00  0.00    -0.014 A 
BRANCH  35  36
ATOM     36  C   UNL A   1      39.834  28.444  29.204  1.00  0.00     0.031 A 
ATOM     37  C   UNL A   1      40.205  27.052  28.851  1.00  0.00     0.074 A 
ATOM     38  C   UNL A   1      40.829  29.336  29.465  1.00  0.00     0.049 A 
ATOM     39  N   UNL A   1      41.340  26.521  29.142  1.00  0.00    -0.248 NA
ATOM     40  C   UNL A   1      39.310  26.103  28.183  1.00  0.00     0.031 C 
ATOM     41  C   UNL A   1      42.260  29.198  29.160  1.00  0.00     0.029 A 
ATOM     42  N   UNL A   1      40.767  30.620  30.027  1.00  0.00    -0.354 N 
ATOM     43  C   UNL A   1      41.467  25.371  28.404  1.00  0.00     0.074 A 
ATOM     44  C   UNL A   1      40.131  25.071  27.963  1.00  0.00     0.031 C 
ATOM     45  C   UNL A   1      42.954  30.180  29.761  1.00  0.00     0.029 A 
ATOM     46  C   UNL A   1      42.022  30.918  30.592  1.00  0.00     0.049 A 
ATOM     47  H   UNL A   1      39.980  31.212  30.026  1.00  0.00     0.167 HD
ATOM     48  C   UNL A   1      42.723  24.903  28.160  1.00  0.00     0.037 A 
ATOM     49  C   UNL A   1      42.138  31.229  31.910  1.00  0.00     0.037 A 
ATOM     50  C   UNL A   1      43.710  25.644  28.961  1.00  0.00     0.049 A 
ATOM     51  C   UNL A   1      42.921  30.142  32.581  1.00  0.00     0.074 A 
ATOM     52  C   UNL A   1      44.702  26.560  28.653  1.00  0.00     0.029 A 
ATOM     53  N   UNL A   1      43.542  25.709  30.350  1.00  0.00    -0.354 N 
ATOM     54  N   UNL A   1      43.096  28.981  32.012  1.00  0.00    -0.248 NA
ATOM     55  C   UNL A   1      43.617  30.248  33.855  1.00  0.00     0.031 C 
ATOM     56  C   UNL A   1      45.047  27.246  29.857  1.00  0.00     0.029 A 
ATOM     57  C   UNL A   1      44.307  26.716  30.906  1.00  0.00     0.049 A 
ATOM     58  H   UNL A   1      42.953  25.112  30.864  1.00  0.00     0.167 HD
ATOM     59  C   UNL A   1      43.931  28.220  32.755  1.00  0.00     0.074 A 
ATOM     60  C   UNL A   1      44.211  29.039  33.923  1.00  0.00     0.031 C 
ATOM     61  C   UNL A   1      44.292  26.971  32.349  1.00  0.00     0.037 A 
BRANCH  48  62
ATOM     62  C   UNL A   1      43.102  23.888  27.092  1.00  0.00     0.064 A 
ATOM     63  C   UNL A   1      42.769  22.526  27.265  1.00  0.00     0.173 A 
ATOM     64  C   UNL A   1      43.854  24.155  25.925  1.00  0.00     0.173 A 
ATOM     65  F   UNL A   1      42.079  22.113  28.338  1.00  0.00    -0.203 F 
ATOM     66  C   UNL A   1      43.142  21.531  26.350  1.00  0.00     0.198 A 
ATOM     67  C   UNL A   1      44.179  23.170  24.985  1.00  0.00     0.198 A 
ATOM     68  F   UNL A   1      44.362  25.361  25.660  1.00  0.00    -0.203 F 
ATOM     69  F   UNL A   1      42.833  20.250  26.595  1.00  0.00    -0.200 F 
ATOM     70  C   UNL A   1      43.832  21.857  25.201  1.00  0.00     0.200 A 
ATOM     71  F   UNL A   1      44.856  23.509  23.876  1.00  0.00    -0.200 F 
ATOM     72  F   UNL A   1      44.175  20.910  24.316  1.00  0.00    -0.200 F 
ENDBRANCH  48  62
BRANCH  49  73
ATOM     73  C   UNL A   1      40.950  31.996  32.389  1.00  0.00     0.064 A 
ATOM     74  C   UNL A   1      40.778  33.285  31.832  1.00  0.00     0.173 A 
ATOM     75  C   UNL A   1      39.799  31.343  32.856  1.00  0.00     0.173 A 
ATOM     76  F   UNL A   1      41.838  33.944  31.332  1.00  0.00    -0.203 F 
ATOM     77  C   UNL A   1      39.509  33.818  31.603  1.00  0.00     0.198 A 
ATOM     78  C   UNL A   1      38.528  31.881  32.618  1.00  0.00     0.198 A 
ATOM     79  F   UNL A   1      39.888  30.118  33.389  1.00  0.00    -0.203 F 
ATOM     80  F   UNL A   1      39.379  34.950  30.895  1.00  0.00    -0.200 F 
ATOM     81  C   UNL A   1      38.384  33.092  31.954  1.00  0.00     0.200 A 
ATOM     82  F   UNL A   1      37.432  31.169  32.922  1.00  0.00    -0.200 F 
ATOM     83  F   UNL A   1      37.170  33.516  31.573  1.00  0.00    -0.200 F 
ENDBRANCH  49  73
BRANCH  61  84
ATOM     84  C   UNL A   1      44.732  25.915  33.313  1.00  0.00     0.064 A 
ATOM     85  C   UNL A   1      43.841  25.258  34.181  1.00  0.00     0.173 A 
ATOM     86  C   UNL A   1      46.046  25.403  33.275  1.00  0.00     0.173 A 
ATOM     87  F   UNL A   1      42.531  25.543  34.192  1.00  0.00    -0.203 F 
ATOM     88  C   UNL A   1      44.260  24.238  35.029  1.00  0.00     0.198 A 
ATOM     89  C   UNL A   1      46.441  24.333  34.070  1.00  0.00     0.198 A 
ATOM     90  F   UNL A   1      46.971  25.903  32.442  1.00  0.00    -0.203 F 
ATOM     91  F   UNL A   1      43.387  23.694  35.889  1.00  0.00    -0.200 F 
ATOM     92  C   UNL A   1      45.558  23.771  34.969  1.00  0.00     0.200 A 
ATOM     93  F   UNL A   1      47.679  23.836  33.945  1.00  0.00    -0.200 F 
ATOM     94  F   UNL A   1      45.948  22.763  35.758  1.00  0.00    -0.200 F 
ENDBRANCH  61  84
ENDBRANCH  35  36
ENDBRANCH  28  30
ENDBRANCH  27  28
ENDBRANCH  26  27
ENDBRANCH  25  26
ENDBRANCH  24  25
ENDBRANCH   1  24
TORSDOF 17
ENDMDL
MODEL 2
REMARK VINA RESULT:     -11.9      3.623      9.398
REMARK SMILES Cc1ccccc1CNc1ccc(C(=O)OCCOCCOC(=O)c2ccc(-c3c4nc(c(-c5c(F)c(F)c(F)c(F)c5F)c5ccc([nH]5)c(-c5c(F)c(F)c(F)c(F)c5F)c5nc(c(-c6c(F)c(F)c(F)c(F)c6F)c6ccc3[nH]6)C=C5)C=C4)cc2)c(F)c1F
REMARK SMILES IDX 18 1 17 2 16 3 14 4 15 5 13 6 10 7 11 8 90 9 12 10 88 11
REMARK SMILES IDX 91 12 89 13 9 14 8 16 7 17 1 18 2 19 3 20 4 21 6 22 5 23
REMARK SMILES IDX 19 24 20 25 21 26 22 27 23 28 24 29 25 30 26 31 87 32 27 33
REMARK SMILES IDX 86 34 28 35 29 36 30 37 80 38 31 39 85 40 79 41 81 42 32 43
REMARK SMILES IDX 84 44 78 45 77 46 33 48 65 49 45 50 64 51 46 52 49 53 63 54
REMARK SMILES IDX 82 55 47 56 48 57 62 59 83 60 50 61 34 62 35 63 43 64 36 65
REMARK SMILES IDX 37 66 41 67 44 68 38 69 39 70 42 71 40 72 66 73 67 74 75 75
REMARK SMILES IDX 68 76 69 77 73 78 76 79 70 80 71 81 74 82 72 83 51 84 52 85
REMARK SMILES IDX 60 86 53 87 54 88 58 89 61 90 55 91 56 92 59 93 57 94
REMARK H PARENT 9 15 81 47 49 58
REMARK Flexibility Score: inf
ROOT
ATOM      1  C   UNL A   1      35.908  21.632  25.814  1.00  0.00     0.202 C 
ENDROOT
BRANCH   1   2
ATOM      2  C   UNL A   1      35.240  20.635  24.928  1.00  0.00     0.261 C 
BRANCH   2   3
ATOM      3  O   UNL A   1      33.896  20.409  25.355  1.00  0.00    -0.460 OA
BRANCH   3   4
ATOM      4  C   UNL A   1      32.897  20.353  24.421  1.00  0.00     0.341 C 
ATOM      5  O   UNL A   1      32.615  19.449  23.686  1.00  0.00    -0.246 OA
BRANCH   4   6
ATOM      6  C   UNL A   1      32.172  21.623  24.583  1.00  0.00     0.099 A 
ATOM      7  C   UNL A   1      30.630  23.915  24.862  1.00  0.00     0.074 A 
ATOM      8  C   UNL A   1      30.660  22.969  25.886  1.00  0.00     0.030 A 
ATOM      9  C   UNL A   1      31.334  23.671  23.672  1.00  0.00     0.182 A 
ATOM     10  C   UNL A   1      31.465  21.860  25.772  1.00  0.00     0.021 A 
ATOM     11  C   UNL A   1      32.102  22.525  23.528  1.00  0.00     0.175 A 
ATOM     12  F   UNL A   1      31.307  24.582  22.687  1.00  0.00    -0.201 F 
ATOM     13  F   UNL A   1      32.769  22.324  22.382  1.00  0.00    -0.203 F 
BRANCH   7  14
ATOM     14  N   UNL A   1      30.077  25.166  25.135  1.00  0.00    -0.379 N 
ATOM     15  H   UNL A   1      29.217  25.469  24.763  1.00  0.00     0.161 HD
BRANCH  14  16
ATOM     16  C   UNL A   1      30.896  25.981  26.025  1.00  0.00     0.149 C 
BRANCH  16  17
ATOM     17  C   UNL A   1      31.703  26.939  25.201  1.00  0.00    -0.026 A 
ATOM     18  C   UNL A   1      33.893  25.664  25.579  1.00  0.00     0.044 C 
ATOM     19  C   UNL A   1      33.084  26.796  25.005  1.00  0.00    -0.046 A 
ATOM     20  C   UNL A   1      33.750  27.758  24.230  1.00  0.00     0.004 A 
ATOM     21  C   UNL A   1      33.069  28.847  23.683  1.00  0.00     0.000 A 
ATOM     22  C   UNL A   1      31.026  28.049  24.648  1.00  0.00     0.006 A 
ATOM     23  C   UNL A   1      31.705  28.998  23.896  1.00  0.00     0.000 A 
ENDBRANCH  16  17
ENDBRANCH  14  16
ENDBRANCH   7  14
ENDBRANCH   4   6
ENDBRANCH   3   4
ENDBRANCH   2   3
ENDBRANCH   1   2
BRANCH   1  24
ATOM     24  O   UNL A   1      37.143  21.902  25.175  1.00  0.00    -0.374 OA
BRANCH  24  25
ATOM     25  C   UNL A   1      38.149  20.929  25.346  1.00  0.00     0.202 C 
BRANCH  25  26
ATOM     26  C   UNL A   1      39.338  21.455  26.159  1.00  0.00     0.261 C 
BRANCH  26  27
ATOM     27  O   UNL A   1      39.156  22.868  26.405  1.00  0.00    -0.460 OA
BRANCH  27  28
ATOM     28  C   UNL A   1      40.223  23.541  26.924  1.00  0.00     0.338 C 
ATOM     29  O   UNL A   1      41.214  23.023  27.413  1.00  0.00    -0.246 OA
BRANCH  28  30
ATOM     30  C   UNL A   1      39.879  24.988  27.087  1.00  0.00     0.060 A 
ATOM     31  C   UNL A   1      40.490  25.960  26.268  1.00  0.00     0.016 A 
ATOM     32  C   UNL A   1      39.229  25.384  28.252  1.00  0.00     0.016 A 
ATOM     33  C   UNL A   1      40.589  27.298  26.698  1.00  0.00     0.010 A 
ATOM     34  C   UNL A   1      39.414  26.672  28.714  1.00  0.00     0.010 A 
ATOM     35  C   UNL A   1      40.126  27.633  27.970  1.00  0.00    -0.014 A 
BRANCH  35  36
ATOM     36  C   UNL A   1      40.428  28.866  28.719  1.00  0.00     0.031 A 
ATOM     37  C   UNL A   1      39.379  29.912  28.793  1.00  0.00     0.074 A 
ATOM     38  C   UNL A   1      41.470  28.926  29.593  1.00  0.00     0.049 A 
ATOM     39  N   UNL A   1      39.560  31.064  29.338  1.00  0.00    -0.248 NA
ATOM     40  C   UNL A   1      38.041  29.783  28.212  1.00  0.00     0.031 C 
ATOM     41  C   UNL A   1      41.566  29.727  30.821  1.00  0.00     0.029 A 
ATOM     42  N   UNL A   1      42.683  28.221  29.603  1.00  0.00    -0.354 N 
ATOM     43  C   UNL A   1      38.327  31.640  29.517  1.00  0.00     0.074 A 
ATOM     44  C   UNL A   1      37.446  30.893  28.661  1.00  0.00     0.031 C 
ATOM     45  C   UNL A   1      42.822  29.690  31.297  1.00  0.00     0.029 A 
ATOM     46  C   UNL A   1      43.628  28.973  30.327  1.00  0.00     0.049 A 
ATOM     47  H   UNL A   1      42.846  27.348  29.177  1.00  0.00     0.167 HD
ATOM     48  C   UNL A   1      38.203  32.597  30.480  1.00  0.00     0.037 A 
ATOM     49  C   UNL A   1      44.795  29.367  29.751  1.00  0.00     0.037 A 
ATOM     50  C   UNL A   1      39.528  32.981  30.994  1.00  0.00     0.049 A 
ATOM     51  C   UNL A   1      44.785  30.861  29.644  1.00  0.00     0.074 A 
ATOM     52  C   UNL A   1      40.181  32.787  32.198  1.00  0.00     0.029 A 
ATOM     53  N   UNL A   1      40.505  33.411  30.088  1.00  0.00    -0.354 N 
ATOM     54  N   UNL A   1      43.678  31.543  29.762  1.00  0.00    -0.248 NA
ATOM     55  C   UNL A   1      45.951  31.717  29.477  1.00  0.00     0.031 C 
ATOM     56  C   UNL A   1      41.575  33.003  31.976  1.00  0.00     0.029 A 
ATOM     57  C   UNL A   1      41.767  33.378  30.652  1.00  0.00     0.049 A 
ATOM     58  H   UNL A   1      40.317  33.700  29.167  1.00  0.00     0.167 HD
ATOM     59  C   UNL A   1      43.945  32.868  29.748  1.00  0.00     0.074 A 
ATOM     60  C   UNL A   1      45.381  32.937  29.535  1.00  0.00     0.031 C 
ATOM     61  C   UNL A   1      42.949  33.786  29.888  1.00  0.00     0.037 A 
BRANCH  48  62
ATOM     62  C   UNL A   1      36.895  33.089  31.081  1.00  0.00     0.064 A 
ATOM     63  C   UNL A   1      36.576  32.779  32.422  1.00  0.00     0.173 A 
ATOM     64  C   UNL A   1      35.879  33.791  30.392  1.00  0.00     0.173 A 
ATOM     65  F   UNL A   1      37.429  32.093  33.196  1.00  0.00    -0.203 F 
ATOM     66  C   UNL A   1      35.362  33.147  33.018  1.00  0.00     0.198 A 
ATOM     67  C   UNL A   1      34.690  34.206  31.004  1.00  0.00     0.198 A 
ATOM     68  F   UNL A   1      35.953  34.060  29.087  1.00  0.00    -0.203 F 
ATOM     69  F   UNL A   1      35.101  32.783  34.281  1.00  0.00    -0.200 F 
ATOM     70  C   UNL A   1      34.426  33.878  32.313  1.00  0.00     0.200 A 
ATOM     71  F   UNL A   1      33.792  34.911  30.297  1.00  0.00    -0.200 F 
ATOM     72  F   UNL A   1      33.272  34.246  32.886  1.00  0.00    -0.200 F 
ENDBRANCH  48  62
BRANCH  49  73
ATOM     73  C   UNL A   1      45.299  28.336  28.795  1.00  0.00     0.064 A 
ATOM     74  C   UNL A   1      45.814  27.152  29.374  1.00  0.00     0.173 A 
ATOM     75  C   UNL A   1      44.792  28.241  27.490  1.00  0.00     0.173 A 
ATOM     76  F   UNL A   1      46.278  27.172  30.636  1.00  0.00    -0.203 F 
ATOM     77  C   UNL A   1      45.676  25.914  28.747  1.00  0.00     0.198 A 
ATOM     78  C   UNL A   1      44.652  26.994  26.869  1.00  0.00     0.198 A 
ATOM     79  F   UNL A   1      44.282  29.321  26.885  1.00  0.00    -0.203 F 
ATOM     80  F   UNL A   1      45.997  24.792  29.410  1.00  0.00    -0.200 F 
ATOM     81  C   UNL A   1      45.052  25.831  27.515  1.00  0.00     0.200 A 
ATOM     82  F   UNL A   1      44.015  26.901  25.692  1.00  0.00    -0.200 F 
ATOM     83  F   UNL A   1      44.755  24.631  26.995  1.00  0.00    -0.200 F 
ENDBRANCH  49  73
BRANCH  61  84
ATOM     84  C   UNL A   1      43.070  35.181  29.360  1.00  0.00     0.064 A 
ATOM     85  C   UNL A   1      43.401  36.278  30.178  1.00  0.00     0.173 A 
ATOM     86  C   UNL A   1      43.023  35.437  27.975  1.00  0.00     0.173 A 
ATOM     87  F   UNL A   1      43.633  36.133  31.490  1.00  0.00    -0.203 F 
ATOM     88  C   UNL A   1      43.564  37.558  29.658  1.00  0.00     0.198 A 
ATOM     89  C   UNL A   1      43.262  36.703  27.452  1.00  0.00     0.198 A 
ATOM     90  F   UNL A   1      42.780  34.461  27.088  1.00  0.00    -0.203 F 
ATOM     91  F   UNL A   1      43.808  38.581  30.489  1.00  0.00    -0.200 F 
ATOM     92  C   UNL A   1      43.502  37.770  28.295  1.00  0.00     0.200 A 
ATOM     93  F   UNL A   1      43.278  36.880  26.124  1.00  0.00    -0.200 F 
ATOM     94  F   UNL A   1      43.698  38.995  27.795  1.00  0.00    -0.200 F 
ENDBRANCH  61  84
ENDBRANCH  35  36
ENDBRANCH  28  30
ENDBRANCH  27  28
ENDBRANCH  26  27
ENDBRANCH  25  26
ENDBRANCH  24  25
ENDBRANCH   1  24
TORSDOF 17
ENDMDL
MODEL 3
REMARK VINA RESULT:     -11.8      3.666      9.767
REMARK SMILES Cc1ccccc1CNc1ccc(C(=O)OCCOCCOC(=O)c2ccc(-c3c4nc(c(-c5c(F)c(F)c(F)c(F)c5F)c5ccc([nH]5)c(-c5c(F)c(F)c(F)c(F)c5F)c5nc(c(-c6c(F)c(F)c(F)c(F)c6F)c6ccc3[nH]6)C=C5)C=C4)cc2)c(F)c1F
REMARK SMILES IDX 18 1 17 2 16 3 14 4 15 5 13 6 10 7 11 8 90 9 12 10 88 11
REMARK SMILES IDX 91 12 89 13 9 14 8 16 7 17 1 18 2 19 3 20 4 21 6 22 5 23
REMARK SMILES IDX 19 24 20 25 21 26 22 27 23 28 24 29 25 30 26 31 87 32 27 33
REMARK SMILES IDX 86 34 28 35 29 36 30 37 80 38 31 39 85 40 79 41 81 42 32 43
REMARK SMILES IDX 84 44 78 45 77 46 33 48 65 49 45 50 64 51 46 52 49 53 63 54
REMARK SMILES IDX 82 55 47 56 48 57 62 59 83 60 50 61 34 62 35 63 43 64 36 65
REMARK SMILES IDX 37 66 41 67 44 68 38 69 39 70 42 71 40 72 66 73 67 74 75 75
REMARK SMILES IDX 68 76 69 77 73 78 76 79 70 80 71 81 74 82 72 83 51 84 52 85
REMARK SMILES IDX 60 86 53 87 54 88 58 89 61 90 55 91 56 92 59 93 57 94
REMARK H PARENT 9 15 81 47 49 58
REMARK Flexibility Score: inf
ROOT
ATOM      1  C   UNL A   1      35.934  22.165  25.970  1.00  0.00     0.202 C 
ENDROOT
BRANCH   1   2
ATOM      2  C   UNL A   1      35.073  21.281  25.131  1.00  0.00     0.261 C 
BRANCH   2   3
ATOM      3  O   UNL A   1      33.716  21.725  25.168  1.00  0.00    -0.460 OA
BRANCH   3   4
ATOM      4  C   UNL A   1      32.901  21.475  24.098  1.00  0.00     0.341 C 
ATOM      5  O   UNL A   1      32.535  20.416  23.672  1.00  0.00    -0.246 OA
BRANCH   4   6
ATOM      6  C   UNL A   1      32.484  22.808  23.634  1.00  0.00     0.099 A 
ATOM      7  C   UNL A   1      31.576  25.231  22.625  1.00  0.00     0.074 A 
ATOM      8  C   UNL A   1      30.743  24.458  23.434  1.00  0.00     0.030 A 
ATOM      9  C   UNL A   1      32.847  24.747  22.280  1.00  0.00     0.182 A 
ATOM     10  C   UNL A   1      31.210  23.285  23.978  1.00  0.00     0.021 A 
ATOM     11  C   UNL A   1      33.303  23.536  22.779  1.00  0.00     0.175 A 
ATOM     12  F   UNL A   1      33.651  25.491  21.504  1.00  0.00    -0.201 F 
ATOM     13  F   UNL A   1      34.526  23.105  22.435  1.00  0.00    -0.203 F 
BRANCH   7  14
ATOM     14  N   UNL A   1      31.203  26.549  22.363  1.00  0.00    -0.379 N 
ATOM     15  H   UNL A   1      31.229  26.948  21.463  1.00  0.00     0.161 HD
BRANCH  14  16
ATOM     16  C   UNL A   1      30.772  27.278  23.551  1.00  0.00     0.149 C 
BRANCH  16  17
ATOM     17  C   UNL A   1      29.705  28.257  23.160  1.00  0.00    -0.026 A 
ATOM     18  C   UNL A   1      27.798  26.703  23.876  1.00  0.00     0.044 C 
ATOM     19  C   UNL A   1      28.337  27.986  23.302  1.00  0.00    -0.046 A 
ATOM     20  C   UNL A   1      27.418  28.963  22.890  1.00  0.00     0.004 A 
ATOM     21  C   UNL A   1      27.844  30.169  22.329  1.00  0.00     0.000 A 
ATOM     22  C   UNL A   1      30.124  29.477  22.585  1.00  0.00     0.006 A 
ATOM     23  C   UNL A   1      29.199  30.426  22.170  1.00  0.00     0.000 A 
ENDBRANCH  16  17
ENDBRANCH  14  16
ENDBRANCH   7  14
ENDBRANCH   4   6
ENDBRANCH   3   4
ENDBRANCH   2   3
ENDBRANCH   1   2
BRANCH   1  24
ATOM     24  O   UNL A   1      37.139  22.287  25.234  1.00  0.00    -0.374 OA
BRANCH  24  25
ATOM     25  C   UNL A   1      38.086  21.262  25.433  1.00  0.00     0.202 C 
BRANCH  25  26
ATOM     26  C   UNL A   1      39.356  21.768  26.127  1.00  0.00     0.261 C 
BRANCH  26  27
ATOM     27  O   UNL A   1      39.310  23.211  26.208  1.00  0.00    -0.460 OA
BRANCH  27  28
ATOM     28  C   UNL A   1      40.131  23.799  27.125  1.00  0.00     0.338 C 
ATOM     29  O   UNL A   1      40.872  23.206  27.891  1.00  0.00    -0.246 OA
BRANCH  28  30
ATOM     30  C   UNL A   1      39.772  25.245  27.272  1.00  0.00     0.060 A 
ATOM     31  C   UNL A   1      40.382  26.215  26.450  1.00  0.00     0.016 A 
ATOM     32  C   UNL A   1      39.108  25.645  28.428  1.00  0.00     0.016 A 
ATOM     33  C   UNL A   1      40.465  27.557  26.869  1.00  0.00     0.010 A 
ATOM     34  C   UNL A   1      39.278  26.939  28.880  1.00  0.00     0.010 A 
ATOM     35  C   UNL A   1      39.988  27.900  28.134  1.00  0.00    -0.014 A 
BRANCH  35  36
ATOM     36  C   UNL A   1      40.273  29.141  28.875  1.00  0.00     0.031 A 
ATOM     37  C   UNL A   1      39.206  30.170  28.949  1.00  0.00     0.074 A 
ATOM     38  C   UNL A   1      41.318  29.224  29.743  1.00  0.00     0.049 A 
ATOM     39  N   UNL A   1      39.369  31.328  29.486  1.00  0.00    -0.248 NA
ATOM     40  C   UNL A   1      37.867  30.014  28.375  1.00  0.00     0.031 C 
ATOM     41  C   UNL A   1      41.406  30.034  30.966  1.00  0.00     0.029 A 
ATOM     42  N   UNL A   1      42.543  28.541  29.750  1.00  0.00    -0.354 N 
ATOM     43  C   UNL A   1      38.127  31.883  29.669  1.00  0.00     0.074 A 
ATOM     44  C   UNL A   1      37.255  31.116  28.822  1.00  0.00     0.031 C 
ATOM     45  C   UNL A   1      42.665  30.021  31.436  1.00  0.00     0.029 A 
ATOM     46  C   UNL A   1      43.478  29.313  30.464  1.00  0.00     0.049 A 
ATOM     47  H   UNL A   1      42.719  27.668  29.328  1.00  0.00     0.167 HD
ATOM     48  C   UNL A   1      37.991  32.843  30.627  1.00  0.00     0.037 A 
ATOM     49  C   UNL A   1      44.635  29.724  29.881  1.00  0.00     0.037 A 
ATOM     50  C   UNL A   1      39.312  33.253  31.131  1.00  0.00     0.049 A 
ATOM     51  C   UNL A   1      44.598  31.218  29.766  1.00  0.00     0.074 A 
ATOM     52  C   UNL A   1      39.975  33.077  32.334  1.00  0.00     0.029 A 
ATOM     53  N   UNL A   1      40.277  33.695  30.219  1.00  0.00    -0.354 N 
ATOM     54  N   UNL A   1      43.481  31.880  29.885  1.00  0.00    -0.248 NA
ATOM     55  C   UNL A   1      45.748  32.093  29.588  1.00  0.00     0.031 C 
ATOM     56  C   UNL A   1      41.364  33.316  32.103  1.00  0.00     0.029 A 
ATOM     57  C   UNL A   1      41.542  33.687  30.776  1.00  0.00     0.049 A 
ATOM     58  H   UNL A   1      40.079  33.976  29.297  1.00  0.00     0.167 HD
ATOM     59  C   UNL A   1      43.724  33.210  29.863  1.00  0.00     0.074 A 
ATOM     60  C   UNL A   1      45.158  33.303  29.642  1.00  0.00     0.031 C 
ATOM     61  C   UNL A   1      42.713  34.111  30.004  1.00  0.00     0.037 A 
BRANCH  48  62
ATOM     62  C   UNL A   1      36.679  33.315  31.233  1.00  0.00     0.064 A 
ATOM     63  C   UNL A   1      35.749  34.022  30.437  1.00  0.00     0.173 A 
ATOM     64  C   UNL A   1      36.299  33.187  32.589  1.00  0.00     0.173 A 
ATOM     65  F   UNL A   1      35.982  34.247  29.136  1.00  0.00    -0.203 F 
ATOM     66  C   UNL A   1      34.550  34.538  30.948  1.00  0.00     0.198 A 
ATOM     67  C   UNL A   1      35.076  33.655  33.086  1.00  0.00     0.198 A 
ATOM     68  F   UNL A   1      37.106  32.660  33.512  1.00  0.00    -0.203 F 
ATOM     69  F   UNL A   1      33.732  35.238  30.151  1.00  0.00    -0.200 F 
ATOM     70  C   UNL A   1      34.206  34.338  32.269  1.00  0.00     0.200 A 
ATOM     71  F   UNL A   1      34.765  33.453  34.376  1.00  0.00    -0.200 F 
ATOM     72  F   UNL A   1      33.052  34.816  32.756  1.00  0.00    -0.200 F 
ENDBRANCH  48  62
BRANCH  49  73
ATOM     73  C   UNL A   1      45.151  28.697  28.928  1.00  0.00     0.064 A 
ATOM     74  C   UNL A   1      45.752  27.556  29.511  1.00  0.00     0.173 A 
ATOM     75  C   UNL A   1      44.596  28.543  27.648  1.00  0.00     0.173 A 
ATOM     76  F   UNL A   1      46.267  27.632  30.750  1.00  0.00    -0.203 F 
ATOM     77  C   UNL A   1      45.654  26.297  28.919  1.00  0.00     0.198 A 
ATOM     78  C   UNL A   1      44.496  27.275  27.062  1.00  0.00     0.198 A 
ATOM     79  F   UNL A   1      44.006  29.580  27.041  1.00  0.00    -0.203 F 
ATOM     80  F   UNL A   1      46.059  25.209  29.592  1.00  0.00    -0.200 F 
ATOM     81  C   UNL A   1      44.983  26.152  27.716  1.00  0.00     0.200 A 
ATOM     82  F   UNL A   1      43.816  27.120  25.916  1.00  0.00    -0.200 F 
ATOM     83  F   UNL A   1      44.728  24.925  27.238  1.00  0.00    -0.200 F 
ENDBRANCH  49  73
BRANCH  61  84
ATOM     84  C   UNL A   1      42.807  35.505  29.468  1.00  0.00     0.064 A 
ATOM     85  C   UNL A   1      42.113  35.926  28.318  1.00  0.00     0.173 A 
ATOM     86  C   UNL A   1      43.466  36.517  30.195  1.00  0.00     0.173 A 
ATOM     87  F   UNL A   1      41.318  35.093  27.631  1.00  0.00    -0.203 F 
ATOM     88  C   UNL A   1      42.167  37.241  27.868  1.00  0.00     0.198 A 
ATOM     89  C   UNL A   1      43.455  37.845  29.782  1.00  0.00     0.198 A 
ATOM     90  F   UNL A   1      44.110  36.253  31.341  1.00  0.00    -0.203 F 
ATOM     91  F   UNL A   1      41.547  37.575  26.727  1.00  0.00    -0.200 F 
ATOM     92  C   UNL A   1      42.832  38.202  28.603  1.00  0.00     0.200 A 
ATOM     93  F   UNL A   1      44.034  38.782  30.545  1.00  0.00    -0.200 F 
ATOM     94  F   UNL A   1      42.849  39.474  28.189  1.00  0.00    -0.200 F 
ENDBRANCH  61  84
ENDBRANCH  35  36
ENDBRANCH  28  30
ENDBRANCH  27  28
ENDBRANCH  26  27
ENDBRANCH  25  26
ENDBRANCH  24  25
ENDBRANCH   1  24
TORSDOF 17
ENDMDL
