MODEL 1
REMARK VINA RESULT:     -12.9      0.000      0.000
REMARK SMILES CC(C)CCOCC[N@@H+]1[C@@H](C(=O)OCCOCCOC(=O)c2ccc(-c3c4nc(c(-c5c(F)c(F)c(F)c(F)c5F)c5ccc([nH]5)c(-c5c(F)c(F)c(F)c(F)c5F)c5nc(c(-c6c(F)c(F)c(F)c(F)c6F)c6ccc3[nH]6)C=C5)C=C4)cc2)CC[C@H]2CCCC[C@H]21
REMARK SMILES IDX 14 1 13 2 11 3 12 4 10 5 9 6 92 7 85 9 87 10 91 11 86 12
REMARK SMILES IDX 88 13 90 14 89 15 8 16 7 17 6 18 5 19 4 20 2 21 1 22 3 23
REMARK SMILES IDX 15 24 16 25 17 26 18 27 19 28 20 29 21 30 22 31 23 32 84 33
REMARK SMILES IDX 24 34 83 35 25 36 26 37 27 38 77 39 28 40 82 41 76 42 78 43
REMARK SMILES IDX 29 44 81 45 75 46 74 47 30 49 62 50 42 51 61 52 43 53 46 54
REMARK SMILES IDX 60 55 79 56 44 57 45 58 59 60 80 61 47 62 31 63 32 64 40 65
REMARK SMILES IDX 33 66 34 67 38 68 41 69 35 70 36 71 39 72 37 73 63 74 64 75
REMARK SMILES IDX 72 76 65 77 66 78 70 79 73 80 67 81 68 82 71 83 69 84 48 85
REMARK SMILES IDX 49 86 57 87 50 88 51 89 55 90 58 91 52 92 53 93 56 94 54 95
REMARK H PARENT 9 8 78 48 46 59
REMARK Flexibility Score: inf
ROOT
ATOM      1  C   UNL A   1      34.018  26.010  25.259  1.00  0.00     0.261 C 
ENDROOT
BRANCH   1   2
ATOM      2  O   UNL A   1      34.008  26.012  23.770  1.00  0.00    -0.459 OA
BRANCH   2   3
ATOM      3  C   UNL A   1      33.418  25.183  22.794  1.00  0.00     0.364 C 
ATOM      4  O   UNL A   1      33.332  25.585  21.635  1.00  0.00    -0.245 OA
BRANCH   3   5
ATOM      5  C   UNL A   1      32.857  23.475  23.335  1.00  0.00     0.295 C 
ATOM      6  N   UNL A   1      31.909  23.761  24.410  1.00  0.00    -0.319 N 
ATOM      7  C   UNL A   1      31.429  22.621  25.244  1.00  0.00     0.187 C 
ATOM      8  H   UNL A   1      32.342  24.278  25.176  1.00  0.00     0.349 HD
ATOM      9  C   UNL A   1      33.257  21.923  23.143  1.00  0.00     0.078 C 
ATOM     10  C   UNL A   1      32.038  21.194  25.094  1.00  0.00     0.048 C 
ATOM     11  C   UNL A   1      31.535  22.955  26.738  1.00  0.00     0.065 C 
ATOM     12  C   UNL A   1      32.218  20.929  23.630  1.00  0.00     0.016 C 
ATOM     13  C   UNL A   1      33.337  20.823  25.852  1.00  0.00     0.010 C 
ATOM     14  C   UNL A   1      32.975  22.953  27.243  1.00  0.00     0.006 C 
ATOM     15  C   UNL A   1      33.670  21.607  27.104  1.00  0.00     0.001 C 
BRANCH   6  16
ATOM     16  C   UNL A   1      30.834  24.535  23.660  1.00  0.00     0.291 C 
BRANCH  16  17
ATOM     17  C   UNL A   1      30.193  26.008  24.265  1.00  0.00     0.221 C 
BRANCH  17  18
ATOM     18  O   UNL A   1      29.606  27.142  23.454  1.00  0.00    -0.376 OA
BRANCH  18  19
ATOM     19  C   UNL A   1      30.279  28.065  22.463  1.00  0.00     0.160 C 
BRANCH  19  20
ATOM     20  C   UNL A   1      29.729  29.804  22.019  1.00  0.00     0.031 C 
BRANCH  20  21
ATOM     21  C   UNL A   1      28.251  30.778  22.260  1.00  0.00    -0.015 C 
ATOM     22  C   UNL A   1      27.649  31.198  23.624  1.00  0.00     0.007 C 
ATOM     23  C   UNL A   1      28.242  32.094  21.492  1.00  0.00     0.007 C 
ENDBRANCH  20  21
ENDBRANCH  19  20
ENDBRANCH  18  19
ENDBRANCH  17  18
ENDBRANCH  16  17
ENDBRANCH   6  16
ENDBRANCH   3   5
ENDBRANCH   2   3
ENDBRANCH   1   2
BRANCH   1  24
ATOM     24  C   UNL A   1      33.544  27.384  25.937  1.00  0.00     0.202 C 
BRANCH  24  25
ATOM     25  O   UNL A   1      33.644  28.666  25.277  1.00  0.00    -0.374 OA
BRANCH  25  26
ATOM     26  C   UNL A   1      32.432  29.328  24.944  1.00  0.00     0.202 C 
BRANCH  26  27
ATOM     27  C   UNL A   1      31.886  30.491  25.824  1.00  0.00     0.261 C 
BRANCH  27  28
ATOM     28  O   UNL A   1      32.507  30.613  27.111  1.00  0.00    -0.460 OA
BRANCH  28  29
ATOM     29  C   UNL A   1      33.184  31.772  27.303  1.00  0.00     0.338 C 
ATOM     30  O   UNL A   1      32.772  32.899  27.201  1.00  0.00    -0.246 OA
BRANCH  29  31
ATOM     31  C   UNL A   1      34.506  31.447  27.871  1.00  0.00     0.060 A 
ATOM     32  C   UNL A   1      34.706  30.115  28.240  1.00  0.00     0.016 A 
ATOM     33  C   UNL A   1      35.506  32.405  28.060  1.00  0.00     0.016 A 
ATOM     34  C   UNL A   1      35.906  29.730  28.827  1.00  0.00     0.010 A 
ATOM     35  C   UNL A   1      36.714  32.017  28.657  1.00  0.00     0.010 A 
ATOM     36  C   UNL A   1      36.905  30.683  29.067  1.00  0.00    -0.014 A 
BRANCH  36  37
ATOM     37  C   UNL A   1      38.062  30.308  29.914  1.00  0.00     0.031 A 
ATOM     38  C   UNL A   1      39.073  29.354  29.347  1.00  0.00     0.074 A 
ATOM     39  C   UNL A   1      38.247  30.850  31.131  1.00  0.00     0.049 A 
ATOM     40  N   UNL A   1      40.156  28.866  29.894  1.00  0.00    -0.248 NA
ATOM     41  C   UNL A   1      38.833  28.892  27.970  1.00  0.00     0.031 C 
ATOM     42  C   UNL A   1      37.372  31.836  31.756  1.00  0.00     0.029 A 
ATOM     43  N   UNL A   1      39.236  30.643  32.061  1.00  0.00    -0.354 N 
ATOM     44  C   UNL A   1      40.722  28.041  28.933  1.00  0.00     0.074 A 
ATOM     45  C   UNL A   1      39.851  28.066  27.779  1.00  0.00     0.031 C 
ATOM     46  C   UNL A   1      37.846  32.133  32.979  1.00  0.00     0.029 A 
ATOM     47  C   UNL A   1      39.044  31.336  33.231  1.00  0.00     0.049 A 
ATOM     48  H   UNL A   1      40.010  30.053  31.904  1.00  0.00     0.167 HD
ATOM     49  C   UNL A   1      41.873  27.333  29.007  1.00  0.00     0.037 A 
ATOM     50  C   UNL A   1      39.743  31.306  34.383  1.00  0.00     0.037 A 
ATOM     51  C   UNL A   1      42.735  27.316  30.157  1.00  0.00     0.049 A 
ATOM     52  C   UNL A   1      40.969  30.432  34.472  1.00  0.00     0.074 A 
ATOM     53  C   UNL A   1      43.937  26.652  30.323  1.00  0.00     0.029 A 
ATOM     54  N   UNL A   1      42.480  27.988  31.344  1.00  0.00    -0.354 N 
ATOM     55  N   UNL A   1      41.515  29.676  33.550  1.00  0.00    -0.248 NA
ATOM     56  C   UNL A   1      41.674  30.407  35.762  1.00  0.00     0.031 C 
ATOM     57  C   UNL A   1      44.374  26.865  31.634  1.00  0.00     0.029 A 
ATOM     58  C   UNL A   1      43.481  27.716  32.264  1.00  0.00     0.049 A 
ATOM     59  H   UNL A   1      41.704  28.570  31.509  1.00  0.00     0.167 HD
ATOM     60  C   UNL A   1      42.637  29.107  34.137  1.00  0.00     0.074 A 
ATOM     61  C   UNL A   1      42.704  29.619  35.491  1.00  0.00     0.031 C 
ATOM     62  C   UNL A   1      43.530  28.235  33.606  1.00  0.00     0.037 A 
BRANCH  49  63
ATOM     63  C   UNL A   1      42.247  26.487  27.826  1.00  0.00     0.064 A 
ATOM     64  C   UNL A   1      43.184  26.914  26.873  1.00  0.00     0.173 A 
ATOM     65  C   UNL A   1      41.686  25.211  27.669  1.00  0.00     0.173 A 
ATOM     66  F   UNL A   1      43.735  28.133  26.967  1.00  0.00    -0.203 F 
ATOM     67  C   UNL A   1      43.531  26.100  25.797  1.00  0.00     0.198 A 
ATOM     68  C   UNL A   1      42.058  24.389  26.610  1.00  0.00     0.198 A 
ATOM     69  F   UNL A   1      40.783  24.756  28.552  1.00  0.00    -0.203 F 
ATOM     70  F   UNL A   1      44.397  26.544  24.875  1.00  0.00    -0.200 F 
ATOM     71  C   UNL A   1      42.975  24.835  25.672  1.00  0.00     0.200 A 
ATOM     72  F   UNL A   1      41.529  23.162  26.498  1.00  0.00    -0.200 F 
ATOM     73  F   UNL A   1      43.321  24.049  24.643  1.00  0.00    -0.200 F 
ENDBRANCH  49  63
BRANCH  50  74
ATOM     74  C   UNL A   1      39.284  32.098  35.556  1.00  0.00     0.064 A 
ATOM     75  C   UNL A   1      39.691  33.425  35.747  1.00  0.00     0.173 A 
ATOM     76  C   UNL A   1      38.448  31.528  36.530  1.00  0.00     0.173 A 
ATOM     77  F   UNL A   1      40.512  34.006  34.860  1.00  0.00    -0.203 F 
ATOM     78  C   UNL A   1      39.300  34.144  36.875  1.00  0.00     0.198 A 
ATOM     79  C   UNL A   1      38.031  32.259  37.641  1.00  0.00     0.198 A 
ATOM     80  F   UNL A   1      38.033  30.259  36.402  1.00  0.00    -0.203 F 
ATOM     81  F   UNL A   1      39.749  35.392  37.060  1.00  0.00    -0.200 F 
ATOM     82  C   UNL A   1      38.465  33.563  37.818  1.00  0.00     0.200 A 
ATOM     83  F   UNL A   1      37.217  31.694  38.543  1.00  0.00    -0.200 F 
ATOM     84  F   UNL A   1      38.091  34.254  38.902  1.00  0.00    -0.200 F 
ENDBRANCH  50  74
BRANCH  62  85
ATOM     85  C   UNL A   1      44.671  27.794  34.478  1.00  0.00     0.064 A 
ATOM     86  C   UNL A   1      45.859  28.536  34.566  1.00  0.00     0.173 A 
ATOM     87  C   UNL A   1      44.551  26.648  35.280  1.00  0.00     0.173 A 
ATOM     88  F   UNL A   1      46.028  29.632  33.810  1.00  0.00    -0.203 F 
ATOM     89  C   UNL A   1      46.891  28.135  35.410  1.00  0.00     0.198 A 
ATOM     90  C   UNL A   1      45.572  26.269  36.146  1.00  0.00     0.198 A 
ATOM     91  F   UNL A   1      43.433  25.908  35.240  1.00  0.00    -0.203 F 
ATOM     92  F   UNL A   1      48.034  28.834  35.444  1.00  0.00    -0.200 F 
ATOM     93  C   UNL A   1      46.744  27.008  36.205  1.00  0.00     0.200 A 
ATOM     94  F   UNL A   1      45.421  25.190  36.928  1.00  0.00    -0.200 F 
ATOM     95  F   UNL A   1      47.734  26.633  37.027  1.00  0.00    -0.200 F 
ENDBRANCH  62  85
ENDBRANCH  36  37
ENDBRANCH  29  31
ENDBRANCH  28  29
ENDBRANCH  27  28
ENDBRANCH  26  27
ENDBRANCH  25  26
ENDBRANCH  24  25
ENDBRANCH   1  24
TORSDOF 20
ENDMDL
MODEL 2
REMARK VINA RESULT:     -12.9      0.536      7.218
REMARK SMILES CC(C)CCOCC[N@@H+]1[C@@H](C(=O)OCCOCCOC(=O)c2ccc(-c3c4nc(c(-c5c(F)c(F)c(F)c(F)c5F)c5ccc([nH]5)c(-c5c(F)c(F)c(F)c(F)c5F)c5nc(c(-c6c(F)c(F)c(F)c(F)c6F)c6ccc3[nH]6)C=C5)C=C4)cc2)CC[C@H]2CCCC[C@H]21
REMARK SMILES IDX 14 1 13 2 11 3 12 4 10 5 9 6 92 7 85 9 87 10 91 11 86 12
REMARK SMILES IDX 88 13 90 14 89 15 8 16 7 17 6 18 5 19 4 20 2 21 1 22 3 23
REMARK SMILES IDX 15 24 16 25 17 26 18 27 19 28 20 29 21 30 22 31 23 32 84 33
REMARK SMILES IDX 24 34 83 35 25 36 26 37 27 38 77 39 28 40 82 41 76 42 78 43
REMARK SMILES IDX 29 44 81 45 75 46 74 47 30 49 62 50 42 51 61 52 43 53 46 54
REMARK SMILES IDX 60 55 79 56 44 57 45 58 59 60 80 61 47 62 31 63 32 64 40 65
REMARK SMILES IDX 33 66 34 67 38 68 41 69 35 70 36 71 39 72 37 73 63 74 64 75
REMARK SMILES IDX 72 76 65 77 66 78 70 79 73 80 67 81 68 82 71 83 69 84 48 85
REMARK SMILES IDX 49 86 57 87 50 88 51 89 55 90 58 91 52 92 53 93 56 94 54 95
REMARK H PARENT 9 8 78 48 46 59
REMARK Flexibility Score: inf
ROOT
ATOM      1  C   UNL A   1      33.760  26.785  25.138  1.00  0.00     0.261 C 
ENDROOT
BRANCH   1   2
ATOM      2  O   UNL A   1      33.275  26.732  23.731  1.00  0.00    -0.459 OA
BRANCH   2   3
ATOM      3  C   UNL A   1      33.287  25.741  22.729  1.00  0.00     0.364 C 
ATOM      4  O   UNL A   1      33.651  26.038  21.592  1.00  0.00    -0.245 OA
BRANCH   3   5
ATOM      5  C   UNL A   1      32.799  23.999  23.230  1.00  0.00     0.295 C 
ATOM      6  N   UNL A   1      31.714  24.219  24.185  1.00  0.00    -0.319 N 
ATOM      7  C   UNL A   1      31.229  23.052  24.977  1.00  0.00     0.187 C 
ATOM      8  H   UNL A   1      32.015  24.774  24.986  1.00  0.00     0.349 HD
ATOM      9  C   UNL A   1      33.335  22.481  23.112  1.00  0.00     0.078 C 
ATOM     10  C   UNL A   1      31.958  21.675  24.921  1.00  0.00     0.048 C 
ATOM     11  C   UNL A   1      31.136  23.404  26.468  1.00  0.00     0.065 C 
ATOM     12  C   UNL A   1      32.325  21.413  23.493  1.00  0.00     0.016 C 
ATOM     13  C   UNL A   1      33.185  21.411  25.830  1.00  0.00     0.010 C 
ATOM     14  C   UNL A   1      32.504  23.518  27.134  1.00  0.00     0.006 C 
ATOM     15  C   UNL A   1      33.310  22.229  27.098  1.00  0.00     0.001 C 
BRANCH   6  16
ATOM     16  C   UNL A   1      30.677  24.902  23.304  1.00  0.00     0.291 C 
BRANCH  16  17
ATOM     17  C   UNL A   1      29.780  26.260  23.850  1.00  0.00     0.221 C 
BRANCH  17  18
ATOM     18  O   UNL A   1      30.225  27.705  23.833  1.00  0.00    -0.376 OA
BRANCH  18  19
ATOM     19  C   UNL A   1      30.251  28.691  22.685  1.00  0.00     0.160 C 
BRANCH  19  20
ATOM     20  C   UNL A   1      28.778  29.628  21.995  1.00  0.00     0.031 C 
BRANCH  20  21
ATOM     21  C   UNL A   1      27.887  31.112  22.435  1.00  0.00    -0.015 C 
ATOM     22  C   UNL A   1      27.557  31.586  23.872  1.00  0.00     0.007 C 
ATOM     23  C   UNL A   1      28.447  32.382  21.805  1.00  0.00     0.007 C 
ENDBRANCH  20  21
ENDBRANCH  19  20
ENDBRANCH  18  19
ENDBRANCH  17  18
ENDBRANCH  16  17
ENDBRANCH   6  16
ENDBRANCH   3   5
ENDBRANCH   2   3
ENDBRANCH   1   2
BRANCH   1  24
ATOM     24  C   UNL A   1      33.104  27.944  26.033  1.00  0.00     0.202 C 
BRANCH  24  25
ATOM     25  O   UNL A   1      33.103  29.336  25.643  1.00  0.00    -0.374 OA
BRANCH  25  26
ATOM     26  C   UNL A   1      31.895  30.064  25.819  1.00  0.00     0.202 C 
BRANCH  26  27
ATOM     27  C   UNL A   1      31.904  31.494  26.433  1.00  0.00     0.261 C 
BRANCH  27  28
ATOM     28  O   UNL A   1      32.637  31.617  27.660  1.00  0.00    -0.460 OA
BRANCH  28  29
ATOM     29  C   UNL A   1      33.549  32.620  27.674  1.00  0.00     0.338 C 
ATOM     30  O   UNL A   1      33.359  33.799  27.512  1.00  0.00    -0.246 OA
BRANCH  29  31
ATOM     31  C   UNL A   1      34.838  32.068  28.129  1.00  0.00     0.060 A 
ATOM     32  C   UNL A   1      34.844  30.710  28.455  1.00  0.00     0.016 A 
ATOM     33  C   UNL A   1      35.993  32.844  28.255  1.00  0.00     0.016 A 
ATOM     34  C   UNL A   1      36.005  30.116  28.939  1.00  0.00     0.010 A 
ATOM     35  C   UNL A   1      37.163  32.245  28.747  1.00  0.00     0.010 A 
ATOM     36  C   UNL A   1      37.162  30.886  29.116  1.00  0.00    -0.014 A 
BRANCH  36  37
ATOM     37  C   UNL A   1      38.301  30.301  29.861  1.00  0.00     0.031 A 
ATOM     38  C   UNL A   1      38.517  30.741  31.281  1.00  0.00     0.074 A 
ATOM     39  C   UNL A   1      39.086  29.354  29.317  1.00  0.00     0.049 A 
ATOM     40  N   UNL A   1      39.447  30.387  32.129  1.00  0.00    -0.248 NA
ATOM     41  C   UNL A   1      37.546  31.708  31.819  1.00  0.00     0.031 C 
ATOM     42  C   UNL A   1      38.930  28.799  27.976  1.00  0.00     0.029 A 
ATOM     43  N   UNL A   1      40.175  28.693  29.828  1.00  0.00    -0.354 N 
ATOM     44  C   UNL A   1      39.176  31.088  33.295  1.00  0.00     0.074 A 
ATOM     45  C   UNL A   1      38.015  31.911  33.040  1.00  0.00     0.031 C 
ATOM     46  C   UNL A   1      39.904  27.899  27.756  1.00  0.00     0.029 A 
ATOM     47  C   UNL A   1      40.766  27.834  28.933  1.00  0.00     0.049 A 
ATOM     48  H   UNL A   1      40.502  28.822  30.748  1.00  0.00     0.167 HD
ATOM     49  C   UNL A   1      39.834  31.039  34.477  1.00  0.00     0.037 A 
ATOM     50  C   UNL A   1      41.892  27.101  29.047  1.00  0.00     0.037 A 
ATOM     51  C   UNL A   1      40.986  30.214  34.722  1.00  0.00     0.049 A 
ATOM     52  C   UNL A   1      42.662  27.140  30.342  1.00  0.00     0.074 A 
ATOM     53  C   UNL A   1      41.710  30.074  35.893  1.00  0.00     0.029 A 
ATOM     54  N   UNL A   1      41.589  29.399  33.776  1.00  0.00    -0.354 N 
ATOM     55  N   UNL A   1      42.385  27.783  31.452  1.00  0.00    -0.248 NA
ATOM     56  C   UNL A   1      43.902  26.353  30.402  1.00  0.00     0.031 C 
ATOM     57  C   UNL A   1      42.791  29.227  35.635  1.00  0.00     0.029 A 
ATOM     58  C   UNL A   1      42.704  28.786  34.324  1.00  0.00     0.049 A 
ATOM     59  H   UNL A   1      41.271  29.274  32.853  1.00  0.00     0.167 HD
ATOM     60  C   UNL A   1      43.397  27.460  32.345  1.00  0.00     0.074 A 
ATOM     61  C   UNL A   1      44.287  26.549  31.655  1.00  0.00     0.031 C 
ATOM     62  C   UNL A   1      43.577  27.881  33.621  1.00  0.00     0.037 A 
BRANCH  49  63
ATOM     63  C   UNL A   1      39.349  31.931  35.581  1.00  0.00     0.064 A 
ATOM     64  C   UNL A   1      38.418  31.492  36.535  1.00  0.00     0.173 A 
ATOM     65  C   UNL A   1      39.856  33.232  35.709  1.00  0.00     0.173 A 
ATOM     66  F   UNL A   1      37.889  30.263  36.448  1.00  0.00    -0.203 F 
ATOM     67  C   UNL A   1      38.000  32.332  37.565  1.00  0.00     0.198 A 
ATOM     68  C   UNL A   1      39.459  34.057  36.756  1.00  0.00     0.198 A 
ATOM     69  F   UNL A   1      40.747  33.701  34.821  1.00  0.00    -0.203 F 
ATOM     70  F   UNL A   1      37.079  31.908  38.441  1.00  0.00    -0.200 F 
ATOM     71  C   UNL A   1      38.528  33.610  37.680  1.00  0.00     0.200 A 
ATOM     72  F   UNL A   1      39.980  35.288  36.872  1.00  0.00    -0.200 F 
ATOM     73  F   UNL A   1      38.134  34.411  38.680  1.00  0.00    -0.200 F 
ENDBRANCH  49  63
BRANCH  50  74
ATOM     74  C   UNL A   1      42.380  26.299  27.893  1.00  0.00     0.064 A 
ATOM     75  C   UNL A   1      43.314  26.817  26.985  1.00  0.00     0.173 A 
ATOM     76  C   UNL A   1      41.896  25.002  27.658  1.00  0.00     0.173 A 
ATOM     77  F   UNL A   1      43.786  28.062  27.149  1.00  0.00    -0.203 F 
ATOM     78  C   UNL A   1      43.728  26.080  25.877  1.00  0.00     0.198 A 
ATOM     79  C   UNL A   1      42.335  24.254  26.568  1.00  0.00     0.198 A 
ATOM     80  F   UNL A   1      40.996  24.459  28.491  1.00  0.00    -0.203 F 
ATOM     81  F   UNL A   1      44.579  26.621  24.995  1.00  0.00    -0.200 F 
ATOM     82  C   UNL A   1      43.243  24.796  25.673  1.00  0.00     0.200 A 
ATOM     83  F   UNL A   1      41.870  23.011  26.381  1.00  0.00    -0.200 F 
ATOM     84  F   UNL A   1      43.640  24.089  24.607  1.00  0.00    -0.200 F 
ENDBRANCH  50  74
BRANCH  62  85
ATOM     85  C   UNL A   1      44.768  27.348  34.366  1.00  0.00     0.064 A 
ATOM     86  C   UNL A   1      45.989  28.038  34.390  1.00  0.00     0.173 A 
ATOM     87  C   UNL A   1      44.668  26.163  35.113  1.00  0.00     0.173 A 
ATOM     88  F   UNL A   1      46.141  29.168  33.682  1.00  0.00    -0.203 F 
ATOM     89  C   UNL A   1      47.072  27.551  35.118  1.00  0.00     0.198 A 
ATOM     90  C   UNL A   1      45.741  25.697  35.865  1.00  0.00     0.198 A 
ATOM     91  F   UNL A   1      43.520  25.469  35.130  1.00  0.00    -0.203 F 
ATOM     92  F   UNL A   1      48.242  28.203  35.090  1.00  0.00    -0.200 F 
ATOM     93  C   UNL A   1      46.944  26.387  35.861  1.00  0.00     0.200 A 
ATOM     94  F   UNL A   1      45.611  24.582  36.597  1.00  0.00    -0.200 F 
ATOM     95  F   UNL A   1      47.983  25.928  36.572  1.00  0.00    -0.200 F 
ENDBRANCH  62  85
ENDBRANCH  36  37
ENDBRANCH  29  31
ENDBRANCH  28  29
ENDBRANCH  27  28
ENDBRANCH  26  27
ENDBRANCH  25  26
ENDBRANCH  24  25
ENDBRANCH   1  24
TORSDOF 20
ENDMDL
MODEL 3
REMARK VINA RESULT:     -12.8      1.440      7.604
REMARK SMILES CC(C)CCOCC[N@@H+]1[C@@H](C(=O)OCCOCCOC(=O)c2ccc(-c3c4nc(c(-c5c(F)c(F)c(F)c(F)c5F)c5ccc([nH]5)c(-c5c(F)c(F)c(F)c(F)c5F)c5nc(c(-c6c(F)c(F)c(F)c(F)c6F)c6ccc3[nH]6)C=C5)C=C4)cc2)CC[C@H]2CCCC[C@H]21
REMARK SMILES IDX 14 1 13 2 11 3 12 4 10 5 9 6 92 7 85 9 87 10 91 11 86 12
REMARK SMILES IDX 88 13 90 14 89 15 8 16 7 17 6 18 5 19 4 20 2 21 1 22 3 23
REMARK SMILES IDX 15 24 16 25 17 26 18 27 19 28 20 29 21 30 22 31 23 32 84 33
REMARK SMILES IDX 24 34 83 35 25 36 26 37 27 38 77 39 28 40 82 41 76 42 78 43
REMARK SMILES IDX 29 44 81 45 75 46 74 47 30 49 62 50 42 51 61 52 43 53 46 54
REMARK SMILES IDX 60 55 79 56 44 57 45 58 59 60 80 61 47 62 31 63 32 64 40 65
REMARK SMILES IDX 33 66 34 67 38 68 41 69 35 70 36 71 39 72 37 73 63 74 64 75
REMARK SMILES IDX 72 76 65 77 66 78 70 79 73 80 67 81 68 82 71 83 69 84 48 85
REMARK SMILES IDX 49 86 57 87 50 88 51 89 55 90 58 91 52 92 53 93 56 94 54 95
REMARK H PARENT 9 8 78 48 46 59
REMARK Flexibility Score: inf
ROOT
ATOM      1  C   UNL A   1      34.288  29.556  26.992  1.00  0.00     0.261 C 
ENDROOT
BRANCH   1   2
ATOM      2  O   UNL A   1      33.627  28.249  27.257  1.00  0.00    -0.459 OA
BRANCH   2   3
ATOM      3  C   UNL A   1      32.787  27.406  26.501  1.00  0.00     0.364 C 
ATOM      4  O   UNL A   1      31.572  27.603  26.506  1.00  0.00    -0.245 OA
BRANCH   3   5
ATOM      5  C   UNL A   1      33.606  26.064  25.475  1.00  0.00     0.295 C 
ATOM      6  N   UNL A   1      33.104  26.323  24.127  1.00  0.00    -0.319 N 
ATOM      7  C   UNL A   1      33.364  25.299  23.073  1.00  0.00     0.187 C 
ATOM      8  H   UNL A   1      32.087  26.268  24.080  1.00  0.00     0.349 HD
ATOM      9  C   UNL A   1      34.434  24.692  25.667  1.00  0.00     0.078 C 
ATOM     10  C   UNL A   1      34.001  23.920  23.422  1.00  0.00     0.048 C 
ATOM     11  C   UNL A   1      32.079  24.971  22.302  1.00  0.00     0.065 C 
ATOM     12  C   UNL A   1      35.102  24.165  24.409  1.00  0.00     0.016 C 
ATOM     13  C   UNL A   1      33.107  22.758  23.920  1.00  0.00     0.010 C 
ATOM     14  C   UNL A   1      31.094  24.140  23.119  1.00  0.00     0.006 C 
ATOM     15  C   UNL A   1      31.641  22.785  23.541  1.00  0.00     0.001 C 
BRANCH   6  16
ATOM     16  C   UNL A   1      33.670  27.711  23.860  1.00  0.00     0.291 C 
BRANCH  16  17
ATOM     17  C   UNL A   1      32.736  28.937  23.105  1.00  0.00     0.221 C 
BRANCH  17  18
ATOM     18  O   UNL A   1      31.368  28.779  22.481  1.00  0.00    -0.376 OA
BRANCH  18  19
ATOM     19  C   UNL A   1      29.999  28.951  23.104  1.00  0.00     0.160 C 
BRANCH  19  20
ATOM     20  C   UNL A   1      29.249  30.564  23.701  1.00  0.00     0.031 C 
BRANCH  20  21
ATOM     21  C   UNL A   1      28.434  31.956  22.933  1.00  0.00    -0.015 C 
ATOM     22  C   UNL A   1      28.802  33.448  23.126  1.00  0.00     0.007 C 
ATOM     23  C   UNL A   1      28.321  31.851  21.417  1.00  0.00     0.007 C 
ENDBRANCH  20  21
ENDBRANCH  19  20
ENDBRANCH  18  19
ENDBRANCH  17  18
ENDBRANCH  16  17
ENDBRANCH   6  16
ENDBRANCH   3   5
ENDBRANCH   2   3
ENDBRANCH   1   2
BRANCH   1  24
ATOM     24  C   UNL A   1      33.366  30.842  27.251  1.00  0.00     0.202 C 
BRANCH  24  25
ATOM     25  O   UNL A   1      32.007  30.950  26.769  1.00  0.00    -0.374 OA
BRANCH  25  26
ATOM     26  C   UNL A   1      31.408  32.238  26.781  1.00  0.00     0.202 C 
BRANCH  26  27
ATOM     27  C   UNL A   1      32.263  33.516  27.030  1.00  0.00     0.261 C 
BRANCH  27  28
ATOM     28  O   UNL A   1      32.404  33.886  28.407  1.00  0.00    -0.460 OA
BRANCH  28  29
ATOM     29  C   UNL A   1      33.463  34.692  28.670  1.00  0.00     0.338 C 
ATOM     30  O   UNL A   1      33.472  35.891  28.786  1.00  0.00    -0.246 OA
BRANCH  29  31
ATOM     31  C   UNL A   1      34.620  33.842  29.003  1.00  0.00     0.060 A 
ATOM     32  C   UNL A   1      34.364  32.753  29.839  1.00  0.00     0.016 A 
ATOM     33  C   UNL A   1      35.912  34.105  28.540  1.00  0.00     0.016 A 
ATOM     34  C   UNL A   1      35.406  31.926  30.243  1.00  0.00     0.010 A 
ATOM     35  C   UNL A   1      36.964  33.273  28.951  1.00  0.00     0.010 A 
ATOM     36  C   UNL A   1      36.716  32.198  29.827  1.00  0.00    -0.014 A 
BRANCH  36  37
ATOM     37  C   UNL A   1      37.835  31.465  30.464  1.00  0.00     0.031 A 
ATOM     38  C   UNL A   1      38.168  31.786  31.893  1.00  0.00     0.074 A 
ATOM     39  C   UNL A   1      38.498  30.491  29.816  1.00  0.00     0.049 A 
ATOM     40  N   UNL A   1      39.105  31.295  32.660  1.00  0.00    -0.248 NA
ATOM     41  C   UNL A   1      37.321  32.798  32.548  1.00  0.00     0.031 C 
ATOM     42  C   UNL A   1      38.218  30.044  28.454  1.00  0.00     0.029 A 
ATOM     43  N   UNL A   1      39.547  29.702  30.218  1.00  0.00    -0.354 N 
ATOM     44  C   UNL A   1      38.964  31.936  33.882  1.00  0.00     0.074 A 
ATOM     45  C   UNL A   1      37.873  32.876  33.749  1.00  0.00     0.031 C 
ATOM     46  C   UNL A   1      39.090  29.077  28.121  1.00  0.00     0.029 A 
ATOM     47  C   UNL A   1      40.006  28.856  29.238  1.00  0.00     0.049 A 
ATOM     48  H   UNL A   1      39.933  29.739  31.123  1.00  0.00     0.167 HD
ATOM     49  C   UNL A   1      39.678  31.750  35.016  1.00  0.00     0.037 A 
ATOM     50  C   UNL A   1      41.063  28.020  29.237  1.00  0.00     0.037 A 
ATOM     51  C   UNL A   1      40.759  30.810  35.140  1.00  0.00     0.049 A 
ATOM     52  C   UNL A   1      41.903  27.902  30.484  1.00  0.00     0.074 A 
ATOM     53  C   UNL A   1      41.530  30.527  36.254  1.00  0.00     0.029 A 
ATOM     54  N   UNL A   1      41.232  30.010  34.111  1.00  0.00    -0.354 N 
ATOM     55  N   UNL A   1      41.747  28.490  31.646  1.00  0.00    -0.248 NA
ATOM     56  C   UNL A   1      43.066  27.005  30.420  1.00  0.00     0.031 C 
ATOM     57  C   UNL A   1      42.512  29.606  35.879  1.00  0.00     0.029 A 
ATOM     58  C   UNL A   1      42.313  29.264  34.551  1.00  0.00     0.049 A 
ATOM     59  H   UNL A   1      40.854  29.977  33.202  1.00  0.00     0.167 HD
ATOM     60  C   UNL A   1      42.772  28.019  32.455  1.00  0.00     0.074 A 
ATOM     61  C   UNL A   1      43.534  27.080  31.656  1.00  0.00     0.031 C 
ATOM     62  C   UNL A   1      43.059  28.335  33.742  1.00  0.00     0.037 A 
BRANCH  49  63
ATOM     63  C   UNL A   1      39.338  32.604  36.202  1.00  0.00     0.064 A 
ATOM     64  C   UNL A   1      38.422  32.188  37.179  1.00  0.00     0.173 A 
ATOM     65  C   UNL A   1      39.972  33.842  36.380  1.00  0.00     0.173 A 
ATOM     66  F   UNL A   1      37.775  31.021  37.045  1.00  0.00    -0.203 F 
ATOM     67  C   UNL A   1      38.140  32.990  38.283  1.00  0.00     0.198 A 
ATOM     68  C   UNL A   1      39.711  34.627  37.499  1.00  0.00     0.198 A 
ATOM     69  F   UNL A   1      40.856  34.287  35.473  1.00  0.00    -0.203 F 
ATOM     70  F   UNL A   1      37.230  32.593  39.183  1.00  0.00    -0.200 F 
ATOM     71  C   UNL A   1      38.792  34.204  38.447  1.00  0.00     0.200 A 
ATOM     72  F   UNL A   1      40.352  35.794  37.662  1.00  0.00    -0.200 F 
ATOM     73  F   UNL A   1      38.530  34.967  39.516  1.00  0.00    -0.200 F 
ENDBRANCH  49  63
BRANCH  50  74
ATOM     74  C   UNL A   1      41.411  27.257  28.008  1.00  0.00     0.064 A 
ATOM     75  C   UNL A   1      40.907  25.969  27.780  1.00  0.00     0.173 A 
ATOM     76  C   UNL A   1      42.283  27.792  27.048  1.00  0.00     0.173 A 
ATOM     77  F   UNL A   1      40.092  25.401  28.681  1.00  0.00    -0.203 F 
ATOM     78  C   UNL A   1      41.279  25.239  26.653  1.00  0.00     0.198 A 
ATOM     79  C   UNL A   1      42.628  27.074  25.905  1.00  0.00     0.198 A 
ATOM     80  F   UNL A   1      42.801  29.018  27.218  1.00  0.00    -0.203 F 
ATOM     81  F   UNL A   1      40.826  23.988  26.488  1.00  0.00    -0.200 F 
ATOM     82  C   UNL A   1      42.134  25.794  25.713  1.00  0.00     0.200 A 
ATOM     83  F   UNL A   1      43.448  27.620  24.996  1.00  0.00    -0.200 F 
ATOM     84  F   UNL A   1      42.492  25.091  24.630  1.00  0.00    -0.200 F 
ENDBRANCH  50  74
BRANCH  62  85
ATOM     85  C   UNL A   1      44.234  27.649  34.379  1.00  0.00     0.064 A 
ATOM     86  C   UNL A   1      45.505  28.242  34.407  1.00  0.00     0.173 A 
ATOM     87  C   UNL A   1      44.072  26.410  35.019  1.00  0.00     0.173 A 
ATOM     88  F   UNL A   1      45.715  29.419  33.798  1.00  0.00    -0.203 F 
ATOM     89  C   UNL A   1      46.574  27.610  35.036  1.00  0.00     0.198 A 
ATOM     90  C   UNL A   1      45.136  25.798  35.675  1.00  0.00     0.198 A 
ATOM     91  F   UNL A   1      42.876  25.804  35.028  1.00  0.00    -0.203 F 
ATOM     92  F   UNL A   1      47.789  28.175  35.013  1.00  0.00    -0.200 F 
ATOM     93  C   UNL A   1      46.387  26.395  35.677  1.00  0.00     0.200 A 
ATOM     94  F   UNL A   1      44.949  24.632  36.309  1.00  0.00    -0.200 F 
ATOM     95  F   UNL A   1      47.415  25.796  36.294  1.00  0.00    -0.200 F 
ENDBRANCH  62  85
ENDBRANCH  36  37
ENDBRANCH  29  31
ENDBRANCH  28  29
ENDBRANCH  27  28
ENDBRANCH  26  27
ENDBRANCH  25  26
ENDBRANCH  24  25
ENDBRANCH   1  24
TORSDOF 20
ENDMDL
