MODEL 1
REMARK VINA RESULT:     -11.7      0.000      0.000
REMARK SMILES O=C(COc1ccccc1C[NH+]1CCC2(CC[NH2+]CC2)CC1)OCCOCCOC(=O)c1ccc(-c2c3nc(c(-c4c(F)c(F)c(F)c(F)c4F)c4ccc([nH]4)c(-c4c(F)c(F)c(F)c(F)c4F)c4nc(c(-c5c(F)c(F)c(F)c(F)c5F)c5ccc2[nH]5)C=C4)C=C3)cc1
REMARK SMILES IDX 25 1 24 2 23 3 2 4 1 5 3 6 4 7 5 8 6 9 10 10 7 11 9 12 8 13
REMARK SMILES IDX 11 14 12 15 13 16 22 17 14 19 21 20 15 21 16 22 20 23 17 24
REMARK SMILES IDX 19 25 18 26 26 29 27 30 28 31 29 32 30 33 31 34 32 35 33 36
REMARK SMILES IDX 94 37 34 38 93 39 35 40 36 41 37 42 87 43 38 44 92 45 86 46
REMARK SMILES IDX 88 47 39 48 91 49 85 50 84 51 40 53 72 54 52 55 71 56 53 57
REMARK SMILES IDX 56 58 70 59 89 60 54 61 55 62 69 64 90 65 57 66 41 67 42 68
REMARK SMILES IDX 50 69 43 70 44 71 48 72 51 73 45 74 46 75 49 76 47 77 73 78
REMARK SMILES IDX 74 79 82 80 75 81 76 82 80 83 83 84 77 85 78 86 81 87 79 88
REMARK SMILES IDX 58 89 59 90 67 91 60 92 61 93 65 94 68 95 62 96 63 97 66 98
REMARK SMILES IDX 64 99
REMARK H PARENT 12 18 18 27 18 28 88 52 56 63
REMARK Flexibility Score: inf
ROOT
ATOM      1  C   UNL A   1      33.869  33.805  28.839  1.00  0.00     0.202 C 
ENDROOT
BRANCH   1   2
ATOM      2  C   UNL A   1      34.239  32.374  28.448  1.00  0.00     0.261 C 
BRANCH   2   3
ATOM      3  O   UNL A   1      33.309  31.809  27.503  1.00  0.00    -0.461 OA
BRANCH   3   4
ATOM      4  C   UNL A   1      33.245  30.483  27.215  1.00  0.00     0.344 C 
ATOM      5  O   UNL A   1      34.237  29.770  27.368  1.00  0.00    -0.248 OA
BRANCH   4   6
ATOM      6  C   UNL A   1      31.948  29.925  26.666  1.00  0.00     0.351 C 
BRANCH   6   7
ATOM      7  O   UNL A   1      32.211  28.658  26.074  1.00  0.00    -0.481 OA
BRANCH   7   8
ATOM      8  C   UNL A   1      31.424  28.402  24.989  1.00  0.00     0.129 A 
ATOM      9  C   UNL A   1      30.844  29.517  24.378  1.00  0.00     0.047 A 
ATOM     10  C   UNL A   1      31.080  27.095  24.612  1.00  0.00     0.048 A 
ATOM     11  C   UNL A   1      29.944  29.346  23.331  1.00  0.00     0.004 A 
ATOM     12  C   UNL A   1      30.204  26.949  23.522  1.00  0.00     0.013 A 
ATOM     13  C   UNL A   1      29.634  28.061  22.894  1.00  0.00     0.001 A 
BRANCH  10  14
ATOM     14  C   UNL A   1      31.599  25.855  25.314  1.00  0.00     0.302 C 
BRANCH  14  15
ATOM     15  N   UNL A   1      32.950  25.371  25.021  1.00  0.00    -0.331 N 
ATOM     16  C   UNL A   1      33.636  24.612  26.055  1.00  0.00     0.263 C 
ATOM     17  C   UNL A   1      33.194  24.838  23.693  1.00  0.00     0.263 C 
ATOM     18  H   UNL A   1      33.412  26.280  25.027  1.00  0.00     0.348 HD
ATOM     19  C   UNL A   1      33.339  23.113  26.047  1.00  0.00     0.069 C 
ATOM     20  C   UNL A   1      32.869  23.354  23.549  1.00  0.00     0.069 C 
ATOM     21  C   UNL A   1      33.458  22.442  24.656  1.00  0.00    -0.008 C 
ATOM     22  C   UNL A   1      34.935  22.096  24.345  1.00  0.00     0.069 C 
ATOM     23  C   UNL A   1      32.643  21.122  24.651  1.00  0.00     0.069 C 
ATOM     24  C   UNL A   1      35.473  20.938  25.198  1.00  0.00     0.261 C 
ATOM     25  C   UNL A   1      33.255  20.043  25.536  1.00  0.00     0.261 C 
ATOM     26  N   UNL A   1      34.628  19.745  25.125  1.00  0.00    -0.346 N 
ATOM     27  H   UNL A   1      35.012  19.028  25.741  1.00  0.00     0.346 HD
ATOM     28  H   UNL A   1      34.612  19.418  24.159  1.00  0.00     0.346 HD
ENDBRANCH  14  15
ENDBRANCH  10  14
ENDBRANCH   7   8
ENDBRANCH   6   7
ENDBRANCH   4   6
ENDBRANCH   3   4
ENDBRANCH   2   3
ENDBRANCH   1   2
BRANCH   1  29
ATOM     29  O   UNL A   1      34.718  34.468  29.770  1.00  0.00    -0.374 OA
BRANCH  29  30
ATOM     30  C   UNL A   1      34.284  34.615  31.119  1.00  0.00     0.202 C 
BRANCH  30  31
ATOM     31  C   UNL A   1      34.762  33.622  32.193  1.00  0.00     0.261 C 
BRANCH  31  32
ATOM     32  O   UNL A   1      35.329  32.398  31.694  1.00  0.00    -0.460 OA
BRANCH  32  33
ATOM     33  C   UNL A   1      36.203  31.803  32.542  1.00  0.00     0.338 C 
ATOM     34  O   UNL A   1      36.213  31.868  33.759  1.00  0.00    -0.246 OA
BRANCH  33  35
ATOM     35  C   UNL A   1      37.129  30.913  31.821  1.00  0.00     0.060 A 
ATOM     36  C   UNL A   1      38.179  30.346  32.553  1.00  0.00     0.016 A 
ATOM     37  C   UNL A   1      37.101  30.821  30.428  1.00  0.00     0.016 A 
ATOM     38  C   UNL A   1      39.246  29.749  31.888  1.00  0.00     0.010 A 
ATOM     39  C   UNL A   1      38.180  30.228  29.760  1.00  0.00     0.010 A 
ATOM     40  C   UNL A   1      39.281  29.741  30.487  1.00  0.00    -0.014 A 
BRANCH  40  41
ATOM     41  C   UNL A   1      40.559  29.394  29.817  1.00  0.00     0.031 A 
ATOM     42  C   UNL A   1      40.726  28.015  29.235  1.00  0.00     0.074 A 
ATOM     43  C   UNL A   1      41.516  30.320  29.645  1.00  0.00     0.049 A 
ATOM     44  N   UNL A   1      41.709  27.528  28.520  1.00  0.00    -0.248 NA
ATOM     45  C   UNL A   1      39.636  27.059  29.485  1.00  0.00     0.031 C 
ATOM     46  C   UNL A   1      41.460  31.693  30.140  1.00  0.00     0.029 A 
ATOM     47  N   UNL A   1      42.720  30.243  28.990  1.00  0.00    -0.354 N 
ATOM     48  C   UNL A   1      41.347  26.221  28.221  1.00  0.00     0.074 A 
ATOM     49  C   UNL A   1      40.075  25.974  28.865  1.00  0.00     0.031 C 
ATOM     50  C   UNL A   1      42.583  32.333  29.772  1.00  0.00     0.029 A 
ATOM     51  C   UNL A   1      43.436  31.413  29.022  1.00  0.00     0.049 A 
ATOM     52  H   UNL A   1      43.039  29.428  28.541  1.00  0.00     0.167 HD
ATOM     53  C   UNL A   1      42.007  25.312  27.463  1.00  0.00     0.037 A 
ATOM     54  C   UNL A   1      44.644  31.705  28.502  1.00  0.00     0.037 A 
ATOM     55  C   UNL A   1      43.279  25.546  26.832  1.00  0.00     0.049 A 
ATOM     56  C   UNL A   1      45.376  30.664  27.696  1.00  0.00     0.074 A 
ATOM     57  C   UNL A   1      44.034  24.684  26.058  1.00  0.00     0.029 A 
ATOM     58  N   UNL A   1      43.985  26.737  26.910  1.00  0.00    -0.354 N 
ATOM     59  N   UNL A   1      45.013  29.440  27.399  1.00  0.00    -0.248 NA
ATOM     60  C   UNL A   1      46.679  31.055  27.138  1.00  0.00     0.031 C 
ATOM     61  C   UNL A   1      45.213  25.343  25.691  1.00  0.00     0.029 A 
ATOM     62  C   UNL A   1      45.175  26.628  26.207  1.00  0.00     0.049 A 
ATOM     63  H   UNL A   1      43.686  27.541  27.393  1.00  0.00     0.167 HD
ATOM     64  C   UNL A   1      46.032  28.920  26.612  1.00  0.00     0.074 A 
ATOM     65  C   UNL A   1      47.017  29.969  26.457  1.00  0.00     0.031 C 
ATOM     66  C   UNL A   1      46.145  27.682  26.070  1.00  0.00     0.037 A 
BRANCH  53  67
ATOM     67  C   UNL A   1      41.361  23.971  27.279  1.00  0.00     0.064 A 
ATOM     68  C   UNL A   1      40.204  23.821  26.500  1.00  0.00     0.173 A 
ATOM     69  C   UNL A   1      41.918  22.823  27.857  1.00  0.00     0.173 A 
ATOM     70  F   UNL A   1      39.626  24.893  25.936  1.00  0.00    -0.203 F 
ATOM     71  C   UNL A   1      39.619  22.570  26.321  1.00  0.00     0.198 A 
ATOM     72  C   UNL A   1      41.343  21.570  27.660  1.00  0.00     0.198 A 
ATOM     73  F   UNL A   1      43.026  22.914  28.610  1.00  0.00    -0.203 F 
ATOM     74  F   UNL A   1      38.496  22.454  25.600  1.00  0.00    -0.200 F 
ATOM     75  C   UNL A   1      40.192  21.446  26.896  1.00  0.00     0.200 A 
ATOM     76  F   UNL A   1      41.902  20.483  28.209  1.00  0.00    -0.200 F 
ATOM     77  F   UNL A   1      39.631  20.242  26.719  1.00  0.00    -0.200 F 
ENDBRANCH  53  67
BRANCH  54  78
ATOM     78  C   UNL A   1      45.236  33.047  28.725  1.00  0.00     0.064 A 
ATOM     79  C   UNL A   1      44.975  34.112  27.851  1.00  0.00     0.173 A 
ATOM     80  C   UNL A   1      46.084  33.288  29.815  1.00  0.00     0.173 A 
ATOM     81  F   UNL A   1      44.191  33.922  26.780  1.00  0.00    -0.203 F 
ATOM     82  C   UNL A   1      45.556  35.363  28.051  1.00  0.00     0.198 A 
ATOM     83  C   UNL A   1      46.643  34.545  30.028  1.00  0.00     0.198 A 
ATOM     84  F   UNL A   1      46.365  32.300  30.678  1.00  0.00    -0.203 F 
ATOM     85  F   UNL A   1      45.327  36.353  27.178  1.00  0.00    -0.200 F 
ATOM     86  C   UNL A   1      46.384  35.580  29.143  1.00  0.00     0.200 A 
ATOM     87  F   UNL A   1      47.437  34.753  31.088  1.00  0.00    -0.200 F 
ATOM     88  F   UNL A   1      46.940  36.784  29.335  1.00  0.00    -0.200 F 
ENDBRANCH  54  78
BRANCH  66  89
ATOM     89  C   UNL A   1      47.373  27.404  25.256  1.00  0.00     0.064 A 
ATOM     90  C   UNL A   1      47.439  27.736  23.894  1.00  0.00     0.173 A 
ATOM     91  C   UNL A   1      48.504  26.822  25.847  1.00  0.00     0.173 A 
ATOM     92  F   UNL A   1      46.377  28.282  23.282  1.00  0.00    -0.203 F 
ATOM     93  C   UNL A   1      48.582  27.468  23.147  1.00  0.00     0.198 A 
ATOM     94  C   UNL A   1      49.654  26.577  25.102  1.00  0.00     0.198 A 
ATOM     95  F   UNL A   1      48.494  26.492  27.147  1.00  0.00    -0.203 F 
ATOM     96  F   UNL A   1      48.606  27.751  21.837  1.00  0.00    -0.200 F 
ATOM     97  C   UNL A   1      49.690  26.894  23.752  1.00  0.00     0.200 A 
ATOM     98  F   UNL A   1      50.728  26.029  25.689  1.00  0.00    -0.200 F 
ATOM     99  F   UNL A   1      50.789  26.635  23.030  1.00  0.00    -0.200 F 
ENDBRANCH  66  89
ENDBRANCH  40  41
ENDBRANCH  33  35
ENDBRANCH  32  33
ENDBRANCH  31  32
ENDBRANCH  30  31
ENDBRANCH  29  30
ENDBRANCH   1  29
TORSDOF 18
ENDMDL
MODEL 2
REMARK VINA RESULT:     -11.6      4.620      9.215
REMARK SMILES O=C(COc1ccccc1C[NH+]1CCC2(CC[NH2+]CC2)CC1)OCCOCCOC(=O)c1ccc(-c2c3nc(c(-c4c(F)c(F)c(F)c(F)c4F)c4ccc([nH]4)c(-c4c(F)c(F)c(F)c(F)c4F)c4nc(c(-c5c(F)c(F)c(F)c(F)c5F)c5ccc2[nH]5)C=C4)C=C3)cc1
REMARK SMILES IDX 25 1 24 2 23 3 2 4 1 5 3 6 4 7 5 8 6 9 10 10 7 11 9 12 8 13
REMARK SMILES IDX 11 14 12 15 13 16 22 17 14 19 21 20 15 21 16 22 20 23 17 24
REMARK SMILES IDX 19 25 18 26 26 29 27 30 28 31 29 32 30 33 31 34 32 35 33 36
REMARK SMILES IDX 94 37 34 38 93 39 35 40 36 41 37 42 87 43 38 44 92 45 86 46
REMARK SMILES IDX 88 47 39 48 91 49 85 50 84 51 40 53 72 54 52 55 71 56 53 57
REMARK SMILES IDX 56 58 70 59 89 60 54 61 55 62 69 64 90 65 57 66 41 67 42 68
REMARK SMILES IDX 50 69 43 70 44 71 48 72 51 73 45 74 46 75 49 76 47 77 73 78
REMARK SMILES IDX 74 79 82 80 75 81 76 82 80 83 83 84 77 85 78 86 81 87 79 88
REMARK SMILES IDX 58 89 59 90 67 91 60 92 61 93 65 94 68 95 62 96 63 97 66 98
REMARK SMILES IDX 64 99
REMARK H PARENT 12 18 18 27 18 28 88 52 56 63
REMARK Flexibility Score: inf
ROOT
ATOM      1  C   UNL A   1      34.919  29.318  27.177  1.00  0.00     0.202 C 
ENDROOT
BRANCH   1   2
ATOM      2  C   UNL A   1      33.620  28.685  26.676  1.00  0.00     0.261 C 
BRANCH   2   3
ATOM      3  O   UNL A   1      33.375  28.973  25.286  1.00  0.00    -0.461 OA
BRANCH   3   4
ATOM      4  C   UNL A   1      33.543  28.063  24.291  1.00  0.00     0.344 C 
ATOM      5  O   UNL A   1      34.131  27.005  24.515  1.00  0.00    -0.248 OA
BRANCH   4   6
ATOM      6  C   UNL A   1      33.031  28.404  22.906  1.00  0.00     0.351 C 
BRANCH   6   7
ATOM      7  O   UNL A   1      32.216  27.333  22.445  1.00  0.00    -0.481 OA
BRANCH   7   8
ATOM      8  C   UNL A   1      30.894  27.506  22.734  1.00  0.00     0.129 A 
ATOM      9  C   UNL A   1      30.421  28.820  22.676  1.00  0.00     0.047 A 
ATOM     10  C   UNL A   1      30.097  26.460  23.224  1.00  0.00     0.048 A 
ATOM     11  C   UNL A   1      29.114  29.107  23.057  1.00  0.00     0.004 A 
ATOM     12  C   UNL A   1      28.766  26.766  23.560  1.00  0.00     0.013 A 
ATOM     13  C   UNL A   1      28.282  28.077  23.487  1.00  0.00     0.001 A 
BRANCH  10  14
ATOM     14  C   UNL A   1      30.597  25.040  23.408  1.00  0.00     0.302 C 
BRANCH  14  15
ATOM     15  N   UNL A   1      32.009  24.806  23.723  1.00  0.00    -0.331 N 
ATOM     16  C   UNL A   1      32.329  24.266  25.035  1.00  0.00     0.263 C 
ATOM     17  C   UNL A   1      32.841  24.242  22.676  1.00  0.00     0.263 C 
ATOM     18  H   UNL A   1      32.287  25.786  23.780  1.00  0.00     0.348 HD
ATOM     19  C   UNL A   1      32.289  22.741  25.122  1.00  0.00     0.069 C 
ATOM     20  C   UNL A   1      32.829  22.717  22.627  1.00  0.00     0.069 C 
ATOM     21  C   UNL A   1      33.055  22.013  23.989  1.00  0.00    -0.008 C 
ATOM     22  C   UNL A   1      34.567  21.938  24.316  1.00  0.00     0.069 C 
ATOM     23  C   UNL A   1      32.519  20.563  23.855  1.00  0.00     0.069 C 
ATOM     24  C   UNL A   1      34.886  20.967  25.461  1.00  0.00     0.261 C 
ATOM     25  C   UNL A   1      32.881  19.685  25.048  1.00  0.00     0.261 C 
ATOM     26  N   UNL A   1      34.331  19.630  25.237  1.00  0.00    -0.346 N 
ATOM     27  H   UNL A   1      34.540  19.044  26.046  1.00  0.00     0.346 HD
ATOM     28  H   UNL A   1      34.753  19.242  24.393  1.00  0.00     0.346 HD
ENDBRANCH  14  15
ENDBRANCH  10  14
ENDBRANCH   7   8
ENDBRANCH   6   7
ENDBRANCH   4   6
ENDBRANCH   3   4
ENDBRANCH   2   3
ENDBRANCH   1   2
BRANCH   1  29
ATOM     29  O   UNL A   1      34.875  30.691  27.553  1.00  0.00    -0.374 OA
BRANCH  29  30
ATOM     30  C   UNL A   1      33.608  31.323  27.717  1.00  0.00     0.202 C 
BRANCH  30  31
ATOM     31  C   UNL A   1      33.453  32.824  27.417  1.00  0.00     0.261 C 
BRANCH  31  32
ATOM     32  O   UNL A   1      32.543  33.535  28.272  1.00  0.00    -0.460 OA
BRANCH  32  33
ATOM     33  C   UNL A   1      33.015  34.722  28.725  1.00  0.00     0.338 C 
ATOM     34  O   UNL A   1      32.513  35.823  28.575  1.00  0.00    -0.246 OA
BRANCH  33  35
ATOM     35  C   UNL A   1      34.204  34.539  29.574  1.00  0.00     0.060 A 
ATOM     36  C   UNL A   1      35.458  34.688  28.968  1.00  0.00     0.016 A 
ATOM     37  C   UNL A   1      34.095  34.014  30.863  1.00  0.00     0.016 A 
ATOM     38  C   UNL A   1      36.602  34.242  29.622  1.00  0.00     0.010 A 
ATOM     39  C   UNL A   1      35.246  33.557  31.516  1.00  0.00     0.010 A 
ATOM     40  C   UNL A   1      36.496  33.619  30.873  1.00  0.00    -0.014 A 
BRANCH  40  41
ATOM     41  C   UNL A   1      37.671  32.877  31.392  1.00  0.00     0.031 A 
ATOM     42  C   UNL A   1      38.206  33.221  32.758  1.00  0.00     0.074 A 
ATOM     43  C   UNL A   1      38.193  31.850  30.702  1.00  0.00     0.049 A 
ATOM     44  N   UNL A   1      39.152  32.638  33.451  1.00  0.00    -0.248 NA
ATOM     45  C   UNL A   1      37.587  34.370  33.436  1.00  0.00     0.031 C 
ATOM     46  C   UNL A   1      37.747  31.407  29.383  1.00  0.00     0.029 A 
ATOM     47  N   UNL A   1      39.208  30.984  31.026  1.00  0.00    -0.354 N 
ATOM     48  C   UNL A   1      39.227  33.336  34.649  1.00  0.00     0.074 A 
ATOM     49  C   UNL A   1      38.261  34.411  34.575  1.00  0.00     0.031 C 
ATOM     50  C   UNL A   1      38.486  30.349  29.008  1.00  0.00     0.029 A 
ATOM     51  C   UNL A   1      39.459  30.047  30.056  1.00  0.00     0.049 A 
ATOM     52  H   UNL A   1      39.707  31.032  31.873  1.00  0.00     0.167 HD
ATOM     53  C   UNL A   1      40.017  33.093  35.723  1.00  0.00     0.037 A 
ATOM     54  C   UNL A   1      40.372  29.057  30.023  1.00  0.00     0.037 A 
ATOM     55  C   UNL A   1      40.989  32.034  35.796  1.00  0.00     0.049 A 
ATOM     56  C   UNL A   1      41.266  28.831  31.213  1.00  0.00     0.074 A 
ATOM     57  C   UNL A   1      41.847  31.717  36.833  1.00  0.00     0.029 A 
ATOM     58  N   UNL A   1      41.232  31.121  34.781  1.00  0.00    -0.354 N 
ATOM     59  N   UNL A   1      41.311  29.482  32.350  1.00  0.00    -0.248 NA
ATOM     60  C   UNL A   1      42.224  27.721  31.120  1.00  0.00     0.031 C 
ATOM     61  C   UNL A   1      42.632  30.628  36.435  1.00  0.00     0.029 A 
ATOM     62  C   UNL A   1      42.236  30.246  35.163  1.00  0.00     0.049 A 
ATOM     63  H   UNL A   1      40.760  31.098  33.917  1.00  0.00     0.167 HD
ATOM     64  C   UNL A   1      42.288  28.855  33.111  1.00  0.00     0.074 A 
ATOM     65  C   UNL A   1      42.796  27.757  32.316  1.00  0.00     0.031 C 
ATOM     66  C   UNL A   1      42.731  29.163  34.355  1.00  0.00     0.037 A 
BRANCH  53  67
ATOM     67  C   UNL A   1      39.863  33.998  36.908  1.00  0.00     0.064 A 
ATOM     68  C   UNL A   1      39.034  33.652  37.985  1.00  0.00     0.173 A 
ATOM     69  C   UNL A   1      40.574  35.203  36.985  1.00  0.00     0.173 A 
ATOM     70  F   UNL A   1      38.323  32.514  37.952  1.00  0.00    -0.203 F 
ATOM     71  C   UNL A   1      38.909  34.491  39.090  1.00  0.00     0.198 A 
ATOM     72  C   UNL A   1      40.463  36.030  38.100  1.00  0.00     0.198 A 
ATOM     73  F   UNL A   1      41.382  35.577  35.982  1.00  0.00    -0.203 F 
ATOM     74  F   UNL A   1      38.085  34.157  40.093  1.00  0.00    -0.200 F 
ATOM     75  C   UNL A   1      39.627  35.675  39.149  1.00  0.00     0.200 A 
ATOM     76  F   UNL A   1      41.164  37.170  38.161  1.00  0.00    -0.200 F 
ATOM     77  F   UNL A   1      39.510  36.478  40.216  1.00  0.00    -0.200 F 
ENDBRANCH  53  67
BRANCH  54  78
ATOM     78  C   UNL A   1      40.482  28.199  28.816  1.00  0.00     0.064 A 
ATOM     79  C   UNL A   1      41.284  28.572  27.729  1.00  0.00     0.173 A 
ATOM     80  C   UNL A   1      39.778  26.990  28.726  1.00  0.00     0.173 A 
ATOM     81  F   UNL A   1      41.956  29.733  27.760  1.00  0.00    -0.203 F 
ATOM     82  C   UNL A   1      41.362  27.776  26.588  1.00  0.00     0.198 A 
ATOM     83  C   UNL A   1      39.876  26.183  27.596  1.00  0.00     0.198 A 
ATOM     84  F   UNL A   1      38.996  26.592  29.741  1.00  0.00    -0.203 F 
ATOM     85  F   UNL A   1      42.100  28.175  25.544  1.00  0.00    -0.200 F 
ATOM     86  C   UNL A   1      40.663  26.579  26.525  1.00  0.00     0.200 A 
ATOM     87  F   UNL A   1      39.205  25.024  27.542  1.00  0.00    -0.200 F 
ATOM     88  F   UNL A   1      40.740  25.813  25.429  1.00  0.00    -0.200 F 
ENDBRANCH  54  78
BRANCH  66  89
ATOM     89  C   UNL A   1      43.811  28.295  34.929  1.00  0.00     0.064 A 
ATOM     90  C   UNL A   1      43.506  27.138  35.661  1.00  0.00     0.173 A 
ATOM     91  C   UNL A   1      45.162  28.609  34.725  1.00  0.00     0.173 A 
ATOM     92  F   UNL A   1      42.228  26.804  35.894  1.00  0.00    -0.203 F 
ATOM     93  C   UNL A   1      44.517  26.342  36.194  1.00  0.00     0.198 A 
ATOM     94  C   UNL A   1      46.170  27.798  35.240  1.00  0.00     0.198 A 
ATOM     95  F   UNL A   1      45.505  29.701  34.026  1.00  0.00    -0.203 F 
ATOM     96  F   UNL A   1      44.203  25.267  36.930  1.00  0.00    -0.200 F 
ATOM     97  C   UNL A   1      45.847  26.670  35.979  1.00  0.00     0.200 A 
ATOM     98  F   UNL A   1      47.456  28.111  35.024  1.00  0.00    -0.200 F 
ATOM     99  F   UNL A   1      46.819  25.904  36.494  1.00  0.00    -0.200 F 
ENDBRANCH  66  89
ENDBRANCH  40  41
ENDBRANCH  33  35
ENDBRANCH  32  33
ENDBRANCH  31  32
ENDBRANCH  30  31
ENDBRANCH  29  30
ENDBRANCH   1  29
TORSDOF 18
ENDMDL
MODEL 3
REMARK VINA RESULT:     -11.5      3.760      9.813
REMARK SMILES O=C(COc1ccccc1C[NH+]1CCC2(CC[NH2+]CC2)CC1)OCCOCCOC(=O)c1ccc(-c2c3nc(c(-c4c(F)c(F)c(F)c(F)c4F)c4ccc([nH]4)c(-c4c(F)c(F)c(F)c(F)c4F)c4nc(c(-c5c(F)c(F)c(F)c(F)c5F)c5ccc2[nH]5)C=C4)C=C3)cc1
REMARK SMILES IDX 25 1 24 2 23 3 2 4 1 5 3 6 4 7 5 8 6 9 10 10 7 11 9 12 8 13
REMARK SMILES IDX 11 14 12 15 13 16 22 17 14 19 21 20 15 21 16 22 20 23 17 24
REMARK SMILES IDX 19 25 18 26 26 29 27 30 28 31 29 32 30 33 31 34 32 35 33 36
REMARK SMILES IDX 94 37 34 38 93 39 35 40 36 41 37 42 87 43 38 44 92 45 86 46
REMARK SMILES IDX 88 47 39 48 91 49 85 50 84 51 40 53 72 54 52 55 71 56 53 57
REMARK SMILES IDX 56 58 70 59 89 60 54 61 55 62 69 64 90 65 57 66 41 67 42 68
REMARK SMILES IDX 50 69 43 70 44 71 48 72 51 73 45 74 46 75 49 76 47 77 73 78
REMARK SMILES IDX 74 79 82 80 75 81 76 82 80 83 83 84 77 85 78 86 81 87 79 88
REMARK SMILES IDX 58 89 59 90 67 91 60 92 61 93 65 94 68 95 62 96 63 97 66 98
REMARK SMILES IDX 64 99
REMARK H PARENT 12 18 18 27 18 28 88 52 56 63
REMARK Flexibility Score: inf
ROOT
ATOM      1  C   UNL A   1      40.687  22.282  27.112  1.00  0.00     0.202 C 
ENDROOT
BRANCH   1   2
ATOM      2  C   UNL A   1      39.568  21.842  26.166  1.00  0.00     0.261 C 
BRANCH   2   3
ATOM      3  O   UNL A   1      38.467  22.770  26.156  1.00  0.00    -0.461 OA
BRANCH   3   4
ATOM      4  C   UNL A   1      37.396  22.654  25.328  1.00  0.00     0.344 C 
ATOM      5  O   UNL A   1      37.044  23.610  24.637  1.00  0.00    -0.248 OA
BRANCH   4   6
ATOM      6  C   UNL A   1      36.634  21.344  25.311  1.00  0.00     0.351 C 
BRANCH   6   7
ATOM      7  O   UNL A   1      35.363  21.549  25.916  1.00  0.00    -0.481 OA
BRANCH   7   8
ATOM      8  C   UNL A   1      34.363  20.845  25.310  1.00  0.00     0.129 A 
ATOM      9  C   UNL A   1      34.667  19.525  24.965  1.00  0.00     0.047 A 
ATOM     10  C   UNL A   1      33.166  21.454  24.903  1.00  0.00     0.048 A 
ATOM     11  C   UNL A   1      33.748  18.764  24.249  1.00  0.00     0.004 A 
ATOM     12  C   UNL A   1      32.234  20.651  24.221  1.00  0.00     0.013 A 
ATOM     13  C   UNL A   1      32.526  19.324  23.888  1.00  0.00     0.001 A 
BRANCH  10  14
ATOM     14  C   UNL A   1      32.838  22.913  25.158  1.00  0.00     0.302 C 
BRANCH  14  15
ATOM     15  N   UNL A   1      33.802  23.948  24.775  1.00  0.00    -0.331 N 
ATOM     16  C   UNL A   1      33.729  24.471  23.420  1.00  0.00     0.263 C 
ATOM     17  C   UNL A   1      34.093  24.982  25.751  1.00  0.00     0.263 C 
ATOM     18  H   UNL A   1      34.629  23.351  24.770  1.00  0.00     0.348 HD
ATOM     19  C   UNL A   1      32.750  25.631  23.238  1.00  0.00     0.069 C 
ATOM     20  C   UNL A   1      33.135  26.168  25.704  1.00  0.00     0.069 C 
ATOM     21  C   UNL A   1      32.887  26.758  24.292  1.00  0.00    -0.008 C 
ATOM     22  C   UNL A   1      34.028  27.730  23.903  1.00  0.00     0.069 C 
ATOM     23  C   UNL A   1      31.565  27.567  24.354  1.00  0.00     0.069 C 
ATOM     24  C   UNL A   1      33.684  28.602  22.687  1.00  0.00     0.261 C 
ATOM     25  C   UNL A   1      31.313  28.389  23.095  1.00  0.00     0.261 C 
ATOM     26  N   UNL A   1      32.417  29.318  22.846  1.00  0.00    -0.346 N 
ATOM     27  H   UNL A   1      32.223  29.845  21.995  1.00  0.00     0.346 HD
ATOM     28  H   UNL A   1      32.498  29.945  23.646  1.00  0.00     0.346 HD
ENDBRANCH  14  15
ENDBRANCH  10  14
ENDBRANCH   7   8
ENDBRANCH   6   7
ENDBRANCH   4   6
ENDBRANCH   3   4
ENDBRANCH   2   3
ENDBRANCH   1   2
BRANCH   1  29
ATOM     29  O   UNL A   1      41.788  21.394  27.280  1.00  0.00    -0.374 OA
BRANCH  29  30
ATOM     30  C   UNL A   1      41.552  19.989  27.263  1.00  0.00     0.202 C 
BRANCH  30  31
ATOM     31  C   UNL A   1      42.257  19.104  26.220  1.00  0.00     0.261 C 
BRANCH  31  32
ATOM     32  O   UNL A   1      42.635  19.766  25.001  1.00  0.00    -0.460 OA
BRANCH  32  33
ATOM     33  C   UNL A   1      43.956  19.685  24.709  1.00  0.00     0.338 C 
ATOM     34  O   UNL A   1      44.553  18.729  24.243  1.00  0.00    -0.246 OA
BRANCH  33  35
ATOM     35  C   UNL A   1      44.630  20.980  24.903  1.00  0.00     0.060 A 
ATOM     36  C   UNL A   1      45.279  21.192  26.126  1.00  0.00     0.016 A 
ATOM     37  C   UNL A   1      44.437  22.034  24.008  1.00  0.00     0.016 A 
ATOM     38  C   UNL A   1      45.671  22.477  26.490  1.00  0.00     0.010 A 
ATOM     39  C   UNL A   1      44.822  23.328  24.380  1.00  0.00     0.010 A 
ATOM     40  C   UNL A   1      45.390  23.560  25.646  1.00  0.00    -0.014 A 
BRANCH  40  41
ATOM     41  C   UNL A   1      45.525  24.933  26.194  1.00  0.00     0.031 A 
ATOM     42  C   UNL A   1      46.860  25.625  26.105  1.00  0.00     0.074 A 
ATOM     43  C   UNL A   1      44.455  25.587  26.674  1.00  0.00     0.049 A 
ATOM     44  N   UNL A   1      47.181  26.854  26.423  1.00  0.00    -0.248 NA
ATOM     45  C   UNL A   1      47.980  24.828  25.582  1.00  0.00     0.031 C 
ATOM     46  C   UNL A   1      43.109  25.033  26.788  1.00  0.00     0.029 A 
ATOM     47  N   UNL A   1      44.335  26.872  27.143  1.00  0.00    -0.354 N 
ATOM     48  C   UNL A   1      48.530  26.982  26.120  1.00  0.00     0.074 A 
ATOM     49  C   UNL A   1      48.980  25.695  25.633  1.00  0.00     0.031 C 
ATOM     50  C   UNL A   1      42.294  25.974  27.297  1.00  0.00     0.029 A 
ATOM     51  C   UNL A   1      43.065  27.190  27.549  1.00  0.00     0.049 A 
ATOM     52  H   UNL A   1      45.089  27.503  27.184  1.00  0.00     0.167 HD
ATOM     53  C   UNL A   1      49.322  28.077  26.222  1.00  0.00     0.037 A 
ATOM     54  C   UNL A   1      42.580  28.338  28.064  1.00  0.00     0.037 A 
ATOM     55  C   UNL A   1      48.884  29.355  26.719  1.00  0.00     0.049 A 
ATOM     56  C   UNL A   1      43.489  29.530  28.204  1.00  0.00     0.074 A 
ATOM     57  C   UNL A   1      49.613  30.519  26.875  1.00  0.00     0.029 A 
ATOM     58  N   UNL A   1      47.594  29.630  27.145  1.00  0.00    -0.354 N 
ATOM     59  N   UNL A   1      44.757  29.646  27.892  1.00  0.00    -0.248 NA
ATOM     60  C   UNL A   1      42.892  30.756  28.752  1.00  0.00     0.031 C 
ATOM     61  C   UNL A   1      48.771  31.494  27.424  1.00  0.00     0.029 A 
ATOM     62  C   UNL A   1      47.508  30.944  27.576  1.00  0.00     0.049 A 
ATOM     63  H   UNL A   1      46.848  28.987  27.142  1.00  0.00     0.167 HD
ATOM     64  C   UNL A   1      45.106  30.956  28.192  1.00  0.00     0.074 A 
ATOM     65  C   UNL A   1      43.910  31.603  28.689  1.00  0.00     0.031 C 
ATOM     66  C   UNL A   1      46.310  31.568  28.072  1.00  0.00     0.037 A 
BRANCH  53  67
ATOM     67  C   UNL A   1      50.750  27.936  25.789  1.00  0.00     0.064 A 
ATOM     68  C   UNL A   1      51.774  27.711  26.721  1.00  0.00     0.173 A 
ATOM     69  C   UNL A   1      51.096  27.993  24.433  1.00  0.00     0.173 A 
ATOM     70  F   UNL A   1      51.496  27.663  28.033  1.00  0.00    -0.203 F 
ATOM     71  C   UNL A   1      53.097  27.566  26.309  1.00  0.00     0.198 A 
ATOM     72  C   UNL A   1      52.416  27.826  24.022  1.00  0.00     0.198 A 
ATOM     73  F   UNL A   1      50.152  28.203  23.502  1.00  0.00    -0.203 F 
ATOM     74  F   UNL A   1      54.065  27.385  27.219  1.00  0.00    -0.200 F 
ATOM     75  C   UNL A   1      53.415  27.617  24.961  1.00  0.00     0.200 A 
ATOM     76  F   UNL A   1      52.722  27.868  22.718  1.00  0.00    -0.200 F 
ATOM     77  F   UNL A   1      54.688  27.472  24.566  1.00  0.00    -0.200 F 
ENDBRANCH  53  67
BRANCH  54  78
ATOM     78  C   UNL A   1      41.158  28.413  28.483  1.00  0.00     0.064 A 
ATOM     79  C   UNL A   1      40.750  27.985  29.753  1.00  0.00     0.173 A 
ATOM     80  C   UNL A   1      40.177  28.908  27.612  1.00  0.00     0.173 A 
ATOM     81  F   UNL A   1      41.650  27.479  30.610  1.00  0.00    -0.203 F 
ATOM     82  C   UNL A   1      39.409  28.032  30.130  1.00  0.00     0.198 A 
ATOM     83  C   UNL A   1      38.842  28.979  27.999  1.00  0.00     0.198 A 
ATOM     84  F   UNL A   1      40.519  29.328  26.385  1.00  0.00    -0.203 F 
ATOM     85  F   UNL A   1      39.037  27.576  31.333  1.00  0.00    -0.200 F 
ATOM     86  C   UNL A   1      38.457  28.535  29.255  1.00  0.00     0.200 A 
ATOM     87  F   UNL A   1      37.926  29.472  27.153  1.00  0.00    -0.200 F 
ATOM     88  F   UNL A   1      37.168  28.583  29.619  1.00  0.00    -0.200 F 
ENDBRANCH  54  78
BRANCH  66  89
ATOM     89  C   UNL A   1      46.386  33.010  28.480  1.00  0.00     0.064 A 
ATOM     90  C   UNL A   1      46.121  34.042  27.567  1.00  0.00     0.173 A 
ATOM     91  C   UNL A   1      46.702  33.362  29.800  1.00  0.00     0.173 A 
ATOM     92  F   UNL A   1      45.828  33.754  26.290  1.00  0.00    -0.203 F 
ATOM     93  C   UNL A   1      46.200  35.376  27.955  1.00  0.00     0.198 A 
ATOM     94  C   UNL A   1      46.756  34.697  30.190  1.00  0.00     0.198 A 
ATOM     95  F   UNL A   1      46.957  32.411  30.711  1.00  0.00    -0.203 F 
ATOM     96  F   UNL A   1      45.989  36.347  27.056  1.00  0.00    -0.200 F 
ATOM     97  C   UNL A   1      46.512  35.702  29.267  1.00  0.00     0.200 A 
ATOM     98  F   UNL A   1      47.051  35.012  31.459  1.00  0.00    -0.200 F 
ATOM     99  F   UNL A   1      46.589  36.988  29.637  1.00  0.00    -0.200 F 
ENDBRANCH  66  89
ENDBRANCH  40  41
ENDBRANCH  33  35
ENDBRANCH  32  33
ENDBRANCH  31  32
ENDBRANCH  30  31
ENDBRANCH  29  30
ENDBRANCH   1  29
TORSDOF 18
ENDMDL
