MODEL 1
REMARK VINA RESULT:     -11.8      0.000      0.000
REMARK SMILES O=C(C[NH+]1CCN(c2nccc(N3CCCCC3)n2)CC1)OCCOCCOC(=O)c1ccc(-c2c3nc(c(-c4c(F)c(F)c(F)c(F)c4F)c4ccc([nH]4)c(-c4c(F)c(F)c(F)c(F)c4F)c4nc(c(-c5c(F)c(F)c(F)c(F)c5F)c5ccc2[nH]5)C=C4)C=C3)cc1
REMARK SMILES IDX 24 1 23 2 22 3 2 4 1 5 3 6 4 7 5 8 21 9 6 11 20 12 7 13 8 14
REMARK SMILES IDX 9 15 19 16 10 17 12 18 11 19 13 20 14 21 18 22 15 23 17 24
REMARK SMILES IDX 16 25 25 26 26 27 27 28 28 29 29 30 30 31 31 32 32 33 93 34
REMARK SMILES IDX 33 35 92 36 34 37 35 38 36 39 86 40 37 41 91 42 85 43 87 44
REMARK SMILES IDX 38 45 90 46 84 47 83 48 39 50 71 51 51 52 70 53 52 54 55 55
REMARK SMILES IDX 69 56 88 57 53 58 54 59 68 61 89 62 56 63 40 64 41 65 49 66
REMARK SMILES IDX 42 67 43 68 47 69 50 70 44 71 45 72 48 73 46 74 72 75 73 76
REMARK SMILES IDX 81 77 74 78 75 79 79 80 82 81 76 82 77 83 80 84 78 85 57 86
REMARK SMILES IDX 58 87 66 88 59 89 60 90 64 91 67 92 61 93 62 94 65 95 63 96
REMARK H PARENT 4 10 87 49 55 60
REMARK Flexibility Score: inf
ROOT
ATOM      1  C   UNL A   1      42.672  20.236  25.820  1.00  0.00     0.202 C 
ENDROOT
BRANCH   1   2
ATOM      2  C   UNL A   1      41.327  20.051  26.519  1.00  0.00     0.261 C 
BRANCH   2   3
ATOM      3  O   UNL A   1      40.369  21.033  26.125  1.00  0.00    -0.459 OA
BRANCH   3   4
ATOM      4  C   UNL A   1      40.032  22.103  26.885  1.00  0.00     0.361 C 
ATOM      5  O   UNL A   1      40.670  22.303  27.921  1.00  0.00    -0.245 OA
BRANCH   4   6
ATOM      6  C   UNL A   1      38.769  22.919  26.593  1.00  0.00     0.386 C 
BRANCH   6   7
ATOM      7  N   UNL A   1      38.250  22.876  25.199  1.00  0.00    -0.323 N 
ATOM      8  C   UNL A   1      37.752  21.523  24.804  1.00  0.00     0.284 C 
ATOM      9  C   UNL A   1      37.051  23.771  25.090  1.00  0.00     0.284 C 
ATOM     10  H   UNL A   1      39.030  23.154  24.603  1.00  0.00     0.348 HD
ATOM     11  C   UNL A   1      36.583  20.948  25.634  1.00  0.00     0.181 C 
ATOM     12  C   UNL A   1      35.804  23.307  25.890  1.00  0.00     0.181 C 
ATOM     13  N   UNL A   1      35.491  21.905  25.668  1.00  0.00    -0.329 N 
BRANCH  13  14
ATOM     14  C   UNL A   1      34.394  21.532  24.933  1.00  0.00     0.227 A 
ATOM     15  N   UNL A   1      33.670  22.531  24.401  1.00  0.00    -0.221 NA
ATOM     16  N   UNL A   1      34.070  20.235  24.825  1.00  0.00    -0.196 NA
ATOM     17  C   UNL A   1      32.600  22.192  23.674  1.00  0.00     0.119 A 
ATOM     18  C   UNL A   1      32.968  19.928  24.117  1.00  0.00     0.134 A 
ATOM     19  C   UNL A   1      32.211  20.895  23.489  1.00  0.00     0.067 A 
BRANCH  18  20
ATOM     20  N   UNL A   1      32.539  18.613  24.047  1.00  0.00    -0.356 N 
ATOM     21  C   UNL A   1      32.316  17.886  25.288  1.00  0.00     0.118 C 
ATOM     22  C   UNL A   1      32.825  17.868  22.831  1.00  0.00     0.118 C 
ATOM     23  C   UNL A   1      33.398  16.840  25.530  1.00  0.00     0.022 C 
ATOM     24  C   UNL A   1      33.941  16.855  23.081  1.00  0.00     0.022 C 
ATOM     25  C   UNL A   1      33.622  15.977  24.289  1.00  0.00     0.004 C 
ENDBRANCH  18  20
ENDBRANCH  13  14
ENDBRANCH   6   7
ENDBRANCH   4   6
ENDBRANCH   3   4
ENDBRANCH   2   3
ENDBRANCH   1   2
BRANCH   1  26
ATOM     26  O   UNL A   1      42.920  21.566  25.367  1.00  0.00    -0.374 OA
BRANCH  26  27
ATOM     27  C   UNL A   1      44.310  21.922  25.299  1.00  0.00     0.202 C 
BRANCH  27  28
ATOM     28  C   UNL A   1      44.576  23.045  24.295  1.00  0.00     0.261 C 
BRANCH  28  29
ATOM     29  O   UNL A   1      43.818  24.205  24.660  1.00  0.00    -0.460 OA
BRANCH  29  30
ATOM     30  C   UNL A   1      44.547  25.246  25.130  1.00  0.00     0.338 C 
ATOM     31  O   UNL A   1      45.569  25.715  24.657  1.00  0.00    -0.246 OA
BRANCH  30  32
ATOM     32  C   UNL A   1      43.780  25.882  26.220  1.00  0.00     0.060 A 
ATOM     33  C   UNL A   1      44.021  27.237  26.495  1.00  0.00     0.016 A 
ATOM     34  C   UNL A   1      42.797  25.179  26.921  1.00  0.00     0.016 A 
ATOM     35  C   UNL A   1      43.300  27.885  27.495  1.00  0.00     0.010 A 
ATOM     36  C   UNL A   1      42.080  25.823  27.923  1.00  0.00     0.010 A 
ATOM     37  C   UNL A   1      42.356  27.166  28.235  1.00  0.00    -0.014 A 
BRANCH  37  38
ATOM     38  C   UNL A   1      41.808  27.706  29.495  1.00  0.00     0.031 A 
ATOM     39  C   UNL A   1      40.524  28.476  29.410  1.00  0.00     0.074 A 
ATOM     40  C   UNL A   1      42.477  27.595  30.652  1.00  0.00     0.049 A 
ATOM     41  N   UNL A   1      39.943  29.233  30.302  1.00  0.00    -0.248 NA
ATOM     42  C   UNL A   1      39.815  28.404  28.120  1.00  0.00     0.031 C 
ATOM     43  C   UNL A   1      43.717  26.848  30.844  1.00  0.00     0.029 A 
ATOM     44  N   UNL A   1      42.220  28.153  31.878  1.00  0.00    -0.354 N 
ATOM     45  C   UNL A   1      38.820  29.751  29.672  1.00  0.00     0.074 A 
ATOM     46  C   UNL A   1      38.812  29.244  28.319  1.00  0.00     0.031 C 
ATOM     47  C   UNL A   1      44.136  27.024  32.109  1.00  0.00     0.029 A 
ATOM     48  C   UNL A   1      43.215  27.929  32.795  1.00  0.00     0.049 A 
ATOM     49  H   UNL A   1      41.403  28.663  32.079  1.00  0.00     0.167 HD
ATOM     50  C   UNL A   1      37.881  30.580  30.183  1.00  0.00     0.037 A 
ATOM     51  C   UNL A   1      43.377  28.438  34.032  1.00  0.00     0.037 A 
ATOM     52  C   UNL A   1      37.909  31.076  31.532  1.00  0.00     0.049 A 
ATOM     53  C   UNL A   1      42.342  29.391  34.573  1.00  0.00     0.074 A 
ATOM     54  C   UNL A   1      36.997  31.894  32.172  1.00  0.00     0.029 A 
ATOM     55  N   UNL A   1      38.918  30.802  32.446  1.00  0.00    -0.354 N 
ATOM     56  N   UNL A   1      41.265  29.860  33.990  1.00  0.00    -0.248 NA
ATOM     57  C   UNL A   1      42.545  29.884  35.942  1.00  0.00     0.031 C 
ATOM     58  C   UNL A   1      37.481  32.158  33.457  1.00  0.00     0.029 A 
ATOM     59  C   UNL A   1      38.662  31.454  33.640  1.00  0.00     0.049 A 
ATOM     60  H   UNL A   1      39.699  30.229  32.272  1.00  0.00     0.167 HD
ATOM     61  C   UNL A   1      40.644  30.676  34.928  1.00  0.00     0.074 A 
ATOM     62  C   UNL A   1      41.467  30.638  36.119  1.00  0.00     0.031 C 
ATOM     63  C   UNL A   1      39.493  31.386  34.816  1.00  0.00     0.037 A 
BRANCH  50  64
ATOM     64  C   UNL A   1      36.786  31.027  29.260  1.00  0.00     0.064 A 
ATOM     65  C   UNL A   1      36.720  32.341  28.769  1.00  0.00     0.173 A 
ATOM     66  C   UNL A   1      35.773  30.135  28.880  1.00  0.00     0.173 A 
ATOM     67  F   UNL A   1      37.652  33.241  29.118  1.00  0.00    -0.203 F 
ATOM     68  C   UNL A   1      35.658  32.754  27.968  1.00  0.00     0.198 A 
ATOM     69  C   UNL A   1      34.732  30.542  28.051  1.00  0.00     0.198 A 
ATOM     70  F   UNL A   1      35.787  28.868  29.322  1.00  0.00    -0.203 F 
ATOM     71  F   UNL A   1      35.578  34.032  27.571  1.00  0.00    -0.200 F 
ATOM     72  C   UNL A   1      34.668  31.853  27.606  1.00  0.00     0.200 A 
ATOM     73  F   UNL A   1      33.781  29.668  27.695  1.00  0.00    -0.200 F 
ATOM     74  F   UNL A   1      33.643  32.254  26.841  1.00  0.00    -0.200 F 
ENDBRANCH  50  64
BRANCH  51  75
ATOM     75  C   UNL A   1      44.570  28.057  34.828  1.00  0.00     0.064 A 
ATOM     76  C   UNL A   1      45.752  28.806  34.758  1.00  0.00     0.173 A 
ATOM     77  C   UNL A   1      44.544  26.959  35.702  1.00  0.00     0.173 A 
ATOM     78  F   UNL A   1      45.832  29.852  33.922  1.00  0.00    -0.203 F 
ATOM     79  C   UNL A   1      46.864  28.469  35.528  1.00  0.00     0.198 A 
ATOM     80  C   UNL A   1      45.649  26.638  36.488  1.00  0.00     0.198 A 
ATOM     81  F   UNL A   1      43.436  26.211  35.807  1.00  0.00    -0.203 F 
ATOM     82  F   UNL A   1      47.992  29.187  35.421  1.00  0.00    -0.200 F 
ATOM     83  C   UNL A   1      46.808  27.392  36.399  1.00  0.00     0.200 A 
ATOM     84  F   UNL A   1      45.585  25.604  37.339  1.00  0.00    -0.200 F 
ATOM     85  F   UNL A   1      47.873  27.079  37.149  1.00  0.00    -0.200 F 
ENDBRANCH  51  75
BRANCH  63  86
ATOM     86  C   UNL A   1      39.021  32.137  36.027  1.00  0.00     0.064 A 
ATOM     87  C   UNL A   1      38.220  31.534  37.007  1.00  0.00     0.173 A 
ATOM     88  C   UNL A   1      39.448  33.456  36.244  1.00  0.00     0.173 A 
ATOM     89  F   UNL A   1      37.777  30.279  36.839  1.00  0.00    -0.203 F 
ATOM     90  C   UNL A   1      37.854  32.230  38.156  1.00  0.00     0.198 A 
ATOM     91  C   UNL A   1      39.104  34.139  37.407  1.00  0.00     0.198 A 
ATOM     92  F   UNL A   1      40.223  34.074  35.340  1.00  0.00    -0.203 F 
ATOM     93  F   UNL A   1      37.062  31.647  39.065  1.00  0.00    -0.200 F 
ATOM     94  C   UNL A   1      38.305  33.526  38.360  1.00  0.00     0.200 A 
ATOM     95  F   UNL A   1      39.555  35.384  37.610  1.00  0.00    -0.200 F 
ATOM     96  F   UNL A   1      37.965  34.187  39.475  1.00  0.00    -0.200 F 
ENDBRANCH  63  86
ENDBRANCH  37  38
ENDBRANCH  30  32
ENDBRANCH  29  30
ENDBRANCH  28  29
ENDBRANCH  27  28
ENDBRANCH  26  27
ENDBRANCH   1  26
TORSDOF 17
ENDMDL
MODEL 2
REMARK VINA RESULT:     -11.6      1.655      7.729
REMARK SMILES O=C(C[NH+]1CCN(c2nccc(N3CCCCC3)n2)CC1)OCCOCCOC(=O)c1ccc(-c2c3nc(c(-c4c(F)c(F)c(F)c(F)c4F)c4ccc([nH]4)c(-c4c(F)c(F)c(F)c(F)c4F)c4nc(c(-c5c(F)c(F)c(F)c(F)c5F)c5ccc2[nH]5)C=C4)C=C3)cc1
REMARK SMILES IDX 24 1 23 2 22 3 2 4 1 5 3 6 4 7 5 8 21 9 6 11 20 12 7 13 8 14
REMARK SMILES IDX 9 15 19 16 10 17 12 18 11 19 13 20 14 21 18 22 15 23 17 24
REMARK SMILES IDX 16 25 25 26 26 27 27 28 28 29 29 30 30 31 31 32 32 33 93 34
REMARK SMILES IDX 33 35 92 36 34 37 35 38 36 39 86 40 37 41 91 42 85 43 87 44
REMARK SMILES IDX 38 45 90 46 84 47 83 48 39 50 71 51 51 52 70 53 52 54 55 55
REMARK SMILES IDX 69 56 88 57 53 58 54 59 68 61 89 62 56 63 40 64 41 65 49 66
REMARK SMILES IDX 42 67 43 68 47 69 50 70 44 71 45 72 48 73 46 74 72 75 73 76
REMARK SMILES IDX 81 77 74 78 75 79 79 80 82 81 76 82 77 83 80 84 78 85 57 86
REMARK SMILES IDX 58 87 66 88 59 89 60 90 64 91 67 92 61 93 62 94 65 95 63 96
REMARK H PARENT 4 10 87 49 55 60
REMARK Flexibility Score: inf
ROOT
ATOM      1  C   UNL A   1      42.710  19.373  25.732  1.00  0.00     0.202 C 
ENDROOT
BRANCH   1   2
ATOM      2  C   UNL A   1      41.752  20.149  26.633  1.00  0.00     0.261 C 
BRANCH   2   3
ATOM      3  O   UNL A   1      40.770  20.871  25.890  1.00  0.00    -0.459 OA
BRANCH   3   4
ATOM      4  C   UNL A   1      39.487  20.462  25.741  1.00  0.00     0.361 C 
ATOM      5  O   UNL A   1      39.284  19.274  25.478  1.00  0.00    -0.245 OA
BRANCH   4   6
ATOM      6  C   UNL A   1      38.333  21.467  25.687  1.00  0.00     0.386 C 
BRANCH   6   7
ATOM      7  N   UNL A   1      37.344  21.294  24.590  1.00  0.00    -0.323 N 
ATOM      8  C   UNL A   1      36.034  20.752  25.065  1.00  0.00     0.284 C 
ATOM      9  C   UNL A   1      37.012  22.636  24.006  1.00  0.00     0.284 C 
ATOM     10  H   UNL A   1      37.774  20.649  23.926  1.00  0.00     0.348 HD
ATOM     11  C   UNL A   1      35.268  21.606  26.099  1.00  0.00     0.181 C 
ATOM     12  C   UNL A   1      36.246  23.598  24.953  1.00  0.00     0.181 C 
ATOM     13  N   UNL A   1      35.108  22.958  25.595  1.00  0.00    -0.329 N 
BRANCH  13  14
ATOM     14  C   UNL A   1      33.822  23.276  25.236  1.00  0.00     0.227 A 
ATOM     15  N   UNL A   1      33.219  22.431  24.384  1.00  0.00    -0.221 NA
ATOM     16  N   UNL A   1      33.261  24.406  25.691  1.00  0.00    -0.196 NA
ATOM     17  C   UNL A   1      31.962  22.716  24.025  1.00  0.00     0.119 A 
ATOM     18  C   UNL A   1      32.009  24.684  25.284  1.00  0.00     0.134 A 
ATOM     19  C   UNL A   1      31.303  23.831  24.460  1.00  0.00     0.067 A 
BRANCH  18  20
ATOM     20  N   UNL A   1      31.414  25.879  25.653  1.00  0.00    -0.356 N 
ATOM     21  C   UNL A   1      30.088  26.184  25.137  1.00  0.00     0.118 C 
ATOM     22  C   UNL A   1      32.280  26.969  26.073  1.00  0.00     0.118 C 
ATOM     23  C   UNL A   1      30.135  27.283  24.081  1.00  0.00     0.022 C 
ATOM     24  C   UNL A   1      32.350  28.038  24.984  1.00  0.00     0.022 C 
ATOM     25  C   UNL A   1      30.950  28.481  24.563  1.00  0.00     0.004 C 
ENDBRANCH  18  20
ENDBRANCH  13  14
ENDBRANCH   6   7
ENDBRANCH   4   6
ENDBRANCH   3   4
ENDBRANCH   2   3
ENDBRANCH   1   2
BRANCH   1  26
ATOM     26  O   UNL A   1      43.668  20.186  25.055  1.00  0.00    -0.374 OA
BRANCH  26  27
ATOM     27  C   UNL A   1      44.503  20.969  25.923  1.00  0.00     0.202 C 
BRANCH  27  28
ATOM     28  C   UNL A   1      45.191  22.121  25.187  1.00  0.00     0.261 C 
BRANCH  28  29
ATOM     29  O   UNL A   1      44.694  23.370  25.681  1.00  0.00    -0.460 OA
BRANCH  29  30
ATOM     30  C   UNL A   1      43.515  23.773  25.148  1.00  0.00     0.338 C 
ATOM     31  O   UNL A   1      42.922  23.291  24.199  1.00  0.00    -0.246 OA
BRANCH  30  32
ATOM     32  C   UNL A   1      42.933  24.788  26.050  1.00  0.00     0.060 A 
ATOM     33  C   UNL A   1      43.219  26.139  25.799  1.00  0.00     0.016 A 
ATOM     34  C   UNL A   1      42.071  24.426  27.089  1.00  0.00     0.016 A 
ATOM     35  C   UNL A   1      42.669  27.131  26.607  1.00  0.00     0.010 A 
ATOM     36  C   UNL A   1      41.524  25.415  27.899  1.00  0.00     0.010 A 
ATOM     37  C   UNL A   1      41.851  26.765  27.681  1.00  0.00    -0.014 A 
BRANCH  37  38
ATOM     38  C   UNL A   1      41.511  27.734  28.741  1.00  0.00     0.031 A 
ATOM     39  C   UNL A   1      42.303  27.668  30.012  1.00  0.00     0.074 A 
ATOM     40  C   UNL A   1      40.475  28.577  28.609  1.00  0.00     0.049 A 
ATOM     41  N   UNL A   1      42.080  28.239  31.166  1.00  0.00    -0.248 NA
ATOM     42  C   UNL A   1      43.499  26.809  29.980  1.00  0.00     0.031 C 
ATOM     43  C   UNL A   1      39.661  28.735  27.408  1.00  0.00     0.029 A 
ATOM     44  N   UNL A   1      39.909  29.430  29.521  1.00  0.00    -0.354 N 
ATOM     45  C   UNL A   1      43.088  27.782  32.004  1.00  0.00     0.074 A 
ATOM     46  C   UNL A   1      43.908  26.872  31.237  1.00  0.00     0.031 C 
ATOM     47  C   UNL A   1      38.671  29.608  27.668  1.00  0.00     0.029 A 
ATOM     48  C   UNL A   1      38.764  30.030  29.065  1.00  0.00     0.049 A 
ATOM     49  H   UNL A   1      40.288  29.594  30.415  1.00  0.00     0.167 HD
ATOM     50  C   UNL A   1      43.304  28.097  33.302  1.00  0.00     0.037 A 
ATOM     51  C   UNL A   1      37.873  30.798  29.722  1.00  0.00     0.037 A 
ATOM     52  C   UNL A   1      42.474  29.003  34.048  1.00  0.00     0.049 A 
ATOM     53  C   UNL A   1      38.107  31.108  31.179  1.00  0.00     0.074 A 
ATOM     54  C   UNL A   1      42.612  29.424  35.357  1.00  0.00     0.029 A 
ATOM     55  N   UNL A   1      41.337  29.620  33.543  1.00  0.00    -0.354 N 
ATOM     56  N   UNL A   1      39.073  30.701  31.966  1.00  0.00    -0.248 NA
ATOM     57  C   UNL A   1      37.127  31.984  31.836  1.00  0.00     0.031 C 
ATOM     58  C   UNL A   1      41.529  30.255  35.661  1.00  0.00     0.029 A 
ATOM     59  C   UNL A   1      40.750  30.402  34.523  1.00  0.00     0.049 A 
ATOM     60  H   UNL A   1      40.998  29.517  32.625  1.00  0.00     0.167 HD
ATOM     61  C   UNL A   1      38.840  31.294  33.200  1.00  0.00     0.074 A 
ATOM     62  C   UNL A   1      37.638  32.088  33.057  1.00  0.00     0.031 C 
ATOM     63  C   UNL A   1      39.559  31.196  34.347  1.00  0.00     0.037 A 
BRANCH  50  64
ATOM     64  C   UNL A   1      44.451  27.417  33.990  1.00  0.00     0.064 A 
ATOM     65  C   UNL A   1      45.761  27.916  33.918  1.00  0.00     0.173 A 
ATOM     66  C   UNL A   1      44.240  26.233  34.712  1.00  0.00     0.173 A 
ATOM     67  F   UNL A   1      46.021  29.034  33.222  1.00  0.00    -0.203 F 
ATOM     68  C   UNL A   1      46.821  27.232  34.506  1.00  0.00     0.198 A 
ATOM     69  C   UNL A   1      45.298  25.571  35.329  1.00  0.00     0.198 A 
ATOM     70  F   UNL A   1      43.008  25.711  34.812  1.00  0.00    -0.203 F 
ATOM     71  F   UNL A   1      48.074  27.690  34.362  1.00  0.00    -0.200 F 
ATOM     72  C   UNL A   1      46.589  26.063  35.215  1.00  0.00     0.200 A 
ATOM     73  F   UNL A   1      45.070  24.447  36.021  1.00  0.00    -0.200 F 
ATOM     74  F   UNL A   1      47.612  25.404  35.776  1.00  0.00    -0.200 F 
ENDBRANCH  50  64
BRANCH  51  75
ATOM     75  C   UNL A   1      36.681  31.313  29.003  1.00  0.00     0.064 A 
ATOM     76  C   UNL A   1      35.606  30.469  28.694  1.00  0.00     0.173 A 
ATOM     77  C   UNL A   1      36.575  32.664  28.640  1.00  0.00     0.173 A 
ATOM     78  F   UNL A   1      35.669  29.165  29.002  1.00  0.00    -0.203 F 
ATOM     79  C   UNL A   1      34.472  30.956  28.046  1.00  0.00     0.198 A 
ATOM     80  C   UNL A   1      35.431  33.155  28.013  1.00  0.00     0.198 A 
ATOM     81  F   UNL A   1      37.576  33.513  28.914  1.00  0.00    -0.203 F 
ATOM     82  F   UNL A   1      33.469  30.121  27.739  1.00  0.00    -0.200 F 
ATOM     83  C   UNL A   1      34.381  32.300  27.715  1.00  0.00     0.200 A 
ATOM     84  F   UNL A   1      35.343  34.457  27.708  1.00  0.00    -0.200 F 
ATOM     85  F   UNL A   1      33.284  32.770  27.106  1.00  0.00    -0.200 F 
ENDBRANCH  51  75
BRANCH  63  86
ATOM     86  C   UNL A   1      39.103  32.007  35.524  1.00  0.00     0.064 A 
ATOM     87  C   UNL A   1      38.340  31.447  36.558  1.00  0.00     0.173 A 
ATOM     88  C   UNL A   1      39.507  33.344  35.653  1.00  0.00     0.173 A 
ATOM     89  F   UNL A   1      37.919  30.175  36.476  1.00  0.00    -0.203 F 
ATOM     90  C   UNL A   1      37.989  32.201  37.675  1.00  0.00     0.198 A 
ATOM     91  C   UNL A   1      39.179  34.087  36.783  1.00  0.00     0.198 A 
ATOM     92  F   UNL A   1      40.245  33.924  34.694  1.00  0.00    -0.203 F 
ATOM     93  F   UNL A   1      37.233  31.657  38.638  1.00  0.00    -0.200 F 
ATOM     94  C   UNL A   1      38.418  33.516  37.791  1.00  0.00     0.200 A 
ATOM     95  F   UNL A   1      39.609  35.350  36.902  1.00  0.00    -0.200 F 
ATOM     96  F   UNL A   1      38.093  34.234  38.875  1.00  0.00    -0.200 F 
ENDBRANCH  63  86
ENDBRANCH  37  38
ENDBRANCH  30  32
ENDBRANCH  29  30
ENDBRANCH  28  29
ENDBRANCH  27  28
ENDBRANCH  26  27
ENDBRANCH   1  26
TORSDOF 17
ENDMDL
MODEL 3
REMARK VINA RESULT:     -11.5      1.510      3.113
REMARK SMILES O=C(C[NH+]1CCN(c2nccc(N3CCCCC3)n2)CC1)OCCOCCOC(=O)c1ccc(-c2c3nc(c(-c4c(F)c(F)c(F)c(F)c4F)c4ccc([nH]4)c(-c4c(F)c(F)c(F)c(F)c4F)c4nc(c(-c5c(F)c(F)c(F)c(F)c5F)c5ccc2[nH]5)C=C4)C=C3)cc1
REMARK SMILES IDX 24 1 23 2 22 3 2 4 1 5 3 6 4 7 5 8 21 9 6 11 20 12 7 13 8 14
REMARK SMILES IDX 9 15 19 16 10 17 12 18 11 19 13 20 14 21 18 22 15 23 17 24
REMARK SMILES IDX 16 25 25 26 26 27 27 28 28 29 29 30 30 31 31 32 32 33 93 34
REMARK SMILES IDX 33 35 92 36 34 37 35 38 36 39 86 40 37 41 91 42 85 43 87 44
REMARK SMILES IDX 38 45 90 46 84 47 83 48 39 50 71 51 51 52 70 53 52 54 55 55
REMARK SMILES IDX 69 56 88 57 53 58 54 59 68 61 89 62 56 63 40 64 41 65 49 66
REMARK SMILES IDX 42 67 43 68 47 69 50 70 44 71 45 72 48 73 46 74 72 75 73 76
REMARK SMILES IDX 81 77 74 78 75 79 79 80 82 81 76 82 77 83 80 84 78 85 57 86
REMARK SMILES IDX 58 87 66 88 59 89 60 90 64 91 67 92 61 93 62 94 65 95 63 96
REMARK H PARENT 4 10 87 49 55 60
REMARK Flexibility Score: inf
ROOT
ATOM      1  C   UNL A   1      42.465  20.113  26.213  1.00  0.00     0.202 C 
ENDROOT
BRANCH   1   2
ATOM      2  C   UNL A   1      41.210  20.187  27.079  1.00  0.00     0.261 C 
BRANCH   2   3
ATOM      3  O   UNL A   1      40.027  20.394  26.306  1.00  0.00    -0.459 OA
BRANCH   3   4
ATOM      4  C   UNL A   1      39.423  21.598  26.162  1.00  0.00     0.361 C 
ATOM      5  O   UNL A   1      39.880  22.555  26.792  1.00  0.00    -0.245 OA
BRANCH   4   6
ATOM      6  C   UNL A   1      38.093  21.736  25.414  1.00  0.00     0.386 C 
BRANCH   6   7
ATOM      7  N   UNL A   1      36.986  22.416  26.137  1.00  0.00    -0.323 N 
ATOM      8  C   UNL A   1      36.608  23.727  25.525  1.00  0.00     0.284 C 
ATOM      9  C   UNL A   1      35.745  21.579  26.041  1.00  0.00     0.284 C 
ATOM     10  H   UNL A   1      37.319  22.555  27.091  1.00  0.00     0.348 HD
ATOM     11  C   UNL A   1      36.105  23.688  24.064  1.00  0.00     0.181 C 
ATOM     12  C   UNL A   1      35.141  21.451  24.617  1.00  0.00     0.181 C 
ATOM     13  N   UNL A   1      35.014  22.736  23.948  1.00  0.00    -0.329 N 
BRANCH  13  14
ATOM     14  C   UNL A   1      33.785  23.313  23.750  1.00  0.00     0.227 A 
ATOM     15  N   UNL A   1      32.751  22.468  23.606  1.00  0.00    -0.221 NA
ATOM     16  N   UNL A   1      33.679  24.647  23.655  1.00  0.00    -0.196 NA
ATOM     17  C   UNL A   1      31.541  23.007  23.418  1.00  0.00     0.119 A 
ATOM     18  C   UNL A   1      32.455  25.157  23.429  1.00  0.00     0.134 A 
ATOM     19  C   UNL A   1      31.336  24.355  23.334  1.00  0.00     0.067 A 
BRANCH  18  20
ATOM     20  N   UNL A   1      32.302  26.520  23.236  1.00  0.00    -0.356 N 
ATOM     21  C   UNL A   1      32.862  27.430  24.224  1.00  0.00     0.118 C 
ATOM     22  C   UNL A   1      31.198  26.969  22.403  1.00  0.00     0.118 C 
ATOM     23  C   UNL A   1      31.772  28.083  25.067  1.00  0.00     0.022 C 
ATOM     24  C   UNL A   1      30.097  27.581  23.268  1.00  0.00     0.022 C 
ATOM     25  C   UNL A   1      30.663  28.661  24.189  1.00  0.00     0.004 C 
ENDBRANCH  18  20
ENDBRANCH  13  14
ENDBRANCH   6   7
ENDBRANCH   4   6
ENDBRANCH   3   4
ENDBRANCH   2   3
ENDBRANCH   1   2
BRANCH   1  26
ATOM     26  O   UNL A   1      42.637  21.221  25.331  1.00  0.00    -0.374 OA
BRANCH  26  27
ATOM     27  C   UNL A   1      43.936  21.832  25.390  1.00  0.00     0.202 C 
BRANCH  27  28
ATOM     28  C   UNL A   1      44.128  22.896  24.307  1.00  0.00     0.261 C 
BRANCH  28  29
ATOM     29  O   UNL A   1      43.416  24.085  24.668  1.00  0.00    -0.460 OA
BRANCH  29  30
ATOM     30  C   UNL A   1      44.183  25.098  25.135  1.00  0.00     0.338 C 
ATOM     31  O   UNL A   1      45.219  25.530  24.659  1.00  0.00    -0.246 OA
BRANCH  30  32
ATOM     32  C   UNL A   1      43.444  25.761  26.229  1.00  0.00     0.060 A 
ATOM     33  C   UNL A   1      43.670  27.130  26.445  1.00  0.00     0.016 A 
ATOM     34  C   UNL A   1      42.499  25.069  26.991  1.00  0.00     0.016 A 
ATOM     35  C   UNL A   1      42.974  27.802  27.446  1.00  0.00     0.010 A 
ATOM     36  C   UNL A   1      41.807  25.738  27.994  1.00  0.00     0.010 A 
ATOM     37  C   UNL A   1      42.070  27.095  28.246  1.00  0.00    -0.014 A 
BRANCH  37  38
ATOM     38  C   UNL A   1      41.557  27.673  29.503  1.00  0.00     0.031 A 
ATOM     39  C   UNL A   1      40.297  28.482  29.424  1.00  0.00     0.074 A 
ATOM     40  C   UNL A   1      42.239  27.560  30.653  1.00  0.00     0.049 A 
ATOM     41  N   UNL A   1      39.753  29.271  30.311  1.00  0.00    -0.248 NA
ATOM     42  C   UNL A   1      39.567  28.411  28.146  1.00  0.00     0.031 C 
ATOM     43  C   UNL A   1      43.457  26.777  30.840  1.00  0.00     0.029 A 
ATOM     44  N   UNL A   1      42.017  28.145  31.873  1.00  0.00    -0.354 N 
ATOM     45  C   UNL A   1      38.638  29.814  29.689  1.00  0.00     0.074 A 
ATOM     46  C   UNL A   1      38.594  29.285  28.344  1.00  0.00     0.031 C 
ATOM     47  C   UNL A   1      43.900  26.960  32.096  1.00  0.00     0.029 A 
ATOM     48  C   UNL A   1      43.018  27.905  32.780  1.00  0.00     0.049 A 
ATOM     49  H   UNL A   1      41.219  28.684  32.077  1.00  0.00     0.167 HD
ATOM     50  C   UNL A   1      37.732  30.680  30.199  1.00  0.00     0.037 A 
ATOM     51  C   UNL A   1      43.213  28.428  34.006  1.00  0.00     0.037 A 
ATOM     52  C   UNL A   1      37.795  31.196  31.538  1.00  0.00     0.049 A 
ATOM     53  C   UNL A   1      42.216  29.422  34.545  1.00  0.00     0.074 A 
ATOM     54  C   UNL A   1      36.919  32.053  32.177  1.00  0.00     0.029 A 
ATOM     55  N   UNL A   1      38.808  30.906  32.443  1.00  0.00    -0.354 N 
ATOM     56  N   UNL A   1      41.146  29.916  33.970  1.00  0.00    -0.248 NA
ATOM     57  C   UNL A   1      42.455  29.930  35.903  1.00  0.00     0.031 C 
ATOM     58  C   UNL A   1      37.429  32.323  33.451  1.00  0.00     0.029 A 
ATOM     59  C   UNL A   1      38.590  31.585  33.630  1.00  0.00     0.049 A 
ATOM     60  H   UNL A   1      39.568  30.306  32.268  1.00  0.00     0.167 HD
ATOM     61  C   UNL A   1      40.565  30.766  34.902  1.00  0.00     0.074 A 
ATOM     62  C   UNL A   1      41.404  30.721  36.082  1.00  0.00     0.031 C 
ATOM     63  C   UNL A   1      39.436  31.510  34.795  1.00  0.00     0.037 A 
BRANCH  50  64
ATOM     64  C   UNL A   1      36.639  31.147  29.283  1.00  0.00     0.064 A 
ATOM     65  C   UNL A   1      36.590  32.463  28.796  1.00  0.00     0.173 A 
ATOM     66  C   UNL A   1      35.610  30.271  28.908  1.00  0.00     0.173 A 
ATOM     67  F   UNL A   1      37.537  33.347  29.143  1.00  0.00    -0.203 F 
ATOM     68  C   UNL A   1      35.529  32.894  28.004  1.00  0.00     0.198 A 
ATOM     69  C   UNL A   1      34.570  30.696  28.086  1.00  0.00     0.198 A 
ATOM     70  F   UNL A   1      35.607  29.003  29.345  1.00  0.00    -0.203 F 
ATOM     71  F   UNL A   1      35.466  34.175  27.611  1.00  0.00    -0.200 F 
ATOM     72  C   UNL A   1      34.523  32.010  27.646  1.00  0.00     0.200 A 
ATOM     73  F   UNL A   1      33.603  29.838  27.733  1.00  0.00    -0.200 F 
ATOM     74  F   UNL A   1      33.500  32.428  26.887  1.00  0.00    -0.200 F 
ENDBRANCH  50  64
BRANCH  51  75
ATOM     75  C   UNL A   1      44.406  28.023  34.792  1.00  0.00     0.064 A 
ATOM     76  C   UNL A   1      44.352  26.936  35.673  1.00  0.00     0.173 A 
ATOM     77  C   UNL A   1      45.631  28.692  34.653  1.00  0.00     0.173 A 
ATOM     78  F   UNL A   1      43.197  26.279  35.855  1.00  0.00    -0.203 F 
ATOM     79  C   UNL A   1      45.479  26.534  36.390  1.00  0.00     0.198 A 
ATOM     80  C   UNL A   1      46.763  28.275  35.352  1.00  0.00     0.198 A 
ATOM     81  F   UNL A   1      45.735  29.738  33.821  1.00  0.00    -0.203 F 
ATOM     82  F   UNL A   1      45.393  25.507  37.247  1.00  0.00    -0.200 F 
ATOM     83  C   UNL A   1      46.685  27.198  36.221  1.00  0.00     0.200 A 
ATOM     84  F   UNL A   1      47.930  28.910  35.175  1.00  0.00    -0.200 F 
ATOM     85  F   UNL A   1      47.770  26.801  36.899  1.00  0.00    -0.200 F 
ENDBRANCH  51  75
BRANCH  63  86
ATOM     86  C   UNL A   1      39.005  32.295  35.999  1.00  0.00     0.064 A 
ATOM     87  C   UNL A   1      38.199  31.733  37.000  1.00  0.00     0.173 A 
ATOM     88  C   UNL A   1      39.477  33.603  36.189  1.00  0.00     0.173 A 
ATOM     89  F   UNL A   1      37.714  30.491  36.859  1.00  0.00    -0.203 F 
ATOM     90  C   UNL A   1      37.871  32.459  38.143  1.00  0.00     0.198 A 
ATOM     91  C   UNL A   1      39.171  34.315  37.345  1.00  0.00     0.198 A 
ATOM     92  F   UNL A   1      40.258  34.181  35.265  1.00  0.00    -0.203 F 
ATOM     93  F   UNL A   1      37.074  31.916  39.072  1.00  0.00    -0.200 F 
ATOM     94  C   UNL A   1      38.366  33.743  38.319  1.00  0.00     0.200 A 
ATOM     95  F   UNL A   1      39.664  35.548  37.522  1.00  0.00    -0.200 F 
ATOM     96  F   UNL A   1      38.063  34.433  39.428  1.00  0.00    -0.200 F 
ENDBRANCH  63  86
ENDBRANCH  37  38
ENDBRANCH  30  32
ENDBRANCH  29  30
ENDBRANCH  28  29
ENDBRANCH  27  28
ENDBRANCH  26  27
ENDBRANCH   1  26
TORSDOF 17
ENDMDL
