MODEL 1
REMARK VINA RESULT:     -11.0      0.000      0.000
REMARK SMILES C[C@@H]1C[N@@H+](CC(C)(C)C(=O)OCCOCCOC(=O)c2ccc(-c3c4nc(c(-c5c(F)c(F)c(F)c(F)c5F)c5ccc([nH]5)c(-c5c(F)c(F)c(F)c(F)c5F)c5nc(c(-c6c(F)c(F)c(F)c(F)c6F)c6ccc3[nH]6)C=C5)C=C4)cc2)CC[C@@H]1[NH3+]
REMARK SMILES IDX 13 1 12 2 11 3 9 4 10 5 6 6 7 7 8 8 5 9 4 10 1 11 2 12 3 13
REMARK SMILES IDX 85 14 84 15 83 16 86 18 14 22 15 23 16 24 17 25 18 26 19 27
REMARK SMILES IDX 20 28 21 29 82 30 22 31 81 32 23 33 24 34 25 35 75 36 26 37
REMARK SMILES IDX 80 38 74 39 76 40 27 41 79 42 73 43 72 44 28 46 60 47 40 48
REMARK SMILES IDX 59 49 41 50 44 51 58 52 77 53 42 54 43 55 57 57 78 58 45 59
REMARK SMILES IDX 29 60 30 61 38 62 31 63 32 64 36 65 39 66 33 67 34 68 37 69
REMARK SMILES IDX 35 70 61 71 62 72 70 73 63 74 64 75 68 76 71 77 65 78 66 79
REMARK SMILES IDX 69 80 67 81 46 82 47 83 55 84 48 85 49 86 53 87 56 88 50 89
REMARK SMILES IDX 51 90 54 91 52 92
REMARK H PARENT 4 17 86 19 86 20 86 21 76 45 44 56
REMARK Flexibility Score: inf
ROOT
ATOM      1  C   UNL A   1      32.829  29.763  26.812  1.00  0.00     0.202 C 
ENDROOT
BRANCH   1   2
ATOM      2  C   UNL A   1      32.976  28.405  26.105  1.00  0.00     0.261 C 
BRANCH   2   3
ATOM      3  O   UNL A   1      31.848  28.068  25.288  1.00  0.00    -0.463 OA
BRANCH   3   4
ATOM      4  C   UNL A   1      31.045  27.132  25.859  1.00  0.00     0.317 C 
ATOM      5  O   UNL A   1      31.031  26.968  27.074  1.00  0.00    -0.251 OA
BRANCH   4   6
ATOM      6  C   UNL A   1      30.306  26.216  24.860  1.00  0.00     0.111 C 
ATOM      7  C   UNL A   1      29.648  25.171  25.773  1.00  0.00     0.029 C 
ATOM      8  C   UNL A   1      31.306  25.449  23.948  1.00  0.00     0.029 C 
BRANCH   6   9
ATOM      9  C   UNL A   1      29.263  26.908  23.876  1.00  0.00     0.280 C 
BRANCH   9  10
ATOM     10  N   UNL A   1      29.234  28.330  23.436  1.00  0.00    -0.333 N 
ATOM     11  C   UNL A   1      27.664  31.240  23.645  1.00  0.00     0.020 C 
ATOM     12  C   UNL A   1      27.643  30.163  22.567  1.00  0.00     0.099 C 
ATOM     13  C   UNL A   1      27.875  28.752  23.106  1.00  0.00     0.271 C 
ATOM     14  C   UNL A   1      28.609  30.355  21.386  1.00  0.00     0.194 C 
ATOM     15  C   UNL A   1      30.055  30.085  21.824  1.00  0.00     0.126 C 
ATOM     16  C   UNL A   1      30.203  28.658  22.386  1.00  0.00     0.268 C 
ATOM     17  H   UNL A   1      29.542  28.879  24.237  1.00  0.00     0.348 HD
BRANCH  14  18
ATOM     18  N   UNL A   1      28.421  31.655  20.743  1.00  0.00    -0.355 N 
ATOM     19  H   UNL A   1      27.671  31.589  20.054  1.00  0.00     0.344 HD
ATOM     20  H   UNL A   1      29.286  31.933  20.278  1.00  0.00     0.344 HD
ATOM     21  H   UNL A   1      28.174  32.351  21.447  1.00  0.00     0.344 HD
ENDBRANCH  14  18
ENDBRANCH   9  10
ENDBRANCH   6   9
ENDBRANCH   4   6
ENDBRANCH   3   4
ENDBRANCH   2   3
ENDBRANCH   1   2
BRANCH   1  22
ATOM     22  O   UNL A   1      32.224  30.851  26.129  1.00  0.00    -0.374 OA
BRANCH  22  23
ATOM     23  C   UNL A   1      31.563  31.879  26.862  1.00  0.00     0.202 C 
BRANCH  23  24
ATOM     24  C   UNL A   1      32.232  33.242  27.094  1.00  0.00     0.261 C 
BRANCH  24  25
ATOM     25  O   UNL A   1      33.122  33.262  28.221  1.00  0.00    -0.460 OA
BRANCH  25  26
ATOM     26  C   UNL A   1      34.247  33.998  28.039  1.00  0.00     0.338 C 
ATOM     27  O   UNL A   1      34.328  35.193  27.832  1.00  0.00    -0.246 OA
BRANCH  26  28
ATOM     28  C   UNL A   1      35.424  33.174  28.361  1.00  0.00     0.060 A 
ATOM     29  C   UNL A   1      35.199  31.836  28.713  1.00  0.00     0.016 A 
ATOM     30  C   UNL A   1      36.710  33.714  28.374  1.00  0.00     0.016 A 
ATOM     31  C   UNL A   1      36.260  31.034  29.114  1.00  0.00     0.010 A 
ATOM     32  C   UNL A   1      37.771  32.917  28.810  1.00  0.00     0.010 A 
ATOM     33  C   UNL A   1      37.540  31.590  29.215  1.00  0.00    -0.014 A 
BRANCH  33  34
ATOM     34  C   UNL A   1      38.580  30.845  29.955  1.00  0.00     0.031 A 
ATOM     35  C   UNL A   1      38.773  31.152  31.411  1.00  0.00     0.074 A 
ATOM     36  C   UNL A   1      39.295  29.881  29.355  1.00  0.00     0.049 A 
ATOM     37  N   UNL A   1      39.630  30.653  32.264  1.00  0.00    -0.248 NA
ATOM     38  C   UNL A   1      37.873  32.166  31.984  1.00  0.00     0.031 C 
ATOM     39  C   UNL A   1      39.137  29.454  27.967  1.00  0.00     0.029 A 
ATOM     40  N   UNL A   1      40.297  29.086  29.845  1.00  0.00    -0.354 N 
ATOM     41  C   UNL A   1      39.376  31.296  33.468  1.00  0.00     0.074 A 
ATOM     42  C   UNL A   1      38.316  32.250  33.228  1.00  0.00     0.031 C 
ATOM     43  C   UNL A   1      40.014  28.467  27.716  1.00  0.00     0.029 A 
ATOM     44  C   UNL A   1      40.817  28.226  28.913  1.00  0.00     0.049 A 
ATOM     45  H   UNL A   1      40.613  29.129  30.777  1.00  0.00     0.167 HD
ATOM     46  C   UNL A   1      39.972  31.101  34.668  1.00  0.00     0.037 A 
ATOM     47  C   UNL A   1      41.839  27.355  29.020  1.00  0.00     0.037 A 
ATOM     48  C   UNL A   1      41.036  30.157  34.889  1.00  0.00     0.049 A 
ATOM     49  C   UNL A   1      42.563  27.236  30.336  1.00  0.00     0.074 A 
ATOM     50  C   UNL A   1      41.712  29.874  36.061  1.00  0.00     0.029 A 
ATOM     51  N   UNL A   1      41.590  29.352  33.902  1.00  0.00    -0.354 N 
ATOM     52  N   UNL A   1      42.317  27.835  31.476  1.00  0.00    -0.248 NA
ATOM     53  C   UNL A   1      43.707  26.315  30.376  1.00  0.00     0.031 C 
ATOM     54  C   UNL A   1      42.718  28.944  35.770  1.00  0.00     0.029 A 
ATOM     55  C   UNL A   1      42.624  28.596  34.431  1.00  0.00     0.049 A 
ATOM     56  H   UNL A   1      41.291  29.321  32.964  1.00  0.00     0.167 HD
ATOM     57  C   UNL A   1      43.251  27.341  32.378  1.00  0.00     0.074 A 
ATOM     58  C   UNL A   1      44.062  26.385  31.652  1.00  0.00     0.031 C 
ATOM     59  C   UNL A   1      43.419  27.646  33.690  1.00  0.00     0.037 A 
BRANCH  46  60
ATOM     60  C   UNL A   1      39.512  31.964  35.810  1.00  0.00     0.064 A 
ATOM     61  C   UNL A   1      38.469  31.572  36.666  1.00  0.00     0.173 A 
ATOM     62  C   UNL A   1      40.106  33.215  36.036  1.00  0.00     0.173 A 
ATOM     63  F   UNL A   1      37.854  30.394  36.484  1.00  0.00    -0.203 F 
ATOM     64  C   UNL A   1      38.007  32.420  37.670  1.00  0.00     0.198 A 
ATOM     65  C   UNL A   1      39.668  34.043  37.066  1.00  0.00     0.198 A 
ATOM     66  F   UNL A   1      41.108  33.639  35.252  1.00  0.00    -0.203 F 
ATOM     67  F   UNL A   1      36.960  32.056  38.424  1.00  0.00    -0.200 F 
ATOM     68  C   UNL A   1      38.610  33.652  37.871  1.00  0.00     0.200 A 
ATOM     69  F   UNL A   1      40.260  35.229  37.267  1.00  0.00    -0.200 F 
ATOM     70  F   UNL A   1      38.161  34.470  38.834  1.00  0.00    -0.200 F 
ENDBRANCH  46  60
BRANCH  47  71
ATOM     71  C   UNL A   1      42.225  26.524  27.852  1.00  0.00     0.064 A 
ATOM     72  C   UNL A   1      43.226  26.951  26.968  1.00  0.00     0.173 A 
ATOM     73  C   UNL A   1      41.614  25.287  27.597  1.00  0.00     0.173 A 
ATOM     74  F   UNL A   1      43.823  28.137  27.157  1.00  0.00    -0.203 F 
ATOM     75  C   UNL A   1      43.594  26.177  25.869  1.00  0.00     0.198 A 
ATOM     76  C   UNL A   1      42.002  24.502  26.515  1.00  0.00     0.198 A 
ATOM     77  F   UNL A   1      40.649  24.834  28.412  1.00  0.00    -0.203 F 
ATOM     78  F   UNL A   1      44.527  26.626  25.019  1.00  0.00    -0.200 F 
ATOM     79  C   UNL A   1      42.987  24.950  25.647  1.00  0.00     0.200 A 
ATOM     80  F   UNL A   1      41.423  23.311  26.312  1.00  0.00    -0.200 F 
ATOM     81  F   UNL A   1      43.348  24.202  24.597  1.00  0.00    -0.200 F 
ENDBRANCH  47  71
BRANCH  59  82
ATOM     82  C   UNL A   1      44.492  26.906  34.437  1.00  0.00     0.064 A 
ATOM     83  C   UNL A   1      45.792  27.420  34.569  1.00  0.00     0.173 A 
ATOM     84  C   UNL A   1      44.205  25.682  35.061  1.00  0.00     0.173 A 
ATOM     85  F   UNL A   1      46.124  28.578  33.980  1.00  0.00    -0.203 F 
ATOM     86  C   UNL A   1      46.769  26.719  35.273  1.00  0.00     0.198 A 
ATOM     87  C   UNL A   1      45.174  25.003  35.795  1.00  0.00     0.198 A 
ATOM     88  F   UNL A   1      42.976  25.149  34.973  1.00  0.00    -0.203 F 
ATOM     89  F   UNL A   1      48.018  27.201  35.340  1.00  0.00    -0.200 F 
ATOM     90  C   UNL A   1      46.458  25.518  35.892  1.00  0.00     0.200 A 
ATOM     91  F   UNL A   1      44.866  23.852  36.406  1.00  0.00    -0.200 F 
ATOM     92  F   UNL A   1      47.398  24.851  36.575  1.00  0.00    -0.200 F 
ENDBRANCH  59  82
ENDBRANCH  33  34
ENDBRANCH  26  28
ENDBRANCH  25  26
ENDBRANCH  24  25
ENDBRANCH  23  24
ENDBRANCH  22  23
ENDBRANCH   1  22
TORSDOF 17
ENDMDL
MODEL 2
REMARK VINA RESULT:     -10.8      0.516      1.699
REMARK SMILES C[C@@H]1C[N@@H+](CC(C)(C)C(=O)OCCOCCOC(=O)c2ccc(-c3c4nc(c(-c5c(F)c(F)c(F)c(F)c5F)c5ccc([nH]5)c(-c5c(F)c(F)c(F)c(F)c5F)c5nc(c(-c6c(F)c(F)c(F)c(F)c6F)c6ccc3[nH]6)C=C5)C=C4)cc2)CC[C@@H]1[NH3+]
REMARK SMILES IDX 13 1 12 2 11 3 9 4 10 5 6 6 7 7 8 8 5 9 4 10 1 11 2 12 3 13
REMARK SMILES IDX 85 14 84 15 83 16 86 18 14 22 15 23 16 24 17 25 18 26 19 27
REMARK SMILES IDX 20 28 21 29 82 30 22 31 81 32 23 33 24 34 25 35 75 36 26 37
REMARK SMILES IDX 80 38 74 39 76 40 27 41 79 42 73 43 72 44 28 46 60 47 40 48
REMARK SMILES IDX 59 49 41 50 44 51 58 52 77 53 42 54 43 55 57 57 78 58 45 59
REMARK SMILES IDX 29 60 30 61 38 62 31 63 32 64 36 65 39 66 33 67 34 68 37 69
REMARK SMILES IDX 35 70 61 71 62 72 70 73 63 74 64 75 68 76 71 77 65 78 66 79
REMARK SMILES IDX 69 80 67 81 46 82 47 83 55 84 48 85 49 86 53 87 56 88 50 89
REMARK SMILES IDX 51 90 54 91 52 92
REMARK H PARENT 4 17 86 19 86 20 86 21 76 45 44 56
REMARK Flexibility Score: inf
ROOT
ATOM      1  C   UNL A   1      32.899  29.492  26.548  1.00  0.00     0.202 C 
ENDROOT
BRANCH   1   2
ATOM      2  C   UNL A   1      31.891  28.465  27.091  1.00  0.00     0.261 C 
BRANCH   2   3
ATOM      3  O   UNL A   1      30.979  27.986  26.095  1.00  0.00    -0.463 OA
BRANCH   3   4
ATOM      4  C   UNL A   1      31.030  26.636  25.940  1.00  0.00     0.317 C 
ATOM      5  O   UNL A   1      31.369  25.906  26.865  1.00  0.00    -0.251 OA
BRANCH   4   6
ATOM      6  C   UNL A   1      30.792  26.141  24.497  1.00  0.00     0.111 C 
ATOM      7  C   UNL A   1      30.648  24.622  24.674  1.00  0.00     0.029 C 
ATOM      8  C   UNL A   1      32.046  26.371  23.605  1.00  0.00     0.029 C 
BRANCH   6   9
ATOM      9  C   UNL A   1      29.569  26.781  23.702  1.00  0.00     0.280 C 
BRANCH   9  10
ATOM     10  N   UNL A   1      29.373  28.210  23.334  1.00  0.00    -0.333 N 
ATOM     11  C   UNL A   1      27.546  30.938  23.781  1.00  0.00     0.020 C 
ATOM     12  C   UNL A   1      27.557  29.909  22.656  1.00  0.00     0.099 C 
ATOM     13  C   UNL A   1      27.960  28.508  23.111  1.00  0.00     0.271 C 
ATOM     14  C   UNL A   1      28.418  30.246  21.428  1.00  0.00     0.194 C 
ATOM     15  C   UNL A   1      29.909  30.104  21.760  1.00  0.00     0.126 C 
ATOM     16  C   UNL A   1      30.233  28.677  22.243  1.00  0.00     0.268 C 
ATOM     17  H   UNL A   1      29.680  28.753  24.140  1.00  0.00     0.348 HD
BRANCH  14  18
ATOM     18  N   UNL A   1      28.062  31.546  20.860  1.00  0.00    -0.355 N 
ATOM     19  H   UNL A   1      28.909  32.029  20.558  1.00  0.00     0.344 HD
ATOM     20  H   UNL A   1      27.585  32.107  21.567  1.00  0.00     0.344 HD
ATOM     21  H   UNL A   1      27.444  31.411  20.060  1.00  0.00     0.344 HD
ENDBRANCH  14  18
ENDBRANCH   9  10
ENDBRANCH   6   9
ENDBRANCH   4   6
ENDBRANCH   3   4
ENDBRANCH   2   3
ENDBRANCH   1   2
BRANCH   1  22
ATOM     22  O   UNL A   1      32.429  30.646  25.867  1.00  0.00    -0.374 OA
BRANCH  22  23
ATOM     23  C   UNL A   1      31.426  31.468  26.457  1.00  0.00     0.202 C 
BRANCH  23  24
ATOM     24  C   UNL A   1      31.780  32.831  27.071  1.00  0.00     0.261 C 
BRANCH  24  25
ATOM     25  O   UNL A   1      33.169  33.174  26.951  1.00  0.00    -0.460 OA
BRANCH  25  26
ATOM     26  C   UNL A   1      33.727  33.675  28.082  1.00  0.00     0.338 C 
ATOM     27  O   UNL A   1      33.245  34.477  28.856  1.00  0.00    -0.246 OA
BRANCH  26  28
ATOM     28  C   UNL A   1      34.953  32.921  28.392  1.00  0.00     0.060 A 
ATOM     29  C   UNL A   1      34.808  31.582  28.782  1.00  0.00     0.016 A 
ATOM     30  C   UNL A   1      36.209  33.526  28.357  1.00  0.00     0.016 A 
ATOM     31  C   UNL A   1      35.919  30.847  29.173  1.00  0.00     0.010 A 
ATOM     32  C   UNL A   1      37.321  32.797  28.783  1.00  0.00     0.010 A 
ATOM     33  C   UNL A   1      37.170  31.471  29.227  1.00  0.00    -0.014 A 
BRANCH  33  34
ATOM     34  C   UNL A   1      38.266  30.799  29.955  1.00  0.00     0.031 A 
ATOM     35  C   UNL A   1      38.461  31.130  31.406  1.00  0.00     0.074 A 
ATOM     36  C   UNL A   1      39.032  29.877  29.351  1.00  0.00     0.049 A 
ATOM     37  N   UNL A   1      39.360  30.693  32.249  1.00  0.00    -0.248 NA
ATOM     38  C   UNL A   1      37.506  32.089  31.985  1.00  0.00     0.031 C 
ATOM     39  C   UNL A   1      38.881  29.430  27.969  1.00  0.00     0.029 A 
ATOM     40  N   UNL A   1      40.090  29.152  29.831  1.00  0.00    -0.354 N 
ATOM     41  C   UNL A   1      39.084  31.329  33.453  1.00  0.00     0.074 A 
ATOM     42  C   UNL A   1      37.962  32.211  33.222  1.00  0.00     0.031 C 
ATOM     43  C   UNL A   1      39.816  28.499  27.711  1.00  0.00     0.029 A 
ATOM     44  C   UNL A   1      40.650  28.319  28.898  1.00  0.00     0.049 A 
ATOM     45  H   UNL A   1      40.416  29.222  30.759  1.00  0.00     0.167 HD
ATOM     46  C   UNL A   1      39.709  31.182  34.645  1.00  0.00     0.037 A 
ATOM     47  C   UNL A   1      41.727  27.516  28.995  1.00  0.00     0.037 A 
ATOM     48  C   UNL A   1      40.834  30.309  34.856  1.00  0.00     0.049 A 
ATOM     49  C   UNL A   1      42.476  27.454  30.301  1.00  0.00     0.074 A 
ATOM     50  C   UNL A   1      41.544  30.079  36.019  1.00  0.00     0.029 A 
ATOM     51  N   UNL A   1      41.424  29.532  33.867  1.00  0.00    -0.354 N 
ATOM     52  N   UNL A   1      42.210  28.046  31.441  1.00  0.00    -0.248 NA
ATOM     53  C   UNL A   1      43.677  26.608  30.331  1.00  0.00     0.031 C 
ATOM     54  C   UNL A   1      42.603  29.213  35.719  1.00  0.00     0.029 A 
ATOM     55  C   UNL A   1      42.512  28.848  34.385  1.00  0.00     0.049 A 
ATOM     56  H   UNL A   1      41.113  29.476  32.934  1.00  0.00     0.167 HD
ATOM     57  C   UNL A   1      43.186  27.620  32.332  1.00  0.00     0.074 A 
ATOM     58  C   UNL A   1      44.046  26.711  31.600  1.00  0.00     0.031 C 
ATOM     59  C   UNL A   1      43.354  27.945  33.639  1.00  0.00     0.037 A 
BRANCH  46  60
ATOM     60  C   UNL A   1      39.212  32.023  35.787  1.00  0.00     0.064 A 
ATOM     61  C   UNL A   1      39.644  33.344  35.983  1.00  0.00     0.173 A 
ATOM     62  C   UNL A   1      38.307  31.488  36.718  1.00  0.00     0.173 A 
ATOM     63  F   UNL A   1      40.522  33.899  35.133  1.00  0.00    -0.203 F 
ATOM     64  C   UNL A   1      39.229  34.080  37.090  1.00  0.00     0.198 A 
ATOM     65  C   UNL A   1      37.864  32.240  37.803  1.00  0.00     0.198 A 
ATOM     66  F   UNL A   1      37.858  30.232  36.580  1.00  0.00    -0.203 F 
ATOM     67  F   UNL A   1      39.716  35.312  37.295  1.00  0.00    -0.200 F 
ATOM     68  C   UNL A   1      38.336  33.528  37.996  1.00  0.00     0.200 A 
ATOM     69  F   UNL A   1      36.991  31.709  38.671  1.00  0.00    -0.200 F 
ATOM     70  F   UNL A   1      37.942  34.234  39.066  1.00  0.00    -0.200 F 
ENDBRANCH  46  60
BRANCH  47  71
ATOM     71  C   UNL A   1      42.148  26.701  27.828  1.00  0.00     0.064 A 
ATOM     72  C   UNL A   1      41.586  25.438  27.596  1.00  0.00     0.173 A 
ATOM     73  C   UNL A   1      43.111  27.165  26.919  1.00  0.00     0.173 A 
ATOM     74  F   UNL A   1      40.679  24.942  28.450  1.00  0.00    -0.203 F 
ATOM     75  C   UNL A   1      41.977  24.667  26.503  1.00  0.00     0.198 A 
ATOM     76  C   UNL A   1      43.480  26.405  25.812  1.00  0.00     0.198 A 
ATOM     77  F   UNL A   1      43.681  28.366  27.098  1.00  0.00    -0.203 F 
ATOM     78  F   UNL A   1      41.450  23.448  26.325  1.00  0.00    -0.200 F 
ATOM     79  C   UNL A   1      42.918  25.154  25.608  1.00  0.00     0.200 A 
ATOM     80  F   UNL A   1      44.379  26.884  24.942  1.00  0.00    -0.200 F 
ATOM     81  F   UNL A   1      43.286  24.416  24.552  1.00  0.00    -0.200 F 
ENDBRANCH  47  71
BRANCH  59  82
ATOM     82  C   UNL A   1      44.484  27.281  34.374  1.00  0.00     0.064 A 
ATOM     83  C   UNL A   1      45.747  27.881  34.491  1.00  0.00     0.173 A 
ATOM     84  C   UNL A   1      44.286  26.042  35.004  1.00  0.00     0.173 A 
ATOM     85  F   UNL A   1      45.993  29.058  33.896  1.00  0.00    -0.203 F 
ATOM     86  C   UNL A   1      46.777  27.250  35.184  1.00  0.00     0.198 A 
ATOM     87  C   UNL A   1      45.308  25.432  35.728  1.00  0.00     0.198 A 
ATOM     88  F   UNL A   1      43.095  25.427  34.932  1.00  0.00    -0.203 F 
ATOM     89  F   UNL A   1      47.991  27.815  35.236  1.00  0.00    -0.200 F 
ATOM     90  C   UNL A   1      46.555  26.032  35.809  1.00  0.00     0.200 A 
ATOM     91  F   UNL A   1      45.085  24.264  36.345  1.00  0.00    -0.200 F 
ATOM     92  F   UNL A   1      47.545  25.431  36.483  1.00  0.00    -0.200 F 
ENDBRANCH  59  82
ENDBRANCH  33  34
ENDBRANCH  26  28
ENDBRANCH  25  26
ENDBRANCH  24  25
ENDBRANCH  23  24
ENDBRANCH  22  23
ENDBRANCH   1  22
TORSDOF 17
ENDMDL
MODEL 3
REMARK VINA RESULT:     -10.7      5.617     11.165
REMARK SMILES C[C@@H]1C[N@@H+](CC(C)(C)C(=O)OCCOCCOC(=O)c2ccc(-c3c4nc(c(-c5c(F)c(F)c(F)c(F)c5F)c5ccc([nH]5)c(-c5c(F)c(F)c(F)c(F)c5F)c5nc(c(-c6c(F)c(F)c(F)c(F)c6F)c6ccc3[nH]6)C=C5)C=C4)cc2)CC[C@@H]1[NH3+]
REMARK SMILES IDX 13 1 12 2 11 3 9 4 10 5 6 6 7 7 8 8 5 9 4 10 1 11 2 12 3 13
REMARK SMILES IDX 85 14 84 15 83 16 86 18 14 22 15 23 16 24 17 25 18 26 19 27
REMARK SMILES IDX 20 28 21 29 82 30 22 31 81 32 23 33 24 34 25 35 75 36 26 37
REMARK SMILES IDX 80 38 74 39 76 40 27 41 79 42 73 43 72 44 28 46 60 47 40 48
REMARK SMILES IDX 59 49 41 50 44 51 58 52 77 53 42 54 43 55 57 57 78 58 45 59
REMARK SMILES IDX 29 60 30 61 38 62 31 63 32 64 36 65 39 66 33 67 34 68 37 69
REMARK SMILES IDX 35 70 61 71 62 72 70 73 63 74 64 75 68 76 71 77 65 78 66 79
REMARK SMILES IDX 69 80 67 81 46 82 47 83 55 84 48 85 49 86 53 87 56 88 50 89
REMARK SMILES IDX 51 90 54 91 52 92
REMARK H PARENT 4 17 86 19 86 20 86 21 76 45 44 56
REMARK Flexibility Score: inf
ROOT
ATOM      1  C   UNL A   1      37.073  22.392  25.745  1.00  0.00     0.202 C 
ENDROOT
BRANCH   1   2
ATOM      2  C   UNL A   1      35.604  21.967  25.579  1.00  0.00     0.261 C 
BRANCH   2   3
ATOM      3  O   UNL A   1      35.285  21.539  24.250  1.00  0.00    -0.463 OA
BRANCH   3   4
ATOM      4  C   UNL A   1      34.733  22.526  23.496  1.00  0.00     0.317 C 
ATOM      5  O   UNL A   1      35.434  23.381  22.965  1.00  0.00    -0.251 OA
BRANCH   4   6
ATOM      6  C   UNL A   1      33.190  22.566  23.509  1.00  0.00     0.111 C 
ATOM      7  C   UNL A   1      32.859  23.478  22.319  1.00  0.00     0.029 C 
ATOM      8  C   UNL A   1      32.652  23.279  24.783  1.00  0.00     0.029 C 
BRANCH   6   9
ATOM      9  C   UNL A   1      32.428  21.169  23.438  1.00  0.00     0.280 C 
BRANCH   9  10
ATOM     10  N   UNL A   1      32.904  19.847  23.930  1.00  0.00    -0.333 N 
ATOM     11  C   UNL A   1      34.324  16.964  23.126  1.00  0.00     0.020 C 
ATOM     12  C   UNL A   1      32.865  17.331  23.374  1.00  0.00     0.099 C 
ATOM     13  C   UNL A   1      32.527  18.776  23.012  1.00  0.00     0.271 C 
ATOM     14  C   UNL A   1      32.329  17.088  24.794  1.00  0.00     0.194 C 
ATOM     15  C   UNL A   1      32.900  18.126  25.770  1.00  0.00     0.126 C 
ATOM     16  C   UNL A   1      32.548  19.557  25.322  1.00  0.00     0.268 C 
ATOM     17  H   UNL A   1      33.922  19.902  23.942  1.00  0.00     0.348 HD
BRANCH  14  18
ATOM     18  N   UNL A   1      32.535  15.704  25.219  1.00  0.00    -0.355 N 
ATOM     19  H   UNL A   1      33.126  15.224  24.539  1.00  0.00     0.344 HD
ATOM     20  H   UNL A   1      31.634  15.228  25.280  1.00  0.00     0.344 HD
ATOM     21  H   UNL A   1      32.989  15.692  26.132  1.00  0.00     0.344 HD
ENDBRANCH  14  18
ENDBRANCH   9  10
ENDBRANCH   6   9
ENDBRANCH   4   6
ENDBRANCH   3   4
ENDBRANCH   2   3
ENDBRANCH   1   2
BRANCH   1  22
ATOM     22  O   UNL A   1      38.083  21.736  24.993  1.00  0.00    -0.374 OA
BRANCH  22  23
ATOM     23  C   UNL A   1      38.196  20.316  25.029  1.00  0.00     0.202 C 
BRANCH  23  24
ATOM     24  C   UNL A   1      39.367  19.633  25.753  1.00  0.00     0.261 C 
BRANCH  24  25
ATOM     25  O   UNL A   1      40.575  20.408  25.753  1.00  0.00    -0.460 OA
BRANCH  25  26
ATOM     26  C   UNL A   1      41.221  20.446  26.945  1.00  0.00     0.338 C 
ATOM     27  O   UNL A   1      41.804  19.539  27.505  1.00  0.00    -0.246 OA
BRANCH  26  28
ATOM     28  C   UNL A   1      41.329  21.845  27.394  1.00  0.00     0.060 A 
ATOM     29  C   UNL A   1      40.654  22.818  26.643  1.00  0.00     0.016 A 
ATOM     30  C   UNL A   1      42.117  22.201  28.488  1.00  0.00     0.016 A 
ATOM     31  C   UNL A   1      40.792  24.163  26.964  1.00  0.00     0.010 A 
ATOM     32  C   UNL A   1      42.281  23.554  28.789  1.00  0.00     0.010 A 
ATOM     33  C   UNL A   1      41.650  24.536  28.004  1.00  0.00    -0.014 A 
BRANCH  33  34
ATOM     34  C   UNL A   1      42.051  25.953  28.117  1.00  0.00     0.031 A 
ATOM     35  C   UNL A   1      43.345  26.377  27.487  1.00  0.00     0.074 A 
ATOM     36  C   UNL A   1      41.254  26.849  28.720  1.00  0.00     0.049 A 
ATOM     37  N   UNL A   1      43.922  27.551  27.470  1.00  0.00    -0.248 NA
ATOM     38  C   UNL A   1      44.094  25.327  26.777  1.00  0.00     0.031 C 
ATOM     39  C   UNL A   1      39.945  26.557  29.300  1.00  0.00     0.029 A 
ATOM     40  N   UNL A   1      41.434  28.189  28.938  1.00  0.00    -0.354 N 
ATOM     41  C   UNL A   1      45.100  27.379  26.756  1.00  0.00     0.074 A 
ATOM     42  C   UNL A   1      45.179  25.981  26.393  1.00  0.00     0.031 C 
ATOM     43  C   UNL A   1      39.436  27.693  29.810  1.00  0.00     0.029 A 
ATOM     44  C   UNL A   1      40.401  28.775  29.625  1.00  0.00     0.049 A 
ATOM     45  H   UNL A   1      42.229  28.684  28.632  1.00  0.00     0.167 HD
ATOM     46  C   UNL A   1      46.029  28.308  26.429  1.00  0.00     0.037 A 
ATOM     47  C   UNL A   1      40.267  30.040  30.063  1.00  0.00     0.037 A 
ATOM     48  C   UNL A   1      45.944  29.693  26.810  1.00  0.00     0.049 A 
ATOM     49  C   UNL A   1      41.367  31.031  29.784  1.00  0.00     0.074 A 
ATOM     50  C   UNL A   1      46.824  30.722  26.532  1.00  0.00     0.029 A 
ATOM     51  N   UNL A   1      44.917  30.238  27.569  1.00  0.00    -0.354 N 
ATOM     52  N   UNL A   1      42.476  30.872  29.102  1.00  0.00    -0.248 NA
ATOM     53  C   UNL A   1      41.193  32.380  30.339  1.00  0.00     0.031 C 
ATOM     54  C   UNL A   1      46.363  31.876  27.178  1.00  0.00     0.029 A 
ATOM     55  C   UNL A   1      45.160  31.583  27.801  1.00  0.00     0.049 A 
ATOM     56  H   UNL A   1      44.131  29.742  27.895  1.00  0.00     0.167 HD
ATOM     57  C   UNL A   1      43.115  32.105  29.114  1.00  0.00     0.074 A 
ATOM     58  C   UNL A   1      42.263  33.004  29.866  1.00  0.00     0.031 C 
ATOM     59  C   UNL A   1      44.296  32.463  28.550  1.00  0.00     0.037 A 
BRANCH  46  60
ATOM     60  C   UNL A   1      47.233  27.832  25.663  1.00  0.00     0.064 A 
ATOM     61  C   UNL A   1      48.412  27.426  26.308  1.00  0.00     0.173 A 
ATOM     62  C   UNL A   1      47.215  27.808  24.261  1.00  0.00     0.173 A 
ATOM     63  F   UNL A   1      48.490  27.445  27.648  1.00  0.00    -0.203 F 
ATOM     64  C   UNL A   1      49.541  27.061  25.578  1.00  0.00     0.198 A 
ATOM     65  C   UNL A   1      48.333  27.406  23.534  1.00  0.00     0.198 A 
ATOM     66  F   UNL A   1      46.115  28.183  23.591  1.00  0.00    -0.203 F 
ATOM     67  F   UNL A   1      50.679  26.751  26.216  1.00  0.00    -0.200 F 
ATOM     68  C   UNL A   1      49.499  27.048  24.192  1.00  0.00     0.200 A 
ATOM     69  F   UNL A   1      48.286  27.382  22.195  1.00  0.00    -0.200 F 
ATOM     70  F   UNL A   1      50.588  26.704  23.490  1.00  0.00    -0.200 F 
ENDBRANCH  46  60
BRANCH  47  71
ATOM     71  C   UNL A   1      39.040  30.441  30.798  1.00  0.00     0.064 A 
ATOM     72  C   UNL A   1      38.971  30.324  32.193  1.00  0.00     0.173 A 
ATOM     73  C   UNL A   1      37.918  30.952  30.128  1.00  0.00     0.173 A 
ATOM     74  F   UNL A   1      40.009  29.819  32.875  1.00  0.00    -0.203 F 
ATOM     75  C   UNL A   1      37.823  30.697  32.890  1.00  0.00     0.198 A 
ATOM     76  C   UNL A   1      36.782  31.350  30.829  1.00  0.00     0.198 A 
ATOM     77  F   UNL A   1      37.933  31.081  28.793  1.00  0.00    -0.203 F 
ATOM     78  F   UNL A   1      37.770  30.541  34.220  1.00  0.00    -0.200 F 
ATOM     79  C   UNL A   1      36.732  31.216  32.208  1.00  0.00     0.200 A 
ATOM     80  F   UNL A   1      35.736  31.864  30.169  1.00  0.00    -0.200 F 
ATOM     81  F   UNL A   1      35.633  31.583  32.880  1.00  0.00    -0.200 F 
ENDBRANCH  47  71
BRANCH  59  82
ATOM     82  C   UNL A   1      44.717  33.899  28.686  1.00  0.00     0.064 A 
ATOM     83  C   UNL A   1      45.532  34.336  29.742  1.00  0.00     0.173 A 
ATOM     84  C   UNL A   1      44.329  34.844  27.724  1.00  0.00     0.173 A 
ATOM     85  F   UNL A   1      45.919  33.477  30.697  1.00  0.00    -0.203 F 
ATOM     86  C   UNL A   1      45.916  35.671  29.844  1.00  0.00     0.198 A 
ATOM     87  C   UNL A   1      44.745  36.170  27.808  1.00  0.00     0.198 A 
ATOM     88  F   UNL A   1      43.557  34.479  26.689  1.00  0.00    -0.203 F 
ATOM     89  F   UNL A   1      46.648  36.077  30.890  1.00  0.00    -0.200 F 
ATOM     90  C   UNL A   1      45.531  36.584  28.873  1.00  0.00     0.200 A 
ATOM     91  F   UNL A   1      44.386  37.046  26.860  1.00  0.00    -0.200 F 
ATOM     92  F   UNL A   1      45.908  37.866  28.969  1.00  0.00    -0.200 F 
ENDBRANCH  59  82
ENDBRANCH  33  34
ENDBRANCH  26  28
ENDBRANCH  25  26
ENDBRANCH  24  25
ENDBRANCH  23  24
ENDBRANCH  22  23
ENDBRANCH   1  22
TORSDOF 17
ENDMDL
