MODEL 1
REMARK VINA RESULT:     -12.5      0.000      0.000
REMARK SMILES Cc1cc(C)c(NS(=O)(=O)c2cccc3cc(C)cnc23)c(C(=O)OCCOCCOC(=O)c2ccc(-c3c4nc(c(-c5c(F)c(F)c(F)c(F)c5F)c5ccc([nH]5)c(-c5c(F)c(F)c(F)c(F)c5F)c5nc(c(-c6c(F)c(F)c(F)c(F)c6F)c6ccc3[nH]6)C=C5)C=C4)cc2)c1
REMARK SMILES IDX 27 1 26 2 25 3 23 4 24 5 22 6 1 7 2 8 3 9 97 10 4 11 5 12
REMARK SMILES IDX 6 13 7 14 8 16 9 17 10 18 11 19 12 20 21 21 13 22 15 23
REMARK SMILES IDX 20 24 14 25 16 26 19 27 17 28 18 29 28 30 29 31 30 32 31 33
REMARK SMILES IDX 32 34 33 35 34 36 35 37 96 38 36 39 95 40 37 41 38 42 39 43
REMARK SMILES IDX 89 44 40 45 94 46 88 47 90 48 41 49 93 50 87 51 86 52 42 54
REMARK SMILES IDX 74 55 54 56 73 57 55 58 58 59 72 60 91 61 56 62 57 63 71 65
REMARK SMILES IDX 92 66 59 67 43 68 44 69 52 70 45 71 46 72 50 73 53 74 47 75
REMARK SMILES IDX 48 76 51 77 49 78 75 79 76 80 84 81 77 82 78 83 82 84 85 85
REMARK SMILES IDX 79 86 80 87 83 88 81 89 60 90 61 91 69 92 62 93 63 94 67 95
REMARK SMILES IDX 70 96 64 97 65 98 68 99 66 100
REMARK H PARENT 7 15 90 53 58 64
REMARK Flexibility Score: inf
ROOT
ATOM      1  C   UNL A   1      32.832  29.471  26.691  1.00  0.00     0.202 C 
ENDROOT
BRANCH   1   2
ATOM      2  C   UNL A   1      32.800  28.032  27.209  1.00  0.00     0.261 C 
BRANCH   2   3
ATOM      3  O   UNL A   1      31.507  27.427  27.030  1.00  0.00    -0.460 OA
BRANCH   3   4
ATOM      4  C   UNL A   1      31.454  26.547  26.002  1.00  0.00     0.340 C 
ATOM      5  O   UNL A   1      31.403  25.330  26.114  1.00  0.00    -0.246 OA
BRANCH   4   6
ATOM      6  C   UNL A   1      31.411  27.217  24.678  1.00  0.00     0.084 A 
ATOM      7  C   UNL A   1      29.257  29.533  22.586  1.00  0.00     0.044 C 
ATOM      8  C   UNL A   1      30.448  28.796  23.122  1.00  0.00    -0.050 A 
ATOM      9  C   UNL A   1      31.673  28.813  22.445  1.00  0.00     0.009 A 
ATOM     10  C   UNL A   1      30.355  28.061  24.303  1.00  0.00     0.021 A 
ATOM     11  C   UNL A   1      32.742  27.979  22.835  1.00  0.00    -0.026 A 
ATOM     12  C   UNL A   1      34.102  28.263  22.271  1.00  0.00     0.046 C 
ATOM     13  C   UNL A   1      32.514  27.014  23.820  1.00  0.00     0.066 A 
BRANCH  13  14
ATOM     14  N   UNL A   1      32.949  25.638  23.736  1.00  0.00    -0.278 N 
ATOM     15  H   UNL A   1      33.605  25.386  24.425  1.00  0.00     0.180 HD
BRANCH  14  16
ATOM     16  S   UNL A   1      32.554  24.407  22.706  1.00  0.00     0.264 S 
ATOM     17  O   UNL A   1      31.108  24.295  22.720  1.00  0.00    -0.201 OA
ATOM     18  O   UNL A   1      33.235  24.710  21.460  1.00  0.00    -0.201 OA
BRANCH  16  19
ATOM     19  C   UNL A   1      33.196  22.842  23.229  1.00  0.00     0.114 A 
ATOM     20  C   UNL A   1      32.204  21.861  23.446  1.00  0.00     0.024 A 
ATOM     21  C   UNL A   1      34.512  22.674  23.656  1.00  0.00     0.091 A 
ATOM     22  C   UNL A   1      32.487  20.733  24.196  1.00  0.00     0.002 A 
ATOM     23  C   UNL A   1      34.744  21.569  24.513  1.00  0.00     0.002 A 
ATOM     24  N   UNL A   1      35.522  23.526  23.359  1.00  0.00    -0.255 NA
ATOM     25  C   UNL A   1      33.747  20.609  24.764  1.00  0.00     0.010 A 
ATOM     26  C   UNL A   1      35.969  21.482  25.184  1.00  0.00     0.015 A 
ATOM     27  C   UNL A   1      36.704  23.394  24.006  1.00  0.00     0.115 A 
ATOM     28  C   UNL A   1      36.957  22.439  24.972  1.00  0.00    -0.032 A 
ATOM     29  C   UNL A   1      38.203  22.450  25.798  1.00  0.00     0.046 C 
ENDBRANCH  16  19
ENDBRANCH  14  16
ENDBRANCH  13  14
ENDBRANCH   4   6
ENDBRANCH   3   4
ENDBRANCH   2   3
ENDBRANCH   1   2
BRANCH   1  30
ATOM     30  O   UNL A   1      31.822  30.338  27.203  1.00  0.00    -0.374 OA
BRANCH  30  31
ATOM     31  C   UNL A   1      31.432  31.439  26.380  1.00  0.00     0.202 C 
BRANCH  31  32
ATOM     32  C   UNL A   1      31.712  32.825  26.970  1.00  0.00     0.261 C 
BRANCH  32  33
ATOM     33  O   UNL A   1      33.119  33.131  26.910  1.00  0.00    -0.460 OA
BRANCH  33  34
ATOM     34  C   UNL A   1      33.651  33.609  28.056  1.00  0.00     0.338 C 
ATOM     35  O   UNL A   1      33.154  34.420  28.827  1.00  0.00    -0.246 OA
BRANCH  34  36
ATOM     36  C   UNL A   1      34.887  32.875  28.380  1.00  0.00     0.060 A 
ATOM     37  C   UNL A   1      34.758  31.535  28.769  1.00  0.00     0.016 A 
ATOM     38  C   UNL A   1      36.139  33.494  28.372  1.00  0.00     0.016 A 
ATOM     39  C   UNL A   1      35.871  30.826  29.212  1.00  0.00     0.010 A 
ATOM     40  C   UNL A   1      37.256  32.785  28.827  1.00  0.00     0.010 A 
ATOM     41  C   UNL A   1      37.117  31.463  29.287  1.00  0.00    -0.014 A 
BRANCH  41  42
ATOM     42  C   UNL A   1      38.230  30.796  30.003  1.00  0.00     0.031 A 
ATOM     43  C   UNL A   1      38.477  31.146  31.443  1.00  0.00     0.074 A 
ATOM     44  C   UNL A   1      38.986  29.869  29.391  1.00  0.00     0.049 A 
ATOM     45  N   UNL A   1      39.399  30.705  32.261  1.00  0.00    -0.248 NA
ATOM     46  C   UNL A   1      37.558  32.127  32.043  1.00  0.00     0.031 C 
ATOM     47  C   UNL A   1      38.819  29.420  28.011  1.00  0.00     0.029 A 
ATOM     48  N   UNL A   1      40.054  29.144  29.857  1.00  0.00    -0.354 N 
ATOM     49  C   UNL A   1      39.172  31.353  33.468  1.00  0.00     0.074 A 
ATOM     50  C   UNL A   1      38.046  32.241  33.269  1.00  0.00     0.031 C 
ATOM     51  C   UNL A   1      39.762  28.502  27.736  1.00  0.00     0.029 A 
ATOM     52  C   UNL A   1      40.611  28.320  28.913  1.00  0.00     0.049 A 
ATOM     53  H   UNL A   1      40.388  29.209  30.781  1.00  0.00     0.167 HD
ATOM     54  C   UNL A   1      39.836  31.212  34.639  1.00  0.00     0.037 A 
ATOM     55  C   UNL A   1      41.695  27.525  28.987  1.00  0.00     0.037 A 
ATOM     56  C   UNL A   1      40.957  30.332  34.835  1.00  0.00     0.049 A 
ATOM     57  C   UNL A   1      42.459  27.432  30.282  1.00  0.00     0.074 A 
ATOM     58  C   UNL A   1      41.690  30.107  35.987  1.00  0.00     0.029 A 
ATOM     59  N   UNL A   1      41.512  29.534  33.845  1.00  0.00    -0.354 N 
ATOM     60  N   UNL A   1      42.224  28.031  31.425  1.00  0.00    -0.248 NA
ATOM     61  C   UNL A   1      43.635  26.551  30.298  1.00  0.00     0.031 C 
ATOM     62  C   UNL A   1      42.716  29.206  35.683  1.00  0.00     0.029 A 
ATOM     63  C   UNL A   1      42.594  28.834  34.353  1.00  0.00     0.049 A 
ATOM     64  H   UNL A   1      41.185  29.474  32.918  1.00  0.00     0.167 HD
ATOM     65  C   UNL A   1      43.206  27.583  32.299  1.00  0.00     0.074 A 
ATOM     66  C   UNL A   1      44.033  26.654  31.558  1.00  0.00     0.031 C 
ATOM     67  C   UNL A   1      43.404  27.911  33.600  1.00  0.00     0.037 A 
BRANCH  54  68
ATOM     68  C   UNL A   1      39.378  32.053  35.794  1.00  0.00     0.064 A 
ATOM     69  C   UNL A   1      38.413  31.592  36.703  1.00  0.00     0.173 A 
ATOM     70  C   UNL A   1      39.923  33.328  36.005  1.00  0.00     0.173 A 
ATOM     71  F   UNL A   1      37.850  30.386  36.535  1.00  0.00    -0.203 F 
ATOM     72  C   UNL A   1      37.992  32.389  37.765  1.00  0.00     0.198 A 
ATOM     73  C   UNL A   1      39.519  34.111  37.083  1.00  0.00     0.198 A 
ATOM     74  F   UNL A   1      40.850  33.814  35.166  1.00  0.00    -0.203 F 
ATOM     75  F   UNL A   1      37.035  31.947  38.592  1.00  0.00    -0.200 F 
ATOM     76  C   UNL A   1      38.548  33.644  37.957  1.00  0.00     0.200 A 
ATOM     77  F   UNL A   1      40.063  35.320  37.271  1.00  0.00    -0.200 F 
ATOM     78  F   UNL A   1      38.143  34.409  38.979  1.00  0.00    -0.200 F 
ENDBRANCH  54  68
BRANCH  55  79
ATOM     79  C   UNL A   1      42.127  26.757  27.791  1.00  0.00     0.064 A 
ATOM     80  C   UNL A   1      41.584  25.498  27.502  1.00  0.00     0.173 A 
ATOM     81  C   UNL A   1      43.096  27.267  26.915  1.00  0.00     0.173 A 
ATOM     82  F   UNL A   1      40.674  24.958  28.326  1.00  0.00    -0.203 F 
ATOM     83  C   UNL A   1      42.000  24.775  26.386  1.00  0.00     0.198 A 
ATOM     84  C   UNL A   1      43.493  26.555  25.787  1.00  0.00     0.198 A 
ATOM     85  F   UNL A   1      43.649  28.467  27.149  1.00  0.00    -0.203 F 
ATOM     86  F   UNL A   1      41.490  23.558  26.152  1.00  0.00    -0.200 F 
ATOM     87  C   UNL A   1      42.949  25.307  25.525  1.00  0.00     0.200 A 
ATOM     88  F   UNL A   1      44.402  27.077  24.952  1.00  0.00    -0.200 F 
ATOM     89  F   UNL A   1      43.343  24.613  24.449  1.00  0.00    -0.200 F 
ENDBRANCH  55  79
BRANCH  67  90
ATOM     90  C   UNL A   1      44.542  27.241  34.313  1.00  0.00     0.064 A 
ATOM     91  C   UNL A   1      45.804  27.846  34.413  1.00  0.00     0.173 A 
ATOM     92  C   UNL A   1      44.354  26.002  34.944  1.00  0.00     0.173 A 
ATOM     93  F   UNL A   1      46.037  29.024  33.814  1.00  0.00    -0.203 F 
ATOM     94  C   UNL A   1      46.842  27.222  35.100  1.00  0.00     0.198 A 
ATOM     95  C   UNL A   1      45.388  25.395  35.652  1.00  0.00     0.198 A 
ATOM     96  F   UNL A   1      43.164  25.386  34.883  1.00  0.00    -0.203 F 
ATOM     97  F   UNL A   1      48.051  27.799  35.147  1.00  0.00    -0.200 F 
ATOM     98  C   UNL A   1      46.631  26.003  35.725  1.00  0.00     0.200 A 
ATOM     99  F   UNL A   1      45.179  24.221  36.265  1.00  0.00    -0.200 F 
ATOM    100  F   UNL A   1      47.631  25.408  36.390  1.00  0.00    -0.200 F 
ENDBRANCH  67  90
ENDBRANCH  41  42
ENDBRANCH  34  36
ENDBRANCH  33  34
ENDBRANCH  32  33
ENDBRANCH  31  32
ENDBRANCH  30  31
ENDBRANCH   1  30
TORSDOF 17
ENDMDL
MODEL 2
REMARK VINA RESULT:     -12.2      1.798      7.243
REMARK SMILES Cc1cc(C)c(NS(=O)(=O)c2cccc3cc(C)cnc23)c(C(=O)OCCOCCOC(=O)c2ccc(-c3c4nc(c(-c5c(F)c(F)c(F)c(F)c5F)c5ccc([nH]5)c(-c5c(F)c(F)c(F)c(F)c5F)c5nc(c(-c6c(F)c(F)c(F)c(F)c6F)c6ccc3[nH]6)C=C5)C=C4)cc2)c1
REMARK SMILES IDX 27 1 26 2 25 3 23 4 24 5 22 6 1 7 2 8 3 9 97 10 4 11 5 12
REMARK SMILES IDX 6 13 7 14 8 16 9 17 10 18 11 19 12 20 21 21 13 22 15 23
REMARK SMILES IDX 20 24 14 25 16 26 19 27 17 28 18 29 28 30 29 31 30 32 31 33
REMARK SMILES IDX 32 34 33 35 34 36 35 37 96 38 36 39 95 40 37 41 38 42 39 43
REMARK SMILES IDX 89 44 40 45 94 46 88 47 90 48 41 49 93 50 87 51 86 52 42 54
REMARK SMILES IDX 74 55 54 56 73 57 55 58 58 59 72 60 91 61 56 62 57 63 71 65
REMARK SMILES IDX 92 66 59 67 43 68 44 69 52 70 45 71 46 72 50 73 53 74 47 75
REMARK SMILES IDX 48 76 51 77 49 78 75 79 76 80 84 81 77 82 78 83 82 84 85 85
REMARK SMILES IDX 79 86 80 87 83 88 81 89 60 90 61 91 69 92 62 93 63 94 67 95
REMARK SMILES IDX 70 96 64 97 65 98 68 99 66 100
REMARK H PARENT 7 15 90 53 58 64
REMARK Flexibility Score: inf
ROOT
ATOM      1  C   UNL A   1      34.917  30.035  27.261  1.00  0.00     0.202 C 
ENDROOT
BRANCH   1   2
ATOM      2  C   UNL A   1      34.090  28.896  27.860  1.00  0.00     0.261 C 
BRANCH   2   3
ATOM      3  O   UNL A   1      33.661  27.962  26.855  1.00  0.00    -0.460 OA
BRANCH   3   4
ATOM      4  C   UNL A   1      32.337  27.677  26.905  1.00  0.00     0.340 C 
ATOM      5  O   UNL A   1      31.613  27.846  27.876  1.00  0.00    -0.246 OA
BRANCH   4   6
ATOM      6  C   UNL A   1      31.813  27.168  25.612  1.00  0.00     0.084 A 
ATOM      7  C   UNL A   1      29.205  27.911  22.962  1.00  0.00     0.044 C 
ATOM      8  C   UNL A   1      30.440  27.392  23.636  1.00  0.00    -0.050 A 
ATOM      9  C   UNL A   1      31.275  26.465  23.001  1.00  0.00     0.009 A 
ATOM     10  C   UNL A   1      30.777  27.813  24.922  1.00  0.00     0.021 A 
ATOM     11  C   UNL A   1      32.330  25.832  23.690  1.00  0.00    -0.026 A 
ATOM     12  C   UNL A   1      33.358  25.093  22.884  1.00  0.00     0.046 C 
ATOM     13  C   UNL A   1      32.443  26.026  25.069  1.00  0.00     0.066 A 
BRANCH  13  14
ATOM     14  N   UNL A   1      32.680  24.973  26.029  1.00  0.00    -0.278 N 
ATOM     15  H   UNL A   1      33.374  25.188  26.693  1.00  0.00     0.180 HD
BRANCH  14  16
ATOM     16  S   UNL A   1      32.007  23.475  26.228  1.00  0.00     0.264 S 
ATOM     17  O   UNL A   1      32.102  23.156  27.639  1.00  0.00    -0.201 OA
ATOM     18  O   UNL A   1      30.701  23.549  25.598  1.00  0.00    -0.201 OA
BRANCH  16  19
ATOM     19  C   UNL A   1      32.884  22.209  25.355  1.00  0.00     0.114 A 
ATOM     20  C   UNL A   1      32.094  21.083  25.036  1.00  0.00     0.024 A 
ATOM     21  C   UNL A   1      34.273  22.197  25.242  1.00  0.00     0.091 A 
ATOM     22  C   UNL A   1      32.691  19.880  24.700  1.00  0.00     0.002 A 
ATOM     23  C   UNL A   1      34.859  20.928  25.007  1.00  0.00     0.002 A 
ATOM     24  N   UNL A   1      35.059  23.286  25.412  1.00  0.00    -0.255 NA
ATOM     25  C   UNL A   1      34.075  19.794  24.727  1.00  0.00     0.010 A 
ATOM     26  C   UNL A   1      36.246  20.792  25.137  1.00  0.00     0.015 A 
ATOM     27  C   UNL A   1      36.400  23.121  25.505  1.00  0.00     0.115 A 
ATOM     28  C   UNL A   1      37.036  21.895  25.444  1.00  0.00    -0.032 A 
ATOM     29  C   UNL A   1      38.492  21.737  25.744  1.00  0.00     0.046 C 
ENDBRANCH  16  19
ENDBRANCH  14  16
ENDBRANCH  13  14
ENDBRANCH   4   6
ENDBRANCH   3   4
ENDBRANCH   2   3
ENDBRANCH   1   2
BRANCH   1  30
ATOM     30  O   UNL A   1      34.331  31.334  27.334  1.00  0.00    -0.374 OA
BRANCH  30  31
ATOM     31  C   UNL A   1      32.905  31.407  27.272  1.00  0.00     0.202 C 
BRANCH  31  32
ATOM     32  C   UNL A   1      32.318  32.815  27.410  1.00  0.00     0.261 C 
BRANCH  32  33
ATOM     33  O   UNL A   1      33.368  33.801  27.480  1.00  0.00    -0.460 OA
BRANCH  33  34
ATOM     34  C   UNL A   1      33.336  34.594  28.574  1.00  0.00     0.338 C 
ATOM     35  O   UNL A   1      32.465  35.395  28.889  1.00  0.00    -0.246 OA
BRANCH  34  36
ATOM     36  C   UNL A   1      34.443  34.241  29.481  1.00  0.00     0.060 A 
ATOM     37  C   UNL A   1      35.748  34.467  29.024  1.00  0.00     0.016 A 
ATOM     38  C   UNL A   1      34.219  33.640  30.722  1.00  0.00     0.016 A 
ATOM     39  C   UNL A   1      36.836  34.035  29.777  1.00  0.00     0.010 A 
ATOM     40  C   UNL A   1      35.313  33.198  31.474  1.00  0.00     0.010 A 
ATOM     41  C   UNL A   1      36.621  33.357  30.984  1.00  0.00    -0.014 A 
BRANCH  41  42
ATOM     42  C   UNL A   1      37.759  32.672  31.642  1.00  0.00     0.031 A 
ATOM     43  C   UNL A   1      38.376  31.482  30.964  1.00  0.00     0.074 A 
ATOM     44  C   UNL A   1      38.255  33.123  32.806  1.00  0.00     0.049 A 
ATOM     45  N   UNL A   1      39.363  30.718  31.359  1.00  0.00    -0.248 NA
ATOM     46  C   UNL A   1      37.803  31.101  29.663  1.00  0.00     0.031 C 
ATOM     47  C   UNL A   1      37.765  34.288  33.538  1.00  0.00     0.029 A 
ATOM     48  N   UNL A   1      39.283  32.643  33.579  1.00  0.00    -0.354 N 
ATOM     49  C   UNL A   1      39.528  29.769  30.358  1.00  0.00     0.074 A 
ATOM     50  C   UNL A   1      38.521  30.032  29.353  1.00  0.00     0.031 C 
ATOM     51  C   UNL A   1      38.486  34.427  34.665  1.00  0.00     0.029 A 
ATOM     52  C   UNL A   1      39.468  33.347  34.742  1.00  0.00     0.049 A 
ATOM     53  H   UNL A   1      39.835  31.869  33.323  1.00  0.00     0.167 HD
ATOM     54  C   UNL A   1      40.444  28.775  30.281  1.00  0.00     0.037 A 
ATOM     55  C   UNL A   1      40.322  33.130  35.760  1.00  0.00     0.037 A 
ATOM     56  C   UNL A   1      41.442  28.513  31.282  1.00  0.00     0.049 A 
ATOM     57  C   UNL A   1      41.290  31.978  35.682  1.00  0.00     0.074 A 
ATOM     58  C   UNL A   1      42.425  27.538  31.290  1.00  0.00     0.029 A 
ATOM     59  N   UNL A   1      41.580  29.229  32.462  1.00  0.00    -0.354 N 
ATOM     60  N   UNL A   1      41.454  31.099  34.723  1.00  0.00    -0.248 NA
ATOM     61  C   UNL A   1      42.193  31.791  36.827  1.00  0.00     0.031 C 
ATOM     62  C   UNL A   1      43.129  27.637  32.495  1.00  0.00     0.029 A 
ATOM     63  C   UNL A   1      42.615  28.703  33.217  1.00  0.00     0.049 A 
ATOM     64  H   UNL A   1      41.025  29.999  32.724  1.00  0.00     0.167 HD
ATOM     65  C   UNL A   1      42.490  30.272  35.136  1.00  0.00     0.074 A 
ATOM     66  C   UNL A   1      42.925  30.759  36.428  1.00  0.00     0.031 C 
ATOM     67  C   UNL A   1      43.035  29.204  34.501  1.00  0.00     0.037 A 
BRANCH  54  68
ATOM     68  C   UNL A   1      40.387  27.881  29.078  1.00  0.00     0.064 A 
ATOM     69  C   UNL A   1      39.605  26.716  29.064  1.00  0.00     0.173 A 
ATOM     70  C   UNL A   1      41.109  28.202  27.918  1.00  0.00     0.173 A 
ATOM     71  F   UNL A   1      38.910  26.357  30.153  1.00  0.00    -0.203 F 
ATOM     72  C   UNL A   1      39.570  25.891  27.942  1.00  0.00     0.198 A 
ATOM     73  C   UNL A   1      41.049  27.389  26.790  1.00  0.00     0.198 A 
ATOM     74  F   UNL A   1      41.869  29.306  27.880  1.00  0.00    -0.203 F 
ATOM     75  F   UNL A   1      38.854  24.758  27.969  1.00  0.00    -0.200 F 
ATOM     76  C   UNL A   1      40.287  26.230  26.805  1.00  0.00     0.200 A 
ATOM     77  F   UNL A   1      41.737  27.723  25.689  1.00  0.00    -0.200 F 
ATOM     78  F   UNL A   1      40.252  25.436  25.726  1.00  0.00    -0.200 F 
ENDBRANCH  54  68
BRANCH  55  79
ATOM     79  C   UNL A   1      40.294  34.021  36.948  1.00  0.00     0.064 A 
ATOM     80  C   UNL A   1      39.412  33.785  38.011  1.00  0.00     0.173 A 
ATOM     81  C   UNL A   1      41.148  35.129  37.042  1.00  0.00     0.173 A 
ATOM     82  F   UNL A   1      38.558  32.753  37.954  1.00  0.00    -0.203 F 
ATOM     83  C   UNL A   1      39.379  34.630  39.119  1.00  0.00     0.198 A 
ATOM     84  C   UNL A   1      41.132  35.958  38.159  1.00  0.00     0.198 A 
ATOM     85  F   UNL A   1      42.009  35.400  36.049  1.00  0.00    -0.203 F 
ATOM     86  F   UNL A   1      38.501  34.403  40.105  1.00  0.00    -0.200 F 
ATOM     87  C   UNL A   1      40.244  35.712  39.196  1.00  0.00     0.200 A 
ATOM     88  F   UNL A   1      41.977  36.996  38.235  1.00  0.00    -0.200 F 
ATOM     89  F   UNL A   1      40.217  36.520  40.264  1.00  0.00    -0.200 F 
ENDBRANCH  55  79
BRANCH  67  90
ATOM     90  C   UNL A   1      44.176  28.507  35.181  1.00  0.00     0.064 A 
ATOM     91  C   UNL A   1      43.966  27.414  36.034  1.00  0.00     0.173 A 
ATOM     92  C   UNL A   1      45.499  28.909  34.939  1.00  0.00     0.173 A 
ATOM     93  F   UNL A   1      42.719  27.002  36.308  1.00  0.00    -0.203 F 
ATOM     94  C   UNL A   1      45.039  26.762  36.638  1.00  0.00     0.198 A 
ATOM     95  C   UNL A   1      46.569  28.238  35.524  1.00  0.00     0.198 A 
ATOM     96  F   UNL A   1      45.753  29.944  34.125  1.00  0.00    -0.203 F 
ATOM     97  F   UNL A   1      44.812  25.746  37.482  1.00  0.00    -0.200 F 
ATOM     98  C   UNL A   1      46.338  27.169  36.377  1.00  0.00     0.200 A 
ATOM     99  F   UNL A   1      47.825  28.625  35.261  1.00  0.00    -0.200 F 
ATOM    100  F   UNL A   1      47.368  26.536  36.954  1.00  0.00    -0.200 F 
ENDBRANCH  67  90
ENDBRANCH  41  42
ENDBRANCH  34  36
ENDBRANCH  33  34
ENDBRANCH  32  33
ENDBRANCH  31  32
ENDBRANCH  30  31
ENDBRANCH   1  30
TORSDOF 17
ENDMDL
MODEL 3
REMARK VINA RESULT:     -12.2      1.598      2.242
REMARK SMILES Cc1cc(C)c(NS(=O)(=O)c2cccc3cc(C)cnc23)c(C(=O)OCCOCCOC(=O)c2ccc(-c3c4nc(c(-c5c(F)c(F)c(F)c(F)c5F)c5ccc([nH]5)c(-c5c(F)c(F)c(F)c(F)c5F)c5nc(c(-c6c(F)c(F)c(F)c(F)c6F)c6ccc3[nH]6)C=C5)C=C4)cc2)c1
REMARK SMILES IDX 27 1 26 2 25 3 23 4 24 5 22 6 1 7 2 8 3 9 97 10 4 11 5 12
REMARK SMILES IDX 6 13 7 14 8 16 9 17 10 18 11 19 12 20 21 21 13 22 15 23
REMARK SMILES IDX 20 24 14 25 16 26 19 27 17 28 18 29 28 30 29 31 30 32 31 33
REMARK SMILES IDX 32 34 33 35 34 36 35 37 96 38 36 39 95 40 37 41 38 42 39 43
REMARK SMILES IDX 89 44 40 45 94 46 88 47 90 48 41 49 93 50 87 51 86 52 42 54
REMARK SMILES IDX 74 55 54 56 73 57 55 58 58 59 72 60 91 61 56 62 57 63 71 65
REMARK SMILES IDX 92 66 59 67 43 68 44 69 52 70 45 71 46 72 50 73 53 74 47 75
REMARK SMILES IDX 48 76 51 77 49 78 75 79 76 80 84 81 77 82 78 83 82 84 85 85
REMARK SMILES IDX 79 86 80 87 83 88 81 89 60 90 61 91 69 92 62 93 63 94 67 95
REMARK SMILES IDX 70 96 64 97 65 98 68 99 66 100
REMARK H PARENT 7 15 90 53 58 64
REMARK Flexibility Score: inf
ROOT
ATOM      1  C   UNL A   1      34.763  30.156  27.214  1.00  0.00     0.202 C 
ENDROOT
BRANCH   1   2
ATOM      2  C   UNL A   1      34.074  28.941  27.836  1.00  0.00     0.261 C 
BRANCH   2   3
ATOM      3  O   UNL A   1      33.644  28.000  26.836  1.00  0.00    -0.460 OA
BRANCH   3   4
ATOM      4  C   UNL A   1      32.325  27.697  26.903  1.00  0.00     0.340 C 
ATOM      5  O   UNL A   1      31.611  27.858  27.883  1.00  0.00    -0.246 OA
BRANCH   4   6
ATOM      6  C   UNL A   1      31.792  27.178  25.618  1.00  0.00     0.084 A 
ATOM      7  C   UNL A   1      29.168  27.902  22.979  1.00  0.00     0.044 C 
ATOM      8  C   UNL A   1      30.407  27.387  23.649  1.00  0.00    -0.050 A 
ATOM      9  C   UNL A   1      31.237  26.454  23.016  1.00  0.00     0.009 A 
ATOM     10  C   UNL A   1      30.752  27.818  24.930  1.00  0.00     0.021 A 
ATOM     11  C   UNL A   1      32.296  25.826  23.703  1.00  0.00    -0.026 A 
ATOM     12  C   UNL A   1      33.318  25.080  22.897  1.00  0.00     0.046 C 
ATOM     13  C   UNL A   1      32.418  26.031  25.081  1.00  0.00     0.066 A 
BRANCH  13  14
ATOM     14  N   UNL A   1      32.660  24.985  26.048  1.00  0.00    -0.278 N 
ATOM     15  H   UNL A   1      33.353  25.209  26.710  1.00  0.00     0.180 HD
BRANCH  14  16
ATOM     16  S   UNL A   1      31.996  23.485  26.255  1.00  0.00     0.264 S 
ATOM     17  O   UNL A   1      32.110  23.167  27.666  1.00  0.00    -0.201 OA
ATOM     18  O   UNL A   1      30.682  23.553  25.641  1.00  0.00    -0.201 OA
BRANCH  16  19
ATOM     19  C   UNL A   1      32.867  22.222  25.372  1.00  0.00     0.114 A 
ATOM     20  C   UNL A   1      32.076  21.096  25.056  1.00  0.00     0.024 A 
ATOM     21  C   UNL A   1      34.256  22.211  25.249  1.00  0.00     0.091 A 
ATOM     22  C   UNL A   1      32.671  19.895  24.712  1.00  0.00     0.002 A 
ATOM     23  C   UNL A   1      34.841  20.943  25.006  1.00  0.00     0.002 A 
ATOM     24  N   UNL A   1      35.042  23.301  25.417  1.00  0.00    -0.255 NA
ATOM     25  C   UNL A   1      34.056  19.810  24.729  1.00  0.00     0.010 A 
ATOM     26  C   UNL A   1      36.229  20.808  25.126  1.00  0.00     0.015 A 
ATOM     27  C   UNL A   1      36.384  23.136  25.500  1.00  0.00     0.115 A 
ATOM     28  C   UNL A   1      37.020  21.911  25.431  1.00  0.00    -0.032 A 
ATOM     29  C   UNL A   1      38.479  21.753  25.719  1.00  0.00     0.046 C 
ENDBRANCH  16  19
ENDBRANCH  14  16
ENDBRANCH  13  14
ENDBRANCH   4   6
ENDBRANCH   3   4
ENDBRANCH   2   3
ENDBRANCH   1   2
BRANCH   1  30
ATOM     30  O   UNL A   1      34.143  31.417  27.463  1.00  0.00    -0.374 OA
BRANCH  30  31
ATOM     31  C   UNL A   1      32.729  31.495  27.268  1.00  0.00     0.202 C 
BRANCH  31  32
ATOM     32  C   UNL A   1      32.131  32.900  27.393  1.00  0.00     0.261 C 
BRANCH  32  33
ATOM     33  O   UNL A   1      33.169  33.899  27.388  1.00  0.00    -0.460 OA
BRANCH  33  34
ATOM     34  C   UNL A   1      33.253  34.643  28.512  1.00  0.00     0.338 C 
ATOM     35  O   UNL A   1      32.464  35.494  28.904  1.00  0.00    -0.246 OA
BRANCH  34  36
ATOM     36  C   UNL A   1      34.371  34.167  29.346  1.00  0.00     0.060 A 
ATOM     37  C   UNL A   1      35.670  34.423  28.891  1.00  0.00     0.016 A 
ATOM     38  C   UNL A   1      34.161  33.426  30.512  1.00  0.00     0.016 A 
ATOM     39  C   UNL A   1      36.765  33.887  29.564  1.00  0.00     0.010 A 
ATOM     40  C   UNL A   1      35.260  32.880  31.182  1.00  0.00     0.010 A 
ATOM     41  C   UNL A   1      36.561  33.074  30.686  1.00  0.00    -0.014 A 
BRANCH  41  42
ATOM     42  C   UNL A   1      37.698  32.297  31.233  1.00  0.00     0.031 A 
ATOM     43  C   UNL A   1      38.205  32.626  32.609  1.00  0.00     0.074 A 
ATOM     44  C   UNL A   1      38.248  31.293  30.531  1.00  0.00     0.049 A 
ATOM     45  N   UNL A   1      39.194  32.094  33.282  1.00  0.00    -0.248 NA
ATOM     46  C   UNL A   1      37.498  33.701  33.325  1.00  0.00     0.031 C 
ATOM     47  C   UNL A   1      37.819  30.857  29.205  1.00  0.00     0.029 A 
ATOM     48  N   UNL A   1      39.296  30.461  30.840  1.00  0.00    -0.354 N 
ATOM     49  C   UNL A   1      39.228  32.769  34.495  1.00  0.00     0.074 A 
ATOM     50  C   UNL A   1      38.183  33.769  34.457  1.00  0.00     0.031 C 
ATOM     51  C   UNL A   1      38.607  29.843  28.805  1.00  0.00     0.029 A 
ATOM     52  C   UNL A   1      39.608  29.578  29.837  1.00  0.00     0.049 A 
ATOM     53  H   UNL A   1      39.776  30.495  31.698  1.00  0.00     0.167 HD
ATOM     54  C   UNL A   1      40.051  32.564  35.551  1.00  0.00     0.037 A 
ATOM     55  C   UNL A   1      40.602  28.673  29.758  1.00  0.00     0.037 A 
ATOM     56  C   UNL A   1      41.092  31.572  35.587  1.00  0.00     0.049 A 
ATOM     57  C   UNL A   1      41.547  28.507  30.919  1.00  0.00     0.074 A 
ATOM     58  C   UNL A   1      41.970  31.277  36.615  1.00  0.00     0.029 A 
ATOM     59  N   UNL A   1      41.398  30.715  34.540  1.00  0.00    -0.354 N 
ATOM     60  N   UNL A   1      41.560  29.133  32.071  1.00  0.00    -0.248 NA
ATOM     61  C   UNL A   1      42.613  27.507  30.769  1.00  0.00     0.031 C 
ATOM     62  C   UNL A   1      42.837  30.271  36.174  1.00  0.00     0.029 A 
ATOM     63  C   UNL A   1      42.469  29.907  34.888  1.00  0.00     0.049 A 
ATOM     64  H   UNL A   1      40.924  30.685  33.678  1.00  0.00     0.167 HD
ATOM     65  C   UNL A   1      42.615  28.588  32.790  1.00  0.00     0.074 A 
ATOM     66  C   UNL A   1      43.214  27.573  31.949  1.00  0.00     0.031 C 
ATOM     67  C   UNL A   1      43.050  28.900  34.037  1.00  0.00     0.037 A 
BRANCH  54  68
ATOM     68  C   UNL A   1      39.871  33.454  36.745  1.00  0.00     0.064 A 
ATOM     69  C   UNL A   1      38.986  33.124  37.783  1.00  0.00     0.173 A 
ATOM     70  C   UNL A   1      40.605  34.644  36.861  1.00  0.00     0.173 A 
ATOM     71  F   UNL A   1      38.249  32.005  37.710  1.00  0.00    -0.203 F 
ATOM     72  C   UNL A   1      38.823  33.966  38.880  1.00  0.00     0.198 A 
ATOM     73  C   UNL A   1      40.459  35.470  37.973  1.00  0.00     0.198 A 
ATOM     74  F   UNL A   1      41.466  35.004  35.898  1.00  0.00    -0.203 F 
ATOM     75  F   UNL A   1      37.937  33.653  39.836  1.00  0.00    -0.200 F 
ATOM     76  C   UNL A   1      39.563  35.134  38.977  1.00  0.00     0.200 A 
ATOM     77  F   UNL A   1      41.181  36.595  38.069  1.00  0.00    -0.200 F 
ATOM     78  F   UNL A   1      39.406  35.943  40.034  1.00  0.00    -0.200 F 
ENDBRANCH  54  68
BRANCH  55  79
ATOM     79  C   UNL A   1      40.758  27.858  28.526  1.00  0.00     0.064 A 
ATOM     80  C   UNL A   1      40.133  26.611  28.398  1.00  0.00     0.173 A 
ATOM     81  C   UNL A   1      41.538  28.311  27.452  1.00  0.00     0.173 A 
ATOM     82  F   UNL A   1      39.399  26.124  29.409  1.00  0.00    -0.203 F 
ATOM     83  C   UNL A   1      40.291  25.843  27.246  1.00  0.00     0.198 A 
ATOM     84  C   UNL A   1      41.676  27.555  26.292  1.00  0.00     0.198 A 
ATOM     85  F   UNL A   1      42.160  29.498  27.527  1.00  0.00    -0.203 F 
ATOM     86  F   UNL A   1      39.712  24.637  27.163  1.00  0.00    -0.200 F 
ATOM     87  C   UNL A   1      41.056  26.318  26.191  1.00  0.00     0.200 A 
ATOM     88  F   UNL A   1      42.406  28.023  25.271  1.00  0.00    -0.200 F 
ATOM     89  F   UNL A   1      41.202  25.582  25.081  1.00  0.00    -0.200 F 
ENDBRANCH  55  79
BRANCH  67  90
ATOM     90  C   UNL A   1      44.211  28.118  34.577  1.00  0.00     0.064 A 
ATOM     91  C   UNL A   1      44.027  26.901  35.249  1.00  0.00     0.173 A 
ATOM     92  C   UNL A   1      45.524  28.570  34.379  1.00  0.00     0.173 A 
ATOM     93  F   UNL A   1      42.790  26.435  35.476  1.00  0.00    -0.203 F 
ATOM     94  C   UNL A   1      45.118  26.174  35.722  1.00  0.00     0.198 A 
ATOM     95  C   UNL A   1      46.612  27.827  34.831  1.00  0.00     0.198 A 
ATOM     96  F   UNL A   1      45.753  29.725  33.736  1.00  0.00    -0.203 F 
ATOM     97  F   UNL A   1      44.917  25.034  36.397  1.00  0.00    -0.200 F 
ATOM     98  C   UNL A   1      46.408  26.634  35.506  1.00  0.00     0.200 A 
ATOM     99  F   UNL A   1      47.859  28.267  34.611  1.00  0.00    -0.200 F 
ATOM    100  F   UNL A   1      47.455  25.930  35.956  1.00  0.00    -0.200 F 
ENDBRANCH  67  90
ENDBRANCH  41  42
ENDBRANCH  34  36
ENDBRANCH  33  34
ENDBRANCH  32  33
ENDBRANCH  31  32
ENDBRANCH  30  31
ENDBRANCH   1  30
TORSDOF 17
ENDMDL
