MODEL 1
REMARK VINA RESULT:     -12.4      0.000      0.000
REMARK SMILES O=C(Cn1nc(-c2ccc(Br)cc2)ccc1=O)N[C@H](C(=O)OCCOCCOC(=O)c1ccc(-c2c3nc(c(-c4c(F)c(F)c(F)c(F)c4F)c4ccc([nH]4)c(-c4c(F)c(F)c(F)c(F)c4F)c4nc(c(-c5c(F)c(F)c(F)c(F)c5F)c5ccc2[nH]5)C=C4)C=C3)cc1)c1ccccc1
REMARK SMILES IDX 24 1 23 2 22 3 20 4 21 5 19 6 18 7 1 8 2 9 3 11 4 12 5 13
REMARK SMILES IDX 16 14 6 15 15 16 17 17 14 18 7 19 8 20 13 21 9 22 12 23
REMARK SMILES IDX 10 24 11 25 94 26 95 27 99 28 96 29 98 30 97 31 25 32 26 33
REMARK SMILES IDX 27 34 28 35 29 36 30 37 31 38 32 39 93 40 33 41 92 42 34 43
REMARK SMILES IDX 35 44 36 45 86 46 37 47 91 48 85 49 87 50 38 51 90 52 84 53
REMARK SMILES IDX 83 54 39 56 71 57 51 58 70 59 52 60 55 61 69 62 88 63 53 64
REMARK SMILES IDX 54 65 68 67 89 68 56 69 40 70 41 71 49 72 42 73 43 74 47 75
REMARK SMILES IDX 50 76 44 77 45 78 48 79 46 80 72 81 73 82 81 83 74 84 75 85
REMARK SMILES IDX 79 86 82 87 76 88 77 89 80 90 78 91 57 92 58 93 66 94 59 95
REMARK SMILES IDX 60 96 64 97 67 98 61 99 62 100 65 101 63 102
REMARK H PARENT 18 10 87 55 55 66
REMARK Flexibility Score: inf
ROOT
ATOM      1  C   UNL A   1      34.302  29.677  27.104  1.00  0.00     0.202 C 
ENDROOT
BRANCH   1   2
ATOM      2  C   UNL A   1      33.962  28.952  25.796  1.00  0.00     0.261 C 
BRANCH   2   3
ATOM      3  O   UNL A   1      32.730  29.389  25.218  1.00  0.00    -0.461 OA
BRANCH   3   4
ATOM      4  C   UNL A   1      31.791  28.390  25.133  1.00  0.00     0.333 C 
ATOM      5  O   UNL A   1      31.322  27.813  26.108  1.00  0.00    -0.249 OA
BRANCH   4   6
ATOM      6  C   UNL A   1      31.238  28.307  23.685  1.00  0.00     0.223 C 
BRANCH   6   7
ATOM      7  N   UNL A   1      31.378  26.987  23.076  1.00  0.00    -0.337 N 
ATOM      8  O   UNL A   1      33.418  27.408  22.122  1.00  0.00    -0.273 OA
ATOM      9  C   UNL A   1      32.482  26.641  22.320  1.00  0.00     0.242 C 
ATOM     10  H   UNL A   1      30.663  26.323  23.209  1.00  0.00     0.164 HD
BRANCH   9  11
ATOM     11  C   UNL A   1      32.465  25.205  21.798  1.00  0.00     0.248 C 
BRANCH  11  12
ATOM     12  N   UNL A   1      32.618  24.356  22.964  1.00  0.00    -0.220 N 
ATOM     13  N   UNL A   1      33.913  24.142  23.377  1.00  0.00    -0.169 NA
ATOM     14  C   UNL A   1      31.515  23.679  23.463  1.00  0.00     0.267 A 
ATOM     15  C   UNL A   1      34.117  23.191  24.232  1.00  0.00     0.091 A 
ATOM     16  C   UNL A   1      31.807  22.623  24.455  1.00  0.00     0.075 A 
ATOM     17  O   UNL A   1      30.350  23.885  23.134  1.00  0.00    -0.268 OA
ATOM     18  C   UNL A   1      33.059  22.355  24.829  1.00  0.00     0.036 A 
BRANCH  15  19
ATOM     19  C   UNL A   1      35.519  22.883  24.595  1.00  0.00     0.002 A 
ATOM     20  C   UNL A   1      35.947  21.552  24.561  1.00  0.00     0.011 A 
ATOM     21  C   UNL A   1      36.349  23.878  25.121  1.00  0.00     0.011 A 
ATOM     22  C   UNL A   1      37.207  21.215  25.056  1.00  0.00     0.016 A 
ATOM     23  C   UNL A   1      37.598  23.536  25.640  1.00  0.00     0.016 A 
ATOM     24  C   UNL A   1      38.021  22.207  25.605  1.00  0.00     0.018 A 
ATOM     25  Br  UNL A   1      39.700  21.739  26.337  1.00  0.00    -0.051 Br
ENDBRANCH  15  19
ENDBRANCH  11  12
ENDBRANCH   9  11
ENDBRANCH   6   7
BRANCH   6  26
ATOM     26  C   UNL A   1      29.922  29.049  23.494  1.00  0.00    -0.014 A 
ATOM     27  C   UNL A   1      29.768  30.420  23.704  1.00  0.00     0.006 A 
ATOM     28  C   UNL A   1      28.778  28.312  23.108  1.00  0.00     0.006 A 
ATOM     29  C   UNL A   1      28.528  31.035  23.494  1.00  0.00     0.000 A 
ATOM     30  C   UNL A   1      27.549  28.927  22.882  1.00  0.00     0.000 A 
ATOM     31  C   UNL A   1      27.424  30.295  23.074  1.00  0.00     0.000 A 
ENDBRANCH   6  26
ENDBRANCH   4   6
ENDBRANCH   3   4
ENDBRANCH   2   3
ENDBRANCH   1   2
BRANCH   1  32
ATOM     32  O   UNL A   1      33.380  30.619  27.640  1.00  0.00    -0.374 OA
BRANCH  32  33
ATOM     33  C   UNL A   1      33.773  31.986  27.742  1.00  0.00     0.202 C 
BRANCH  33  34
ATOM     34  C   UNL A   1      32.693  33.071  27.698  1.00  0.00     0.261 C 
BRANCH  34  35
ATOM     35  O   UNL A   1      33.250  34.393  27.626  1.00  0.00    -0.460 OA
BRANCH  35  36
ATOM     36  C   UNL A   1      33.268  35.067  28.800  1.00  0.00     0.338 C 
ATOM     37  O   UNL A   1      32.443  35.868  29.212  1.00  0.00    -0.246 OA
BRANCH  36  38
ATOM     38  C   UNL A   1      34.351  34.529  29.640  1.00  0.00     0.060 A 
ATOM     39  C   UNL A   1      34.081  33.951  30.880  1.00  0.00     0.016 A 
ATOM     40  C   UNL A   1      35.662  34.585  29.145  1.00  0.00     0.016 A 
ATOM     41  C   UNL A   1      35.131  33.396  31.613  1.00  0.00     0.010 A 
ATOM     42  C   UNL A   1      36.708  34.035  29.879  1.00  0.00     0.010 A 
ATOM     43  C   UNL A   1      36.445  33.413  31.107  1.00  0.00    -0.014 A 
BRANCH  43  44
ATOM     44  C   UNL A   1      37.511  32.649  31.795  1.00  0.00     0.031 A 
ATOM     45  C   UNL A   1      38.144  31.447  31.167  1.00  0.00     0.074 A 
ATOM     46  C   UNL A   1      37.889  33.058  33.020  1.00  0.00     0.049 A 
ATOM     47  N   UNL A   1      39.139  30.721  31.608  1.00  0.00    -0.248 NA
ATOM     48  C   UNL A   1      37.587  30.995  29.885  1.00  0.00     0.031 C 
ATOM     49  C   UNL A   1      37.302  34.188  33.743  1.00  0.00     0.029 A 
ATOM     50  N   UNL A   1      38.856  32.584  33.869  1.00  0.00    -0.354 N 
ATOM     51  C   UNL A   1      39.348  29.741  30.649  1.00  0.00     0.074 A 
ATOM     52  C   UNL A   1      38.338  29.930  29.628  1.00  0.00     0.031 C 
ATOM     53  C   UNL A   1      37.947  34.345  34.907  1.00  0.00     0.029 A 
ATOM     54  C   UNL A   1      38.969  33.309  35.029  1.00  0.00     0.049 A 
ATOM     55  H   UNL A   1      39.415  31.799  33.666  1.00  0.00     0.167 HD
ATOM     56  C   UNL A   1      40.310  28.788  30.620  1.00  0.00     0.037 A 
ATOM     57  C   UNL A   1      39.805  33.160  36.072  1.00  0.00     0.037 A 
ATOM     58  C   UNL A   1      41.297  28.600  31.655  1.00  0.00     0.049 A 
ATOM     59  C   UNL A   1      40.832  32.063  36.034  1.00  0.00     0.074 A 
ATOM     60  C   UNL A   1      42.335  27.685  31.698  1.00  0.00     0.029 A 
ATOM     61  N   UNL A   1      41.358  29.327  32.836  1.00  0.00    -0.354 N 
ATOM     62  N   UNL A   1      41.079  31.196  35.083  1.00  0.00    -0.248 NA
ATOM     63  C   UNL A   1      41.701  31.926  37.212  1.00  0.00     0.031 C 
ATOM     64  C   UNL A   1      42.987  27.818  32.926  1.00  0.00     0.029 A 
ATOM     65  C   UNL A   1      42.397  28.858  33.627  1.00  0.00     0.049 A 
ATOM     66  H   UNL A   1      40.755  30.066  33.076  1.00  0.00     0.167 HD
ATOM     67  C   UNL A   1      42.140  30.424  35.535  1.00  0.00     0.074 A 
ATOM     68  C   UNL A   1      42.506  30.941  36.837  1.00  0.00     0.031 C 
ATOM     69  C   UNL A   1      42.752  29.379  34.924  1.00  0.00     0.037 A 
BRANCH  56  70
ATOM     70  C   UNL A   1      40.362  27.878  29.426  1.00  0.00     0.064 A 
ATOM     71  C   UNL A   1      39.577  26.717  29.362  1.00  0.00     0.173 A 
ATOM     72  C   UNL A   1      41.130  28.213  28.301  1.00  0.00     0.173 A 
ATOM     73  F   UNL A   1      38.828  26.349  30.413  1.00  0.00    -0.203 F 
ATOM     74  C   UNL A   1      39.570  25.919  28.221  1.00  0.00     0.198 A 
ATOM     75  C   UNL A   1      41.098  27.428  27.151  1.00  0.00     0.198 A 
ATOM     76  F   UNL A   1      41.889  29.319  28.305  1.00  0.00    -0.203 F 
ATOM     77  F   UNL A   1      38.832  24.800  28.193  1.00  0.00    -0.200 F 
ATOM     78  C   UNL A   1      40.321  26.281  27.113  1.00  0.00     0.200 A 
ATOM     79  F   UNL A   1      41.808  27.790  26.075  1.00  0.00    -0.200 F 
ATOM     80  F   UNL A   1      40.294  25.524  26.008  1.00  0.00    -0.200 F 
ENDBRANCH  56  70
BRANCH  57  81
ATOM     81  C   UNL A   1      39.727  34.105  37.216  1.00  0.00     0.064 A 
ATOM     82  C   UNL A   1      38.940  33.813  38.337  1.00  0.00     0.173 A 
ATOM     83  C   UNL A   1      40.461  35.301  37.227  1.00  0.00     0.173 A 
ATOM     84  F   UNL A   1      38.208  32.690  38.368  1.00  0.00    -0.203 F 
ATOM     85  C   UNL A   1      38.882  34.685  39.423  1.00  0.00     0.198 A 
ATOM     86  C   UNL A   1      40.426  36.158  38.325  1.00  0.00     0.198 A 
ATOM     87  F   UNL A   1      41.234  35.624  36.179  1.00  0.00    -0.203 F 
ATOM     88  F   UNL A   1      38.095  34.398  40.468  1.00  0.00    -0.200 F 
ATOM     89  C   UNL A   1      39.632  35.852  39.419  1.00  0.00     0.200 A 
ATOM     90  F   UNL A   1      41.167  37.274  38.325  1.00  0.00    -0.200 F 
ATOM     91  F   UNL A   1      39.587  36.682  40.470  1.00  0.00    -0.200 F 
ENDBRANCH  57  81
BRANCH  69  92
ATOM     92  C   UNL A   1      43.892  28.722  35.648  1.00  0.00     0.064 A 
ATOM     93  C   UNL A   1      45.215  29.157  35.481  1.00  0.00     0.173 A 
ATOM     94  C   UNL A   1      43.651  27.697  36.577  1.00  0.00     0.173 A 
ATOM     95  F   UNL A   1      45.501  30.122  34.594  1.00  0.00    -0.203 F 
ATOM     96  C   UNL A   1      46.255  28.581  36.205  1.00  0.00     0.198 A 
ATOM     97  C   UNL A   1      44.689  27.148  37.324  1.00  0.00     0.198 A 
ATOM     98  F   UNL A   1      42.404  27.248  36.782  1.00  0.00    -0.203 F 
ATOM     99  F   UNL A   1      47.516  28.987  36.001  1.00  0.00    -0.200 F 
ATOM    100  C   UNL A   1      45.990  27.586  37.135  1.00  0.00     0.200 A 
ATOM    101  F   UNL A   1      44.429  26.200  38.235  1.00  0.00    -0.200 F 
ATOM    102  F   UNL A   1      46.991  27.049  37.847  1.00  0.00    -0.200 F 
ENDBRANCH  69  92
ENDBRANCH  43  44
ENDBRANCH  36  38
ENDBRANCH  35  36
ENDBRANCH  34  35
ENDBRANCH  33  34
ENDBRANCH  32  33
ENDBRANCH   1  32
TORSDOF 19
ENDMDL
MODEL 2
REMARK VINA RESULT:     -12.3      0.800      6.968
REMARK SMILES O=C(Cn1nc(-c2ccc(Br)cc2)ccc1=O)N[C@H](C(=O)OCCOCCOC(=O)c1ccc(-c2c3nc(c(-c4c(F)c(F)c(F)c(F)c4F)c4ccc([nH]4)c(-c4c(F)c(F)c(F)c(F)c4F)c4nc(c(-c5c(F)c(F)c(F)c(F)c5F)c5ccc2[nH]5)C=C4)C=C3)cc1)c1ccccc1
REMARK SMILES IDX 24 1 23 2 22 3 20 4 21 5 19 6 18 7 1 8 2 9 3 11 4 12 5 13
REMARK SMILES IDX 16 14 6 15 15 16 17 17 14 18 7 19 8 20 13 21 9 22 12 23
REMARK SMILES IDX 10 24 11 25 94 26 95 27 99 28 96 29 98 30 97 31 25 32 26 33
REMARK SMILES IDX 27 34 28 35 29 36 30 37 31 38 32 39 93 40 33 41 92 42 34 43
REMARK SMILES IDX 35 44 36 45 86 46 37 47 91 48 85 49 87 50 38 51 90 52 84 53
REMARK SMILES IDX 83 54 39 56 71 57 51 58 70 59 52 60 55 61 69 62 88 63 53 64
REMARK SMILES IDX 54 65 68 67 89 68 56 69 40 70 41 71 49 72 42 73 43 74 47 75
REMARK SMILES IDX 50 76 44 77 45 78 48 79 46 80 72 81 73 82 81 83 74 84 75 85
REMARK SMILES IDX 79 86 82 87 76 88 77 89 80 90 78 91 57 92 58 93 66 94 59 95
REMARK SMILES IDX 60 96 64 97 67 98 61 99 62 100 65 101 63 102
REMARK H PARENT 18 10 87 55 55 66
REMARK Flexibility Score: inf
ROOT
ATOM      1  C   UNL A   1      34.361  29.569  27.079  1.00  0.00     0.202 C 
ENDROOT
BRANCH   1   2
ATOM      2  C   UNL A   1      34.015  28.850  25.769  1.00  0.00     0.261 C 
BRANCH   2   3
ATOM      3  O   UNL A   1      32.811  29.331  25.167  1.00  0.00    -0.461 OA
BRANCH   3   4
ATOM      4  C   UNL A   1      31.823  28.378  25.103  1.00  0.00     0.333 C 
ATOM      5  O   UNL A   1      31.332  27.842  26.090  1.00  0.00    -0.249 OA
BRANCH   4   6
ATOM      6  C   UNL A   1      31.260  28.297  23.659  1.00  0.00     0.223 C 
BRANCH   6   7
ATOM      7  N   UNL A   1      31.405  26.981  23.043  1.00  0.00    -0.337 N 
ATOM      8  O   UNL A   1      33.461  27.401  22.125  1.00  0.00    -0.273 OA
ATOM      9  C   UNL A   1      32.519  26.636  22.303  1.00  0.00     0.242 C 
ATOM     10  H   UNL A   1      30.686  26.319  23.160  1.00  0.00     0.164 HD
BRANCH   9  11
ATOM     11  C   UNL A   1      32.506  25.205  21.770  1.00  0.00     0.248 C 
BRANCH  11  12
ATOM     12  N   UNL A   1      32.641  24.346  22.932  1.00  0.00    -0.220 N 
ATOM     13  N   UNL A   1      33.931  24.108  23.348  1.00  0.00    -0.169 NA
ATOM     14  C   UNL A   1      31.525  23.686  23.424  1.00  0.00     0.267 A 
ATOM     15  C   UNL A   1      34.116  23.149  24.198  1.00  0.00     0.091 A 
ATOM     16  C   UNL A   1      31.796  22.619  24.411  1.00  0.00     0.075 A 
ATOM     17  O   UNL A   1      30.365  23.913  23.093  1.00  0.00    -0.268 OA
ATOM     18  C   UNL A   1      33.042  22.328  24.787  1.00  0.00     0.036 A 
BRANCH  15  19
ATOM     19  C   UNL A   1      35.512  22.816  24.563  1.00  0.00     0.002 A 
ATOM     20  C   UNL A   1      35.902  21.473  24.575  1.00  0.00     0.011 A 
ATOM     21  C   UNL A   1      36.372  23.806  25.049  1.00  0.00     0.011 A 
ATOM     22  C   UNL A   1      37.157  21.120  25.074  1.00  0.00     0.016 A 
ATOM     23  C   UNL A   1      37.615  23.448  25.572  1.00  0.00     0.016 A 
ATOM     24  C   UNL A   1      38.001  22.107  25.582  1.00  0.00     0.018 A 
ATOM     25  Br  UNL A   1      39.672  21.620  26.321  1.00  0.00    -0.051 Br
ENDBRANCH  15  19
ENDBRANCH  11  12
ENDBRANCH   9  11
ENDBRANCH   6   7
BRANCH   6  26
ATOM     26  C   UNL A   1      29.936  29.030  23.482  1.00  0.00    -0.014 A 
ATOM     27  C   UNL A   1      29.777  30.401  23.686  1.00  0.00     0.006 A 
ATOM     28  C   UNL A   1      28.792  28.284  23.117  1.00  0.00     0.006 A 
ATOM     29  C   UNL A   1      28.530  31.008  23.490  1.00  0.00     0.000 A 
ATOM     30  C   UNL A   1      27.556  28.890  22.904  1.00  0.00     0.000 A 
ATOM     31  C   UNL A   1      27.426  30.258  23.090  1.00  0.00     0.000 A 
ENDBRANCH   6  26
ENDBRANCH   4   6
ENDBRANCH   3   4
ENDBRANCH   2   3
ENDBRANCH   1   2
BRANCH   1  32
ATOM     32  O   UNL A   1      33.445  30.516  27.617  1.00  0.00    -0.374 OA
BRANCH  32  33
ATOM     33  C   UNL A   1      33.828  31.888  27.673  1.00  0.00     0.202 C 
BRANCH  33  34
ATOM     34  C   UNL A   1      32.734  32.961  27.668  1.00  0.00     0.261 C 
BRANCH  34  35
ATOM     35  O   UNL A   1      33.275  34.291  27.616  1.00  0.00    -0.460 OA
BRANCH  35  36
ATOM     36  C   UNL A   1      33.330  34.927  28.810  1.00  0.00     0.338 C 
ATOM     37  O   UNL A   1      32.477  35.643  29.313  1.00  0.00    -0.246 OA
BRANCH  36  38
ATOM     38  C   UNL A   1      34.517  34.459  29.544  1.00  0.00     0.060 A 
ATOM     39  C   UNL A   1      34.394  33.799  30.766  1.00  0.00     0.016 A 
ATOM     40  C   UNL A   1      35.777  34.667  28.965  1.00  0.00     0.016 A 
ATOM     41  C   UNL A   1      35.542  33.314  31.395  1.00  0.00     0.010 A 
ATOM     42  C   UNL A   1      36.922  34.188  29.595  1.00  0.00     0.010 A 
ATOM     43  C   UNL A   1      36.809  33.485  30.803  1.00  0.00    -0.014 A 
BRANCH  43  44
ATOM     44  C   UNL A   1      37.989  32.796  31.373  1.00  0.00     0.031 A 
ATOM     45  C   UNL A   1      38.644  33.274  32.631  1.00  0.00     0.074 A 
ATOM     46  C   UNL A   1      38.474  31.727  30.715  1.00  0.00     0.049 A 
ATOM     47  N   UNL A   1      39.634  32.734  33.295  1.00  0.00    -0.248 NA
ATOM     48  C   UNL A   1      38.130  34.519  33.218  1.00  0.00     0.031 C 
ATOM     49  C   UNL A   1      37.940  31.209  29.453  1.00  0.00     0.029 A 
ATOM     50  N   UNL A   1      39.511  30.881  31.012  1.00  0.00    -0.354 N 
ATOM     51  C   UNL A   1      39.848  33.556  34.391  1.00  0.00     0.074 A 
ATOM     52  C   UNL A   1      38.921  34.663  34.274  1.00  0.00     0.031 C 
ATOM     53  C   UNL A   1      38.627  30.111  29.106  1.00  0.00     0.029 A 
ATOM     54  C   UNL A   1      39.669  29.867  30.100  1.00  0.00     0.049 A 
ATOM     55  H   UNL A   1      40.087  30.990  31.803  1.00  0.00     0.167 HD
ATOM     56  C   UNL A   1      40.724  33.383  35.410  1.00  0.00     0.037 A 
ATOM     57  C   UNL A   1      40.550  28.851  30.069  1.00  0.00     0.037 A 
ATOM     58  C   UNL A   1      41.654  32.285  35.502  1.00  0.00     0.049 A 
ATOM     59  C   UNL A   1      41.543  28.712  31.189  1.00  0.00     0.074 A 
ATOM     60  C   UNL A   1      42.556  32.005  36.514  1.00  0.00     0.029 A 
ATOM     61  N   UNL A   1      41.814  31.296  34.541  1.00  0.00    -0.354 N 
ATOM     62  N   UNL A   1      41.679  29.444  32.267  1.00  0.00    -0.248 NA
ATOM     63  C   UNL A   1      42.501  27.602  31.092  1.00  0.00     0.031 C 
ATOM     64  C   UNL A   1      43.301  30.883  36.140  1.00  0.00     0.029 A 
ATOM     65  C   UNL A   1      42.824  30.424  34.923  1.00  0.00     0.049 A 
ATOM     66  H   UNL A   1      41.289  31.225  33.712  1.00  0.00     0.167 HD
ATOM     67  C   UNL A   1      42.722  28.876  32.986  1.00  0.00     0.074 A 
ATOM     68  C   UNL A   1      43.168  27.723  32.232  1.00  0.00     0.031 C 
ATOM     69  C   UNL A   1      43.261  29.279  34.163  1.00  0.00     0.037 A 
BRANCH  56  70
ATOM     70  C   UNL A   1      40.716  34.392  36.522  1.00  0.00     0.064 A 
ATOM     71  C   UNL A   1      39.867  34.247  37.630  1.00  0.00     0.173 A 
ATOM     72  C   UNL A   1      41.625  35.460  36.529  1.00  0.00     0.173 A 
ATOM     73  F   UNL A   1      38.976  33.245  37.672  1.00  0.00    -0.203 F 
ATOM     74  C   UNL A   1      39.920  35.143  38.695  1.00  0.00     0.198 A 
ATOM     75  C   UNL A   1      41.695  36.337  37.608  1.00  0.00     0.198 A 
ATOM     76  F   UNL A   1      42.468  35.638  35.500  1.00  0.00    -0.203 F 
ATOM     77  F   UNL A   1      39.080  34.999  39.730  1.00  0.00    -0.200 F 
ATOM     78  C   UNL A   1      40.840  36.180  38.689  1.00  0.00     0.200 A 
ATOM     79  F   UNL A   1      42.599  37.326  37.610  1.00  0.00    -0.200 F 
ATOM     80  F   UNL A   1      40.905  37.026  39.726  1.00  0.00    -0.200 F 
ENDBRANCH  56  70
BRANCH  57  81
ATOM     81  C   UNL A   1      40.495  27.866  28.958  1.00  0.00     0.064 A 
ATOM     82  C   UNL A   1      39.697  26.718  29.054  1.00  0.00     0.173 A 
ATOM     83  C   UNL A   1      41.210  28.068  27.768  1.00  0.00     0.173 A 
ATOM     84  F   UNL A   1      39.008  26.474  30.177  1.00  0.00    -0.203 F 
ATOM     85  C   UNL A   1      39.624  25.804  28.004  1.00  0.00     0.198 A 
ATOM     86  C   UNL A   1      41.112  27.169  26.708  1.00  0.00     0.198 A 
ATOM     87  F   UNL A   1      41.983  29.154  27.625  1.00  0.00    -0.203 F 
ATOM     88  F   UNL A   1      38.880  24.697  28.135  1.00  0.00    -0.200 F 
ATOM     89  C   UNL A   1      40.324  26.036  26.829  1.00  0.00     0.200 A 
ATOM     90  F   UNL A   1      41.775  27.406  25.567  1.00  0.00    -0.200 F 
ATOM     91  F   UNL A   1      40.240  25.163  25.816  1.00  0.00    -0.200 F 
ENDBRANCH  57  81
BRANCH  69  92
ATOM     92  C   UNL A   1      44.393  28.465  34.724  1.00  0.00     0.064 A 
ATOM     93  C   UNL A   1      44.159  27.365  35.562  1.00  0.00     0.173 A 
ATOM     94  C   UNL A   1      45.719  28.741  34.358  1.00  0.00     0.173 A 
ATOM     95  F   UNL A   1      42.911  27.069  35.954  1.00  0.00    -0.203 F 
ATOM     96  C   UNL A   1      45.212  26.580  36.024  1.00  0.00     0.198 A 
ATOM     97  C   UNL A   1      46.766  27.934  34.794  1.00  0.00     0.198 A 
ATOM     98  F   UNL A   1      45.998  29.777  33.552  1.00  0.00    -0.203 F 
ATOM     99  F   UNL A   1      44.968  25.557  36.854  1.00  0.00    -0.200 F 
ATOM    100  C   UNL A   1      46.513  26.858  35.630  1.00  0.00     0.200 A 
ATOM    101  F   UNL A   1      48.020  28.192  34.398  1.00  0.00    -0.200 F 
ATOM    102  F   UNL A   1      47.523  26.087  36.059  1.00  0.00    -0.200 F 
ENDBRANCH  69  92
ENDBRANCH  43  44
ENDBRANCH  36  38
ENDBRANCH  35  36
ENDBRANCH  34  35
ENDBRANCH  33  34
ENDBRANCH  32  33
ENDBRANCH   1  32
TORSDOF 19
ENDMDL
MODEL 3
REMARK VINA RESULT:     -12.2      0.604      2.009
REMARK SMILES O=C(Cn1nc(-c2ccc(Br)cc2)ccc1=O)N[C@H](C(=O)OCCOCCOC(=O)c1ccc(-c2c3nc(c(-c4c(F)c(F)c(F)c(F)c4F)c4ccc([nH]4)c(-c4c(F)c(F)c(F)c(F)c4F)c4nc(c(-c5c(F)c(F)c(F)c(F)c5F)c5ccc2[nH]5)C=C4)C=C3)cc1)c1ccccc1
REMARK SMILES IDX 24 1 23 2 22 3 20 4 21 5 19 6 18 7 1 8 2 9 3 11 4 12 5 13
REMARK SMILES IDX 16 14 6 15 15 16 17 17 14 18 7 19 8 20 13 21 9 22 12 23
REMARK SMILES IDX 10 24 11 25 94 26 95 27 99 28 96 29 98 30 97 31 25 32 26 33
REMARK SMILES IDX 27 34 28 35 29 36 30 37 31 38 32 39 93 40 33 41 92 42 34 43
REMARK SMILES IDX 35 44 36 45 86 46 37 47 91 48 85 49 87 50 38 51 90 52 84 53
REMARK SMILES IDX 83 54 39 56 71 57 51 58 70 59 52 60 55 61 69 62 88 63 53 64
REMARK SMILES IDX 54 65 68 67 89 68 56 69 40 70 41 71 49 72 42 73 43 74 47 75
REMARK SMILES IDX 50 76 44 77 45 78 48 79 46 80 72 81 73 82 81 83 74 84 75 85
REMARK SMILES IDX 79 86 82 87 76 88 77 89 80 90 78 91 57 92 58 93 66 94 59 95
REMARK SMILES IDX 60 96 64 97 67 98 61 99 62 100 65 101 63 102
REMARK H PARENT 18 10 87 55 55 66
REMARK Flexibility Score: inf
ROOT
ATOM      1  C   UNL A   1      32.391  29.443  27.173  1.00  0.00     0.202 C 
ENDROOT
BRANCH   1   2
ATOM      2  C   UNL A   1      32.248  28.179  26.317  1.00  0.00     0.261 C 
BRANCH   2   3
ATOM      3  O   UNL A   1      31.564  28.413  25.083  1.00  0.00    -0.461 OA
BRANCH   3   4
ATOM      4  C   UNL A   1      32.398  28.384  23.992  1.00  0.00     0.333 C 
ATOM      5  O   UNL A   1      33.619  28.477  24.067  1.00  0.00    -0.249 OA
BRANCH   4   6
ATOM      6  C   UNL A   1      31.604  27.952  22.731  1.00  0.00     0.223 C 
BRANCH   6   7
ATOM      7  N   UNL A   1      31.685  26.523  22.443  1.00  0.00    -0.337 N 
ATOM      8  O   UNL A   1      33.669  26.648  21.305  1.00  0.00    -0.273 OA
ATOM      9  C   UNL A   1      32.734  25.977  21.730  1.00  0.00     0.242 C 
ATOM     10  H   UNL A   1      30.969  25.931  22.769  1.00  0.00     0.164 HD
BRANCH   9  11
ATOM     11  C   UNL A   1      32.663  24.460  21.563  1.00  0.00     0.248 C 
BRANCH  11  12
ATOM     12  N   UNL A   1      32.846  23.904  22.890  1.00  0.00    -0.220 N 
ATOM     13  N   UNL A   1      34.153  23.731  23.286  1.00  0.00    -0.169 NA
ATOM     14  C   UNL A   1      31.747  23.419  23.583  1.00  0.00     0.267 A 
ATOM     15  C   UNL A   1      34.367  23.000  24.334  1.00  0.00     0.091 A 
ATOM     16  C   UNL A   1      32.053  22.614  24.785  1.00  0.00     0.075 A 
ATOM     17  O   UNL A   1      30.575  23.598  23.265  1.00  0.00    -0.268 OA
ATOM     18  C   UNL A   1      33.312  22.382  25.158  1.00  0.00     0.036 A 
BRANCH  15  19
ATOM     19  C   UNL A   1      35.774  22.720  24.698  1.00  0.00     0.002 A 
ATOM     20  C   UNL A   1      36.222  21.394  24.685  1.00  0.00     0.011 A 
ATOM     21  C   UNL A   1      36.590  23.736  25.207  1.00  0.00     0.011 A 
ATOM     22  C   UNL A   1      37.488  21.085  25.183  1.00  0.00     0.016 A 
ATOM     23  C   UNL A   1      37.846  23.420  25.728  1.00  0.00     0.016 A 
ATOM     24  C   UNL A   1      38.288  22.097  25.714  1.00  0.00     0.018 A 
ATOM     25  Br  UNL A   1      39.975  21.666  26.450  1.00  0.00    -0.051 Br
ENDBRANCH  15  19
ENDBRANCH  11  12
ENDBRANCH   9  11
ENDBRANCH   6   7
BRANCH   6  26
ATOM     26  C   UNL A   1      30.247  28.634  22.606  1.00  0.00    -0.014 A 
ATOM     27  C   UNL A   1      29.059  28.087  23.092  1.00  0.00     0.006 A 
ATOM     28  C   UNL A   1      30.172  29.877  21.937  1.00  0.00     0.006 A 
ATOM     29  C   UNL A   1      27.850  28.781  22.952  1.00  0.00     0.000 A 
ATOM     30  C   UNL A   1      28.973  30.575  21.814  1.00  0.00     0.000 A 
ATOM     31  C   UNL A   1      27.807  30.024  22.325  1.00  0.00     0.000 A 
ENDBRANCH   6  26
ENDBRANCH   4   6
ENDBRANCH   3   4
ENDBRANCH   2   3
ENDBRANCH   1   2
BRANCH   1  32
ATOM     32  O   UNL A   1      33.143  30.543  26.671  1.00  0.00    -0.374 OA
BRANCH  32  33
ATOM     33  C   UNL A   1      33.483  31.606  27.559  1.00  0.00     0.202 C 
BRANCH  33  34
ATOM     34  C   UNL A   1      32.561  32.827  27.637  1.00  0.00     0.261 C 
BRANCH  34  35
ATOM     35  O   UNL A   1      33.282  34.064  27.519  1.00  0.00    -0.460 OA
BRANCH  35  36
ATOM     36  C   UNL A   1      33.335  34.800  28.653  1.00  0.00     0.338 C 
ATOM     37  O   UNL A   1      32.537  35.643  29.034  1.00  0.00    -0.246 OA
BRANCH  36  38
ATOM     38  C   UNL A   1      34.420  34.284  29.504  1.00  0.00     0.060 A 
ATOM     39  C   UNL A   1      34.146  33.671  30.727  1.00  0.00     0.016 A 
ATOM     40  C   UNL A   1      35.737  34.395  29.038  1.00  0.00     0.016 A 
ATOM     41  C   UNL A   1      35.200  33.138  31.470  1.00  0.00     0.010 A 
ATOM     42  C   UNL A   1      36.788  33.867  29.782  1.00  0.00     0.010 A 
ATOM     43  C   UNL A   1      36.523  33.211  30.992  1.00  0.00    -0.014 A 
BRANCH  43  44
ATOM     44  C   UNL A   1      37.601  32.470  31.686  1.00  0.00     0.031 A 
ATOM     45  C   UNL A   1      38.259  31.279  31.064  1.00  0.00     0.074 A 
ATOM     46  C   UNL A   1      37.967  32.890  32.911  1.00  0.00     0.049 A 
ATOM     47  N   UNL A   1      39.267  30.574  31.512  1.00  0.00    -0.248 NA
ATOM     48  C   UNL A   1      37.717  30.811  29.782  1.00  0.00     0.031 C 
ATOM     49  C   UNL A   1      37.355  34.011  33.627  1.00  0.00     0.029 A 
ATOM     50  N   UNL A   1      38.940  32.438  33.765  1.00  0.00    -0.354 N 
ATOM     51  C   UNL A   1      39.499  29.595  30.557  1.00  0.00     0.074 A 
ATOM     52  C   UNL A   1      38.489  29.761  29.531  1.00  0.00     0.031 C 
ATOM     53  C   UNL A   1      37.993  34.186  34.794  1.00  0.00     0.029 A 
ATOM     54  C   UNL A   1      39.034  33.170  34.923  1.00  0.00     0.049 A 
ATOM     55  H   UNL A   1      39.515  31.665  33.567  1.00  0.00     0.167 HD
ATOM     56  C   UNL A   1      40.480  28.661  30.534  1.00  0.00     0.037 A 
ATOM     57  C   UNL A   1      39.870  33.041  35.969  1.00  0.00     0.037 A 
ATOM     58  C   UNL A   1      41.466  28.496  31.573  1.00  0.00     0.049 A 
ATOM     59  C   UNL A   1      40.918  31.964  35.939  1.00  0.00     0.074 A 
ATOM     60  C   UNL A   1      42.522  27.602  31.622  1.00  0.00     0.029 A 
ATOM     61  N   UNL A   1      41.509  29.229  32.751  1.00  0.00    -0.354 N 
ATOM     62  N   UNL A   1      41.185  31.099  34.991  1.00  0.00    -0.248 NA
ATOM     63  C   UNL A   1      41.785  31.848  37.120  1.00  0.00     0.031 C 
ATOM     64  C   UNL A   1      43.167  27.752  32.853  1.00  0.00     0.029 A 
ATOM     65  C   UNL A   1      42.554  28.783  33.548  1.00  0.00     0.049 A 
ATOM     66  H   UNL A   1      40.890  29.957  32.987  1.00  0.00     0.167 HD
ATOM     67  C   UNL A   1      42.260  30.350  35.449  1.00  0.00     0.074 A 
ATOM     68  C   UNL A   1      42.610  30.878  36.751  1.00  0.00     0.031 C 
ATOM     69  C   UNL A   1      42.894  29.315  34.845  1.00  0.00     0.037 A 
BRANCH  56  70
ATOM     70  C   UNL A   1      40.554  27.748  29.344  1.00  0.00     0.064 A 
ATOM     71  C   UNL A   1      41.481  27.969  28.315  1.00  0.00     0.173 A 
ATOM     72  C   UNL A   1      39.759  26.595  29.273  1.00  0.00     0.173 A 
ATOM     73  F   UNL A   1      42.263  29.059  28.332  1.00  0.00    -0.203 F 
ATOM     74  C   UNL A   1      41.599  27.076  27.253  1.00  0.00     0.198 A 
ATOM     75  C   UNL A   1      39.900  25.689  28.225  1.00  0.00     0.198 A 
ATOM     76  F   UNL A   1      38.864  26.329  30.238  1.00  0.00    -0.203 F 
ATOM     77  F   UNL A   1      42.475  27.322  26.267  1.00  0.00    -0.200 F 
ATOM     78  C   UNL A   1      40.817  25.932  27.214  1.00  0.00     0.200 A 
ATOM     79  F   UNL A   1      39.158  24.574  28.200  1.00  0.00    -0.200 F 
ATOM     80  F   UNL A   1      40.950  25.062  26.204  1.00  0.00    -0.200 F 
ENDBRANCH  56  70
BRANCH  57  81
ATOM     81  C   UNL A   1      39.768  33.989  37.109  1.00  0.00     0.064 A 
ATOM     82  C   UNL A   1      40.443  35.217  37.085  1.00  0.00     0.173 A 
ATOM     83  C   UNL A   1      38.972  33.704  38.228  1.00  0.00     0.173 A 
ATOM     84  F   UNL A   1      41.229  35.528  36.044  1.00  0.00    -0.203 F 
ATOM     85  C   UNL A   1      40.332  36.120  38.140  1.00  0.00     0.198 A 
ATOM     86  C   UNL A   1      38.837  34.619  39.269  1.00  0.00     0.198 A 
ATOM     87  F   UNL A   1      38.301  32.544  38.296  1.00  0.00    -0.203 F 
ATOM     88  F   UNL A   1      41.014  37.272  38.107  1.00  0.00    -0.200 F 
ATOM     89  C   UNL A   1      39.521  35.824  39.227  1.00  0.00     0.200 A 
ATOM     90  F   UNL A   1      38.038  34.338  40.307  1.00  0.00    -0.200 F 
ATOM     91  F   UNL A   1      39.404  36.700  40.234  1.00  0.00    -0.200 F 
ENDBRANCH  57  81
BRANCH  69  92
ATOM     92  C   UNL A   1      44.044  28.682  35.575  1.00  0.00     0.064 A 
ATOM     93  C   UNL A   1      43.849  27.623  36.474  1.00  0.00     0.173 A 
ATOM     94  C   UNL A   1      45.363  29.087  35.315  1.00  0.00     0.173 A 
ATOM     95  F   UNL A   1      42.608  27.209  36.769  1.00  0.00    -0.203 F 
ATOM     96  C   UNL A   1      44.929  27.003  37.096  1.00  0.00     0.198 A 
ATOM     97  C   UNL A   1      46.442  28.442  35.913  1.00  0.00     0.198 A 
ATOM     98  F   UNL A   1      45.607  30.090  34.458  1.00  0.00    -0.203 F 
ATOM     99  F   UNL A   1      44.715  26.019  37.980  1.00  0.00    -0.200 F 
ATOM    100  C   UNL A   1      46.225  27.405  36.806  1.00  0.00     0.200 A 
ATOM    101  F   UNL A   1      47.694  28.819  35.618  1.00  0.00    -0.200 F 
ATOM    102  F   UNL A   1      47.264  26.791  37.390  1.00  0.00    -0.200 F 
ENDBRANCH  69  92
ENDBRANCH  43  44
ENDBRANCH  36  38
ENDBRANCH  35  36
ENDBRANCH  34  35
ENDBRANCH  33  34
ENDBRANCH  32  33
ENDBRANCH   1  32
TORSDOF 19
ENDMDL
