MODEL 1
REMARK VINA RESULT:     -12.6      0.000      0.000
REMARK SMILES O=C1NC(=S)/C(=C/c2ccc(-c3ccc(C(=O)OCCOCCOC(=O)c4ccc(-c5c6nc(c(-c7c(F)c(F)c(F)c(F)c7F)c7ccc([nH]7)c(-c7c(F)c(F)c(F)c(F)c7F)c7nc(c(-c8c(F)c(F)c(F)c(F)c8F)c8ccc5[nH]8)C=C7)C=C6)cc4)cc3)o2)S1
REMARK SMILES IDX 21 1 20 2 19 3 18 4 16 5 17 6 15 7 12 8 13 9 91 10 14 11
REMARK SMILES IDX 90 12 11 13 8 14 9 15 92 16 10 17 7 18 1 19 2 20 3 21 93 22
REMARK SMILES IDX 4 23 6 25 5 26 22 27 23 28 24 29 25 30 26 31 27 32 28 33
REMARK SMILES IDX 89 34 29 35 88 36 30 37 31 38 32 39 82 40 33 41 87 42 81 43
REMARK SMILES IDX 83 44 34 45 86 46 80 47 79 48 35 50 67 51 47 52 66 53 48 54
REMARK SMILES IDX 51 55 65 56 84 57 49 58 50 59 64 61 85 62 52 63 36 64 37 65
REMARK SMILES IDX 45 66 38 67 39 68 43 69 46 70 40 71 41 72 44 73 42 74 68 75
REMARK SMILES IDX 69 76 77 77 70 78 71 79 75 80 78 81 72 82 73 83 76 84 74 85
REMARK SMILES IDX 53 86 54 87 62 88 55 89 56 90 60 91 63 92 57 93 58 94 61 95
REMARK SMILES IDX 59 96
REMARK H PARENT 3 24 83 49 51 60
REMARK Flexibility Score: inf
ROOT
ATOM      1  O   UNL A   1      43.779  20.102  24.627  1.00  0.00    -0.374 OA
ENDROOT
BRANCH   1   2
ATOM      2  C   UNL A   1      43.506  19.080  25.580  1.00  0.00     0.202 C 
BRANCH   2   3
ATOM      3  C   UNL A   1      42.269  19.227  26.471  1.00  0.00     0.261 C 
BRANCH   3   4
ATOM      4  O   UNL A   1      41.306  20.134  25.917  1.00  0.00    -0.460 OA
BRANCH   4   5
ATOM      5  C   UNL A   1      40.991  21.174  26.728  1.00  0.00     0.338 C 
ATOM      6  O   UNL A   1      41.686  21.646  27.613  1.00  0.00    -0.246 OA
BRANCH   5   7
ATOM      7  C   UNL A   1      39.708  21.784  26.311  1.00  0.00     0.060 A 
ATOM      8  C   UNL A   1      37.207  22.948  25.864  1.00  0.00     0.017 A 
ATOM      9  C   UNL A   1      38.228  23.698  26.457  1.00  0.00     0.013 A 
ATOM     10  C   UNL A   1      37.484  21.655  25.393  1.00  0.00     0.013 A 
ATOM     11  C   UNL A   1      39.471  23.111  26.693  1.00  0.00     0.016 A 
ATOM     12  C   UNL A   1      38.735  21.073  25.606  1.00  0.00     0.016 A 
BRANCH   8  13
ATOM     13  C   UNL A   1      35.832  23.410  25.930  1.00  0.00     0.134 A 
ATOM     14  C   UNL A   1      34.185  24.836  25.530  1.00  0.00     0.128 A 
ATOM     15  C   UNL A   1      33.715  23.877  26.422  1.00  0.00     0.051 A 
ATOM     16  O   UNL A   1      35.492  24.521  25.221  1.00  0.00    -0.457 OA
ATOM     17  C   UNL A   1      34.764  22.973  26.675  1.00  0.00     0.051 A 
BRANCH  14  18
ATOM     18  C   UNL A   1      33.494  25.951  24.982  1.00  0.00     0.065 C 
ATOM     19  O   UNL A   1      32.814  25.594  19.992  1.00  0.00    -0.261 OA
ATOM     20  C   UNL A   1      32.891  25.917  21.168  1.00  0.00     0.289 C 
ATOM     21  N   UNL A   1      32.451  27.083  21.706  1.00  0.00    -0.307 N 
ATOM     22  S   UNL A   1      33.608  24.935  22.419  1.00  0.00    -0.025 SA
ATOM     23  C   UNL A   1      32.602  27.286  23.055  1.00  0.00     0.120 C 
ATOM     24  H   UNL A   1      32.030  27.768  21.139  1.00  0.00     0.171 HD
ATOM     25  C   UNL A   1      33.255  26.091  23.668  1.00  0.00     0.056 C 
ATOM     26  S   UNL A   1      32.110  28.719  23.750  1.00  0.00    -0.059 S 
ENDBRANCH  14  18
ENDBRANCH   8  13
ENDBRANCH   5   7
ENDBRANCH   4   5
ENDBRANCH   3   4
ENDBRANCH   2   3
ENDBRANCH   1   2
BRANCH   1  27
ATOM     27  C   UNL A   1      44.279  21.353  25.095  1.00  0.00     0.202 C 
BRANCH  27  28
ATOM     28  C   UNL A   1      44.259  22.553  24.139  1.00  0.00     0.261 C 
BRANCH  28  29
ATOM     29  O   UNL A   1      43.491  23.663  24.632  1.00  0.00    -0.460 OA
BRANCH  29  30
ATOM     30  C   UNL A   1      44.235  24.719  25.040  1.00  0.00     0.338 C 
ATOM     31  O   UNL A   1      45.317  25.078  24.608  1.00  0.00    -0.246 OA
BRANCH  30  32
ATOM     32  C   UNL A   1      43.466  25.531  26.000  1.00  0.00     0.060 A 
ATOM     33  C   UNL A   1      43.760  26.899  26.078  1.00  0.00     0.016 A 
ATOM     34  C   UNL A   1      42.540  24.949  26.865  1.00  0.00     0.016 A 
ATOM     35  C   UNL A   1      43.158  27.684  27.057  1.00  0.00     0.010 A 
ATOM     36  C   UNL A   1      41.941  25.739  27.851  1.00  0.00     0.010 A 
ATOM     37  C   UNL A   1      42.274  27.102  27.975  1.00  0.00    -0.014 A 
BRANCH  37  38
ATOM     38  C   UNL A   1      41.799  27.886  29.140  1.00  0.00     0.031 A 
ATOM     39  C   UNL A   1      42.533  27.775  30.448  1.00  0.00     0.074 A 
ATOM     40  C   UNL A   1      40.738  28.704  29.028  1.00  0.00     0.049 A 
ATOM     41  N   UNL A   1      42.261  28.324  31.603  1.00  0.00    -0.248 NA
ATOM     42  C   UNL A   1      43.735  26.926  30.452  1.00  0.00     0.031 C 
ATOM     43  C   UNL A   1      39.970  28.925  27.805  1.00  0.00     0.029 A 
ATOM     44  N   UNL A   1      40.119  29.494  29.963  1.00  0.00    -0.354 N 
ATOM     45  C   UNL A   1      43.250  27.881  32.474  1.00  0.00     0.074 A 
ATOM     46  C   UNL A   1      44.106  26.989  31.722  1.00  0.00     0.031 C 
ATOM     47  C   UNL A   1      38.972  29.786  28.067  1.00  0.00     0.029 A 
ATOM     48  C   UNL A   1      39.010  30.144  29.483  1.00  0.00     0.049 A 
ATOM     49  H   UNL A   1      40.439  29.586  30.890  1.00  0.00     0.167 HD
ATOM     50  C   UNL A   1      43.432  28.200  33.778  1.00  0.00     0.037 A 
ATOM     51  C   UNL A   1      38.110  30.917  30.123  1.00  0.00     0.037 A 
ATOM     52  C   UNL A   1      42.575  29.088  34.520  1.00  0.00     0.049 A 
ATOM     53  C   UNL A   1      38.291  31.194  31.594  1.00  0.00     0.074 A 
ATOM     54  C   UNL A   1      42.684  29.489  35.840  1.00  0.00     0.029 A 
ATOM     55  N   UNL A   1      41.443  29.706  34.008  1.00  0.00    -0.354 N 
ATOM     56  N   UNL A   1      39.241  30.794  32.404  1.00  0.00    -0.248 NA
ATOM     57  C   UNL A   1      37.274  32.038  32.238  1.00  0.00     0.031 C 
ATOM     58  C   UNL A   1      41.583  30.296  36.145  1.00  0.00     0.029 A 
ATOM     59  C   UNL A   1      40.827  30.459  34.995  1.00  0.00     0.049 A 
ATOM     60  H   UNL A   1      41.124  29.621  33.080  1.00  0.00     0.167 HD
ATOM     61  C   UNL A   1      38.956  31.361  33.640  1.00  0.00     0.074 A 
ATOM     62  C   UNL A   1      37.752  32.146  33.470  1.00  0.00     0.031 C 
ATOM     63  C   UNL A   1      39.632  31.244  34.810  1.00  0.00     0.037 A 
BRANCH  50  64
ATOM     64  C   UNL A   1      44.588  27.561  34.496  1.00  0.00     0.064 A 
ATOM     65  C   UNL A   1      45.861  28.151  34.521  1.00  0.00     0.173 A 
ATOM     66  C   UNL A   1      44.409  26.361  35.200  1.00  0.00     0.173 A 
ATOM     67  F   UNL A   1      46.090  29.293  33.855  1.00  0.00    -0.203 F 
ATOM     68  C   UNL A   1      46.918  27.547  35.199  1.00  0.00     0.198 A 
ATOM     69  C   UNL A   1      45.459  25.779  35.905  1.00  0.00     0.198 A 
ATOM     70  F   UNL A   1      43.212  25.756  35.215  1.00  0.00    -0.203 F 
ATOM     71  F   UNL A   1      48.138  28.103  35.165  1.00  0.00    -0.200 F 
ATOM     72  C   UNL A   1      46.714  26.367  35.897  1.00  0.00     0.200 A 
ATOM     73  F   UNL A   1      45.256  24.646  36.593  1.00  0.00    -0.200 F 
ATOM     74  F   UNL A   1      47.730  25.793  36.555  1.00  0.00    -0.200 F 
ENDBRANCH  50  64
BRANCH  51  75
ATOM     75  C   UNL A   1      36.947  31.473  29.382  1.00  0.00     0.064 A 
ATOM     76  C   UNL A   1      36.876  32.834  29.058  1.00  0.00     0.173 A 
ATOM     77  C   UNL A   1      35.872  30.656  29.000  1.00  0.00     0.173 A 
ATOM     78  F   UNL A   1      37.866  33.662  29.422  1.00  0.00    -0.203 F 
ATOM     79  C   UNL A   1      35.765  33.362  28.401  1.00  0.00     0.198 A 
ATOM     80  C   UNL A   1      34.777  31.178  28.313  1.00  0.00     0.198 A 
ATOM     81  F   UNL A   1      35.888  29.345  29.284  1.00  0.00    -0.203 F 
ATOM     82  F   UNL A   1      35.699  34.677  28.153  1.00  0.00    -0.200 F 
ATOM     83  C   UNL A   1      34.720  32.532  28.023  1.00  0.00     0.200 A 
ATOM     84  F   UNL A   1      33.778  30.368  27.937  1.00  0.00    -0.200 F 
ATOM     85  F   UNL A   1      33.654  33.038  27.390  1.00  0.00    -0.200 F 
ENDBRANCH  51  75
BRANCH  63  86
ATOM     86  C   UNL A   1      39.113  32.018  35.991  1.00  0.00     0.064 A 
ATOM     87  C   UNL A   1      39.476  33.354  36.220  1.00  0.00     0.173 A 
ATOM     88  C   UNL A   1      38.209  31.424  36.885  1.00  0.00     0.173 A 
ATOM     89  F   UNL A   1      40.347  33.967  35.404  1.00  0.00    -0.203 F 
ATOM     90  C   UNL A   1      38.978  34.054  37.316  1.00  0.00     0.198 A 
ATOM     91  C   UNL A   1      37.685  32.137  37.959  1.00  0.00     0.198 A 
ATOM     92  F   UNL A   1      37.821  30.151  36.709  1.00  0.00    -0.203 F 
ATOM     93  F   UNL A   1      39.382  35.311  37.546  1.00  0.00    -0.200 F 
ATOM     94  C   UNL A   1      38.076  33.448  38.179  1.00  0.00     0.200 A 
ATOM     95  F   UNL A   1      36.800  31.555  38.780  1.00  0.00    -0.200 F 
ATOM     96  F   UNL A   1      37.592  34.126  39.229  1.00  0.00    -0.200 F 
ENDBRANCH  63  86
ENDBRANCH  37  38
ENDBRANCH  30  32
ENDBRANCH  29  30
ENDBRANCH  28  29
ENDBRANCH  27  28
ENDBRANCH   1  27
TORSDOF 16
ENDMDL
MODEL 2
REMARK VINA RESULT:     -12.4      1.676      2.526
REMARK SMILES O=C1NC(=S)/C(=C/c2ccc(-c3ccc(C(=O)OCCOCCOC(=O)c4ccc(-c5c6nc(c(-c7c(F)c(F)c(F)c(F)c7F)c7ccc([nH]7)c(-c7c(F)c(F)c(F)c(F)c7F)c7nc(c(-c8c(F)c(F)c(F)c(F)c8F)c8ccc5[nH]8)C=C7)C=C6)cc4)cc3)o2)S1
REMARK SMILES IDX 21 1 20 2 19 3 18 4 16 5 17 6 15 7 12 8 13 9 91 10 14 11
REMARK SMILES IDX 90 12 11 13 8 14 9 15 92 16 10 17 7 18 1 19 2 20 3 21 93 22
REMARK SMILES IDX 4 23 6 25 5 26 22 27 23 28 24 29 25 30 26 31 27 32 28 33
REMARK SMILES IDX 89 34 29 35 88 36 30 37 31 38 32 39 82 40 33 41 87 42 81 43
REMARK SMILES IDX 83 44 34 45 86 46 80 47 79 48 35 50 67 51 47 52 66 53 48 54
REMARK SMILES IDX 51 55 65 56 84 57 49 58 50 59 64 61 85 62 52 63 36 64 37 65
REMARK SMILES IDX 45 66 38 67 39 68 43 69 46 70 40 71 41 72 44 73 42 74 68 75
REMARK SMILES IDX 69 76 77 77 70 78 71 79 75 80 78 81 72 82 73 83 76 84 74 85
REMARK SMILES IDX 53 86 54 87 62 88 55 89 56 90 60 91 63 92 57 93 58 94 61 95
REMARK SMILES IDX 59 96
REMARK H PARENT 3 24 83 49 51 60
REMARK Flexibility Score: inf
ROOT
ATOM      1  O   UNL A   1      46.029  21.052  25.729  1.00  0.00    -0.374 OA
ENDROOT
BRANCH   1   2
ATOM      2  C   UNL A   1      46.267  20.122  24.677  1.00  0.00     0.202 C 
BRANCH   2   3
ATOM      3  C   UNL A   1      45.388  18.871  24.600  1.00  0.00     0.261 C 
BRANCH   3   4
ATOM      4  O   UNL A   1      43.990  19.186  24.628  1.00  0.00    -0.460 OA
BRANCH   4   5
ATOM      5  C   UNL A   1      43.344  18.751  25.738  1.00  0.00     0.338 C 
ATOM      6  O   UNL A   1      43.658  17.806  26.442  1.00  0.00    -0.246 OA
BRANCH   5   7
ATOM      7  C   UNL A   1      42.241  19.674  26.090  1.00  0.00     0.060 A 
ATOM      8  C   UNL A   1      40.072  21.407  26.415  1.00  0.00     0.017 A 
ATOM      9  C   UNL A   1      39.847  20.057  26.128  1.00  0.00     0.013 A 
ATOM     10  C   UNL A   1      41.381  21.855  26.652  1.00  0.00     0.013 A 
ATOM     11  C   UNL A   1      40.931  19.196  25.952  1.00  0.00     0.016 A 
ATOM     12  C   UNL A   1      42.468  20.990  26.500  1.00  0.00     0.016 A 
BRANCH   8  13
ATOM     13  C   UNL A   1      39.000  22.372  26.256  1.00  0.00     0.134 A 
ATOM     14  C   UNL A   1      37.103  23.125  25.394  1.00  0.00     0.128 A 
ATOM     15  C   UNL A   1      37.681  24.158  26.126  1.00  0.00     0.051 A 
ATOM     16  O   UNL A   1      37.923  22.021  25.501  1.00  0.00    -0.457 OA
ATOM     17  C   UNL A   1      38.886  23.677  26.672  1.00  0.00     0.051 A 
BRANCH  14  18
ATOM     18  C   UNL A   1      35.885  23.131  24.663  1.00  0.00     0.065 C 
ATOM     19  O   UNL A   1      31.800  22.958  27.625  1.00  0.00    -0.261 OA
ATOM     20  C   UNL A   1      32.621  22.966  26.720  1.00  0.00     0.289 C 
ATOM     21  N   UNL A   1      32.345  22.931  25.392  1.00  0.00    -0.307 N 
ATOM     22  S   UNL A   1      34.349  23.008  26.952  1.00  0.00    -0.025 SA
ATOM     23  C   UNL A   1      33.387  22.959  24.499  1.00  0.00     0.120 C 
ATOM     24  H   UNL A   1      31.414  22.889  25.075  1.00  0.00     0.171 HD
ATOM     25  C   UNL A   1      34.679  23.034  25.246  1.00  0.00     0.056 C 
ATOM     26  S   UNL A   1      33.094  22.881  22.860  1.00  0.00    -0.059 S 
ENDBRANCH  14  18
ENDBRANCH   8  13
ENDBRANCH   5   7
ENDBRANCH   4   5
ENDBRANCH   3   4
ENDBRANCH   2   3
ENDBRANCH   1   2
BRANCH   1  27
ATOM     27  C   UNL A   1      45.784  22.415  25.389  1.00  0.00     0.202 C 
BRANCH  27  28
ATOM     28  C   UNL A   1      44.677  22.727  24.372  1.00  0.00     0.261 C 
BRANCH  28  29
ATOM     29  O   UNL A   1      43.813  23.800  24.781  1.00  0.00    -0.460 OA
BRANCH  29  30
ATOM     30  C   UNL A   1      44.461  24.941  25.119  1.00  0.00     0.338 C 
ATOM     31  O   UNL A   1      45.480  25.393  24.625  1.00  0.00    -0.246 OA
BRANCH  30  32
ATOM     32  C   UNL A   1      43.655  25.704  26.089  1.00  0.00     0.060 A 
ATOM     33  C   UNL A   1      43.842  27.092  26.142  1.00  0.00     0.016 A 
ATOM     34  C   UNL A   1      42.801  25.064  26.986  1.00  0.00     0.016 A 
ATOM     35  C   UNL A   1      43.206  27.843  27.126  1.00  0.00     0.010 A 
ATOM     36  C   UNL A   1      42.168  25.820  27.978  1.00  0.00     0.010 A 
ATOM     37  C   UNL A   1      42.395  27.206  28.075  1.00  0.00    -0.014 A 
BRANCH  37  38
ATOM     38  C   UNL A   1      41.890  27.968  29.243  1.00  0.00     0.031 A 
ATOM     39  C   UNL A   1      42.615  27.864  30.555  1.00  0.00     0.074 A 
ATOM     40  C   UNL A   1      40.810  28.760  29.127  1.00  0.00     0.049 A 
ATOM     41  N   UNL A   1      42.319  28.396  31.713  1.00  0.00    -0.248 NA
ATOM     42  C   UNL A   1      43.838  27.046  30.563  1.00  0.00     0.031 C 
ATOM     43  C   UNL A   1      40.047  28.972  27.900  1.00  0.00     0.029 A 
ATOM     44  N   UNL A   1      40.162  29.526  30.064  1.00  0.00    -0.354 N 
ATOM     45  C   UNL A   1      43.310  27.971  32.589  1.00  0.00     0.074 A 
ATOM     46  C   UNL A   1      44.196  27.107  31.837  1.00  0.00     0.031 C 
ATOM     47  C   UNL A   1      39.026  29.806  28.160  1.00  0.00     0.029 A 
ATOM     48  C   UNL A   1      39.041  30.152  29.579  1.00  0.00     0.049 A 
ATOM     49  H   UNL A   1      40.472  29.618  30.994  1.00  0.00     0.167 HD
ATOM     50  C   UNL A   1      43.474  28.283  33.897  1.00  0.00     0.037 A 
ATOM     51  C   UNL A   1      38.117  30.896  30.218  1.00  0.00     0.037 A 
ATOM     52  C   UNL A   1      42.588  29.143  34.639  1.00  0.00     0.049 A 
ATOM     53  C   UNL A   1      38.277  31.165  31.693  1.00  0.00     0.074 A 
ATOM     54  C   UNL A   1      42.674  29.535  35.964  1.00  0.00     0.029 A 
ATOM     55  N   UNL A   1      41.444  29.736  34.122  1.00  0.00    -0.354 N 
ATOM     56  N   UNL A   1      39.230  30.782  32.507  1.00  0.00    -0.248 NA
ATOM     57  C   UNL A   1      37.234  31.977  32.334  1.00  0.00     0.031 C 
ATOM     58  C   UNL A   1      41.551  30.311  36.265  1.00  0.00     0.029 A 
ATOM     59  C   UNL A   1      40.801  30.465  35.110  1.00  0.00     0.049 A 
ATOM     60  H   UNL A   1      41.137  29.651  33.191  1.00  0.00     0.167 HD
ATOM     61  C   UNL A   1      38.920  31.331  33.745  1.00  0.00     0.074 A 
ATOM     62  C   UNL A   1      37.698  32.087  33.571  1.00  0.00     0.031 C 
ATOM     63  C   UNL A   1      39.588  31.221  34.921  1.00  0.00     0.037 A 
BRANCH  50  64
ATOM     64  C   UNL A   1      44.638  27.668  34.620  1.00  0.00     0.064 A 
ATOM     65  C   UNL A   1      45.855  28.349  34.778  1.00  0.00     0.173 A 
ATOM     66  C   UNL A   1      44.523  26.393  35.196  1.00  0.00     0.173 A 
ATOM     67  F   UNL A   1      46.024  29.565  34.239  1.00  0.00    -0.203 F 
ATOM     68  C   UNL A   1      46.921  27.764  35.459  1.00  0.00     0.198 A 
ATOM     69  C   UNL A   1      45.579  25.827  35.904  1.00  0.00     0.198 A 
ATOM     70  F   UNL A   1      43.381  25.699  35.080  1.00  0.00    -0.203 F 
ATOM     71  F   UNL A   1      48.091  28.413  35.551  1.00  0.00    -0.200 F 
ATOM     72  C   UNL A   1      46.780  26.508  36.028  1.00  0.00     0.200 A 
ATOM     73  F   UNL A   1      45.435  24.619  36.469  1.00  0.00    -0.200 F 
ATOM     74  F   UNL A   1      47.803  25.952  36.690  1.00  0.00    -0.200 F 
ENDBRANCH  50  64
BRANCH  51  75
ATOM     75  C   UNL A   1      36.947  31.429  29.470  1.00  0.00     0.064 A 
ATOM     76  C   UNL A   1      35.879  30.597  29.105  1.00  0.00     0.173 A 
ATOM     77  C   UNL A   1      36.881  32.777  29.088  1.00  0.00     0.173 A 
ATOM     78  F   UNL A   1      35.905  29.295  29.426  1.00  0.00    -0.203 F 
ATOM     79  C   UNL A   1      34.803  31.088  28.368  1.00  0.00     0.198 A 
ATOM     80  C   UNL A   1      35.789  33.274  28.380  1.00  0.00     0.198 A 
ATOM     81  F   UNL A   1      37.876  33.618  29.411  1.00  0.00    -0.203 F 
ATOM     82  F   UNL A   1      33.823  30.258  27.985  1.00  0.00    -0.200 F 
ATOM     83  C   UNL A   1      34.756  32.427  28.012  1.00  0.00     0.200 A 
ATOM     84  F   UNL A   1      35.741  34.572  28.052  1.00  0.00    -0.200 F 
ATOM     85  F   UNL A   1      33.720  32.899  27.304  1.00  0.00    -0.200 F 
ENDBRANCH  51  75
BRANCH  63  86
ATOM     86  C   UNL A   1      39.040  31.972  36.103  1.00  0.00     0.064 A 
ATOM     87  C   UNL A   1      39.368  33.313  36.348  1.00  0.00     0.173 A 
ATOM     88  C   UNL A   1      38.141  31.348  36.982  1.00  0.00     0.173 A 
ATOM     89  F   UNL A   1      40.233  33.955  35.547  1.00  0.00    -0.203 F 
ATOM     90  C   UNL A   1      38.843  33.991  37.446  1.00  0.00     0.198 A 
ATOM     91  C   UNL A   1      37.589  32.039  38.057  1.00  0.00     0.198 A 
ATOM     92  F   UNL A   1      37.785  30.068  36.791  1.00  0.00    -0.203 F 
ATOM     93  F   UNL A   1      39.215  35.255  37.691  1.00  0.00    -0.200 F 
ATOM     94  C   UNL A   1      37.948  33.356  38.294  1.00  0.00     0.200 A 
ATOM     95  F   UNL A   1      36.710  31.428  38.864  1.00  0.00    -0.200 F 
ATOM     96  F   UNL A   1      37.437  34.013  39.344  1.00  0.00    -0.200 F 
ENDBRANCH  63  86
ENDBRANCH  37  38
ENDBRANCH  30  32
ENDBRANCH  29  30
ENDBRANCH  28  29
ENDBRANCH  27  28
ENDBRANCH   1  27
TORSDOF 16
ENDMDL
MODEL 3
REMARK VINA RESULT:     -12.3      1.682      2.785
REMARK SMILES O=C1NC(=S)/C(=C/c2ccc(-c3ccc(C(=O)OCCOCCOC(=O)c4ccc(-c5c6nc(c(-c7c(F)c(F)c(F)c(F)c7F)c7ccc([nH]7)c(-c7c(F)c(F)c(F)c(F)c7F)c7nc(c(-c8c(F)c(F)c(F)c(F)c8F)c8ccc5[nH]8)C=C7)C=C6)cc4)cc3)o2)S1
REMARK SMILES IDX 21 1 20 2 19 3 18 4 16 5 17 6 15 7 12 8 13 9 91 10 14 11
REMARK SMILES IDX 90 12 11 13 8 14 9 15 92 16 10 17 7 18 1 19 2 20 3 21 93 22
REMARK SMILES IDX 4 23 6 25 5 26 22 27 23 28 24 29 25 30 26 31 27 32 28 33
REMARK SMILES IDX 89 34 29 35 88 36 30 37 31 38 32 39 82 40 33 41 87 42 81 43
REMARK SMILES IDX 83 44 34 45 86 46 80 47 79 48 35 50 67 51 47 52 66 53 48 54
REMARK SMILES IDX 51 55 65 56 84 57 49 58 50 59 64 61 85 62 52 63 36 64 37 65
REMARK SMILES IDX 45 66 38 67 39 68 43 69 46 70 40 71 41 72 44 73 42 74 68 75
REMARK SMILES IDX 69 76 77 77 70 78 71 79 75 80 78 81 72 82 73 83 76 84 74 85
REMARK SMILES IDX 53 86 54 87 62 88 55 89 56 90 60 91 63 92 57 93 58 94 61 95
REMARK SMILES IDX 59 96
REMARK H PARENT 3 24 83 49 51 60
REMARK Flexibility Score: inf
ROOT
ATOM      1  O   UNL A   1      46.038  21.059  25.550  1.00  0.00    -0.374 OA
ENDROOT
BRANCH   1   2
ATOM      2  C   UNL A   1      46.361  20.021  24.628  1.00  0.00     0.202 C 
BRANCH   2   3
ATOM      3  C   UNL A   1      45.422  18.815  24.535  1.00  0.00     0.261 C 
BRANCH   3   4
ATOM      4  O   UNL A   1      44.041  19.197  24.584  1.00  0.00    -0.460 OA
BRANCH   4   5
ATOM      5  C   UNL A   1      43.374  18.734  25.670  1.00  0.00     0.338 C 
ATOM      6  O   UNL A   1      43.626  17.723  26.305  1.00  0.00    -0.246 OA
BRANCH   5   7
ATOM      7  C   UNL A   1      42.343  19.707  26.097  1.00  0.00     0.060 A 
ATOM      8  C   UNL A   1      40.301  21.556  26.567  1.00  0.00     0.017 A 
ATOM      9  C   UNL A   1      39.982  20.237  26.228  1.00  0.00     0.013 A 
ATOM     10  C   UNL A   1      41.642  21.908  26.783  1.00  0.00     0.013 A 
ATOM     11  C   UNL A   1      41.002  19.319  25.979  1.00  0.00     0.016 A 
ATOM     12  C   UNL A   1      42.666  20.985  26.558  1.00  0.00     0.016 A 
BRANCH   8  13
ATOM     13  C   UNL A   1      39.288  22.593  26.486  1.00  0.00     0.134 A 
ATOM     14  C   UNL A   1      37.461  23.539  25.664  1.00  0.00     0.128 A 
ATOM     15  C   UNL A   1      38.075  24.455  26.512  1.00  0.00     0.051 A 
ATOM     16  O   UNL A   1      38.216  22.384  25.674  1.00  0.00    -0.457 OA
ATOM     17  C   UNL A   1      39.236  23.852  27.033  1.00  0.00     0.051 A 
BRANCH  14  18
ATOM     18  C   UNL A   1      36.267  23.691  24.910  1.00  0.00     0.065 C 
ATOM     19  O   UNL A   1      33.388  19.544  24.914  1.00  0.00    -0.261 OA
ATOM     20  C   UNL A   1      33.920  20.629  24.737  1.00  0.00     0.289 C 
ATOM     21  N   UNL A   1      33.443  21.635  23.961  1.00  0.00    -0.307 N 
ATOM     22  S   UNL A   1      35.436  21.115  25.448  1.00  0.00    -0.025 SA
ATOM     23  C   UNL A   1      34.159  22.803  23.879  1.00  0.00     0.120 C 
ATOM     24  H   UNL A   1      32.598  21.529  23.467  1.00  0.00     0.171 HD
ATOM     25  C   UNL A   1      35.383  22.696  24.729  1.00  0.00     0.056 C 
ATOM     26  S   UNL A   1      33.629  24.048  22.906  1.00  0.00    -0.059 S 
ENDBRANCH  14  18
ENDBRANCH   8  13
ENDBRANCH   5   7
ENDBRANCH   4   5
ENDBRANCH   3   4
ENDBRANCH   2   3
ENDBRANCH   1   2
BRANCH   1  27
ATOM     27  C   UNL A   1      45.963  22.399  25.066  1.00  0.00     0.202 C 
BRANCH  27  28
ATOM     28  C   UNL A   1      44.784  22.784  24.163  1.00  0.00     0.261 C 
BRANCH  28  29
ATOM     29  O   UNL A   1      43.941  23.801  24.729  1.00  0.00    -0.460 OA
BRANCH  29  30
ATOM     30  C   UNL A   1      44.592  24.936  25.079  1.00  0.00     0.338 C 
ATOM     31  O   UNL A   1      45.624  25.379  24.604  1.00  0.00    -0.246 OA
BRANCH  30  32
ATOM     32  C   UNL A   1      43.776  25.705  26.035  1.00  0.00     0.060 A 
ATOM     33  C   UNL A   1      43.962  27.094  26.080  1.00  0.00     0.016 A 
ATOM     34  C   UNL A   1      42.912  25.072  26.927  1.00  0.00     0.016 A 
ATOM     35  C   UNL A   1      43.316  27.851  27.053  1.00  0.00     0.010 A 
ATOM     36  C   UNL A   1      42.268  25.834  27.907  1.00  0.00     0.010 A 
ATOM     37  C   UNL A   1      42.494  27.221  27.997  1.00  0.00    -0.014 A 
BRANCH  37  38
ATOM     38  C   UNL A   1      41.976  27.991  29.154  1.00  0.00     0.031 A 
ATOM     39  C   UNL A   1      42.704  27.919  30.467  1.00  0.00     0.074 A 
ATOM     40  C   UNL A   1      40.882  28.762  29.028  1.00  0.00     0.049 A 
ATOM     41  N   UNL A   1      42.399  28.463  31.617  1.00  0.00    -0.248 NA
ATOM     42  C   UNL A   1      43.941  27.123  30.486  1.00  0.00     0.031 C 
ATOM     43  C   UNL A   1      40.115  28.943  27.798  1.00  0.00     0.029 A 
ATOM     44  N   UNL A   1      40.222  29.530  29.953  1.00  0.00    -0.354 N 
ATOM     45  C   UNL A   1      43.398  28.068  32.498  1.00  0.00     0.074 A 
ATOM     46  C   UNL A   1      44.298  27.209  31.759  1.00  0.00     0.031 C 
ATOM     47  C   UNL A   1      39.080  29.762  28.046  1.00  0.00     0.029 A 
ATOM     48  C   UNL A   1      39.090  30.129  29.461  1.00  0.00     0.049 A 
ATOM     49  H   UNL A   1      40.530  29.642  30.882  1.00  0.00     0.167 HD
ATOM     50  C   UNL A   1      43.557  28.402  33.802  1.00  0.00     0.037 A 
ATOM     51  C   UNL A   1      38.153  30.867  30.089  1.00  0.00     0.037 A 
ATOM     52  C   UNL A   1      42.656  29.257  34.532  1.00  0.00     0.049 A 
ATOM     53  C   UNL A   1      38.309  31.160  31.559  1.00  0.00     0.074 A 
ATOM     54  C   UNL A   1      42.736  29.669  35.851  1.00  0.00     0.029 A 
ATOM     55  N   UNL A   1      41.502  29.822  34.007  1.00  0.00    -0.354 N 
ATOM     56  N   UNL A   1      39.269  30.806  32.379  1.00  0.00    -0.248 NA
ATOM     57  C   UNL A   1      37.252  31.963  32.189  1.00  0.00     0.031 C 
ATOM     58  C   UNL A   1      41.600  30.430  36.141  1.00  0.00     0.029 A 
ATOM     59  C   UNL A   1      40.846  30.555  34.985  1.00  0.00     0.049 A 
ATOM     60  H   UNL A   1      41.196  29.718  33.077  1.00  0.00     0.167 HD
ATOM     61  C   UNL A   1      38.950  31.367  33.609  1.00  0.00     0.074 A 
ATOM     62  C   UNL A   1      37.715  32.099  33.424  1.00  0.00     0.031 C 
ATOM     63  C   UNL A   1      39.621  31.286  34.785  1.00  0.00     0.037 A 
BRANCH  50  64
ATOM     64  C   UNL A   1      44.732  27.818  34.533  1.00  0.00     0.064 A 
ATOM     65  C   UNL A   1      44.656  26.578  35.186  1.00  0.00     0.173 A 
ATOM     66  C   UNL A   1      45.964  28.491  34.548  1.00  0.00     0.173 A 
ATOM     67  F   UNL A   1      43.501  25.897  35.212  1.00  0.00    -0.203 F 
ATOM     68  C   UNL A   1      45.760  26.050  35.853  1.00  0.00     0.198 A 
ATOM     69  C   UNL A   1      47.073  27.943  35.186  1.00  0.00     0.198 A 
ATOM     70  F   UNL A   1      46.094  29.677  33.935  1.00  0.00    -0.203 F 
ATOM     71  F   UNL A   1      45.649  24.889  36.514  1.00  0.00    -0.200 F 
ATOM     72  C   UNL A   1      46.969  26.728  35.845  1.00  0.00     0.200 A 
ATOM     73  F   UNL A   1      48.246  28.593  35.163  1.00  0.00    -0.200 F 
ATOM     74  F   UNL A   1      48.032  26.214  36.479  1.00  0.00    -0.200 F 
ENDBRANCH  50  64
BRANCH  51  75
ATOM     75  C   UNL A   1      36.973  31.368  29.335  1.00  0.00     0.064 A 
ATOM     76  C   UNL A   1      36.862  32.717  28.973  1.00  0.00     0.173 A 
ATOM     77  C   UNL A   1      35.922  30.510  28.978  1.00  0.00     0.173 A 
ATOM     78  F   UNL A   1      37.829  33.583  29.311  1.00  0.00    -0.203 F 
ATOM     79  C   UNL A   1      35.736  33.193  28.304  1.00  0.00     0.198 A 
ATOM     80  C   UNL A   1      34.811  30.980  28.280  1.00  0.00     0.198 A 
ATOM     81  F   UNL A   1      35.976  29.208  29.299  1.00  0.00    -0.203 F 
ATOM     82  F   UNL A   1      35.631  34.499  28.019  1.00  0.00    -0.200 F 
ATOM     83  C   UNL A   1      34.715  32.324  27.952  1.00  0.00     0.200 A 
ATOM     84  F   UNL A   1      33.836  30.133  27.928  1.00  0.00    -0.200 F 
ATOM     85  F   UNL A   1      33.633  32.781  27.307  1.00  0.00    -0.200 F 
ENDBRANCH  51  75
BRANCH  63  86
ATOM     86  C   UNL A   1      39.060  32.044  35.957  1.00  0.00     0.064 A 
ATOM     87  C   UNL A   1      38.202  31.442  36.889  1.00  0.00     0.173 A 
ATOM     88  C   UNL A   1      39.420  33.384  36.171  1.00  0.00     0.173 A 
ATOM     89  F   UNL A   1      37.815  30.167  36.726  1.00  0.00    -0.203 F 
ATOM     90  C   UNL A   1      37.700  32.161  37.971  1.00  0.00     0.198 A 
ATOM     91  C   UNL A   1      38.946  34.089  37.273  1.00  0.00     0.198 A 
ATOM     92  F   UNL A   1      40.245  34.007  35.316  1.00  0.00    -0.203 F 
ATOM     93  F   UNL A   1      36.837  31.581  38.816  1.00  0.00    -0.200 F 
ATOM     94  C   UNL A   1      38.079  33.481  38.167  1.00  0.00     0.200 A 
ATOM     95  F   UNL A   1      39.329  35.359  37.470  1.00  0.00    -0.200 F 
ATOM     96  F   UNL A   1      37.602  34.168  39.214  1.00  0.00    -0.200 F 
ENDBRANCH  63  86
ENDBRANCH  37  38
ENDBRANCH  30  32
ENDBRANCH  29  30
ENDBRANCH  28  29
ENDBRANCH  27  28
ENDBRANCH   1  27
TORSDOF 16
ENDMDL
