MODEL 1
REMARK VINA RESULT:     -12.1      0.000      0.000
REMARK SMILES COc1ccc(CC(=O)Nc2ccc(N3CC[NH+](C)CC3)cc2C(=O)OCCOCCOC(=O)c2ccc(-c3c4nc(c(-c5c(F)c(F)c(F)c(F)c5F)c5ccc([nH]5)c(-c5c(F)c(F)c(F)c(F)c5F)c5nc(c(-c6c(F)c(F)c(F)c(F)c6F)c6ccc3[nH]6)C=C5)C=C4)cc2)cc1
REMARK SMILES IDX 28 1 27 2 26 3 24 4 25 5 23 6 11 7 12 8 13 9 22 10 14 11
REMARK SMILES IDX 10 12 8 13 9 14 7 16 6 17 3 18 4 19 99 20 5 21 98 22 2 23
REMARK SMILES IDX 1 24 15 25 16 26 21 27 17 28 20 29 18 30 19 31 29 33 30 34
REMARK SMILES IDX 31 35 32 36 33 37 34 38 35 39 36 40 97 41 37 42 96 43 38 44
REMARK SMILES IDX 39 45 40 46 90 47 41 48 95 49 89 50 91 51 42 52 94 53 88 54
REMARK SMILES IDX 87 55 43 57 75 58 55 59 74 60 56 61 59 62 73 63 92 64 57 65
REMARK SMILES IDX 58 66 72 68 93 69 60 70 44 71 45 72 53 73 46 74 47 75 51 76
REMARK SMILES IDX 54 77 48 78 49 79 52 80 50 81 76 82 77 83 85 84 78 85 79 86
REMARK SMILES IDX 83 87 86 88 80 89 81 90 84 91 82 92 61 93 62 94 70 95 63 96
REMARK SMILES IDX 64 97 68 98 71 99 65 100 66 101 69 102 67 103
REMARK H PARENT 10 15 18 32 91 56 59 67
REMARK Flexibility Score: inf
ROOT
ATOM      1  C   UNL A   1      33.013  27.251  26.509  1.00  0.00     0.202 C 
ENDROOT
BRANCH   1   2
ATOM      2  C   UNL A   1      31.781  26.333  26.575  1.00  0.00     0.261 C 
BRANCH   2   3
ATOM      3  O   UNL A   1      31.889  24.910  26.791  1.00  0.00    -0.460 OA
BRANCH   3   4
ATOM      4  C   UNL A   1      30.930  24.077  26.355  1.00  0.00     0.340 C 
ATOM      5  O   UNL A   1      29.760  24.074  26.705  1.00  0.00    -0.246 OA
BRANCH   4   6
ATOM      6  C   UNL A   1      31.412  23.159  25.304  1.00  0.00     0.085 A 
ATOM      7  C   UNL A   1      31.363  23.434  23.935  1.00  0.00     0.055 A 
ATOM      8  C   UNL A   1      31.593  22.388  23.043  1.00  0.00     0.029 A 
ATOM      9  C   UNL A   1      32.146  21.188  23.510  1.00  0.00     0.028 A 
ATOM     10  C   UNL A   1      31.976  21.954  25.754  1.00  0.00     0.043 A 
ATOM     11  C   UNL A   1      32.443  20.988  24.866  1.00  0.00     0.038 A 
BRANCH   7  12
ATOM     12  N   UNL A   1      31.111  24.706  23.396  1.00  0.00    -0.325 N 
ATOM     13  C   UNL A   1      32.020  25.692  23.078  1.00  0.00     0.228 C 
ATOM     14  O   UNL A   1      31.622  26.862  23.048  1.00  0.00    -0.274 OA
ATOM     15  H   UNL A   1      30.166  24.920  23.224  1.00  0.00     0.169 HD
BRANCH  13  16
ATOM     16  C   UNL A   1      33.407  25.327  22.531  1.00  0.00     0.135 C 
BRANCH  16  17
ATOM     17  C   UNL A   1      34.383  24.556  23.390  1.00  0.00    -0.038 A 
ATOM     18  C   UNL A   1      36.041  22.937  25.028  1.00  0.00     0.118 A 
ATOM     19  C   UNL A   1      35.513  24.141  25.504  1.00  0.00     0.047 A 
ATOM     20  C   UNL A   1      35.854  22.616  23.686  1.00  0.00     0.047 A 
ATOM     21  C   UNL A   1      34.684  24.941  24.701  1.00  0.00     0.008 A 
ATOM     22  C   UNL A   1      35.042  23.427  22.874  1.00  0.00     0.008 A 
BRANCH  18  23
ATOM     23  O   UNL A   1      36.685  22.179  25.965  1.00  0.00    -0.497 OA
ATOM     24  C   UNL A   1      38.031  21.774  25.729  1.00  0.00     0.278 C 
ENDBRANCH  18  23
ENDBRANCH  16  17
ENDBRANCH  13  16
ENDBRANCH   7  12
BRANCH  11  25
ATOM     25  N   UNL A   1      33.208  19.925  25.291  1.00  0.00    -0.360 N 
ATOM     26  C   UNL A   1      34.488  19.538  24.677  1.00  0.00     0.178 C 
ATOM     27  C   UNL A   1      32.695  19.002  26.319  1.00  0.00     0.178 C 
ATOM     28  C   UNL A   1      34.479  18.054  24.239  1.00  0.00     0.283 C 
ATOM     29  C   UNL A   1      32.753  17.533  25.827  1.00  0.00     0.283 C 
ATOM     30  N   UNL A   1      34.097  17.150  25.346  1.00  0.00    -0.334 N 
ATOM     31  C   UNL A   1      34.129  15.754  24.924  1.00  0.00     0.332 C 
ATOM     32  H   UNL A   1      34.770  17.242  26.108  1.00  0.00     0.347 HD
ENDBRANCH  11  25
ENDBRANCH   4   6
ENDBRANCH   3   4
ENDBRANCH   2   3
ENDBRANCH   1   2
BRANCH   1  33
ATOM     33  O   UNL A   1      32.925  28.475  25.793  1.00  0.00    -0.374 OA
BRANCH  33  34
ATOM     34  C   UNL A   1      31.700  29.188  25.886  1.00  0.00     0.202 C 
BRANCH  34  35
ATOM     35  C   UNL A   1      31.885  30.578  26.501  1.00  0.00     0.261 C 
BRANCH  35  36
ATOM     36  O   UNL A   1      32.810  30.563  27.595  1.00  0.00    -0.460 OA
BRANCH  36  37
ATOM     37  C   UNL A   1      33.601  31.665  27.631  1.00  0.00     0.338 C 
ATOM     38  O   UNL A   1      33.264  32.835  27.548  1.00  0.00    -0.246 OA
BRANCH  37  39
ATOM     39  C   UNL A   1      34.985  31.250  27.897  1.00  0.00     0.060 A 
ATOM     40  C   UNL A   1      35.257  29.885  28.047  1.00  0.00     0.016 A 
ATOM     41  C   UNL A   1      35.980  32.213  28.079  1.00  0.00     0.016 A 
ATOM     42  C   UNL A   1      36.509  29.483  28.496  1.00  0.00     0.010 A 
ATOM     43  C   UNL A   1      37.227  31.813  28.545  1.00  0.00     0.010 A 
ATOM     44  C   UNL A   1      37.463  30.455  28.823  1.00  0.00    -0.014 A 
BRANCH  44  45
ATOM     45  C   UNL A   1      38.572  30.083  29.724  1.00  0.00     0.031 A 
ATOM     46  C   UNL A   1      39.590  29.102  29.208  1.00  0.00     0.074 A 
ATOM     47  C   UNL A   1      38.691  30.636  30.940  1.00  0.00     0.049 A 
ATOM     48  N   UNL A   1      40.633  28.589  29.806  1.00  0.00    -0.248 NA
ATOM     49  C   UNL A   1      39.405  28.636  27.822  1.00  0.00     0.031 C 
ATOM     50  C   UNL A   1      37.785  31.635  31.502  1.00  0.00     0.029 A 
ATOM     51  N   UNL A   1      39.625  30.431  31.919  1.00  0.00    -0.354 N 
ATOM     52  C   UNL A   1      41.218  27.739  28.874  1.00  0.00     0.074 A 
ATOM     53  C   UNL A   1      40.401  27.777  27.684  1.00  0.00     0.031 C 
ATOM     54  C   UNL A   1      38.206  31.952  32.738  1.00  0.00     0.029 A 
ATOM     55  C   UNL A   1      39.384  31.149  33.062  1.00  0.00     0.049 A 
ATOM     56  H   UNL A   1      40.396  29.826  31.813  1.00  0.00     0.167 HD
ATOM     57  C   UNL A   1      42.344  26.999  29.003  1.00  0.00     0.037 A 
ATOM     58  C   UNL A   1      40.035  31.132  34.240  1.00  0.00     0.037 A 
ATOM     59  C   UNL A   1      43.141  26.972  30.200  1.00  0.00     0.049 A 
ATOM     60  C   UNL A   1      41.245  30.243  34.384  1.00  0.00     0.074 A 
ATOM     61  C   UNL A   1      44.301  26.263  30.451  1.00  0.00     0.029 A 
ATOM     62  N   UNL A   1      42.848  27.687  31.354  1.00  0.00    -0.354 N 
ATOM     63  N   UNL A   1      41.800  29.447  33.502  1.00  0.00    -0.248 NA
ATOM     64  C   UNL A   1      41.921  30.257  35.687  1.00  0.00     0.031 C 
ATOM     65  C   UNL A   1      44.675  26.500  31.778  1.00  0.00     0.029 A 
ATOM     66  C   UNL A   1      43.791  27.415  32.330  1.00  0.00     0.049 A 
ATOM     67  H   UNL A   1      42.082  28.297  31.461  1.00  0.00     0.167 HD
ATOM     68  C   UNL A   1      42.908  28.890  34.129  1.00  0.00     0.074 A 
ATOM     69  C   UNL A   1      42.952  29.455  35.463  1.00  0.00     0.031 C 
ATOM     70  C   UNL A   1      43.811  27.998  33.650  1.00  0.00     0.037 A 
BRANCH  57  71
ATOM     71  C   UNL A   1      42.744  26.132  27.844  1.00  0.00     0.064 A 
ATOM     72  C   UNL A   1      42.251  24.827  27.683  1.00  0.00     0.173 A 
ATOM     73  C   UNL A   1      43.626  26.620  26.869  1.00  0.00     0.173 A 
ATOM     74  F   UNL A   1      41.419  24.302  28.595  1.00  0.00    -0.203 F 
ATOM     75  C   UNL A   1      42.649  24.036  26.607  1.00  0.00     0.198 A 
ATOM     76  C   UNL A   1      43.995  25.839  25.776  1.00  0.00     0.198 A 
ATOM     77  F   UNL A   1      44.130  27.859  26.971  1.00  0.00    -0.203 F 
ATOM     78  F   UNL A   1      42.207  22.775  26.504  1.00  0.00    -0.200 F 
ATOM     79  C   UNL A   1      43.513  24.546  25.651  1.00  0.00     0.200 A 
ATOM     80  F   UNL A   1      44.821  26.338  24.846  1.00  0.00    -0.200 F 
ATOM     81  F   UNL A   1      43.889  23.787  24.612  1.00  0.00    -0.200 F 
ENDBRANCH  57  71
BRANCH  58  82
ATOM     82  C   UNL A   1      39.550  31.968  35.369  1.00  0.00     0.064 A 
ATOM     83  C   UNL A   1      40.038  33.266  35.577  1.00  0.00     0.173 A 
ATOM     84  C   UNL A   1      38.593  31.481  36.272  1.00  0.00     0.173 A 
ATOM     85  F   UNL A   1      40.971  33.769  34.756  1.00  0.00    -0.203 F 
ATOM     86  C   UNL A   1      39.604  34.034  36.656  1.00  0.00     0.198 A 
ATOM     87  C   UNL A   1      38.136  32.262  37.331  1.00  0.00     0.198 A 
ATOM     88  F   UNL A   1      38.093  30.245  36.121  1.00  0.00    -0.203 F 
ATOM     89  F   UNL A   1      40.127  35.251  36.861  1.00  0.00    -0.200 F 
ATOM     90  C   UNL A   1      38.648  33.535  37.527  1.00  0.00     0.200 A 
ATOM     91  F   UNL A   1      37.202  31.780  38.163  1.00  0.00    -0.200 F 
ATOM     92  F   UNL A   1      38.229  34.275  38.562  1.00  0.00    -0.200 F 
ENDBRANCH  58  82
BRANCH  70  93
ATOM     93  C   UNL A   1      44.945  27.615  34.556  1.00  0.00     0.064 A 
ATOM     94  C   UNL A   1      44.869  26.509  35.414  1.00  0.00     0.173 A 
ATOM     95  C   UNL A   1      46.139  28.353  34.542  1.00  0.00     0.173 A 
ATOM     96  F   UNL A   1      43.746  25.776  35.475  1.00  0.00    -0.203 F 
ATOM     97  C   UNL A   1      45.931  26.178  36.251  1.00  0.00     0.198 A 
ATOM     98  C   UNL A   1      47.214  27.997  35.351  1.00  0.00     0.198 A 
ATOM     99  F   UNL A   1      46.269  29.415  33.731  1.00  0.00    -0.203 F 
ATOM    100  F   UNL A   1      45.813  25.154  37.108  1.00  0.00    -0.200 F 
ATOM    101  C   UNL A   1      47.104  26.917  36.213  1.00  0.00     0.200 A 
ATOM    102  F   UNL A   1      48.353  28.701  35.297  1.00  0.00    -0.200 F 
ATOM    103  F   UNL A   1      48.128  26.594  37.016  1.00  0.00    -0.200 F 
ENDBRANCH  70  93
ENDBRANCH  44  45
ENDBRANCH  37  39
ENDBRANCH  36  37
ENDBRANCH  35  36
ENDBRANCH  34  35
ENDBRANCH  33  34
ENDBRANCH   1  33
TORSDOF 19
ENDMDL
MODEL 2
REMARK VINA RESULT:     -11.8      4.344      9.105
REMARK SMILES COc1ccc(CC(=O)Nc2ccc(N3CC[NH+](C)CC3)cc2C(=O)OCCOCCOC(=O)c2ccc(-c3c4nc(c(-c5c(F)c(F)c(F)c(F)c5F)c5ccc([nH]5)c(-c5c(F)c(F)c(F)c(F)c5F)c5nc(c(-c6c(F)c(F)c(F)c(F)c6F)c6ccc3[nH]6)C=C5)C=C4)cc2)cc1
REMARK SMILES IDX 28 1 27 2 26 3 24 4 25 5 23 6 11 7 12 8 13 9 22 10 14 11
REMARK SMILES IDX 10 12 8 13 9 14 7 16 6 17 3 18 4 19 99 20 5 21 98 22 2 23
REMARK SMILES IDX 1 24 15 25 16 26 21 27 17 28 20 29 18 30 19 31 29 33 30 34
REMARK SMILES IDX 31 35 32 36 33 37 34 38 35 39 36 40 97 41 37 42 96 43 38 44
REMARK SMILES IDX 39 45 40 46 90 47 41 48 95 49 89 50 91 51 42 52 94 53 88 54
REMARK SMILES IDX 87 55 43 57 75 58 55 59 74 60 56 61 59 62 73 63 92 64 57 65
REMARK SMILES IDX 58 66 72 68 93 69 60 70 44 71 45 72 53 73 46 74 47 75 51 76
REMARK SMILES IDX 54 77 48 78 49 79 52 80 50 81 76 82 77 83 85 84 78 85 79 86
REMARK SMILES IDX 83 87 86 88 80 89 81 90 84 91 82 92 61 93 62 94 70 95 63 96
REMARK SMILES IDX 64 97 68 98 71 99 65 100 66 101 69 102 67 103
REMARK H PARENT 10 15 18 32 91 56 59 67
REMARK Flexibility Score: inf
ROOT
ATOM      1  C   UNL A   1      33.960  31.220  27.416  1.00  0.00     0.202 C 
ENDROOT
BRANCH   1   2
ATOM      2  C   UNL A   1      33.002  30.024  27.274  1.00  0.00     0.261 C 
BRANCH   2   3
ATOM      3  O   UNL A   1      32.731  29.401  26.000  1.00  0.00    -0.460 OA
BRANCH   3   4
ATOM      4  C   UNL A   1      32.722  28.064  25.881  1.00  0.00     0.340 C 
ATOM      5  O   UNL A   1      33.563  27.293  26.317  1.00  0.00    -0.246 OA
BRANCH   4   6
ATOM      6  C   UNL A   1      31.508  27.563  25.206  1.00  0.00     0.085 A 
ATOM      7  C   UNL A   1      30.903  26.334  25.481  1.00  0.00     0.055 A 
ATOM      8  C   UNL A   1      29.935  25.861  24.598  1.00  0.00     0.029 A 
ATOM      9  C   UNL A   1      29.385  26.729  23.644  1.00  0.00     0.028 A 
ATOM     10  C   UNL A   1      30.938  28.423  24.252  1.00  0.00     0.043 A 
ATOM     11  C   UNL A   1      29.808  28.061  23.523  1.00  0.00     0.038 A 
BRANCH   7  12
ATOM     12  N   UNL A   1      31.199  25.546  26.606  1.00  0.00    -0.325 N 
ATOM     13  C   UNL A   1      31.778  24.296  26.643  1.00  0.00     0.228 C 
ATOM     14  O   UNL A   1      31.559  23.582  27.628  1.00  0.00    -0.274 OA
ATOM     15  H   UNL A   1      30.963  25.937  27.478  1.00  0.00     0.169 HD
BRANCH  13  16
ATOM     16  C   UNL A   1      32.859  23.908  25.624  1.00  0.00     0.135 C 
BRANCH  16  17
ATOM     17  C   UNL A   1      32.902  22.506  25.061  1.00  0.00    -0.038 A 
ATOM     18  C   UNL A   1      32.750  19.847  24.081  1.00  0.00     0.118 A 
ATOM     19  C   UNL A   1      33.538  20.162  25.192  1.00  0.00     0.047 A 
ATOM     20  C   UNL A   1      32.153  20.888  23.377  1.00  0.00     0.047 A 
ATOM     21  C   UNL A   1      33.609  21.475  25.687  1.00  0.00     0.008 A 
ATOM     22  C   UNL A   1      32.240  22.207  23.857  1.00  0.00     0.008 A 
BRANCH  18  23
ATOM     23  O   UNL A   1      32.637  18.512  23.813  1.00  0.00    -0.497 OA
ATOM     24  C   UNL A   1      32.500  18.080  22.462  1.00  0.00     0.278 C 
ENDBRANCH  18  23
ENDBRANCH  16  17
ENDBRANCH  13  16
ENDBRANCH   7  12
BRANCH  11  25
ATOM     25  N   UNL A   1      29.109  28.978  22.772  1.00  0.00    -0.360 N 
ATOM     26  C   UNL A   1      29.673  29.692  21.615  1.00  0.00     0.178 C 
ATOM     27  C   UNL A   1      27.766  29.417  23.192  1.00  0.00     0.178 C 
ATOM     28  C   UNL A   1      29.534  31.224  21.774  1.00  0.00     0.283 C 
ATOM     29  C   UNL A   1      27.691  30.962  23.291  1.00  0.00     0.283 C 
ATOM     30  N   UNL A   1      28.140  31.631  22.052  1.00  0.00    -0.334 N 
ATOM     31  C   UNL A   1      28.024  33.082  22.163  1.00  0.00     0.332 C 
ATOM     32  H   UNL A   1      27.542  31.347  21.275  1.00  0.00     0.347 HD
ENDBRANCH  11  25
ENDBRANCH   4   6
ENDBRANCH   3   4
ENDBRANCH   2   3
ENDBRANCH   1   2
BRANCH   1  33
ATOM     33  O   UNL A   1      33.631  32.263  28.322  1.00  0.00    -0.374 OA
BRANCH  33  34
ATOM     34  C   UNL A   1      34.667  33.178  28.653  1.00  0.00     0.202 C 
BRANCH  34  35
ATOM     35  C   UNL A   1      34.873  33.296  30.166  1.00  0.00     0.261 C 
BRANCH  35  36
ATOM     36  O   UNL A   1      34.628  32.055  30.840  1.00  0.00    -0.460 OA
BRANCH  36  37
ATOM     37  C   UNL A   1      35.540  31.793  31.809  1.00  0.00     0.338 C 
ATOM     38  O   UNL A   1      35.563  32.217  32.953  1.00  0.00    -0.246 OA
BRANCH  37  39
ATOM     39  C   UNL A   1      36.497  30.799  31.307  1.00  0.00     0.060 A 
ATOM     40  C   UNL A   1      37.541  30.390  32.148  1.00  0.00     0.016 A 
ATOM     41  C   UNL A   1      36.407  30.345  29.989  1.00  0.00     0.016 A 
ATOM     42  C   UNL A   1      38.569  29.611  31.631  1.00  0.00     0.010 A 
ATOM     43  C   UNL A   1      37.444  29.580  29.468  1.00  0.00     0.010 A 
ATOM     44  C   UNL A   1      38.558  29.278  30.271  1.00  0.00    -0.014 A 
BRANCH  44  45
ATOM     45  C   UNL A   1      39.828  28.887  29.627  1.00  0.00     0.031 A 
ATOM     46  C   UNL A   1      40.907  29.931  29.524  1.00  0.00     0.074 A 
ATOM     47  C   UNL A   1      40.027  27.634  29.193  1.00  0.00     0.049 A 
ATOM     48  N   UNL A   1      42.092  29.856  28.978  1.00  0.00    -0.248 NA
ATOM     49  C   UNL A   1      40.605  31.244  30.122  1.00  0.00     0.031 C 
ATOM     50  C   UNL A   1      39.061  26.543  29.300  1.00  0.00     0.029 A 
ATOM     51  N   UNL A   1      41.110  27.073  28.572  1.00  0.00    -0.354 N 
ATOM     52  C   UNL A   1      42.669  31.108  29.161  1.00  0.00     0.074 A 
ATOM     53  C   UNL A   1      41.697  31.935  29.837  1.00  0.00     0.031 C 
ATOM     54  C   UNL A   1      39.596  25.439  28.752  1.00  0.00     0.029 A 
ATOM     55  C   UNL A   1      40.921  25.760  28.226  1.00  0.00     0.049 A 
ATOM     56  H   UNL A   1      41.945  27.565  28.393  1.00  0.00     0.167 HD
ATOM     57  C   UNL A   1      43.905  31.524  28.801  1.00  0.00     0.037 A 
ATOM     58  C   UNL A   1      41.726  24.929  27.537  1.00  0.00     0.037 A 
ATOM     59  C   UNL A   1      44.857  30.685  28.124  1.00  0.00     0.049 A 
ATOM     60  C   UNL A   1      43.070  25.438  27.082  1.00  0.00     0.074 A 
ATOM     61  C   UNL A   1      46.140  30.991  27.708  1.00  0.00     0.029 A 
ATOM     62  N   UNL A   1      44.619  29.366  27.756  1.00  0.00    -0.354 N 
ATOM     63  N   UNL A   1      43.616  26.617  27.261  1.00  0.00    -0.248 NA
ATOM     64  C   UNL A   1      43.912  24.497  26.334  1.00  0.00     0.031 C 
ATOM     65  C   UNL A   1      46.654  29.880  27.033  1.00  0.00     0.029 A 
ATOM     66  C   UNL A   1      45.721  28.855  27.094  1.00  0.00     0.049 A 
ATOM     67  H   UNL A   1      43.788  28.871  27.940  1.00  0.00     0.167 HD
ATOM     68  C   UNL A   1      44.876  26.551  26.679  1.00  0.00     0.074 A 
ATOM     69  C   UNL A   1      45.017  25.207  26.155  1.00  0.00     0.031 C 
ATOM     70  C   UNL A   1      45.833  27.509  26.587  1.00  0.00     0.037 A 
BRANCH  57  71
ATOM     71  C   UNL A   1      44.272  32.951  29.090  1.00  0.00     0.064 A 
ATOM     72  C   UNL A   1      44.099  33.972  28.142  1.00  0.00     0.173 A 
ATOM     73  C   UNL A   1      44.792  33.306  30.343  1.00  0.00     0.173 A 
ATOM     74  F   UNL A   1      43.622  33.687  26.921  1.00  0.00    -0.203 F 
ATOM     75  C   UNL A   1      44.461  35.287  28.429  1.00  0.00     0.198 A 
ATOM     76  C   UNL A   1      45.121  34.627  30.639  1.00  0.00     0.198 A 
ATOM     77  F   UNL A   1      44.980  32.372  31.288  1.00  0.00    -0.203 F 
ATOM     78  F   UNL A   1      44.338  36.235  27.489  1.00  0.00    -0.200 F 
ATOM     79  C   UNL A   1      44.963  35.614  29.679  1.00  0.00     0.200 A 
ATOM     80  F   UNL A   1      45.595  34.943  31.852  1.00  0.00    -0.200 F 
ATOM     81  F   UNL A   1      45.303  36.881  29.956  1.00  0.00    -0.200 F 
ENDBRANCH  57  71
BRANCH  58  82
ATOM     82  C   UNL A   1      41.277  23.546  27.229  1.00  0.00     0.064 A 
ATOM     83  C   UNL A   1      40.181  23.306  26.389  1.00  0.00     0.173 A 
ATOM     84  C   UNL A   1      41.932  22.433  27.778  1.00  0.00     0.173 A 
ATOM     85  F   UNL A   1      39.507  24.335  25.857  1.00  0.00    -0.203 F 
ATOM     86  C   UNL A   1      39.744  22.007  26.129  1.00  0.00     0.198 A 
ATOM     87  C   UNL A   1      41.514  21.135  27.491  1.00  0.00     0.198 A 
ATOM     88  F   UNL A   1      42.986  22.605  28.590  1.00  0.00    -0.203 F 
ATOM     89  F   UNL A   1      38.661  21.809  25.364  1.00  0.00    -0.200 F 
ATOM     90  C   UNL A   1      40.415  20.924  26.673  1.00  0.00     0.200 A 
ATOM     91  F   UNL A   1      42.175  20.091  28.010  1.00  0.00    -0.200 F 
ATOM     92  F   UNL A   1      39.997  19.677  26.420  1.00  0.00    -0.200 F 
ENDBRANCH  58  82
BRANCH  70  93
ATOM     93  C   UNL A   1      47.130  27.121  25.937  1.00  0.00     0.064 A 
ATOM     94  C   UNL A   1      47.382  27.366  24.580  1.00  0.00     0.173 A 
ATOM     95  C   UNL A   1      48.148  26.523  26.697  1.00  0.00     0.173 A 
ATOM     96  F   UNL A   1      46.439  27.926  23.807  1.00  0.00    -0.203 F 
ATOM     97  C   UNL A   1      48.590  26.991  23.998  1.00  0.00     0.198 A 
ATOM     98  C   UNL A   1      49.369  26.184  26.121  1.00  0.00     0.198 A 
ATOM     99  F   UNL A   1      47.963  26.277  28.003  1.00  0.00    -0.203 F 
ATOM    100  F   UNL A   1      48.785  27.177  22.685  1.00  0.00    -0.200 F 
ATOM    101  C   UNL A   1      49.585  26.408  24.770  1.00  0.00     0.200 A 
ATOM    102  F   UNL A   1      50.335  25.641  26.874  1.00  0.00    -0.200 F 
ATOM    103  F   UNL A   1      50.749  26.053  24.208  1.00  0.00    -0.200 F 
ENDBRANCH  70  93
ENDBRANCH  44  45
ENDBRANCH  37  39
ENDBRANCH  36  37
ENDBRANCH  35  36
ENDBRANCH  34  35
ENDBRANCH  33  34
ENDBRANCH   1  33
TORSDOF 19
ENDMDL
MODEL 3
REMARK VINA RESULT:     -11.7      1.509      7.712
REMARK SMILES COc1ccc(CC(=O)Nc2ccc(N3CC[NH+](C)CC3)cc2C(=O)OCCOCCOC(=O)c2ccc(-c3c4nc(c(-c5c(F)c(F)c(F)c(F)c5F)c5ccc([nH]5)c(-c5c(F)c(F)c(F)c(F)c5F)c5nc(c(-c6c(F)c(F)c(F)c(F)c6F)c6ccc3[nH]6)C=C5)C=C4)cc2)cc1
REMARK SMILES IDX 28 1 27 2 26 3 24 4 25 5 23 6 11 7 12 8 13 9 22 10 14 11
REMARK SMILES IDX 10 12 8 13 9 14 7 16 6 17 3 18 4 19 99 20 5 21 98 22 2 23
REMARK SMILES IDX 1 24 15 25 16 26 21 27 17 28 20 29 18 30 19 31 29 33 30 34
REMARK SMILES IDX 31 35 32 36 33 37 34 38 35 39 36 40 97 41 37 42 96 43 38 44
REMARK SMILES IDX 39 45 40 46 90 47 41 48 95 49 89 50 91 51 42 52 94 53 88 54
REMARK SMILES IDX 87 55 43 57 75 58 55 59 74 60 56 61 59 62 73 63 92 64 57 65
REMARK SMILES IDX 58 66 72 68 93 69 60 70 44 71 45 72 53 73 46 74 47 75 51 76
REMARK SMILES IDX 54 77 48 78 49 79 52 80 50 81 76 82 77 83 85 84 78 85 79 86
REMARK SMILES IDX 83 87 86 88 80 89 81 90 84 91 82 92 61 93 62 94 70 95 63 96
REMARK SMILES IDX 64 97 68 98 71 99 65 100 66 101 69 102 67 103
REMARK H PARENT 10 15 18 32 91 56 59 67
REMARK Flexibility Score: inf
ROOT
ATOM      1  C   UNL A   1      31.549  28.657  27.233  1.00  0.00     0.202 C 
ENDROOT
BRANCH   1   2
ATOM      2  C   UNL A   1      31.872  27.739  26.042  1.00  0.00     0.261 C 
BRANCH   2   3
ATOM      3  O   UNL A   1      32.349  26.388  26.217  1.00  0.00    -0.460 OA
BRANCH   3   4
ATOM      4  C   UNL A   1      31.702  25.356  25.652  1.00  0.00     0.340 C 
ATOM      5  O   UNL A   1      30.499  25.149  25.686  1.00  0.00    -0.246 OA
BRANCH   4   6
ATOM      6  C   UNL A   1      32.603  24.478  24.878  1.00  0.00     0.085 A 
ATOM      7  C   UNL A   1      33.412  24.911  23.824  1.00  0.00     0.055 A 
ATOM      8  C   UNL A   1      34.003  23.950  23.006  1.00  0.00     0.029 A 
ATOM      9  C   UNL A   1      34.023  22.610  23.417  1.00  0.00     0.028 A 
ATOM     10  C   UNL A   1      32.643  23.133  25.279  1.00  0.00     0.043 A 
ATOM     11  C   UNL A   1      33.429  22.193  24.616  1.00  0.00     0.038 A 
BRANCH   7  12
ATOM     12  N   UNL A   1      33.681  26.261  23.543  1.00  0.00    -0.325 N 
ATOM     13  C   UNL A   1      33.196  27.028  22.506  1.00  0.00     0.228 C 
ATOM     14  O   UNL A   1      33.855  28.013  22.153  1.00  0.00    -0.274 OA
ATOM     15  H   UNL A   1      34.292  26.716  24.165  1.00  0.00     0.169 HD
BRANCH  13  16
ATOM     16  C   UNL A   1      31.769  26.818  21.981  1.00  0.00     0.135 C 
BRANCH  16  17
ATOM     17  C   UNL A   1      30.653  27.733  22.431  1.00  0.00    -0.038 A 
ATOM     18  C   UNL A   1      28.421  29.358  23.091  1.00  0.00     0.118 A 
ATOM     19  C   UNL A   1      29.574  29.912  22.528  1.00  0.00     0.047 A 
ATOM     20  C   UNL A   1      28.441  28.014  23.454  1.00  0.00     0.047 A 
ATOM     21  C   UNL A   1      30.678  29.111  22.191  1.00  0.00     0.008 A 
ATOM     22  C   UNL A   1      29.553  27.214  23.137  1.00  0.00     0.008 A 
BRANCH  18  23
ATOM     23  O   UNL A   1      27.367  30.218  23.210  1.00  0.00    -0.497 OA
ATOM     24  C   UNL A   1      27.615  31.589  23.508  1.00  0.00     0.278 C 
ENDBRANCH  18  23
ENDBRANCH  16  17
ENDBRANCH  13  16
ENDBRANCH   7  12
BRANCH  11  25
ATOM     25  N   UNL A   1      33.659  20.943  25.143  1.00  0.00    -0.360 N 
ATOM     26  C   UNL A   1      35.000  20.361  25.321  1.00  0.00     0.178 C 
ATOM     27  C   UNL A   1      32.534  20.035  25.427  1.00  0.00     0.178 C 
ATOM     28  C   UNL A   1      35.113  18.983  24.626  1.00  0.00     0.283 C 
ATOM     29  C   UNL A   1      32.735  18.663  24.734  1.00  0.00     0.283 C 
ATOM     30  N   UNL A   1      34.043  18.055  25.053  1.00  0.00    -0.334 N 
ATOM     31  C   UNL A   1      34.189  16.751  24.415  1.00  0.00     0.332 C 
ATOM     32  H   UNL A   1      34.110  17.899  26.059  1.00  0.00     0.347 HD
ENDBRANCH  11  25
ENDBRANCH   4   6
ENDBRANCH   3   4
ENDBRANCH   2   3
ENDBRANCH   1   2
BRANCH   1  33
ATOM     33  O   UNL A   1      32.267  29.874  27.380  1.00  0.00    -0.374 OA
BRANCH  33  34
ATOM     34  C   UNL A   1      31.892  30.950  26.532  1.00  0.00     0.202 C 
BRANCH  34  35
ATOM     35  C   UNL A   1      31.920  32.298  27.259  1.00  0.00     0.261 C 
BRANCH  35  36
ATOM     36  O   UNL A   1      33.185  32.956  27.120  1.00  0.00    -0.460 OA
BRANCH  36  37
ATOM     37  C   UNL A   1      33.773  33.226  28.313  1.00  0.00     0.338 C 
ATOM     38  O   UNL A   1      33.327  33.887  29.238  1.00  0.00    -0.246 OA
BRANCH  37  39
ATOM     39  C   UNL A   1      35.046  32.499  28.394  1.00  0.00     0.060 A 
ATOM     40  C   UNL A   1      35.014  31.103  28.505  1.00  0.00     0.016 A 
ATOM     41  C   UNL A   1      36.251  33.203  28.444  1.00  0.00     0.016 A 
ATOM     42  C   UNL A   1      36.186  30.412  28.785  1.00  0.00     0.010 A 
ATOM     43  C   UNL A   1      37.422  32.514  28.741  1.00  0.00     0.010 A 
ATOM     44  C   UNL A   1      37.372  31.130  28.984  1.00  0.00    -0.014 A 
BRANCH  44  45
ATOM     45  C   UNL A   1      38.473  30.488  29.731  1.00  0.00     0.031 A 
ATOM     46  C   UNL A   1      38.686  30.913  31.159  1.00  0.00     0.074 A 
ATOM     47  C   UNL A   1      39.223  29.529  29.169  1.00  0.00     0.049 A 
ATOM     48  N   UNL A   1      39.596  30.531  32.016  1.00  0.00    -0.248 NA
ATOM     49  C   UNL A   1      37.738  31.906  31.693  1.00  0.00     0.031 C 
ATOM     50  C   UNL A   1      39.055  29.015  27.812  1.00  0.00     0.029 A 
ATOM     51  N   UNL A   1      40.279  28.820  29.675  1.00  0.00    -0.354 N 
ATOM     52  C   UNL A   1      39.334  31.242  33.182  1.00  0.00     0.074 A 
ATOM     53  C   UNL A   1      38.202  32.101  32.917  1.00  0.00     0.031 C 
ATOM     54  C   UNL A   1      39.986  28.073  27.589  1.00  0.00     0.029 A 
ATOM     55  C   UNL A   1      40.834  27.950  28.773  1.00  0.00     0.049 A 
ATOM     56  H   UNL A   1      40.607  28.925  30.598  1.00  0.00     0.167 HD
ATOM     57  C   UNL A   1      39.978  31.175  34.370  1.00  0.00     0.037 A 
ATOM     58  C   UNL A   1      41.921  27.165  28.893  1.00  0.00     0.037 A 
ATOM     59  C   UNL A   1      41.106  30.316  34.611  1.00  0.00     0.049 A 
ATOM     60  C   UNL A   1      42.668  27.162  30.204  1.00  0.00     0.074 A 
ATOM     61  C   UNL A   1      41.842  30.159  35.771  1.00  0.00     0.029 A 
ATOM     62  N   UNL A   1      41.665  29.469  33.661  1.00  0.00    -0.354 N 
ATOM     63  N   UNL A   1      42.415  27.827  31.305  1.00  0.00    -0.248 NA
ATOM     64  C   UNL A   1      43.847  26.292  30.288  1.00  0.00     0.031 C 
ATOM     65  C   UNL A   1      42.884  29.265  35.505  1.00  0.00     0.029 A 
ATOM     66  C   UNL A   1      42.754  28.808  34.202  1.00  0.00     0.049 A 
ATOM     67  H   UNL A   1      41.335  29.358  32.741  1.00  0.00     0.167 HD
ATOM     68  C   UNL A   1      43.381  27.435  32.223  1.00  0.00     0.074 A 
ATOM     69  C   UNL A   1      44.215  26.459  31.550  1.00  0.00     0.031 C 
ATOM     70  C   UNL A   1      43.563  27.837  33.507  1.00  0.00     0.037 A 
BRANCH  57  71
ATOM     71  C   UNL A   1      39.508  32.083  35.470  1.00  0.00     0.064 A 
ATOM     72  C   UNL A   1      40.052  33.363  35.664  1.00  0.00     0.173 A 
ATOM     73  C   UNL A   1      38.486  31.671  36.337  1.00  0.00     0.173 A 
ATOM     74  F   UNL A   1      41.045  33.801  34.875  1.00  0.00    -0.203 F 
ATOM     75  C   UNL A   1      39.610  34.181  36.701  1.00  0.00     0.198 A 
ATOM     76  C   UNL A   1      38.022  32.505  37.351  1.00  0.00     0.198 A 
ATOM     77  F   UNL A   1      37.929  30.458  36.199  1.00  0.00    -0.203 F 
ATOM     78  F   UNL A   1      40.182  35.377  36.900  1.00  0.00    -0.200 F 
ATOM     79  C   UNL A   1      38.590  33.755  37.538  1.00  0.00     0.200 A 
ATOM     80  F   UNL A   1      37.028  32.095  38.152  1.00  0.00    -0.200 F 
ATOM     81  F   UNL A   1      38.160  34.547  38.530  1.00  0.00    -0.200 F 
ENDBRANCH  57  71
BRANCH  58  82
ATOM     82  C   UNL A   1      42.371  26.336  27.745  1.00  0.00     0.064 A 
ATOM     83  C   UNL A   1      41.854  25.052  27.527  1.00  0.00     0.173 A 
ATOM     84  C   UNL A   1      43.337  26.810  26.844  1.00  0.00     0.173 A 
ATOM     85  F   UNL A   1      40.945  24.544  28.371  1.00  0.00    -0.203 F 
ATOM     86  C   UNL A   1      42.302  24.266  26.466  1.00  0.00     0.198 A 
ATOM     87  C   UNL A   1      43.760  26.036  25.766  1.00  0.00     0.198 A 
ATOM     88  F   UNL A   1      43.867  28.032  27.007  1.00  0.00    -0.203 F 
ATOM     89  F   UNL A   1      41.829  23.021  26.313  1.00  0.00    -0.200 F 
ATOM     90  C   UNL A   1      43.249  24.761  25.583  1.00  0.00     0.200 A 
ATOM     91  F   UNL A   1      44.666  26.524  24.907  1.00  0.00    -0.200 F 
ATOM     92  F   UNL A   1      43.677  24.005  24.563  1.00  0.00    -0.200 F 
ENDBRANCH  58  82
BRANCH  70  93
ATOM     93  C   UNL A   1      44.677  27.188  34.277  1.00  0.00     0.064 A 
ATOM     94  C   UNL A   1      46.010  27.603  34.145  1.00  0.00     0.173 A 
ATOM     95  C   UNL A   1      44.398  26.154  35.184  1.00  0.00     0.173 A 
ATOM     96  F   UNL A   1      46.333  28.580  33.283  1.00  0.00    -0.203 F 
ATOM     97  C   UNL A   1      47.027  26.981  34.865  1.00  0.00     0.198 A 
ATOM     98  C   UNL A   1      45.412  25.561  35.930  1.00  0.00     0.198 A 
ATOM     99  F   UNL A   1      43.138  25.727  35.357  1.00  0.00    -0.203 F 
ATOM    100  F   UNL A   1      48.302  27.351  34.676  1.00  0.00    -0.200 F 
ATOM    101  C   UNL A   1      46.726  25.966  35.761  1.00  0.00     0.200 A 
ATOM    102  F   UNL A   1      45.115  24.595  36.811  1.00  0.00    -0.200 F 
ATOM    103  F   UNL A   1      47.706  25.373  36.457  1.00  0.00    -0.200 F 
ENDBRANCH  70  93
ENDBRANCH  44  45
ENDBRANCH  37  39
ENDBRANCH  36  37
ENDBRANCH  35  36
ENDBRANCH  34  35
ENDBRANCH  33  34
ENDBRANCH   1  33
TORSDOF 19
ENDMDL
