MODEL 1
REMARK VINA RESULT:     -12.2      0.000      0.000
REMARK SMILES COc1ccc2c(c1)c(CC(=O)OCCOCCOC(=O)c1ccc(-c3c4nc(c(-c5c(F)c(F)c(F)c(F)c5F)c5ccc([nH]5)c(-c5c(F)c(F)c(F)c(F)c5F)c5nc(c(-c6c(F)c(F)c(F)c(F)c6F)c6ccc3[nH]6)C=C5)C=C4)cc1)c(C)n2Cc1ccn(C(F)F)c(=O)c1
REMARK SMILES IDX 15 1 14 2 13 3 11 4 12 5 10 6 9 7 3 8 4 9 8 10 5 11 7 12
REMARK SMILES IDX 6 13 87 14 85 15 86 16 2 17 1 18 88 19 89 20 90 21 98 22
REMARK SMILES IDX 91 23 96 24 92 25 97 26 93 27 94 28 95 29 16 30 17 31 18 32
REMARK SMILES IDX 19 33 20 34 21 35 22 36 23 37 84 38 24 39 83 40 25 41 26 42
REMARK SMILES IDX 27 43 77 44 28 45 82 46 76 47 78 48 29 49 81 50 75 51 74 52
REMARK SMILES IDX 30 54 62 55 42 56 61 57 43 58 46 59 60 60 79 61 44 62 45 63
REMARK SMILES IDX 59 65 80 66 47 67 31 68 32 69 40 70 33 71 34 72 38 73 41 74
REMARK SMILES IDX 35 75 36 76 39 77 37 78 63 79 64 80 72 81 65 82 66 83 70 84
REMARK SMILES IDX 73 85 67 86 68 87 71 88 69 89 48 90 49 91 57 92 50 93 51 94
REMARK SMILES IDX 55 95 58 96 52 97 53 98 56 99 54 100
REMARK H PARENT 78 53 46 64
REMARK Flexibility Score: inf
ROOT
ATOM      1  C   UNL A   1      34.815  23.225  25.134  1.00  0.00     0.202 C 
ENDROOT
BRANCH   1   2
ATOM      2  C   UNL A   1      33.998  23.961  26.205  1.00  0.00     0.261 C 
BRANCH   2   3
ATOM      3  O   UNL A   1      32.663  23.452  26.422  1.00  0.00    -0.463 OA
BRANCH   3   4
ATOM      4  C   UNL A   1      31.724  24.048  25.650  1.00  0.00     0.310 C 
ATOM      5  O   UNL A   1      31.268  23.518  24.636  1.00  0.00    -0.252 OA
BRANCH   4   6
ATOM      6  C   UNL A   1      31.210  25.408  26.101  1.00  0.00     0.160 C 
BRANCH   6   7
ATOM      7  C   UNL A   1      31.840  26.740  25.698  1.00  0.00    -0.008 A 
ATOM      8  C   UNL A   1      33.702  27.069  22.359  1.00  0.00     0.119 A 
ATOM      9  C   UNL A   1      33.810  28.454  22.371  1.00  0.00     0.048 A 
ATOM     10  C   UNL A   1      33.259  26.372  23.500  1.00  0.00     0.057 A 
ATOM     11  C   UNL A   1      33.475  29.175  23.528  1.00  0.00     0.031 A 
ATOM     12  C   UNL A   1      32.714  27.091  24.598  1.00  0.00     0.007 A 
ATOM     13  C   UNL A   1      32.895  28.486  24.621  1.00  0.00     0.049 A 
ATOM     14  N   UNL A   1      32.393  28.935  25.839  1.00  0.00    -0.340 N 
ATOM     15  C   UNL A   1      31.870  27.852  26.528  1.00  0.00     0.020 A 
ATOM     16  C   UNL A   1      31.440  27.862  27.947  1.00  0.00     0.065 C 
BRANCH   8  17
ATOM     17  O   UNL A   1      33.694  26.335  21.196  1.00  0.00    -0.497 OA
ATOM     18  C   UNL A   1      32.624  25.411  21.067  1.00  0.00     0.278 C 
ENDBRANCH   8  17
BRANCH  14  19
ATOM     19  C   UNL A   1      32.529  30.318  26.349  1.00  0.00     0.158 C 
BRANCH  19  20
ATOM     20  C   UNL A   1      33.811  30.586  27.118  1.00  0.00    -0.021 A 
ATOM     21  C   UNL A   1      34.023  31.876  27.741  1.00  0.00     0.024 A 
ATOM     22  C   UNL A   1      34.778  29.662  27.279  1.00  0.00     0.077 A 
ATOM     23  C   UNL A   1      35.230  32.269  28.141  1.00  0.00     0.095 A 
ATOM     24  C   UNL A   1      36.118  30.060  27.798  1.00  0.00     0.255 A 
ATOM     25  N   UNL A   1      36.289  31.389  28.121  1.00  0.00    -0.258 N 
ATOM     26  O   UNL A   1      37.009  29.184  27.861  1.00  0.00    -0.269 OA
BRANCH  25  27
ATOM     27  C   UNL A   1      37.602  31.847  28.488  1.00  0.00     0.451 C 
ATOM     28  F   UNL A   1      37.569  33.119  28.948  1.00  0.00    -0.185 F 
ATOM     29  F   UNL A   1      38.129  31.057  29.457  1.00  0.00    -0.185 F 
ENDBRANCH  25  27
ENDBRANCH  19  20
ENDBRANCH  14  19
ENDBRANCH   6   7
ENDBRANCH   4   6
ENDBRANCH   3   4
ENDBRANCH   2   3
ENDBRANCH   1   2
BRANCH   1  30
ATOM     30  O   UNL A   1      35.387  21.961  25.380  1.00  0.00    -0.374 OA
BRANCH  30  31
ATOM     31  C   UNL A   1      36.644  21.764  24.749  1.00  0.00     0.202 C 
BRANCH  31  32
ATOM     32  C   UNL A   1      37.991  21.804  25.531  1.00  0.00     0.261 C 
BRANCH  32  33
ATOM     33  O   UNL A   1      38.466  23.014  26.138  1.00  0.00    -0.460 OA
BRANCH  33  34
ATOM     34  C   UNL A   1      39.538  22.880  26.953  1.00  0.00     0.338 C 
ATOM     35  O   UNL A   1      40.233  21.887  27.073  1.00  0.00    -0.246 OA
BRANCH  34  36
ATOM     36  C   UNL A   1      40.031  24.275  27.185  1.00  0.00     0.060 A 
ATOM     37  C   UNL A   1      41.334  24.669  27.513  1.00  0.00     0.016 A 
ATOM     38  C   UNL A   1      38.997  25.150  27.514  1.00  0.00     0.016 A 
ATOM     39  C   UNL A   1      41.492  25.800  28.407  1.00  0.00     0.010 A 
ATOM     40  C   UNL A   1      39.284  26.377  28.092  1.00  0.00     0.010 A 
ATOM     41  C   UNL A   1      40.341  26.490  28.985  1.00  0.00    -0.014 A 
BRANCH  41  42
ATOM     42  C   UNL A   1      40.260  27.855  29.841  1.00  0.00     0.031 A 
ATOM     43  C   UNL A   1      41.360  28.659  28.885  1.00  0.00     0.074 A 
ATOM     44  C   UNL A   1      39.438  28.311  31.021  1.00  0.00     0.049 A 
ATOM     45  N   UNL A   1      42.642  28.651  29.133  1.00  0.00    -0.248 NA
ATOM     46  C   UNL A   1      41.260  28.977  27.383  1.00  0.00     0.031 C 
ATOM     47  C   UNL A   1      38.338  27.732  32.019  1.00  0.00     0.029 A 
ATOM     48  N   UNL A   1      39.451  29.569  31.749  1.00  0.00    -0.354 N 
ATOM     49  C   UNL A   1      43.235  29.523  28.208  1.00  0.00     0.074 A 
ATOM     50  C   UNL A   1      42.467  29.445  27.032  1.00  0.00     0.031 C 
ATOM     51  C   UNL A   1      37.664  28.698  32.766  1.00  0.00     0.029 A 
ATOM     52  C   UNL A   1      38.268  29.995  32.556  1.00  0.00     0.049 A 
ATOM     53  H   UNL A   1      40.247  30.145  31.711  1.00  0.00     0.167 HD
ATOM     54  C   UNL A   1      43.985  30.545  28.685  1.00  0.00     0.037 A 
ATOM     55  C   UNL A   1      38.010  31.219  33.233  1.00  0.00     0.037 A 
ATOM     56  C   UNL A   1      44.257  30.249  30.066  1.00  0.00     0.049 A 
ATOM     57  C   UNL A   1      39.312  31.938  33.173  1.00  0.00     0.074 A 
ATOM     58  C   UNL A   1      44.892  29.201  30.700  1.00  0.00     0.029 A 
ATOM     59  N   UNL A   1      43.256  30.685  30.888  1.00  0.00    -0.354 N 
ATOM     60  N   UNL A   1      40.334  31.501  33.864  1.00  0.00    -0.248 NA
ATOM     61  C   UNL A   1      39.571  32.510  31.847  1.00  0.00     0.031 C 
ATOM     62  C   UNL A   1      44.087  28.886  31.831  1.00  0.00     0.029 A 
ATOM     63  C   UNL A   1      43.121  29.876  31.973  1.00  0.00     0.049 A 
ATOM     64  H   UNL A   1      42.703  31.481  30.716  1.00  0.00     0.167 HD
ATOM     65  C   UNL A   1      41.281  31.233  32.892  1.00  0.00     0.074 A 
ATOM     66  C   UNL A   1      40.748  31.895  31.651  1.00  0.00     0.031 C 
ATOM     67  C   UNL A   1      42.153  30.168  32.993  1.00  0.00     0.037 A 
BRANCH  54  68
ATOM     68  C   UNL A   1      44.006  31.964  28.171  1.00  0.00     0.064 A 
ATOM     69  C   UNL A   1      44.780  32.189  27.019  1.00  0.00     0.173 A 
ATOM     70  C   UNL A   1      43.560  33.122  28.848  1.00  0.00     0.173 A 
ATOM     71  F   UNL A   1      45.280  31.152  26.331  1.00  0.00    -0.203 F 
ATOM     72  C   UNL A   1      45.107  33.469  26.582  1.00  0.00     0.198 A 
ATOM     73  C   UNL A   1      43.853  34.409  28.379  1.00  0.00     0.198 A 
ATOM     74  F   UNL A   1      42.906  33.061  30.016  1.00  0.00    -0.203 F 
ATOM     75  F   UNL A   1      45.909  33.615  25.520  1.00  0.00    -0.200 F 
ATOM     76  C   UNL A   1      44.637  34.580  27.255  1.00  0.00     0.200 A 
ATOM     77  F   UNL A   1      43.407  35.484  29.049  1.00  0.00    -0.200 F 
ATOM     78  F   UNL A   1      44.960  35.810  26.834  1.00  0.00    -0.200 F 
ENDBRANCH  54  68
BRANCH  55  79
ATOM     79  C   UNL A   1      36.695  32.052  33.425  1.00  0.00     0.064 A 
ATOM     80  C   UNL A   1      36.327  33.077  34.373  1.00  0.00     0.173 A 
ATOM     81  C   UNL A   1      35.822  31.988  32.333  1.00  0.00     0.173 A 
ATOM     82  F   UNL A   1      37.052  33.309  35.481  1.00  0.00    -0.203 F 
ATOM     83  C   UNL A   1      35.184  33.929  34.191  1.00  0.00     0.198 A 
ATOM     84  C   UNL A   1      34.719  32.834  32.145  1.00  0.00     0.198 A 
ATOM     85  F   UNL A   1      36.084  31.128  31.344  1.00  0.00    -0.203 F 
ATOM     86  F   UNL A   1      34.865  34.882  35.087  1.00  0.00    -0.200 F 
ATOM     87  C   UNL A   1      34.397  33.810  33.061  1.00  0.00     0.200 A 
ATOM     88  F   UNL A   1      33.998  32.710  31.023  1.00  0.00    -0.200 F 
ATOM     89  F   UNL A   1      33.359  34.634  32.835  1.00  0.00    -0.200 F 
ENDBRANCH  55  79
BRANCH  67  90
ATOM     90  C   UNL A   1      42.230  29.249  34.213  1.00  0.00     0.064 A 
ATOM     91  C   UNL A   1      41.797  27.903  34.303  1.00  0.00     0.173 A 
ATOM     92  C   UNL A   1      43.093  29.663  35.230  1.00  0.00     0.173 A 
ATOM     93  F   UNL A   1      41.198  27.301  33.275  1.00  0.00    -0.203 F 
ATOM     94  C   UNL A   1      42.096  27.086  35.408  1.00  0.00     0.198 A 
ATOM     95  C   UNL A   1      43.455  28.827  36.289  1.00  0.00     0.198 A 
ATOM     96  F   UNL A   1      43.703  30.851  35.126  1.00  0.00    -0.203 F 
ATOM     97  F   UNL A   1      41.635  25.823  35.468  1.00  0.00    -0.200 F 
ATOM     98  C   UNL A   1      42.928  27.553  36.403  1.00  0.00     0.200 A 
ATOM     99  F   UNL A   1      44.373  29.245  37.169  1.00  0.00    -0.200 F 
ATOM    100  F   UNL A   1      43.271  26.765  37.433  1.00  0.00    -0.200 F 
ENDBRANCH  67  90
ENDBRANCH  41  42
ENDBRANCH  34  36
ENDBRANCH  33  34
ENDBRANCH  32  33
ENDBRANCH  31  32
ENDBRANCH  30  31
ENDBRANCH   1  30
TORSDOF 19
ENDMDL
MODEL 2
REMARK VINA RESULT:     -11.4      3.608      5.916
REMARK SMILES COc1ccc2c(c1)c(CC(=O)OCCOCCOC(=O)c1ccc(-c3c4nc(c(-c5c(F)c(F)c(F)c(F)c5F)c5ccc([nH]5)c(-c5c(F)c(F)c(F)c(F)c5F)c5nc(c(-c6c(F)c(F)c(F)c(F)c6F)c6ccc3[nH]6)C=C5)C=C4)cc1)c(C)n2Cc1ccn(C(F)F)c(=O)c1
REMARK SMILES IDX 15 1 14 2 13 3 11 4 12 5 10 6 9 7 3 8 4 9 8 10 5 11 7 12
REMARK SMILES IDX 6 13 87 14 85 15 86 16 2 17 1 18 88 19 89 20 90 21 98 22
REMARK SMILES IDX 91 23 96 24 92 25 97 26 93 27 94 28 95 29 16 30 17 31 18 32
REMARK SMILES IDX 19 33 20 34 21 35 22 36 23 37 84 38 24 39 83 40 25 41 26 42
REMARK SMILES IDX 27 43 77 44 28 45 82 46 76 47 78 48 29 49 81 50 75 51 74 52
REMARK SMILES IDX 30 54 62 55 42 56 61 57 43 58 46 59 60 60 79 61 44 62 45 63
REMARK SMILES IDX 59 65 80 66 47 67 31 68 32 69 40 70 33 71 34 72 38 73 41 74
REMARK SMILES IDX 35 75 36 76 39 77 37 78 63 79 64 80 72 81 65 82 66 83 70 84
REMARK SMILES IDX 73 85 67 86 68 87 71 88 69 89 48 90 49 91 57 92 50 93 51 94
REMARK SMILES IDX 55 95 58 96 52 97 53 98 56 99 54 100
REMARK H PARENT 78 53 46 64
REMARK Flexibility Score: inf
ROOT
ATOM      1  C   UNL A   1      39.889  21.804  26.839  1.00  0.00     0.202 C 
ENDROOT
BRANCH   1   2
ATOM      2  C   UNL A   1      39.346  23.028  26.088  1.00  0.00     0.261 C 
BRANCH   2   3
ATOM      3  O   UNL A   1      38.164  23.632  26.660  1.00  0.00    -0.463 OA
BRANCH   3   4
ATOM      4  C   UNL A   1      37.072  23.547  25.864  1.00  0.00     0.310 C 
ATOM      5  O   UNL A   1      37.134  23.677  24.641  1.00  0.00    -0.252 OA
BRANCH   4   6
ATOM      6  C   UNL A   1      35.741  23.245  26.537  1.00  0.00     0.160 C 
BRANCH   6   7
ATOM      7  C   UNL A   1      34.460  22.888  25.783  1.00  0.00    -0.008 A 
ATOM      8  C   UNL A   1      31.297  25.014  26.226  1.00  0.00     0.119 A 
ATOM      9  C   UNL A   1      30.581  24.458  25.173  1.00  0.00     0.048 A 
ATOM     10  C   UNL A   1      32.506  24.435  26.658  1.00  0.00     0.057 A 
ATOM     11  C   UNL A   1      31.061  23.308  24.527  1.00  0.00     0.031 A 
ATOM     12  C   UNL A   1      33.114  23.409  25.886  1.00  0.00     0.007 A 
ATOM     13  C   UNL A   1      32.344  22.815  24.868  1.00  0.00     0.049 A 
ATOM     14  N   UNL A   1      33.104  21.770  24.350  1.00  0.00    -0.340 N 
ATOM     15  C   UNL A   1      34.330  21.752  24.997  1.00  0.00     0.020 A 
ATOM     16  C   UNL A   1      35.338  20.668  24.898  1.00  0.00     0.065 C 
BRANCH   8  17
ATOM     17  O   UNL A   1      31.074  26.291  26.683  1.00  0.00    -0.497 OA
ATOM     18  C   UNL A   1      31.861  27.302  26.073  1.00  0.00     0.278 C 
ENDBRANCH   8  17
BRANCH  14  19
ATOM     19  C   UNL A   1      32.613  20.775  23.370  1.00  0.00     0.158 C 
BRANCH  19  20
ATOM     20  C   UNL A   1      32.705  19.331  23.835  1.00  0.00    -0.021 A 
ATOM     21  C   UNL A   1      32.298  18.978  25.178  1.00  0.00     0.024 A 
ATOM     22  C   UNL A   1      33.131  18.330  23.040  1.00  0.00     0.077 A 
ATOM     23  C   UNL A   1      32.649  17.819  25.733  1.00  0.00     0.095 A 
ATOM     24  C   UNL A   1      33.459  16.997  23.623  1.00  0.00     0.255 A 
ATOM     25  N   UNL A   1      33.276  16.851  24.981  1.00  0.00    -0.258 N 
ATOM     26  O   UNL A   1      33.923  16.119  22.861  1.00  0.00    -0.269 OA
BRANCH  25  27
ATOM     27  C   UNL A   1      33.713  15.634  25.610  1.00  0.00     0.451 C 
ATOM     28  F   UNL A   1      33.026  14.565  25.144  1.00  0.00    -0.185 F 
ATOM     29  F   UNL A   1      35.033  15.425  25.378  1.00  0.00    -0.185 F 
ENDBRANCH  25  27
ENDBRANCH  19  20
ENDBRANCH  14  19
ENDBRANCH   6   7
ENDBRANCH   4   6
ENDBRANCH   3   4
ENDBRANCH   2   3
ENDBRANCH   1   2
BRANCH   1  30
ATOM     30  O   UNL A   1      40.522  20.742  26.161  1.00  0.00    -0.374 OA
BRANCH  30  31
ATOM     31  C   UNL A   1      41.919  20.658  26.401  1.00  0.00     0.202 C 
BRANCH  31  32
ATOM     32  C   UNL A   1      42.909  21.793  25.999  1.00  0.00     0.261 C 
BRANCH  32  33
ATOM     33  O   UNL A   1      43.424  22.713  26.972  1.00  0.00    -0.460 OA
BRANCH  33  34
ATOM     34  C   UNL A   1      43.764  23.935  26.502  1.00  0.00     0.338 C 
ATOM     35  O   UNL A   1      44.497  24.166  25.558  1.00  0.00    -0.246 OA
BRANCH  34  36
ATOM     36  C   UNL A   1      42.659  24.846  26.939  1.00  0.00     0.060 A 
ATOM     37  C   UNL A   1      41.792  25.580  26.121  1.00  0.00     0.016 A 
ATOM     38  C   UNL A   1      42.832  25.292  28.248  1.00  0.00     0.016 A 
ATOM     39  C   UNL A   1      41.366  26.886  26.588  1.00  0.00     0.010 A 
ATOM     40  C   UNL A   1      42.120  26.390  28.708  1.00  0.00     0.010 A 
ATOM     41  C   UNL A   1      41.848  27.445  27.849  1.00  0.00    -0.014 A 
BRANCH  41  42
ATOM     42  C   UNL A   1      41.389  28.768  28.651  1.00  0.00     0.031 A 
ATOM     43  C   UNL A   1      42.697  29.669  28.152  1.00  0.00     0.074 A 
ATOM     44  C   UNL A   1      40.183  29.131  29.481  1.00  0.00     0.049 A 
ATOM     45  N   UNL A   1      43.812  29.719  28.829  1.00  0.00    -0.248 NA
ATOM     46  C   UNL A   1      43.101  30.042  26.715  1.00  0.00     0.031 C 
ATOM     47  C   UNL A   1      38.846  28.453  30.024  1.00  0.00     0.029 A 
ATOM     48  N   UNL A   1      39.862  30.356  30.193  1.00  0.00    -0.354 N 
ATOM     49  C   UNL A   1      44.631  30.658  28.185  1.00  0.00     0.074 A 
ATOM     50  C   UNL A   1      44.323  30.588  26.814  1.00  0.00     0.031 C 
ATOM     51  C   UNL A   1      37.894  29.351  30.509  1.00  0.00     0.029 A 
ATOM     52  C   UNL A   1      38.449  30.686  30.548  1.00  0.00     0.049 A 
ATOM     53  H   UNL A   1      40.585  30.976  30.445  1.00  0.00     0.167 HD
ATOM     54  C   UNL A   1      45.102  31.699  28.913  1.00  0.00     0.037 A 
ATOM     55  C   UNL A   1      37.895  31.865  31.118  1.00  0.00     0.037 A 
ATOM     56  C   UNL A   1      44.900  31.361  30.296  1.00  0.00     0.049 A 
ATOM     57  C   UNL A   1      39.088  32.655  31.527  1.00  0.00     0.074 A 
ATOM     58  C   UNL A   1      45.343  30.323  31.090  1.00  0.00     0.029 A 
ATOM     59  N   UNL A   1      43.651  31.709  30.728  1.00  0.00    -0.354 N 
ATOM     60  N   UNL A   1      39.836  32.245  32.521  1.00  0.00    -0.248 NA
ATOM     61  C   UNL A   1      39.752  33.293  30.385  1.00  0.00     0.031 C 
ATOM     62  C   UNL A   1      44.219  29.920  31.864  1.00  0.00     0.029 A 
ATOM     63  C   UNL A   1      43.202  30.850  31.683  1.00  0.00     0.049 A 
ATOM     64  H   UNL A   1      43.142  32.481  30.391  1.00  0.00     0.167 HD
ATOM     65  C   UNL A   1      41.075  32.068  31.933  1.00  0.00     0.074 A 
ATOM     66  C   UNL A   1      40.962  32.751  30.598  1.00  0.00     0.031 C 
ATOM     67  C   UNL A   1      41.925  31.048  32.309  1.00  0.00     0.037 A 
BRANCH  54  68
ATOM     68  C   UNL A   1      45.208  33.136  28.466  1.00  0.00     0.064 A 
ATOM     69  C   UNL A   1      46.492  33.706  28.528  1.00  0.00     0.173 A 
ATOM     70  C   UNL A   1      44.143  34.041  28.247  1.00  0.00     0.173 A 
ATOM     71  F   UNL A   1      47.561  32.933  28.770  1.00  0.00    -0.203 F 
ATOM     72  C   UNL A   1      46.704  35.076  28.402  1.00  0.00     0.198 A 
ATOM     73  C   UNL A   1      44.365  35.413  28.075  1.00  0.00     0.198 A 
ATOM     74  F   UNL A   1      42.860  33.655  28.272  1.00  0.00    -0.203 F 
ATOM     75  F   UNL A   1      47.942  35.565  28.543  1.00  0.00    -0.200 F 
ATOM     76  C   UNL A   1      45.643  35.929  28.167  1.00  0.00     0.200 A 
ATOM     77  F   UNL A   1      43.328  36.238  27.864  1.00  0.00    -0.200 F 
ATOM     78  F   UNL A   1      45.851  37.247  28.053  1.00  0.00    -0.200 F 
ENDBRANCH  54  68
BRANCH  55  79
ATOM     79  C   UNL A   1      36.543  32.618  30.858  1.00  0.00     0.064 A 
ATOM     80  C   UNL A   1      35.644  33.326  31.739  1.00  0.00     0.173 A 
ATOM     81  C   UNL A   1      36.296  32.883  29.506  1.00  0.00     0.173 A 
ATOM     82  F   UNL A   1      35.732  33.219  33.076  1.00  0.00    -0.203 F 
ATOM     83  C   UNL A   1      34.616  34.204  31.254  1.00  0.00     0.198 A 
ATOM     84  C   UNL A   1      35.305  33.756  29.035  1.00  0.00     0.198 A 
ATOM     85  F   UNL A   1      37.100  32.345  28.584  1.00  0.00    -0.203 F 
ATOM     86  F   UNL A   1      33.793  34.859  32.096  1.00  0.00    -0.200 F 
ATOM     87  C   UNL A   1      34.467  34.427  29.898  1.00  0.00     0.200 A 
ATOM     88  F   UNL A   1      35.212  33.971  27.716  1.00  0.00    -0.200 F 
ATOM     89  F   UNL A   1      33.554  35.290  29.420  1.00  0.00    -0.200 F 
ENDBRANCH  55  79
BRANCH  67  90
ATOM     90  C   UNL A   1      41.635  30.085  33.461  1.00  0.00     0.064 A 
ATOM     91  C   UNL A   1      41.397  28.691  33.377  1.00  0.00     0.173 A 
ATOM     92  C   UNL A   1      41.951  30.555  34.738  1.00  0.00     0.173 A 
ATOM     93  F   UNL A   1      41.351  28.069  32.198  1.00  0.00    -0.203 F 
ATOM     94  C   UNL A   1      41.340  27.864  34.512  1.00  0.00     0.198 A 
ATOM     95  C   UNL A   1      41.971  29.720  35.857  1.00  0.00     0.198 A 
ATOM     96  F   UNL A   1      42.376  31.817  34.883  1.00  0.00    -0.203 F 
ATOM     97  F   UNL A   1      41.077  26.550  34.389  1.00  0.00    -0.200 F 
ATOM     98  C   UNL A   1      41.628  28.384  35.756  1.00  0.00     0.200 A 
ATOM     99  F   UNL A   1      42.391  30.209  37.031  1.00  0.00    -0.200 F 
ATOM    100  F   UNL A   1      41.636  27.596  36.842  1.00  0.00    -0.200 F 
ENDBRANCH  67  90
ENDBRANCH  41  42
ENDBRANCH  34  36
ENDBRANCH  33  34
ENDBRANCH  32  33
ENDBRANCH  31  32
ENDBRANCH  30  31
ENDBRANCH   1  30
TORSDOF 19
ENDMDL
MODEL 3
REMARK VINA RESULT:     -11.2      2.640      4.842
REMARK SMILES COc1ccc2c(c1)c(CC(=O)OCCOCCOC(=O)c1ccc(-c3c4nc(c(-c5c(F)c(F)c(F)c(F)c5F)c5ccc([nH]5)c(-c5c(F)c(F)c(F)c(F)c5F)c5nc(c(-c6c(F)c(F)c(F)c(F)c6F)c6ccc3[nH]6)C=C5)C=C4)cc1)c(C)n2Cc1ccn(C(F)F)c(=O)c1
REMARK SMILES IDX 15 1 14 2 13 3 11 4 12 5 10 6 9 7 3 8 4 9 8 10 5 11 7 12
REMARK SMILES IDX 6 13 87 14 85 15 86 16 2 17 1 18 88 19 89 20 90 21 98 22
REMARK SMILES IDX 91 23 96 24 92 25 97 26 93 27 94 28 95 29 16 30 17 31 18 32
REMARK SMILES IDX 19 33 20 34 21 35 22 36 23 37 84 38 24 39 83 40 25 41 26 42
REMARK SMILES IDX 27 43 77 44 28 45 82 46 76 47 78 48 29 49 81 50 75 51 74 52
REMARK SMILES IDX 30 54 62 55 42 56 61 57 43 58 46 59 60 60 79 61 44 62 45 63
REMARK SMILES IDX 59 65 80 66 47 67 31 68 32 69 40 70 33 71 34 72 38 73 41 74
REMARK SMILES IDX 35 75 36 76 39 77 37 78 63 79 64 80 72 81 65 82 66 83 70 84
REMARK SMILES IDX 73 85 67 86 68 87 71 88 69 89 48 90 49 91 57 92 50 93 51 94
REMARK SMILES IDX 55 95 58 96 52 97 53 98 56 99 54 100
REMARK H PARENT 78 53 46 64
REMARK Flexibility Score: inf
ROOT
ATOM      1  C   UNL A   1      42.651  19.609  26.219  1.00  0.00     0.202 C 
ENDROOT
BRANCH   1   2
ATOM      2  C   UNL A   1      41.300  19.964  26.854  1.00  0.00     0.261 C 
BRANCH   2   3
ATOM      3  O   UNL A   1      40.152  19.820  25.987  1.00  0.00    -0.463 OA
BRANCH   3   4
ATOM      4  C   UNL A   1      39.335  20.900  25.985  1.00  0.00     0.310 C 
ATOM      5  O   UNL A   1      39.519  21.870  26.722  1.00  0.00    -0.252 OA
BRANCH   4   6
ATOM      6  C   UNL A   1      38.175  20.895  25.000  1.00  0.00     0.160 C 
BRANCH   6   7
ATOM      7  C   UNL A   1      36.760  21.363  25.338  1.00  0.00    -0.008 A 
ATOM      8  C   UNL A   1      33.787  18.965  24.970  1.00  0.00     0.119 A 
ATOM      9  C   UNL A   1      32.859  19.757  25.636  1.00  0.00     0.048 A 
ATOM     10  C   UNL A   1      35.053  19.477  24.625  1.00  0.00     0.057 A 
ATOM     11  C   UNL A   1      33.178  21.082  25.971  1.00  0.00     0.031 A 
ATOM     12  C   UNL A   1      35.472  20.733  25.142  1.00  0.00     0.007 A 
ATOM     13  C   UNL A   1      34.498  21.546  25.751  1.00  0.00     0.049 A 
ATOM     14  N   UNL A   1      35.119  22.754  26.055  1.00  0.00    -0.340 N 
ATOM     15  C   UNL A   1      36.453  22.670  25.688  1.00  0.00     0.020 A 
ATOM     16  C   UNL A   1      37.404  23.808  25.640  1.00  0.00     0.065 C 
BRANCH   8  17
ATOM     17  O   UNL A   1      33.681  17.596  24.901  1.00  0.00    -0.497 OA
ATOM     18  C   UNL A   1      34.565  16.962  23.989  1.00  0.00     0.278 C 
ENDBRANCH   8  17
BRANCH  14  19
ATOM     19  C   UNL A   1      34.420  23.959  26.558  1.00  0.00     0.158 C 
BRANCH  19  20
ATOM     20  C   UNL A   1      34.048  24.969  25.486  1.00  0.00    -0.021 A 
ATOM     21  C   UNL A   1      33.490  26.250  25.865  1.00  0.00     0.024 A 
ATOM     22  C   UNL A   1      34.237  24.748  24.171  1.00  0.00     0.077 A 
ATOM     23  C   UNL A   1      32.863  27.027  24.984  1.00  0.00     0.095 A 
ATOM     24  C   UNL A   1      33.608  25.647  23.161  1.00  0.00     0.255 A 
ATOM     25  N   UNL A   1      32.870  26.705  23.646  1.00  0.00    -0.258 N 
ATOM     26  O   UNL A   1      33.747  25.361  21.951  1.00  0.00    -0.269 OA
BRANCH  25  27
ATOM     27  C   UNL A   1      32.128  27.513  22.715  1.00  0.00     0.451 C 
ATOM     28  F   UNL A   1      32.948  28.325  22.007  1.00  0.00    -0.185 F 
ATOM     29  F   UNL A   1      31.446  26.730  21.841  1.00  0.00    -0.185 F 
ENDBRANCH  25  27
ENDBRANCH  19  20
ENDBRANCH  14  19
ENDBRANCH   6   7
ENDBRANCH   4   6
ENDBRANCH   3   4
ENDBRANCH   2   3
ENDBRANCH   1   2
BRANCH   1  30
ATOM     30  O   UNL A   1      43.066  20.180  24.998  1.00  0.00    -0.374 OA
BRANCH  30  31
ATOM     31  C   UNL A   1      44.001  21.238  25.145  1.00  0.00     0.202 C 
BRANCH  31  32
ATOM     32  C   UNL A   1      43.760  22.659  24.551  1.00  0.00     0.261 C 
BRANCH  32  33
ATOM     33  O   UNL A   1      43.507  23.789  25.398  1.00  0.00    -0.460 OA
BRANCH  33  34
ATOM     34  C   UNL A   1      43.192  23.500  26.682  1.00  0.00     0.338 C 
ATOM     35  O   UNL A   1      43.906  22.937  27.490  1.00  0.00    -0.246 OA
BRANCH  34  36
ATOM     36  C   UNL A   1      42.127  24.485  27.056  1.00  0.00     0.060 A 
ATOM     37  C   UNL A   1      41.366  25.279  26.190  1.00  0.00     0.016 A 
ATOM     38  C   UNL A   1      42.248  24.915  28.376  1.00  0.00     0.016 A 
ATOM     39  C   UNL A   1      41.003  26.610  26.638  1.00  0.00     0.010 A 
ATOM     40  C   UNL A   1      41.586  26.058  28.798  1.00  0.00     0.010 A 
ATOM     41  C   UNL A   1      41.442  27.132  27.930  1.00  0.00    -0.014 A 
BRANCH  41  42
ATOM     42  C   UNL A   1      41.025  28.481  28.710  1.00  0.00     0.031 A 
ATOM     43  C   UNL A   1      42.321  29.354  28.137  1.00  0.00     0.074 A 
ATOM     44  C   UNL A   1      39.855  28.879  29.574  1.00  0.00     0.049 A 
ATOM     45  N   UNL A   1      43.462  29.412  28.769  1.00  0.00    -0.248 NA
ATOM     46  C   UNL A   1      42.674  29.683  26.676  1.00  0.00     0.031 C 
ATOM     47  C   UNL A   1      38.533  28.231  30.186  1.00  0.00     0.029 A 
ATOM     48  N   UNL A   1      39.573  30.128  30.263  1.00  0.00    -0.354 N 
ATOM     49  C   UNL A   1      44.264  30.324  28.068  1.00  0.00     0.074 A 
ATOM     50  C   UNL A   1      43.904  30.218  26.712  1.00  0.00     0.031 C 
ATOM     51  C   UNL A   1      37.609  29.152  30.682  1.00  0.00     0.029 A 
ATOM     52  C   UNL A   1      38.177  30.482  30.660  1.00  0.00     0.049 A 
ATOM     53  H   UNL A   1      40.310  30.747  30.469  1.00  0.00     0.167 HD
ATOM     54  C   UNL A   1      44.772  31.380  28.748  1.00  0.00     0.037 A 
ATOM     55  C   UNL A   1      37.655  31.682  31.217  1.00  0.00     0.037 A 
ATOM     56  C   UNL A   1      44.619  31.084  30.146  1.00  0.00     0.049 A 
ATOM     57  C   UNL A   1      38.871  32.471  31.558  1.00  0.00     0.074 A 
ATOM     58  C   UNL A   1      45.083  30.065  30.953  1.00  0.00     0.029 A 
ATOM     59  N   UNL A   1      43.391  31.457  30.615  1.00  0.00    -0.354 N 
ATOM     60  N   UNL A   1      39.652  32.082  32.535  1.00  0.00    -0.248 NA
ATOM     61  C   UNL A   1      39.496  33.070  30.375  1.00  0.00     0.031 C 
ATOM     62  C   UNL A   1      43.986  29.695  31.780  1.00  0.00     0.029 A 
ATOM     63  C   UNL A   1      42.971  30.630  31.611  1.00  0.00     0.049 A 
ATOM     64  H   UNL A   1      42.876  32.224  30.276  1.00  0.00     0.167 HD
ATOM     65  C   UNL A   1      40.866  31.876  31.906  1.00  0.00     0.074 A 
ATOM     66  C   UNL A   1      40.708  32.522  30.557  1.00  0.00     0.031 C 
ATOM     67  C   UNL A   1      41.720  30.859  32.278  1.00  0.00     0.037 A 
BRANCH  54  68
ATOM     68  C   UNL A   1      44.874  32.804  28.256  1.00  0.00     0.064 A 
ATOM     69  C   UNL A   1      46.169  33.348  28.214  1.00  0.00     0.173 A 
ATOM     70  C   UNL A   1      43.814  33.724  28.086  1.00  0.00     0.173 A 
ATOM     71  F   UNL A   1      47.238  32.560  28.403  1.00  0.00    -0.203 F 
ATOM     72  C   UNL A   1      46.398  34.710  28.037  1.00  0.00     0.198 A 
ATOM     73  C   UNL A   1      44.049  35.086  27.862  1.00  0.00     0.198 A 
ATOM     74  F   UNL A   1      42.528  33.366  28.209  1.00  0.00    -0.203 F 
ATOM     75  F   UNL A   1      47.652  35.176  28.080  1.00  0.00    -0.200 F 
ATOM     76  C   UNL A   1      45.340  35.578  27.853  1.00  0.00     0.200 A 
ATOM     77  F   UNL A   1      43.015  35.928  27.701  1.00  0.00    -0.200 F 
ATOM     78  F   UNL A   1      45.564  36.889  27.689  1.00  0.00    -0.200 F 
ENDBRANCH  54  68
BRANCH  55  79
ATOM     79  C   UNL A   1      36.302  32.441  30.987  1.00  0.00     0.064 A 
ATOM     80  C   UNL A   1      35.415  33.136  31.891  1.00  0.00     0.173 A 
ATOM     81  C   UNL A   1      36.038  32.728  29.643  1.00  0.00     0.173 A 
ATOM     82  F   UNL A   1      35.521  33.007  33.224  1.00  0.00    -0.203 F 
ATOM     83  C   UNL A   1      34.382  34.023  31.434  1.00  0.00     0.198 A 
ATOM     84  C   UNL A   1      35.042  33.611  29.198  1.00  0.00     0.198 A 
ATOM     85  F   UNL A   1      36.829  32.204  28.702  1.00  0.00    -0.203 F 
ATOM     86  F   UNL A   1      33.571  34.665  32.296  1.00  0.00    -0.200 F 
ATOM     87  C   UNL A   1      34.217  34.268  30.083  1.00  0.00     0.200 A 
ATOM     88  F   UNL A   1      34.933  33.847  27.885  1.00  0.00    -0.200 F 
ATOM     89  F   UNL A   1      33.299  35.140  29.631  1.00  0.00    -0.200 F 
ENDBRANCH  55  79
BRANCH  67  90
ATOM     90  C   UNL A   1      41.466  29.931  33.468  1.00  0.00     0.064 A 
ATOM     91  C   UNL A   1      41.217  28.537  33.433  1.00  0.00     0.173 A 
ATOM     92  C   UNL A   1      41.829  30.437  34.719  1.00  0.00     0.173 A 
ATOM     93  F   UNL A   1      41.126  27.882  32.275  1.00  0.00    -0.203 F 
ATOM     94  C   UNL A   1      41.195  27.744  34.594  1.00  0.00     0.198 A 
ATOM     95  C   UNL A   1      41.884  29.635  35.861  1.00  0.00     0.198 A 
ATOM     96  F   UNL A   1      42.267  31.700  34.811  1.00  0.00    -0.203 F 
ATOM     97  F   UNL A   1      40.920  26.429  34.518  1.00  0.00    -0.200 F 
ATOM     98  C   UNL A   1      41.530  28.298  35.811  1.00  0.00     0.200 A 
ATOM     99  F   UNL A   1      42.348  30.155  37.004  1.00  0.00    -0.200 F 
ATOM    100  F   UNL A   1      41.572  27.543  36.918  1.00  0.00    -0.200 F 
ENDBRANCH  67  90
ENDBRANCH  41  42
ENDBRANCH  34  36
ENDBRANCH  33  34
ENDBRANCH  32  33
ENDBRANCH  31  32
ENDBRANCH  30  31
ENDBRANCH   1  30
TORSDOF 19
ENDMDL
