MODEL 1
REMARK VINA RESULT:     -10.3      0.000      0.000
REMARK SMILES Cc1nc2n(n1)[C@@H](c1ccc([N+](=O)[O-])o1)CC(C(=O)OCCOCCOC(=O)c1ccc(-c3c4nc(c(-c5c(F)c(F)c(F)c(F)c5F)c5ccc([nH]5)c(-c5c(F)c(F)c(F)c(F)c5F)c5nc(c(-c6c(F)c(F)c(F)c(F)c6F)c6ccc3[nH]6)C=C5)C=C4)cc1)=N2
REMARK SMILES IDX 23 1 22 2 21 3 20 4 18 5 19 6 17 7 1 8 2 9 3 10 6 11 4 12
REMARK SMILES IDX 5 13 92 14 7 15 16 16 8 17 9 18 15 19 10 20 11 21 12 22
REMARK SMILES IDX 13 23 14 24 24 25 25 26 26 27 27 28 28 29 29 30 30 31 91 32
REMARK SMILES IDX 31 33 90 34 32 35 33 36 34 37 84 38 35 39 89 40 83 41 85 42
REMARK SMILES IDX 36 43 88 44 82 45 81 46 37 48 69 49 49 50 68 51 50 52 53 53
REMARK SMILES IDX 67 54 86 55 51 56 52 57 66 59 87 60 54 61 38 62 39 63 47 64
REMARK SMILES IDX 40 65 41 66 45 67 48 68 42 69 43 70 46 71 44 72 70 73 71 74
REMARK SMILES IDX 79 75 72 76 73 77 77 78 80 79 74 80 75 81 78 82 76 83 55 84
REMARK SMILES IDX 56 85 64 86 57 87 58 88 62 89 65 90 59 91 60 92 63 93 61 94
REMARK H PARENT 85 47 53 58
REMARK Flexibility Score: inf
ROOT
ATOM      1  O   UNL A   1      41.165  26.842  35.181  1.00  0.00    -0.374 OA
ENDROOT
BRANCH   1   2
ATOM      2  C   UNL A   1      41.466  28.211  34.914  1.00  0.00     0.202 C 
BRANCH   2   3
ATOM      3  C   UNL A   1      40.779  28.831  33.695  1.00  0.00     0.261 C 
BRANCH   3   4
ATOM      4  O   UNL A   1      40.499  30.220  33.927  1.00  0.00    -0.459 OA
BRANCH   4   5
ATOM      5  C   UNL A   1      39.204  30.504  34.161  1.00  0.00     0.352 C 
ATOM      6  O   UNL A   1      38.529  30.181  35.121  1.00  0.00    -0.245 OA
BRANCH   5   7
ATOM      7  C   UNL A   1      38.674  31.418  33.061  1.00  0.00     0.132 C 
ATOM      8  C   UNL A   1      34.403  34.172  30.326  1.00  0.00     0.092 C 
ATOM      9  C   UNL A   1      35.654  33.605  30.866  1.00  0.00     0.149 A 
ATOM     10  N   UNL A   1      35.760  33.192  32.166  1.00  0.00    -0.195 NA
ATOM     11  N   UNL A   1      36.747  33.398  30.121  1.00  0.00    -0.154 NA
ATOM     12  C   UNL A   1      36.957  32.656  32.238  1.00  0.00     0.249 A 
ATOM     13  N   UNL A   1      37.579  32.858  31.036  1.00  0.00    -0.219 N 
ATOM     14  N   UNL A   1      37.495  31.928  33.238  1.00  0.00    -0.209 NA
ATOM     15  C   UNL A   1      38.913  32.391  30.711  1.00  0.00     0.184 C 
ATOM     16  C   UNL A   1      39.593  31.698  31.899  1.00  0.00     0.100 C 
BRANCH  15  17
ATOM     17  C   UNL A   1      39.768  33.512  30.170  1.00  0.00     0.136 A 
ATOM     18  C   UNL A   1      39.520  34.663  29.435  1.00  0.00     0.056 A 
ATOM     19  O   UNL A   1      41.116  33.411  30.410  1.00  0.00    -0.404 OA
ATOM     20  C   UNL A   1      40.768  35.296  29.209  1.00  0.00     0.134 A 
ATOM     21  C   UNL A   1      41.696  34.496  29.828  1.00  0.00     0.433 A 
BRANCH  21  22
ATOM     22  N   UNL A   1      43.115  34.612  29.955  1.00  0.00     0.102 N 
ATOM     23  O   UNL A   1      43.604  34.226  31.024  1.00  0.00    -0.256 OA
ATOM     24  O   UNL A   1      43.741  35.073  28.992  1.00  0.00    -0.256 OA
ENDBRANCH  21  22
ENDBRANCH  15  17
ENDBRANCH   5   7
ENDBRANCH   4   5
ENDBRANCH   3   4
ENDBRANCH   2   3
ENDBRANCH   1   2
BRANCH   1  25
ATOM     25  C   UNL A   1      41.536  26.296  36.442  1.00  0.00     0.202 C 
BRANCH  25  26
ATOM     26  C   UNL A   1      41.714  24.777  36.583  1.00  0.00     0.261 C 
BRANCH  26  27
ATOM     27  O   UNL A   1      42.142  24.079  35.411  1.00  0.00    -0.460 OA
BRANCH  27  28
ATOM     28  C   UNL A   1      43.485  23.897  35.389  1.00  0.00     0.338 C 
ATOM     29  O   UNL A   1      44.167  23.308  36.210  1.00  0.00    -0.246 OA
BRANCH  28  30
ATOM     30  C   UNL A   1      44.080  24.498  34.193  1.00  0.00     0.060 A 
ATOM     31  C   UNL A   1      44.541  25.814  34.282  1.00  0.00     0.016 A 
ATOM     32  C   UNL A   1      43.948  23.858  32.960  1.00  0.00     0.016 A 
ATOM     33  C   UNL A   1      44.816  26.520  33.118  1.00  0.00     0.010 A 
ATOM     34  C   UNL A   1      44.205  24.578  31.797  1.00  0.00     0.010 A 
ATOM     35  C   UNL A   1      44.614  25.920  31.868  1.00  0.00    -0.014 A 
BRANCH  35  36
ATOM     36  C   UNL A   1      44.857  26.743  30.665  1.00  0.00     0.031 A 
ATOM     37  C   UNL A   1      44.849  25.982  29.376  1.00  0.00     0.074 A 
ATOM     38  C   UNL A   1      44.459  28.036  30.636  1.00  0.00     0.049 A 
ATOM     39  N   UNL A   1      43.752  25.627  28.772  1.00  0.00    -0.248 NA
ATOM     40  C   UNL A   1      46.046  25.322  28.854  1.00  0.00     0.031 C 
ATOM     41  C   UNL A   1      43.272  28.540  31.339  1.00  0.00     0.029 A 
ATOM     42  N   UNL A   1      44.867  29.098  29.857  1.00  0.00    -0.354 N 
ATOM     43  C   UNL A   1      44.084  24.650  27.853  1.00  0.00     0.074 A 
ATOM     44  C   UNL A   1      45.522  24.513  27.918  1.00  0.00     0.031 C 
ATOM     45  C   UNL A   1      42.946  29.745  30.829  1.00  0.00     0.029 A 
ATOM     46  C   UNL A   1      43.961  30.159  29.858  1.00  0.00     0.049 A 
ATOM     47  H   UNL A   1      45.710  29.108  29.350  1.00  0.00     0.167 HD
ATOM     48  C   UNL A   1      43.151  23.992  27.116  1.00  0.00     0.037 A 
ATOM     49  C   UNL A   1      43.679  30.931  28.771  1.00  0.00     0.037 A 
ATOM     50  C   UNL A   1      41.790  24.376  27.347  1.00  0.00     0.049 A 
ATOM     51  C   UNL A   1      42.902  29.973  27.908  1.00  0.00     0.074 A 
ATOM     52  C   UNL A   1      40.718  23.917  28.081  1.00  0.00     0.029 A 
ATOM     53  N   UNL A   1      41.336  25.523  26.742  1.00  0.00    -0.354 N 
ATOM     54  N   UNL A   1      41.638  29.671  28.048  1.00  0.00    -0.248 NA
ATOM     55  C   UNL A   1      43.659  29.053  27.059  1.00  0.00     0.031 C 
ATOM     56  C   UNL A   1      39.857  25.049  28.242  1.00  0.00     0.029 A 
ATOM     57  C   UNL A   1      40.490  26.131  27.634  1.00  0.00     0.049 A 
ATOM     58  H   UNL A   1      41.572  25.846  25.843  1.00  0.00     0.167 HD
ATOM     59  C   UNL A   1      41.508  28.383  27.526  1.00  0.00     0.074 A 
ATOM     60  C   UNL A   1      42.772  28.084  26.886  1.00  0.00     0.031 C 
ATOM     61  C   UNL A   1      40.459  27.561  27.820  1.00  0.00     0.037 A 
BRANCH  48  62
ATOM     62  C   UNL A   1      43.427  23.032  26.032  1.00  0.00     0.064 A 
ATOM     63  C   UNL A   1      43.266  21.668  26.321  1.00  0.00     0.173 A 
ATOM     64  C   UNL A   1      44.084  23.387  24.852  1.00  0.00     0.173 A 
ATOM     65  F   UNL A   1      42.649  21.293  27.454  1.00  0.00    -0.203 F 
ATOM     66  C   UNL A   1      43.796  20.691  25.489  1.00  0.00     0.198 A 
ATOM     67  C   UNL A   1      44.604  22.403  24.011  1.00  0.00     0.198 A 
ATOM     68  F   UNL A   1      44.274  24.679  24.545  1.00  0.00    -0.203 F 
ATOM     69  F   UNL A   1      43.685  19.398  25.827  1.00  0.00    -0.200 F 
ATOM     70  C   UNL A   1      44.477  21.058  24.340  1.00  0.00     0.200 A 
ATOM     71  F   UNL A   1      45.267  22.752  22.900  1.00  0.00    -0.200 F 
ATOM     72  F   UNL A   1      45.028  20.117  23.561  1.00  0.00    -0.200 F 
ENDBRANCH  48  62
BRANCH  49  73
ATOM     73  C   UNL A   1      44.770  31.821  28.271  1.00  0.00     0.064 A 
ATOM     74  C   UNL A   1      44.630  32.379  26.982  1.00  0.00     0.173 A 
ATOM     75  C   UNL A   1      45.952  32.147  28.953  1.00  0.00     0.173 A 
ATOM     76  F   UNL A   1      43.588  32.033  26.209  1.00  0.00    -0.203 F 
ATOM     77  C   UNL A   1      45.549  33.292  26.463  1.00  0.00     0.198 A 
ATOM     78  C   UNL A   1      46.857  33.084  28.448  1.00  0.00     0.198 A 
ATOM     79  F   UNL A   1      46.259  31.575  30.124  1.00  0.00    -0.203 F 
ATOM     80  F   UNL A   1      45.358  33.815  25.246  1.00  0.00    -0.200 F 
ATOM     81  C   UNL A   1      46.647  33.668  27.213  1.00  0.00     0.200 A 
ATOM     82  F   UNL A   1      47.927  33.432  29.178  1.00  0.00    -0.200 F 
ATOM     83  F   UNL A   1      47.506  34.585  26.745  1.00  0.00    -0.200 F 
ENDBRANCH  49  73
BRANCH  61  84
ATOM     84  C   UNL A   1      39.376  28.185  28.628  1.00  0.00     0.064 A 
ATOM     85  C   UNL A   1      38.452  29.050  28.029  1.00  0.00     0.173 A 
ATOM     86  C   UNL A   1      39.244  27.923  30.001  1.00  0.00     0.173 A 
ATOM     87  F   UNL A   1      38.534  29.326  26.718  1.00  0.00    -0.203 F 
ATOM     88  C   UNL A   1      37.425  29.620  28.774  1.00  0.00     0.198 A 
ATOM     89  C   UNL A   1      38.198  28.471  30.735  1.00  0.00     0.198 A 
ATOM     90  F   UNL A   1      40.116  27.124  30.635  1.00  0.00    -0.203 F 
ATOM     91  F   UNL A   1      36.551  30.448  28.183  1.00  0.00    -0.200 F 
ATOM     92  C   UNL A   1      37.290  29.319  30.121  1.00  0.00     0.200 A 
ATOM     93  F   UNL A   1      38.059  28.165  32.033  1.00  0.00    -0.200 F 
ATOM     94  F   UNL A   1      36.278  29.842  30.828  1.00  0.00    -0.200 F 
ENDBRANCH  61  84
ENDBRANCH  35  36
ENDBRANCH  28  30
ENDBRANCH  27  28
ENDBRANCH  26  27
ENDBRANCH  25  26
ENDBRANCH   1  25
TORSDOF 16
ENDMDL
MODEL 2
REMARK VINA RESULT:     -10.0      1.851      3.395
REMARK SMILES Cc1nc2n(n1)[C@@H](c1ccc([N+](=O)[O-])o1)CC(C(=O)OCCOCCOC(=O)c1ccc(-c3c4nc(c(-c5c(F)c(F)c(F)c(F)c5F)c5ccc([nH]5)c(-c5c(F)c(F)c(F)c(F)c5F)c5nc(c(-c6c(F)c(F)c(F)c(F)c6F)c6ccc3[nH]6)C=C5)C=C4)cc1)=N2
REMARK SMILES IDX 23 1 22 2 21 3 20 4 18 5 19 6 17 7 1 8 2 9 3 10 6 11 4 12
REMARK SMILES IDX 5 13 92 14 7 15 16 16 8 17 9 18 15 19 10 20 11 21 12 22
REMARK SMILES IDX 13 23 14 24 24 25 25 26 26 27 27 28 28 29 29 30 30 31 91 32
REMARK SMILES IDX 31 33 90 34 32 35 33 36 34 37 84 38 35 39 89 40 83 41 85 42
REMARK SMILES IDX 36 43 88 44 82 45 81 46 37 48 69 49 49 50 68 51 50 52 53 53
REMARK SMILES IDX 67 54 86 55 51 56 52 57 66 59 87 60 54 61 38 62 39 63 47 64
REMARK SMILES IDX 40 65 41 66 45 67 48 68 42 69 43 70 46 71 44 72 70 73 71 74
REMARK SMILES IDX 79 75 72 76 73 77 77 78 80 79 74 80 75 81 78 82 76 83 55 84
REMARK SMILES IDX 56 85 64 86 57 87 58 88 62 89 65 90 59 91 60 92 63 93 61 94
REMARK H PARENT 85 47 53 58
REMARK Flexibility Score: inf
ROOT
ATOM      1  O   UNL A   1      42.146  27.086  34.936  1.00  0.00    -0.374 OA
ENDROOT
BRANCH   1   2
ATOM      2  C   UNL A   1      41.363  27.782  33.968  1.00  0.00     0.202 C 
BRANCH   2   3
ATOM      3  C   UNL A   1      40.973  29.221  34.316  1.00  0.00     0.261 C 
BRANCH   3   4
ATOM      4  O   UNL A   1      40.760  29.988  33.121  1.00  0.00    -0.459 OA
BRANCH   4   5
ATOM      5  C   UNL A   1      40.882  31.320  33.276  1.00  0.00     0.352 C 
ATOM      6  O   UNL A   1      41.818  32.028  32.952  1.00  0.00    -0.245 OA
BRANCH   5   7
ATOM      7  C   UNL A   1      39.589  31.889  33.850  1.00  0.00     0.132 C 
ATOM      8  C   UNL A   1      34.047  33.434  33.401  1.00  0.00     0.092 C 
ATOM      9  C   UNL A   1      35.432  33.089  33.773  1.00  0.00     0.149 A 
ATOM     10  N   UNL A   1      36.157  32.155  33.084  1.00  0.00    -0.195 NA
ATOM     11  N   UNL A   1      36.100  33.699  34.761  1.00  0.00    -0.154 NA
ATOM     12  C   UNL A   1      37.352  32.207  33.628  1.00  0.00     0.249 A 
ATOM     13  N   UNL A   1      37.292  33.070  34.689  1.00  0.00    -0.219 N 
ATOM     14  N   UNL A   1      38.495  31.633  33.203  1.00  0.00    -0.209 NA
ATOM     15  C   UNL A   1      38.419  33.414  35.533  1.00  0.00     0.184 C 
ATOM     16  C   UNL A   1      39.689  32.642  35.153  1.00  0.00     0.100 C 
BRANCH  15  17
ATOM     17  C   UNL A   1      38.084  33.228  36.994  1.00  0.00     0.136 A 
ATOM     18  C   UNL A   1      38.328  33.952  38.152  1.00  0.00     0.056 A 
ATOM     19  O   UNL A   1      37.399  32.082  37.314  1.00  0.00    -0.404 OA
ATOM     20  C   UNL A   1      37.774  33.219  39.232  1.00  0.00     0.134 A 
ATOM     21  C   UNL A   1      37.221  32.100  38.663  1.00  0.00     0.433 A 
BRANCH  21  22
ATOM     22  N   UNL A   1      36.516  30.995  39.233  1.00  0.00     0.102 N 
ATOM     23  O   UNL A   1      36.725  29.888  38.722  1.00  0.00    -0.256 OA
ATOM     24  O   UNL A   1      35.767  31.225  40.191  1.00  0.00    -0.256 OA
ENDBRANCH  21  22
ENDBRANCH  15  17
ENDBRANCH   5   7
ENDBRANCH   4   5
ENDBRANCH   3   4
ENDBRANCH   2   3
ENDBRANCH   1   2
BRANCH   1  25
ATOM     25  C   UNL A   1      41.494  26.170  35.808  1.00  0.00     0.202 C 
BRANCH  25  26
ATOM     26  C   UNL A   1      42.291  25.001  36.407  1.00  0.00     0.261 C 
BRANCH  26  27
ATOM     27  O   UNL A   1      42.616  23.933  35.513  1.00  0.00    -0.460 OA
BRANCH  27  28
ATOM     28  C   UNL A   1      43.956  23.750  35.407  1.00  0.00     0.338 C 
ATOM     29  O   UNL A   1      44.695  23.209  36.210  1.00  0.00    -0.246 OA
BRANCH  28  30
ATOM     30  C   UNL A   1      44.462  24.279  34.139  1.00  0.00     0.060 A 
ATOM     31  C   UNL A   1      45.228  25.447  34.177  1.00  0.00     0.016 A 
ATOM     32  C   UNL A   1      43.975  23.772  32.934  1.00  0.00     0.016 A 
ATOM     33  C   UNL A   1      45.459  26.151  33.001  1.00  0.00     0.010 A 
ATOM     34  C   UNL A   1      44.191  24.491  31.762  1.00  0.00     0.010 A 
ATOM     35  C   UNL A   1      44.911  25.698  31.793  1.00  0.00    -0.014 A 
BRANCH  35  36
ATOM     36  C   UNL A   1      45.132  26.524  30.588  1.00  0.00     0.031 A 
ATOM     37  C   UNL A   1      45.060  25.773  29.295  1.00  0.00     0.074 A 
ATOM     38  C   UNL A   1      44.766  27.826  30.583  1.00  0.00     0.049 A 
ATOM     39  N   UNL A   1      43.933  25.451  28.728  1.00  0.00    -0.248 NA
ATOM     40  C   UNL A   1      46.220  25.088  28.726  1.00  0.00     0.031 C 
ATOM     41  C   UNL A   1      43.617  28.355  31.330  1.00  0.00     0.029 A 
ATOM     42  N   UNL A   1      45.172  28.884  29.796  1.00  0.00    -0.354 N 
ATOM     43  C   UNL A   1      44.208  24.473  27.791  1.00  0.00     0.074 A 
ATOM     44  C   UNL A   1      45.643  24.300  27.805  1.00  0.00     0.031 C 
ATOM     45  C   UNL A   1      43.304  29.571  30.841  1.00  0.00     0.029 A 
ATOM     46  C   UNL A   1      44.294  29.967  29.837  1.00  0.00     0.049 A 
ATOM     47  H   UNL A   1      45.998  28.877  29.260  1.00  0.00     0.167 HD
ATOM     48  C   UNL A   1      43.233  23.844  27.083  1.00  0.00     0.037 A 
ATOM     49  C   UNL A   1      43.994  30.755  28.766  1.00  0.00     0.037 A 
ATOM     50  C   UNL A   1      41.892  24.260  27.364  1.00  0.00     0.049 A 
ATOM     51  C   UNL A   1      43.163  29.823  27.925  1.00  0.00     0.074 A 
ATOM     52  C   UNL A   1      40.835  23.822  28.133  1.00  0.00     0.029 A 
ATOM     53  N   UNL A   1      41.445  25.423  26.784  1.00  0.00    -0.354 N 
ATOM     54  N   UNL A   1      41.898  29.551  28.107  1.00  0.00    -0.248 NA
ATOM     55  C   UNL A   1      43.866  28.891  27.043  1.00  0.00     0.031 C 
ATOM     56  C   UNL A   1      40.009  24.974  28.333  1.00  0.00     0.029 A 
ATOM     57  C   UNL A   1      40.647  26.045  27.709  1.00  0.00     0.049 A 
ATOM     58  H   UNL A   1      41.657  25.747  25.879  1.00  0.00     0.167 HD
ATOM     59  C   UNL A   1      41.716  28.271  27.581  1.00  0.00     0.074 A 
ATOM     60  C   UNL A   1      42.949  27.946  26.895  1.00  0.00     0.031 C 
ATOM     61  C   UNL A   1      40.659  27.474  27.906  1.00  0.00     0.037 A 
BRANCH  48  62
ATOM     62  C   UNL A   1      43.447  22.886  25.984  1.00  0.00     0.064 A 
ATOM     63  C   UNL A   1      43.335  21.520  26.286  1.00  0.00     0.173 A 
ATOM     64  C   UNL A   1      44.007  23.250  24.757  1.00  0.00     0.173 A 
ATOM     65  F   UNL A   1      42.812  21.137  27.463  1.00  0.00    -0.203 F 
ATOM     66  C   UNL A   1      43.821  20.550  25.419  1.00  0.00     0.198 A 
ATOM     67  C   UNL A   1      44.482  22.273  23.881  1.00  0.00     0.198 A 
ATOM     68  F   UNL A   1      44.148  24.544  24.434  1.00  0.00    -0.203 F 
ATOM     69  F   UNL A   1      43.760  19.257  25.767  1.00  0.00    -0.200 F 
ATOM     70  C   UNL A   1      44.407  20.927  24.222  1.00  0.00     0.200 A 
ATOM     71  F   UNL A   1      45.053  22.632  22.723  1.00  0.00    -0.200 F 
ATOM     72  F   UNL A   1      44.916  19.995  23.405  1.00  0.00    -0.200 F 
ENDBRANCH  48  62
BRANCH  49  73
ATOM     73  C   UNL A   1      45.088  31.621  28.234  1.00  0.00     0.064 A 
ATOM     74  C   UNL A   1      44.911  33.020  28.290  1.00  0.00     0.173 A 
ATOM     75  C   UNL A   1      46.286  31.179  27.651  1.00  0.00     0.173 A 
ATOM     76  F   UNL A   1      43.750  33.534  28.724  1.00  0.00    -0.203 F 
ATOM     77  C   UNL A   1      45.912  33.912  27.901  1.00  0.00     0.198 A 
ATOM     78  C   UNL A   1      47.300  32.070  27.290  1.00  0.00     0.198 A 
ATOM     79  F   UNL A   1      46.508  29.879  27.421  1.00  0.00    -0.203 F 
ATOM     80  F   UNL A   1      45.706  35.232  27.999  1.00  0.00    -0.200 F 
ATOM     81  C   UNL A   1      47.120  33.433  27.431  1.00  0.00     0.200 A 
ATOM     82  F   UNL A   1      48.463  31.595  26.822  1.00  0.00    -0.200 F 
ATOM     83  F   UNL A   1      48.105  34.282  27.107  1.00  0.00    -0.200 F 
ENDBRANCH  49  73
BRANCH  61  84
ATOM     84  C   UNL A   1      39.620  28.117  28.757  1.00  0.00     0.064 A 
ATOM     85  C   UNL A   1      38.654  28.954  28.185  1.00  0.00     0.173 A 
ATOM     86  C   UNL A   1      39.575  27.904  30.143  1.00  0.00     0.173 A 
ATOM     87  F   UNL A   1      38.653  29.184  26.863  1.00  0.00    -0.203 F 
ATOM     88  C   UNL A   1      37.669  29.543  28.971  1.00  0.00     0.198 A 
ATOM     89  C   UNL A   1      38.570  28.470  30.920  1.00  0.00     0.198 A 
ATOM     90  F   UNL A   1      40.491  27.134  30.751  1.00  0.00    -0.203 F 
ATOM     91  F   UNL A   1      36.753  30.343  28.406  1.00  0.00    -0.200 F 
ATOM     92  C   UNL A   1      37.619  29.289  30.334  1.00  0.00     0.200 A 
ATOM     93  F   UNL A   1      38.512  28.209  32.234  1.00  0.00    -0.200 F 
ATOM     94  F   UNL A   1      36.646  29.830  31.083  1.00  0.00    -0.200 F 
ENDBRANCH  61  84
ENDBRANCH  35  36
ENDBRANCH  28  30
ENDBRANCH  27  28
ENDBRANCH  26  27
ENDBRANCH  25  26
ENDBRANCH   1  25
TORSDOF 16
ENDMDL
MODEL 3
REMARK VINA RESULT:      -9.7      5.818     10.619
REMARK SMILES Cc1nc2n(n1)[C@@H](c1ccc([N+](=O)[O-])o1)CC(C(=O)OCCOCCOC(=O)c1ccc(-c3c4nc(c(-c5c(F)c(F)c(F)c(F)c5F)c5ccc([nH]5)c(-c5c(F)c(F)c(F)c(F)c5F)c5nc(c(-c6c(F)c(F)c(F)c(F)c6F)c6ccc3[nH]6)C=C5)C=C4)cc1)=N2
REMARK SMILES IDX 23 1 22 2 21 3 20 4 18 5 19 6 17 7 1 8 2 9 3 10 6 11 4 12
REMARK SMILES IDX 5 13 92 14 7 15 16 16 8 17 9 18 15 19 10 20 11 21 12 22
REMARK SMILES IDX 13 23 14 24 24 25 25 26 26 27 27 28 28 29 29 30 30 31 91 32
REMARK SMILES IDX 31 33 90 34 32 35 33 36 34 37 84 38 35 39 89 40 83 41 85 42
REMARK SMILES IDX 36 43 88 44 82 45 81 46 37 48 69 49 49 50 68 51 50 52 53 53
REMARK SMILES IDX 67 54 86 55 51 56 52 57 66 59 87 60 54 61 38 62 39 63 47 64
REMARK SMILES IDX 40 65 41 66 45 67 48 68 42 69 43 70 46 71 44 72 70 73 71 74
REMARK SMILES IDX 79 75 72 76 73 77 77 78 80 79 74 80 75 81 78 82 76 83 55 84
REMARK SMILES IDX 56 85 64 86 57 87 58 88 62 89 65 90 59 91 60 92 63 93 61 94
REMARK H PARENT 85 47 53 58
REMARK Flexibility Score: inf
ROOT
ATOM      1  O   UNL A   1      40.790  21.988  27.999  1.00  0.00    -0.374 OA
ENDROOT
BRANCH   1   2
ATOM      2  C   UNL A   1      40.369  23.270  27.538  1.00  0.00     0.202 C 
BRANCH   2   3
ATOM      3  C   UNL A   1      38.947  23.356  26.977  1.00  0.00     0.261 C 
BRANCH   3   4
ATOM      4  O   UNL A   1      38.918  22.924  25.609  1.00  0.00    -0.459 OA
BRANCH   4   5
ATOM      5  C   UNL A   1      38.425  21.685  25.418  1.00  0.00     0.352 C 
ATOM      6  O   UNL A   1      38.960  20.621  25.669  1.00  0.00    -0.245 OA
BRANCH   5   7
ATOM      7  C   UNL A   1      36.990  21.778  24.910  1.00  0.00     0.132 C 
ATOM      8  C   UNL A   1      32.727  24.483  22.115  1.00  0.00     0.092 C 
ATOM      9  C   UNL A   1      33.648  23.589  22.843  1.00  0.00     0.149 A 
ATOM     10  N   UNL A   1      35.006  23.669  22.691  1.00  0.00    -0.195 NA
ATOM     11  N   UNL A   1      33.237  22.684  23.740  1.00  0.00    -0.154 NA
ATOM     12  C   UNL A   1      35.480  22.810  23.565  1.00  0.00     0.249 A 
ATOM     13  N   UNL A   1      34.417  22.159  24.130  1.00  0.00    -0.219 N 
ATOM     14  N   UNL A   1      36.756  22.632  23.963  1.00  0.00    -0.209 NA
ATOM     15  C   UNL A   1      34.527  21.147  25.163  1.00  0.00     0.184 C 
ATOM     16  C   UNL A   1      35.987  20.824  25.509  1.00  0.00     0.100 C 
BRANCH  15  17
ATOM     17  C   UNL A   1      33.767  19.898  24.787  1.00  0.00     0.136 A 
ATOM     18  C   UNL A   1      32.424  19.563  24.691  1.00  0.00     0.056 A 
ATOM     19  O   UNL A   1      34.529  18.797  24.482  1.00  0.00    -0.404 OA
ATOM     20  C   UNL A   1      32.355  18.198  24.314  1.00  0.00     0.134 A 
ATOM     21  C   UNL A   1      33.660  17.789  24.197  1.00  0.00     0.433 A 
BRANCH  21  22
ATOM     22  N   UNL A   1      34.231  16.529  23.839  1.00  0.00     0.102 N 
ATOM     23  O   UNL A   1      34.224  16.246  22.635  1.00  0.00    -0.256 OA
ATOM     24  O   UNL A   1      34.694  15.830  24.749  1.00  0.00    -0.256 OA
ENDBRANCH  21  22
ENDBRANCH  15  17
ENDBRANCH   5   7
ENDBRANCH   4   5
ENDBRANCH   3   4
ENDBRANCH   2   3
ENDBRANCH   1   2
BRANCH   1  25
ATOM     25  C   UNL A   1      42.100  21.541  27.669  1.00  0.00     0.202 C 
BRANCH  25  26
ATOM     26  C   UNL A   1      42.391  21.042  26.246  1.00  0.00     0.261 C 
BRANCH  26  27
ATOM     27  O   UNL A   1      42.644  22.049  25.263  1.00  0.00    -0.460 OA
BRANCH  27  28
ATOM     28  C   UNL A   1      43.941  22.444  25.262  1.00  0.00     0.338 C 
ATOM     29  O   UNL A   1      44.925  21.756  25.050  1.00  0.00    -0.246 OA
BRANCH  28  30
ATOM     30  C   UNL A   1      44.057  23.878  25.538  1.00  0.00     0.060 A 
ATOM     31  C   UNL A   1      44.975  24.285  26.510  1.00  0.00     0.016 A 
ATOM     32  C   UNL A   1      43.103  24.759  25.027  1.00  0.00     0.016 A 
ATOM     33  C   UNL A   1      44.897  25.574  27.023  1.00  0.00     0.010 A 
ATOM     34  C   UNL A   1      43.017  26.042  25.560  1.00  0.00     0.010 A 
ATOM     35  C   UNL A   1      43.896  26.448  26.579  1.00  0.00    -0.014 A 
BRANCH  35  36
ATOM     36  C   UNL A   1      43.821  27.782  27.211  1.00  0.00     0.031 A 
ATOM     37  C   UNL A   1      43.538  27.760  28.681  1.00  0.00     0.074 A 
ATOM     38  C   UNL A   1      44.561  28.804  26.726  1.00  0.00     0.049 A 
ATOM     39  N   UNL A   1      44.454  27.515  29.573  1.00  0.00    -0.248 NA
ATOM     40  C   UNL A   1      42.175  27.714  29.211  1.00  0.00     0.031 C 
ATOM     41  C   UNL A   1      45.882  28.634  26.107  1.00  0.00     0.029 A 
ATOM     42  N   UNL A   1      44.420  30.171  26.850  1.00  0.00    -0.354 N 
ATOM     43  C   UNL A   1      43.808  27.205  30.755  1.00  0.00     0.074 A 
ATOM     44  C   UNL A   1      42.395  27.368  30.491  1.00  0.00     0.031 C 
ATOM     45  C   UNL A   1      46.500  29.831  26.068  1.00  0.00     0.029 A 
ATOM     46  C   UNL A   1      45.585  30.873  26.539  1.00  0.00     0.049 A 
ATOM     47  H   UNL A   1      43.584  30.607  27.131  1.00  0.00     0.167 HD
ATOM     48  C   UNL A   1      44.474  26.803  31.869  1.00  0.00     0.037 A 
ATOM     49  C   UNL A   1      46.005  31.994  27.190  1.00  0.00     0.037 A 
ATOM     50  C   UNL A   1      45.898  26.722  31.748  1.00  0.00     0.049 A 
ATOM     51  C   UNL A   1      46.430  31.432  28.521  1.00  0.00     0.074 A 
ATOM     52  C   UNL A   1      46.842  25.745  31.515  1.00  0.00     0.029 A 
ATOM     53  N   UNL A   1      46.618  27.889  31.841  1.00  0.00    -0.354 N 
ATOM     54  N   UNL A   1      47.565  30.835  28.771  1.00  0.00    -0.248 NA
ATOM     55  C   UNL A   1      45.396  31.229  29.536  1.00  0.00     0.031 C 
ATOM     56  C   UNL A   1      47.993  26.440  31.023  1.00  0.00     0.029 A 
ATOM     57  C   UNL A   1      47.652  27.789  30.947  1.00  0.00     0.049 A 
ATOM     58  H   UNL A   1      46.428  28.651  32.436  1.00  0.00     0.167 HD
ATOM     59  C   UNL A   1      47.299  29.969  29.833  1.00  0.00     0.074 A 
ATOM     60  C   UNL A   1      45.966  30.300  30.291  1.00  0.00     0.031 C 
ATOM     61  C   UNL A   1      48.092  28.904  30.144  1.00  0.00     0.037 A 
BRANCH  48  62
ATOM     62  C   UNL A   1      43.875  26.576  33.196  1.00  0.00     0.064 A 
ATOM     63  C   UNL A   1      43.740  25.246  33.625  1.00  0.00     0.173 A 
ATOM     64  C   UNL A   1      43.207  27.573  33.910  1.00  0.00     0.173 A 
ATOM     65  F   UNL A   1      44.361  24.262  32.953  1.00  0.00    -0.203 F 
ATOM     66  C   UNL A   1      42.918  24.916  34.693  1.00  0.00     0.198 A 
ATOM     67  C   UNL A   1      42.391  27.240  34.991  1.00  0.00     0.198 A 
ATOM     68  F   UNL A   1      43.294  28.855  33.525  1.00  0.00    -0.203 F 
ATOM     69  F   UNL A   1      42.757  23.630  35.036  1.00  0.00    -0.200 F 
ATOM     70  C   UNL A   1      42.232  25.912  35.369  1.00  0.00     0.200 A 
ATOM     71  F   UNL A   1      41.722  28.199  35.647  1.00  0.00    -0.200 F 
ATOM     72  F   UNL A   1      41.403  25.589  36.371  1.00  0.00    -0.200 F 
ENDBRANCH  48  62
BRANCH  49  73
ATOM     73  C   UNL A   1      45.178  33.226  27.021  1.00  0.00     0.064 A 
ATOM     74  C   UNL A   1      45.416  34.308  27.896  1.00  0.00     0.173 A 
ATOM     75  C   UNL A   1      44.154  33.414  26.080  1.00  0.00     0.173 A 
ATOM     76  F   UNL A   1      46.296  34.179  28.901  1.00  0.00    -0.203 F 
ATOM     77  C   UNL A   1      44.759  35.532  27.760  1.00  0.00     0.198 A 
ATOM     78  C   UNL A   1      43.518  34.649  25.923  1.00  0.00     0.198 A 
ATOM     79  F   UNL A   1      43.746  32.416  25.287  1.00  0.00    -0.203 F 
ATOM     80  F   UNL A   1      45.041  36.538  28.598  1.00  0.00    -0.200 F 
ATOM     81  C   UNL A   1      43.832  35.711  26.751  1.00  0.00     0.200 A 
ATOM     82  F   UNL A   1      42.610  34.807  24.950  1.00  0.00    -0.200 F 
ATOM     83  F   UNL A   1      43.238  36.900  26.580  1.00  0.00    -0.200 F 
ENDBRANCH  49  73
BRANCH  61  84
ATOM     84  C   UNL A   1      49.353  28.805  29.359  1.00  0.00     0.064 A 
ATOM     85  C   UNL A   1      49.399  28.047  28.182  1.00  0.00     0.173 A 
ATOM     86  C   UNL A   1      50.522  29.466  29.767  1.00  0.00     0.173 A 
ATOM     87  F   UNL A   1      48.305  27.402  27.749  1.00  0.00    -0.203 F 
ATOM     88  C   UNL A   1      50.568  27.967  27.434  1.00  0.00     0.198 A 
ATOM     89  C   UNL A   1      51.680  29.408  28.999  1.00  0.00     0.198 A 
ATOM     90  F   UNL A   1      50.546  30.184  30.901  1.00  0.00    -0.203 F 
ATOM     91  F   UNL A   1      50.595  27.235  26.311  1.00  0.00    -0.200 F 
ATOM     92  C   UNL A   1      51.703  28.658  27.835  1.00  0.00     0.200 A 
ATOM     93  F   UNL A   1      52.770  30.091  29.379  1.00  0.00    -0.200 F 
ATOM     94  F   UNL A   1      52.818  28.608  27.091  1.00  0.00    -0.200 F 
ENDBRANCH  61  84
ENDBRANCH  35  36
ENDBRANCH  28  30
ENDBRANCH  27  28
ENDBRANCH  26  27
ENDBRANCH  25  26
ENDBRANCH   1  25
TORSDOF 16
ENDMDL
