MODEL 1
REMARK VINA RESULT:     -11.4      0.000      0.000
REMARK SMILES Cc1cscc1C(=O)N[C@H](C(=O)OCCOCCOC(=O)c1ccc(-c2c3nc(c(-c4c(F)c(F)c(F)c(F)c4F)c4ccc([nH]4)c(-c4c(F)c(F)c(F)c(F)c4F)c4nc(c(-c5c(F)c(F)c(F)c(F)c5F)c5ccc2[nH]5)C=C4)C=C3)cc1)c1ccccc1
REMARK SMILES IDX 16 1 15 2 14 3 13 4 11 5 12 6 10 7 9 8 7 9 8 10 6 12 1 13
REMARK SMILES IDX 2 14 3 15 4 16 5 17 85 18 86 19 90 20 87 21 89 22 88 23
REMARK SMILES IDX 17 24 18 25 19 26 20 27 21 28 22 29 23 30 84 31 24 32 83 33
REMARK SMILES IDX 25 34 26 35 27 36 77 37 28 38 82 39 76 40 78 41 29 42 81 43
REMARK SMILES IDX 75 44 74 45 30 47 62 48 42 49 61 50 43 51 46 52 60 53 79 54
REMARK SMILES IDX 44 55 45 56 59 58 80 59 47 60 31 61 32 62 40 63 33 64 34 65
REMARK SMILES IDX 38 66 41 67 35 68 36 69 39 70 37 71 63 72 64 73 72 74 65 75
REMARK SMILES IDX 66 76 70 77 73 78 67 79 68 80 71 81 69 82 48 83 49 84 57 85
REMARK SMILES IDX 50 86 51 87 55 88 58 89 52 90 53 91 56 92 54 93
REMARK H PARENT 9 11 78 46 46 57
REMARK Flexibility Score: inf
ROOT
ATOM      1  O   UNL A   1      31.872  30.755  27.030  1.00  0.00    -0.374 OA
ENDROOT
BRANCH   1   2
ATOM      2  C   UNL A   1      33.052  30.236  26.429  1.00  0.00     0.202 C 
BRANCH   2   3
ATOM      3  C   UNL A   1      33.834  29.130  27.142  1.00  0.00     0.261 C 
BRANCH   3   4
ATOM      4  O   UNL A   1      33.561  27.792  26.673  1.00  0.00    -0.461 OA
BRANCH   4   5
ATOM      5  C   UNL A   1      32.300  27.398  26.990  1.00  0.00     0.333 C 
ATOM      6  O   UNL A   1      31.772  27.684  28.066  1.00  0.00    -0.249 OA
BRANCH   5   7
ATOM      7  C   UNL A   1      31.561  26.558  25.941  1.00  0.00     0.223 C 
BRANCH   7   8
ATOM      8  N   UNL A   1      30.983  25.370  26.572  1.00  0.00    -0.335 N 
ATOM      9  C   UNL A   1      31.272  24.035  26.613  1.00  0.00     0.253 C 
ATOM     10  O   UNL A   1      30.543  23.390  27.375  1.00  0.00    -0.269 OA
ATOM     11  H   UNL A   1      30.182  25.589  27.101  1.00  0.00     0.165 HD
BRANCH   9  12
ATOM     12  C   UNL A   1      32.250  23.322  25.769  1.00  0.00     0.053 A 
ATOM     13  C   UNL A   1      31.791  23.864  23.205  1.00  0.00     0.046 C 
ATOM     14  C   UNL A   1      32.506  23.225  24.336  1.00  0.00    -0.028 A 
ATOM     15  C   UNL A   1      33.639  22.471  24.064  1.00  0.00     0.069 A 
ATOM     16  S   UNL A   1      34.441  21.931  25.455  1.00  0.00    -0.151 S 
ATOM     17  C   UNL A   1      33.284  22.680  26.448  1.00  0.00     0.079 A 
ENDBRANCH   9  12
ENDBRANCH   7   8
BRANCH   7  18
ATOM     18  C   UNL A   1      30.651  27.117  24.843  1.00  0.00    -0.014 A 
ATOM     19  C   UNL A   1      29.455  26.471  24.484  1.00  0.00     0.006 A 
ATOM     20  C   UNL A   1      30.879  28.385  24.268  1.00  0.00     0.006 A 
ATOM     21  C   UNL A   1      28.566  27.051  23.565  1.00  0.00     0.000 A 
ATOM     22  C   UNL A   1      30.029  28.935  23.306  1.00  0.00     0.000 A 
ATOM     23  C   UNL A   1      28.866  28.269  22.956  1.00  0.00     0.000 A 
ENDBRANCH   7  18
ENDBRANCH   5   7
ENDBRANCH   4   5
ENDBRANCH   3   4
ENDBRANCH   2   3
ENDBRANCH   1   2
BRANCH   1  24
ATOM     24  C   UNL A   1      31.380  32.004  26.569  1.00  0.00     0.202 C 
BRANCH  24  25
ATOM     25  C   UNL A   1      32.165  33.288  26.868  1.00  0.00     0.261 C 
BRANCH  25  26
ATOM     26  O   UNL A   1      32.604  33.418  28.226  1.00  0.00    -0.460 OA
BRANCH  26  27
ATOM     27  C   UNL A   1      33.687  34.221  28.379  1.00  0.00     0.338 C 
ATOM     28  O   UNL A   1      33.712  35.435  28.438  1.00  0.00    -0.246 OA
BRANCH  27  29
ATOM     29  C   UNL A   1      34.874  33.392  28.654  1.00  0.00     0.060 A 
ATOM     30  C   UNL A   1      34.657  32.120  29.203  1.00  0.00     0.016 A 
ATOM     31  C   UNL A   1      36.167  33.873  28.446  1.00  0.00     0.016 A 
ATOM     32  C   UNL A   1      35.736  31.332  29.576  1.00  0.00     0.010 A 
ATOM     33  C   UNL A   1      37.253  33.091  28.849  1.00  0.00     0.010 A 
ATOM     34  C   UNL A   1      37.036  31.837  29.447  1.00  0.00    -0.014 A 
BRANCH  34  35
ATOM     35  C   UNL A   1      38.138  31.128  30.132  1.00  0.00     0.031 A 
ATOM     36  C   UNL A   1      38.388  31.439  31.581  1.00  0.00     0.074 A 
ATOM     37  C   UNL A   1      38.850  30.184  29.496  1.00  0.00     0.049 A 
ATOM     38  N   UNL A   1      39.296  30.960  32.390  1.00  0.00    -0.248 NA
ATOM     39  C   UNL A   1      37.486  32.423  32.202  1.00  0.00     0.031 C 
ATOM     40  C   UNL A   1      38.644  29.763  28.112  1.00  0.00     0.029 A 
ATOM     41  N   UNL A   1      39.892  29.409  29.934  1.00  0.00    -0.354 N 
ATOM     42  C   UNL A   1      39.079  31.589  33.611  1.00  0.00     0.074 A 
ATOM     43  C   UNL A   1      37.973  32.502  33.431  1.00  0.00     0.031 C 
ATOM     44  C   UNL A   1      39.542  28.810  27.809  1.00  0.00     0.029 A 
ATOM     45  C   UNL A   1      40.406  28.583  28.966  1.00  0.00     0.049 A 
ATOM     46  H   UNL A   1      40.238  29.440  30.856  1.00  0.00     0.167 HD
ATOM     47  C   UNL A   1      39.743  31.410  34.776  1.00  0.00     0.037 A 
ATOM     48  C   UNL A   1      41.471  27.760  29.009  1.00  0.00     0.037 A 
ATOM     49  C   UNL A   1      40.843  30.498  34.938  1.00  0.00     0.049 A 
ATOM     50  C   UNL A   1      42.245  27.642  30.298  1.00  0.00     0.074 A 
ATOM     51  C   UNL A   1      41.584  30.230  36.074  1.00  0.00     0.029 A 
ATOM     52  N   UNL A   1      41.368  29.710  33.921  1.00  0.00    -0.354 N 
ATOM     53  N   UNL A   1      42.029  28.226  31.453  1.00  0.00    -0.248 NA
ATOM     54  C   UNL A   1      43.412  26.748  30.289  1.00  0.00     0.031 C 
ATOM     55  C   UNL A   1      42.597  29.329  35.731  1.00  0.00     0.029 A 
ATOM     56  C   UNL A   1      42.444  28.980  34.398  1.00  0.00     0.049 A 
ATOM     57  H   UNL A   1      41.025  29.675  32.999  1.00  0.00     0.167 HD
ATOM     58  C   UNL A   1      43.008  27.748  32.314  1.00  0.00     0.074 A 
ATOM     59  C   UNL A   1      43.811  26.816  31.551  1.00  0.00     0.031 C 
ATOM     60  C   UNL A   1      43.225  28.051  33.619  1.00  0.00     0.037 A 
BRANCH  47  61
ATOM     61  C   UNL A   1      39.326  32.249  35.949  1.00  0.00     0.064 A 
ATOM     62  C   UNL A   1      39.879  33.516  36.192  1.00  0.00     0.173 A 
ATOM     63  C   UNL A   1      38.339  31.786  36.833  1.00  0.00     0.173 A 
ATOM     64  F   UNL A   1      40.839  34.000  35.390  1.00  0.00    -0.203 F 
ATOM     65  C   UNL A   1      39.477  34.274  37.290  1.00  0.00     0.198 A 
ATOM     66  C   UNL A   1      37.918  32.559  37.911  1.00  0.00     0.198 A 
ATOM     67  F   UNL A   1      37.779  30.581  36.649  1.00  0.00    -0.203 F 
ATOM     68  F   UNL A   1      40.057  35.459  37.532  1.00  0.00    -0.200 F 
ATOM     69  C   UNL A   1      38.492  33.799  38.143  1.00  0.00     0.200 A 
ATOM     70  F   UNL A   1      36.958  32.103  38.727  1.00  0.00    -0.200 F 
ATOM     71  F   UNL A   1      38.103  34.534  39.194  1.00  0.00    -0.200 F 
ENDBRANCH  47  61
BRANCH  48  72
ATOM     72  C   UNL A   1      41.880  27.005  27.796  1.00  0.00     0.064 A 
ATOM     73  C   UNL A   1      41.387  25.720  27.535  1.00  0.00     0.173 A 
ATOM     74  C   UNL A   1      42.792  27.550  26.878  1.00  0.00     0.173 A 
ATOM     75  F   UNL A   1      40.532  25.144  28.394  1.00  0.00    -0.203 F 
ATOM     76  C   UNL A   1      41.805  24.999  26.417  1.00  0.00     0.198 A 
ATOM     77  C   UNL A   1      43.185  26.842  25.743  1.00  0.00     0.198 A 
ATOM     78  F   UNL A   1      43.298  28.775  27.079  1.00  0.00    -0.203 F 
ATOM     79  F   UNL A   1      41.358  23.752  26.222  1.00  0.00    -0.200 F 
ATOM     80  C   UNL A   1      42.699  25.563  25.519  1.00  0.00     0.200 A 
ATOM     81  F   UNL A   1      44.038  27.397  24.873  1.00  0.00    -0.200 F 
ATOM     82  F   UNL A   1      43.099  24.872  24.445  1.00  0.00    -0.200 F 
ENDBRANCH  48  72
BRANCH  60  83
ATOM     83  C   UNL A   1      44.349  27.338  34.315  1.00  0.00     0.064 A 
ATOM     84  C   UNL A   1      44.170  26.082  34.912  1.00  0.00     0.173 A 
ATOM     85  C   UNL A   1      45.634  27.902  34.342  1.00  0.00     0.173 A 
ATOM     86  F   UNL A   1      42.959  25.506  34.925  1.00  0.00    -0.203 F 
ATOM     87  C   UNL A   1      45.231  25.431  35.537  1.00  0.00     0.198 A 
ATOM     88  C   UNL A   1      46.700  27.231  34.935  1.00  0.00     0.198 A 
ATOM     89  F   UNL A   1      45.861  29.097  33.776  1.00  0.00    -0.203 F 
ATOM     90  F   UNL A   1      45.026  24.256  36.148  1.00  0.00    -0.200 F 
ATOM     91  C   UNL A   1      46.495  26.001  35.541  1.00  0.00     0.200 A 
ATOM     92  F   UNL A   1      47.924  27.777  34.921  1.00  0.00    -0.200 F 
ATOM     93  F   UNL A   1      47.516  25.368  36.134  1.00  0.00    -0.200 F 
ENDBRANCH  60  83
ENDBRANCH  34  35
ENDBRANCH  27  29
ENDBRANCH  26  27
ENDBRANCH  25  26
ENDBRANCH  24  25
ENDBRANCH   1  24
TORSDOF 17
ENDMDL
MODEL 2
REMARK VINA RESULT:     -11.3      1.532      3.247
REMARK SMILES Cc1cscc1C(=O)N[C@H](C(=O)OCCOCCOC(=O)c1ccc(-c2c3nc(c(-c4c(F)c(F)c(F)c(F)c4F)c4ccc([nH]4)c(-c4c(F)c(F)c(F)c(F)c4F)c4nc(c(-c5c(F)c(F)c(F)c(F)c5F)c5ccc2[nH]5)C=C4)C=C3)cc1)c1ccccc1
REMARK SMILES IDX 16 1 15 2 14 3 13 4 11 5 12 6 10 7 9 8 7 9 8 10 6 12 1 13
REMARK SMILES IDX 2 14 3 15 4 16 5 17 85 18 86 19 90 20 87 21 89 22 88 23
REMARK SMILES IDX 17 24 18 25 19 26 20 27 21 28 22 29 23 30 84 31 24 32 83 33
REMARK SMILES IDX 25 34 26 35 27 36 77 37 28 38 82 39 76 40 78 41 29 42 81 43
REMARK SMILES IDX 75 44 74 45 30 47 62 48 42 49 61 50 43 51 46 52 60 53 79 54
REMARK SMILES IDX 44 55 45 56 59 58 80 59 47 60 31 61 32 62 40 63 33 64 34 65
REMARK SMILES IDX 38 66 41 67 35 68 36 69 39 70 37 71 63 72 64 73 72 74 65 75
REMARK SMILES IDX 66 76 70 77 73 78 67 79 68 80 71 81 69 82 48 83 49 84 57 85
REMARK SMILES IDX 50 86 51 87 55 88 58 89 52 90 53 91 56 92 54 93
REMARK H PARENT 9 11 78 46 46 57
REMARK Flexibility Score: inf
ROOT
ATOM      1  O   UNL A   1      32.759  29.611  24.659  1.00  0.00    -0.374 OA
ENDROOT
BRANCH   1   2
ATOM      2  C   UNL A   1      32.548  28.947  23.419  1.00  0.00     0.202 C 
BRANCH   2   3
ATOM      3  C   UNL A   1      31.518  27.817  23.338  1.00  0.00     0.261 C 
BRANCH   3   4
ATOM      4  O   UNL A   1      31.916  26.689  22.531  1.00  0.00    -0.461 OA
BRANCH   4   5
ATOM      5  C   UNL A   1      31.763  25.516  23.199  1.00  0.00     0.333 C 
ATOM      6  O   UNL A   1      30.922  24.677  22.870  1.00  0.00    -0.249 OA
BRANCH   5   7
ATOM      7  C   UNL A   1      32.685  25.287  24.403  1.00  0.00     0.223 C 
BRANCH   7   8
ATOM      8  N   UNL A   1      31.902  24.808  25.544  1.00  0.00    -0.335 N 
ATOM      9  C   UNL A   1      31.819  23.652  26.269  1.00  0.00     0.253 C 
ATOM     10  O   UNL A   1      31.060  23.727  27.241  1.00  0.00    -0.269 OA
ATOM     11  H   UNL A   1      31.277  25.494  25.874  1.00  0.00     0.165 HD
BRANCH   9  12
ATOM     12  C   UNL A   1      32.432  22.355  25.925  1.00  0.00     0.053 A 
ATOM     13  C   UNL A   1      34.403  21.811  27.628  1.00  0.00     0.046 C 
ATOM     14  C   UNL A   1      33.515  21.544  26.471  1.00  0.00    -0.028 A 
ATOM     15  C   UNL A   1      33.631  20.328  25.812  1.00  0.00     0.069 A 
ATOM     16  S   UNL A   1      32.456  20.093  24.615  1.00  0.00    -0.151 S 
ATOM     17  C   UNL A   1      31.779  21.616  24.940  1.00  0.00     0.079 A 
ENDBRANCH   9  12
ENDBRANCH   7   8
BRANCH   7  18
ATOM     18  C   UNL A   1      34.066  24.628  24.346  1.00  0.00    -0.014 A 
ATOM     19  C   UNL A   1      35.007  24.810  25.374  1.00  0.00     0.006 A 
ATOM     20  C   UNL A   1      34.392  23.679  23.356  1.00  0.00     0.006 A 
ATOM     21  C   UNL A   1      36.223  24.108  25.376  1.00  0.00     0.000 A 
ATOM     22  C   UNL A   1      35.626  23.026  23.319  1.00  0.00     0.000 A 
ATOM     23  C   UNL A   1      36.544  23.238  24.335  1.00  0.00     0.000 A 
ENDBRANCH   7  18
ENDBRANCH   5   7
ENDBRANCH   4   5
ENDBRANCH   3   4
ENDBRANCH   2   3
ENDBRANCH   1   2
BRANCH   1  24
ATOM     24  C   UNL A   1      31.623  30.092  25.363  1.00  0.00     0.202 C 
BRANCH  24  25
ATOM     25  C   UNL A   1      31.805  31.124  26.483  1.00  0.00     0.261 C 
BRANCH  25  26
ATOM     26  O   UNL A   1      32.884  30.846  27.384  1.00  0.00    -0.460 OA
BRANCH  26  27
ATOM     27  C   UNL A   1      33.685  31.914  27.627  1.00  0.00     0.338 C 
ATOM     28  O   UNL A   1      33.366  33.086  27.687  1.00  0.00    -0.246 OA
BRANCH  27  29
ATOM     29  C   UNL A   1      35.028  31.440  28.005  1.00  0.00     0.060 A 
ATOM     30  C   UNL A   1      35.203  30.059  28.164  1.00  0.00     0.016 A 
ATOM     31  C   UNL A   1      36.072  32.330  28.265  1.00  0.00     0.016 A 
ATOM     32  C   UNL A   1      36.417  29.560  28.614  1.00  0.00     0.010 A 
ATOM     33  C   UNL A   1      37.285  31.829  28.747  1.00  0.00     0.010 A 
ATOM     34  C   UNL A   1      37.444  30.448  28.955  1.00  0.00    -0.014 A 
BRANCH  34  35
ATOM     35  C   UNL A   1      38.598  29.929  29.722  1.00  0.00     0.031 A 
ATOM     36  C   UNL A   1      38.784  30.412  31.133  1.00  0.00     0.074 A 
ATOM     37  C   UNL A   1      39.414  29.003  29.195  1.00  0.00     0.049 A 
ATOM     38  N   UNL A   1      39.719  30.115  31.997  1.00  0.00    -0.248 NA
ATOM     39  C   UNL A   1      37.775  31.357  31.638  1.00  0.00     0.031 C 
ATOM     40  C   UNL A   1      39.280  28.423  27.861  1.00  0.00     0.029 A 
ATOM     41  N   UNL A   1      40.519  28.388  29.723  1.00  0.00    -0.354 N 
ATOM     42  C   UNL A   1      39.414  30.840  33.143  1.00  0.00     0.074 A 
ATOM     43  C   UNL A   1      38.226  31.611  32.858  1.00  0.00     0.031 C 
ATOM     44  C   UNL A   1      40.276  27.542  27.668  1.00  0.00     0.029 A 
ATOM     45  C   UNL A   1      41.134  27.524  28.851  1.00  0.00     0.049 A 
ATOM     46  H   UNL A   1      40.840  28.549  30.639  1.00  0.00     0.167 HD
ATOM     47  C   UNL A   1      40.068  30.850  34.327  1.00  0.00     0.037 A 
ATOM     48  C   UNL A   1      42.275  26.823  28.992  1.00  0.00     0.037 A 
ATOM     49  C   UNL A   1      41.251  30.077  34.595  1.00  0.00     0.049 A 
ATOM     50  C   UNL A   1      43.030  26.918  30.293  1.00  0.00     0.074 A 
ATOM     51  C   UNL A   1      41.990  30.005  35.761  1.00  0.00     0.029 A 
ATOM     52  N   UNL A   1      41.873  29.247  33.672  1.00  0.00    -0.354 N 
ATOM     53  N   UNL A   1      42.732  27.592  31.379  1.00  0.00    -0.248 NA
ATOM     54  C   UNL A   1      44.281  26.153  30.390  1.00  0.00     0.031 C 
ATOM     55  C   UNL A   1      43.096  29.182  35.524  1.00  0.00     0.029 A 
ATOM     56  C   UNL A   1      43.007  28.684  34.233  1.00  0.00     0.049 A 
ATOM     57  H   UNL A   1      41.555  29.083  32.755  1.00  0.00     0.167 HD
ATOM     58  C   UNL A   1      43.736  27.308  32.295  1.00  0.00     0.074 A 
ATOM     59  C   UNL A   1      44.645  26.390  31.642  1.00  0.00     0.031 C 
ATOM     60  C   UNL A   1      43.894  27.765  33.564  1.00  0.00     0.037 A 
BRANCH  47  61
ATOM     61  C   UNL A   1      39.544  31.758  35.402  1.00  0.00     0.064 A 
ATOM     62  C   UNL A   1      38.602  31.324  36.348  1.00  0.00     0.173 A 
ATOM     63  C   UNL A   1      40.010  33.077  35.501  1.00  0.00     0.173 A 
ATOM     64  F   UNL A   1      38.109  30.078  36.290  1.00  0.00    -0.203 F 
ATOM     65  C   UNL A   1      38.128  32.187  37.335  1.00  0.00     0.198 A 
ATOM     66  C   UNL A   1      39.558  33.927  36.508  1.00  0.00     0.198 A 
ATOM     67  F   UNL A   1      40.910  33.545  34.622  1.00  0.00    -0.203 F 
ATOM     68  F   UNL A   1      37.190  31.767  38.196  1.00  0.00    -0.200 F 
ATOM     69  C   UNL A   1      38.613  33.483  37.419  1.00  0.00     0.200 A 
ATOM     70  F   UNL A   1      40.037  35.176  36.593  1.00  0.00    -0.200 F 
ATOM     71  F   UNL A   1      38.161  34.309  38.373  1.00  0.00    -0.200 F 
ENDBRANCH  47  61
BRANCH  48  72
ATOM     72  C   UNL A   1      42.784  25.994  27.868  1.00  0.00     0.064 A 
ATOM     73  C   UNL A   1      43.684  26.513  26.928  1.00  0.00     0.173 A 
ATOM     74  C   UNL A   1      42.362  24.666  27.698  1.00  0.00     0.173 A 
ATOM     75  F   UNL A   1      44.100  27.784  27.030  1.00  0.00    -0.203 F 
ATOM     76  C   UNL A   1      44.127  25.744  25.852  1.00  0.00     0.198 A 
ATOM     77  C   UNL A   1      42.830  23.888  26.641  1.00  0.00     0.198 A 
ATOM     78  F   UNL A   1      41.498  24.118  28.566  1.00  0.00    -0.203 F 
ATOM     79  F   UNL A   1      44.946  26.284  24.939  1.00  0.00    -0.200 F 
ATOM     80  C   UNL A   1      43.704  24.430  25.713  1.00  0.00     0.200 A 
ATOM     81  F   UNL A   1      42.427  22.616  26.520  1.00  0.00    -0.200 F 
ATOM     82  F   UNL A   1      44.131  23.693  24.680  1.00  0.00    -0.200 F 
ENDBRANCH  48  72
BRANCH  60  83
ATOM     83  C   UNL A   1      45.069  27.246  34.342  1.00  0.00     0.064 A 
ATOM     84  C   UNL A   1      46.299  27.920  34.362  1.00  0.00     0.173 A 
ATOM     85  C   UNL A   1      44.946  26.080  35.115  1.00  0.00     0.173 A 
ATOM     86  F   UNL A   1      46.472  29.031  33.631  1.00  0.00    -0.203 F 
ATOM     87  C   UNL A   1      47.370  27.430  35.105  1.00  0.00     0.198 A 
ATOM     88  C   UNL A   1      46.007  25.614  35.884  1.00  0.00     0.198 A 
ATOM     89  F   UNL A   1      43.787  25.403  35.138  1.00  0.00    -0.203 F 
ATOM     90  F   UNL A   1      48.552  28.061  35.068  1.00  0.00    -0.200 F 
ATOM     91  C   UNL A   1      47.221  26.284  35.871  1.00  0.00     0.200 A 
ATOM     92  F   UNL A   1      45.855  24.517  36.638  1.00  0.00    -0.200 F 
ATOM     93  F   UNL A   1      48.251  25.820  36.592  1.00  0.00    -0.200 F 
ENDBRANCH  60  83
ENDBRANCH  34  35
ENDBRANCH  27  29
ENDBRANCH  26  27
ENDBRANCH  25  26
ENDBRANCH  24  25
ENDBRANCH   1  24
TORSDOF 17
ENDMDL
MODEL 3
REMARK VINA RESULT:     -11.2      1.584      2.653
REMARK SMILES Cc1cscc1C(=O)N[C@H](C(=O)OCCOCCOC(=O)c1ccc(-c2c3nc(c(-c4c(F)c(F)c(F)c(F)c4F)c4ccc([nH]4)c(-c4c(F)c(F)c(F)c(F)c4F)c4nc(c(-c5c(F)c(F)c(F)c(F)c5F)c5ccc2[nH]5)C=C4)C=C3)cc1)c1ccccc1
REMARK SMILES IDX 16 1 15 2 14 3 13 4 11 5 12 6 10 7 9 8 7 9 8 10 6 12 1 13
REMARK SMILES IDX 2 14 3 15 4 16 5 17 85 18 86 19 90 20 87 21 89 22 88 23
REMARK SMILES IDX 17 24 18 25 19 26 20 27 21 28 22 29 23 30 84 31 24 32 83 33
REMARK SMILES IDX 25 34 26 35 27 36 77 37 28 38 82 39 76 40 78 41 29 42 81 43
REMARK SMILES IDX 75 44 74 45 30 47 62 48 42 49 61 50 43 51 46 52 60 53 79 54
REMARK SMILES IDX 44 55 45 56 59 58 80 59 47 60 31 61 32 62 40 63 33 64 34 65
REMARK SMILES IDX 38 66 41 67 35 68 36 69 39 70 37 71 63 72 64 73 72 74 65 75
REMARK SMILES IDX 66 76 70 77 73 78 67 79 68 80 71 81 69 82 48 83 49 84 57 85
REMARK SMILES IDX 50 86 51 87 55 88 58 89 52 90 53 91 56 92 54 93
REMARK H PARENT 9 11 78 46 46 57
REMARK Flexibility Score: inf
ROOT
ATOM      1  O   UNL A   1      32.691  29.540  24.594  1.00  0.00    -0.374 OA
ENDROOT
BRANCH   1   2
ATOM      2  C   UNL A   1      32.436  28.889  23.355  1.00  0.00     0.202 C 
BRANCH   2   3
ATOM      3  C   UNL A   1      31.414  27.750  23.302  1.00  0.00     0.261 C 
BRANCH   3   4
ATOM      4  O   UNL A   1      31.808  26.618  22.499  1.00  0.00    -0.461 OA
BRANCH   4   5
ATOM      5  C   UNL A   1      31.697  25.452  23.188  1.00  0.00     0.333 C 
ATOM      6  O   UNL A   1      30.892  24.574  22.871  1.00  0.00    -0.249 OA
BRANCH   5   7
ATOM      7  C   UNL A   1      32.621  25.283  24.400  1.00  0.00     0.223 C 
BRANCH   7   8
ATOM      8  N   UNL A   1      31.847  24.820  25.554  1.00  0.00    -0.335 N 
ATOM      9  C   UNL A   1      31.757  23.669  26.285  1.00  0.00     0.253 C 
ATOM     10  O   UNL A   1      31.013  23.758  27.267  1.00  0.00    -0.269 OA
ATOM     11  H   UNL A   1      31.236  25.515  25.889  1.00  0.00     0.165 HD
BRANCH   9  12
ATOM     12  C   UNL A   1      32.349  22.361  25.940  1.00  0.00     0.053 A 
ATOM     13  C   UNL A   1      34.323  21.791  27.629  1.00  0.00     0.046 C 
ATOM     14  C   UNL A   1      33.423  21.535  26.480  1.00  0.00    -0.028 A 
ATOM     15  C   UNL A   1      33.516  20.316  25.822  1.00  0.00     0.069 A 
ATOM     16  S   UNL A   1      32.329  20.097  24.634  1.00  0.00    -0.151 S 
ATOM     17  C   UNL A   1      31.678  21.631  24.961  1.00  0.00     0.079 A 
ENDBRANCH   9  12
ENDBRANCH   7   8
BRANCH   7  18
ATOM     18  C   UNL A   1      34.018  24.657  24.366  1.00  0.00    -0.014 A 
ATOM     19  C   UNL A   1      34.927  24.839  25.423  1.00  0.00     0.006 A 
ATOM     20  C   UNL A   1      34.391  23.736  23.366  1.00  0.00     0.006 A 
ATOM     21  C   UNL A   1      36.159  24.164  25.442  1.00  0.00     0.000 A 
ATOM     22  C   UNL A   1      35.641  23.113  23.349  1.00  0.00     0.000 A 
ATOM     23  C   UNL A   1      36.527  23.324  24.393  1.00  0.00     0.000 A 
ENDBRANCH   7  18
ENDBRANCH   5   7
ENDBRANCH   4   5
ENDBRANCH   3   4
ENDBRANCH   2   3
ENDBRANCH   1   2
BRANCH   1  24
ATOM     24  C   UNL A   1      31.578  29.976  25.361  1.00  0.00     0.202 C 
BRANCH  24  25
ATOM     25  C   UNL A   1      31.791  30.967  26.514  1.00  0.00     0.261 C 
BRANCH  25  26
ATOM     26  O   UNL A   1      32.921  30.679  27.348  1.00  0.00    -0.460 OA
BRANCH  26  27
ATOM     27  C   UNL A   1      33.684  31.765  27.633  1.00  0.00     0.338 C 
ATOM     28  O   UNL A   1      33.323  32.922  27.737  1.00  0.00    -0.246 OA
BRANCH  27  29
ATOM     29  C   UNL A   1      35.043  31.326  27.992  1.00  0.00     0.060 A 
ATOM     30  C   UNL A   1      35.242  29.955  28.204  1.00  0.00     0.016 A 
ATOM     31  C   UNL A   1      36.081  32.239  28.184  1.00  0.00     0.016 A 
ATOM     32  C   UNL A   1      36.475  29.491  28.641  1.00  0.00     0.010 A 
ATOM     33  C   UNL A   1      37.314  31.775  28.652  1.00  0.00     0.010 A 
ATOM     34  C   UNL A   1      37.498  30.406  28.914  1.00  0.00    -0.014 A 
BRANCH  34  35
ATOM     35  C   UNL A   1      38.680  29.936  29.670  1.00  0.00     0.031 A 
ATOM     36  C   UNL A   1      38.877  30.450  31.069  1.00  0.00     0.074 A 
ATOM     37  C   UNL A   1      39.515  29.025  29.145  1.00  0.00     0.049 A 
ATOM     38  N   UNL A   1      39.834  30.196  31.921  1.00  0.00    -0.248 NA
ATOM     39  C   UNL A   1      37.848  31.374  31.575  1.00  0.00     0.031 C 
ATOM     40  C   UNL A   1      39.375  28.417  27.824  1.00  0.00     0.029 A 
ATOM     41  N   UNL A   1      40.646  28.452  29.664  1.00  0.00    -0.354 N 
ATOM     42  C   UNL A   1      39.528  30.933  33.059  1.00  0.00     0.074 A 
ATOM     43  C   UNL A   1      38.313  31.664  32.781  1.00  0.00     0.031 C 
ATOM     44  C   UNL A   1      40.393  27.562  27.629  1.00  0.00     0.029 A 
ATOM     45  C   UNL A   1      41.271  27.591  28.797  1.00  0.00     0.049 A 
ATOM     46  H   UNL A   1      40.979  28.640  30.571  1.00  0.00     0.167 HD
ATOM     47  C   UNL A   1      40.202  30.985  34.231  1.00  0.00     0.037 A 
ATOM     48  C   UNL A   1      42.435  26.927  28.929  1.00  0.00     0.037 A 
ATOM     49  C   UNL A   1      41.412  30.252  34.491  1.00  0.00     0.049 A 
ATOM     50  C   UNL A   1      43.210  27.069  30.215  1.00  0.00     0.074 A 
ATOM     51  C   UNL A   1      42.173  30.223  35.645  1.00  0.00     0.029 A 
ATOM     52  N   UNL A   1      42.043  29.423  33.572  1.00  0.00    -0.354 N 
ATOM     53  N   UNL A   1      42.910  27.753  31.294  1.00  0.00    -0.248 NA
ATOM     54  C   UNL A   1      44.484  26.342  30.304  1.00  0.00     0.031 C 
ATOM     55  C   UNL A   1      43.298  29.429  35.403  1.00  0.00     0.029 A 
ATOM     56  C   UNL A   1      43.202  28.905  34.123  1.00  0.00     0.049 A 
ATOM     57  H   UNL A   1      41.714  29.233  32.664  1.00  0.00     0.167 HD
ATOM     58  C   UNL A   1      43.938  27.516  32.197  1.00  0.00     0.074 A 
ATOM     59  C   UNL A   1      44.863  26.613  31.544  1.00  0.00     0.031 C 
ATOM     60  C   UNL A   1      44.104  28.000  33.454  1.00  0.00     0.037 A 
BRANCH  47  61
ATOM     61  C   UNL A   1      39.670  31.896  35.299  1.00  0.00     0.064 A 
ATOM     62  C   UNL A   1      40.059  33.242  35.390  1.00  0.00     0.173 A 
ATOM     63  C   UNL A   1      38.737  31.420  36.232  1.00  0.00     0.173 A 
ATOM     64  F   UNL A   1      40.962  33.745  34.535  1.00  0.00    -0.203 F 
ATOM     65  C   UNL A   1      39.553  34.067  36.393  1.00  0.00     0.198 A 
ATOM     66  C   UNL A   1      38.210  32.256  37.213  1.00  0.00     0.198 A 
ATOM     67  F   UNL A   1      38.331  30.142  36.192  1.00  0.00    -0.203 F 
ATOM     68  F   UNL A   1      39.979  35.335  36.493  1.00  0.00    -0.200 F 
ATOM     69  C   UNL A   1      38.624  33.576  37.297  1.00  0.00     0.200 A 
ATOM     70  F   UNL A   1      37.303  31.782  38.079  1.00  0.00    -0.200 F 
ATOM     71  F   UNL A   1      38.133  34.374  38.256  1.00  0.00    -0.200 F 
ENDBRANCH  47  61
BRANCH  48  72
ATOM     72  C   UNL A   1      42.949  26.092  27.811  1.00  0.00     0.064 A 
ATOM     73  C   UNL A   1      42.626  24.733  27.708  1.00  0.00     0.173 A 
ATOM     74  C   UNL A   1      43.793  26.636  26.830  1.00  0.00     0.173 A 
ATOM     75  F   UNL A   1      41.842  24.159  28.634  1.00  0.00    -0.203 F 
ATOM     76  C   UNL A   1      43.143  23.944  26.681  1.00  0.00     0.198 A 
ATOM     77  C   UNL A   1      44.283  25.855  25.786  1.00  0.00     0.198 A 
ATOM     78  F   UNL A   1      44.137  27.931  26.881  1.00  0.00    -0.203 F 
ATOM     79  F   UNL A   1      42.860  22.636  26.638  1.00  0.00    -0.200 F 
ATOM     80  C   UNL A   1      43.967  24.507  25.717  1.00  0.00     0.200 A 
ATOM     81  F   UNL A   1      45.068  26.407  24.851  1.00  0.00    -0.200 F 
ATOM     82  F   UNL A   1      44.461  23.750  24.730  1.00  0.00    -0.200 F 
ENDBRANCH  48  72
BRANCH  60  83
ATOM     83  C   UNL A   1      45.308  27.530  34.220  1.00  0.00     0.064 A 
ATOM     84  C   UNL A   1      45.282  26.361  34.994  1.00  0.00     0.173 A 
ATOM     85  C   UNL A   1      46.518  28.238  34.139  1.00  0.00     0.173 A 
ATOM     86  F   UNL A   1      44.147  25.655  35.114  1.00  0.00    -0.203 F 
ATOM     87  C   UNL A   1      46.415  25.935  35.682  1.00  0.00     0.198 A 
ATOM     88  C   UNL A   1      47.657  27.788  34.799  1.00  0.00     0.198 A 
ATOM     89  F   UNL A   1      46.598  29.358  33.404  1.00  0.00    -0.203 F 
ATOM     90  F   UNL A   1      46.353  24.844  36.459  1.00  0.00    -0.200 F 
ATOM     91  C   UNL A   1      47.602  26.643  35.578  1.00  0.00     0.200 A 
ATOM     92  F   UNL A   1      48.808  28.465  34.681  1.00  0.00    -0.200 F 
ATOM     93  F   UNL A   1      48.694  26.224  36.233  1.00  0.00    -0.200 F 
ENDBRANCH  60  83
ENDBRANCH  34  35
ENDBRANCH  27  29
ENDBRANCH  26  27
ENDBRANCH  25  26
ENDBRANCH  24  25
ENDBRANCH   1  24
TORSDOF 17
ENDMDL
