MODEL 1
REMARK VINA RESULT:     -10.5      0.000      0.000
REMARK SMILES CCCC(O)(CCC)[C@@]1(C)CC[C@@H](C(=O)OCCOCCOC(=O)c2ccc(-c3c4nc(c(-c5c(F)c(F)c(F)c(F)c5F)c5ccc([nH]5)c(-c5c(F)c(F)c(F)c(F)c5F)c5nc(c(-c6c(F)c(F)c(F)c(F)c6F)c6ccc3[nH]6)C=C5)C=C4)cc2)C(C)(C)O1
REMARK SMILES IDX 18 1 17 2 16 3 14 4 15 5 13 6 9 7 10 8 11 9 91 10 12 11
REMARK SMILES IDX 88 12 89 13 90 14 4 15 3 16 2 17 1 18 5 19 6 21 7 22 8 23
REMARK SMILES IDX 19 24 20 25 21 26 22 27 23 28 24 29 25 30 26 31 87 32 27 33
REMARK SMILES IDX 86 34 28 35 29 36 30 37 80 38 31 39 85 40 79 41 81 42 32 43
REMARK SMILES IDX 84 44 78 45 77 46 33 48 65 49 45 50 64 51 46 52 49 53 63 54
REMARK SMILES IDX 82 55 47 56 48 57 62 59 83 60 50 61 34 62 35 63 43 64 36 65
REMARK SMILES IDX 37 66 41 67 44 68 38 69 39 70 42 71 40 72 66 73 67 74 75 75
REMARK SMILES IDX 68 76 69 77 73 78 76 79 70 80 71 81 74 82 72 83 51 84 52 85
REMARK SMILES IDX 60 86 53 87 54 88 58 89 61 90 55 91 56 92 59 93 57 94
REMARK H PARENT 5 20 81 47 49 58
REMARK Flexibility Score: inf
ROOT
ATOM      1  C   UNL A   1      31.569  29.212  24.724  1.00  0.00     0.202 C 
ENDROOT
BRANCH   1   2
ATOM      2  C   UNL A   1      31.963  27.749  24.956  1.00  0.00     0.261 C 
BRANCH   2   3
ATOM      3  O   UNL A   1      30.889  26.824  24.676  1.00  0.00    -0.463 OA
BRANCH   3   4
ATOM      4  C   UNL A   1      31.234  25.705  23.993  1.00  0.00     0.311 C 
ATOM      5  O   UNL A   1      30.562  25.210  23.094  1.00  0.00    -0.252 OA
BRANCH   4   6
ATOM      6  C   UNL A   1      32.504  25.044  24.490  1.00  0.00     0.131 C 
ATOM      7  C   UNL A   1      34.865  23.467  25.254  1.00  0.00     0.095 C 
ATOM      8  C   UNL A   1      36.070  24.283  25.800  1.00  0.00     0.045 C 
ATOM      9  C   UNL A   1      34.678  23.944  23.771  1.00  0.00     0.039 C 
ATOM     10  O   UNL A   1      33.769  23.869  26.095  1.00  0.00    -0.366 OA
ATOM     11  C   UNL A   1      33.311  24.479  23.325  1.00  0.00     0.021 C 
ATOM     12  C   UNL A   1      32.427  23.988  25.594  1.00  0.00     0.077 C 
ATOM     13  C   UNL A   1      31.779  22.661  25.153  1.00  0.00     0.043 C 
ATOM     14  C   UNL A   1      31.672  24.448  26.845  1.00  0.00     0.043 C 
BRANCH   7  15
ATOM     15  C   UNL A   1      35.103  21.906  25.512  1.00  0.00     0.093 C 
BRANCH  15  16
ATOM     16  C   UNL A   1      34.487  20.893  24.498  1.00  0.00     0.038 C 
BRANCH  16  17
ATOM     17  C   UNL A   1      33.742  19.650  24.998  1.00  0.00    -0.000 C 
ATOM     18  C   UNL A   1      33.059  18.837  23.915  1.00  0.00     0.004 C 
ENDBRANCH  16  17
ENDBRANCH  15  16
BRANCH  15  19
ATOM     19  O   UNL A   1      34.578  21.552  26.813  1.00  0.00    -0.387 OA
ATOM     20  H   UNL A   1      33.830  22.132  27.027  1.00  0.00     0.211 HD
ENDBRANCH  15  19
BRANCH  15  21
ATOM     21  C   UNL A   1      36.641  21.542  25.651  1.00  0.00     0.038 C 
BRANCH  21  22
ATOM     22  C   UNL A   1      37.354  20.641  24.631  1.00  0.00    -0.000 C 
ATOM     23  C   UNL A   1      37.466  19.161  24.983  1.00  0.00     0.004 C 
ENDBRANCH  21  22
ENDBRANCH  15  21
ENDBRANCH   7  15
ENDBRANCH   4   6
ENDBRANCH   3   4
ENDBRANCH   2   3
ENDBRANCH   1   2
BRANCH   1  24
ATOM     24  O   UNL A   1      31.843  30.121  25.787  1.00  0.00    -0.374 OA
BRANCH  24  25
ATOM     25  C   UNL A   1      31.039  31.297  25.853  1.00  0.00     0.202 C 
BRANCH  25  26
ATOM     26  C   UNL A   1      31.627  32.448  26.686  1.00  0.00     0.261 C 
BRANCH  26  27
ATOM     27  O   UNL A   1      32.755  32.008  27.472  1.00  0.00    -0.460 OA
BRANCH  27  28
ATOM     28  C   UNL A   1      33.624  32.984  27.817  1.00  0.00     0.338 C 
ATOM     29  O   UNL A   1      33.365  34.155  28.069  1.00  0.00    -0.246 OA
BRANCH  28  30
ATOM     30  C   UNL A   1      34.965  32.422  28.052  1.00  0.00     0.060 A 
ATOM     31  C   UNL A   1      35.054  31.033  28.207  1.00  0.00     0.016 A 
ATOM     32  C   UNL A   1      36.083  33.232  28.254  1.00  0.00     0.016 A 
ATOM     33  C   UNL A   1      36.245  30.454  28.636  1.00  0.00     0.010 A 
ATOM     34  C   UNL A   1      37.281  32.647  28.691  1.00  0.00     0.010 A 
ATOM     35  C   UNL A   1      37.351  31.262  28.932  1.00  0.00    -0.014 A 
BRANCH  35  36
ATOM     36  C   UNL A   1      38.496  30.660  29.664  1.00  0.00     0.031 A 
ATOM     37  C   UNL A   1      38.710  31.021  31.110  1.00  0.00     0.074 A 
ATOM     38  C   UNL A   1      39.280  29.734  29.087  1.00  0.00     0.049 A 
ATOM     39  N   UNL A   1      39.603  30.574  31.959  1.00  0.00    -0.248 NA
ATOM     40  C   UNL A   1      37.788  32.016  31.678  1.00  0.00     0.031 C 
ATOM     41  C   UNL A   1      39.146  29.254  27.714  1.00  0.00     0.029 A 
ATOM     42  N   UNL A   1      40.339  29.021  29.592  1.00  0.00    -0.354 N 
ATOM     43  C   UNL A   1      39.350  31.232  33.156  1.00  0.00     0.074 A 
ATOM     44  C   UNL A   1      38.245  32.136  32.915  1.00  0.00     0.031 C 
ATOM     45  C   UNL A   1      40.083  28.319  27.487  1.00  0.00     0.029 A 
ATOM     46  C   UNL A   1      40.900  28.154  28.689  1.00  0.00     0.049 A 
ATOM     47  H   UNL A   1      40.666  29.123  30.515  1.00  0.00     0.167 HD
ATOM     48  C   UNL A   1      39.970  31.088  34.352  1.00  0.00     0.037 A 
ATOM     49  C   UNL A   1      41.959  27.329  28.815  1.00  0.00     0.037 A 
ATOM     50  C   UNL A   1      41.070  30.191  34.595  1.00  0.00     0.049 A 
ATOM     51  C   UNL A   1      42.691  27.251  30.129  1.00  0.00     0.074 A 
ATOM     52  C   UNL A   1      41.751  29.961  35.778  1.00  0.00     0.029 A 
ATOM     53  N   UNL A   1      41.657  29.382  33.633  1.00  0.00    -0.354 N 
ATOM     54  N   UNL A   1      42.429  27.857  31.261  1.00  0.00    -0.248 NA
ATOM     55  C   UNL A   1      43.867  26.370  30.179  1.00  0.00     0.031 C 
ATOM     56  C   UNL A   1      42.786  29.055  35.518  1.00  0.00     0.029 A 
ATOM     57  C   UNL A   1      42.714  28.677  34.187  1.00  0.00     0.049 A 
ATOM     58  H   UNL A   1      41.365  29.319  32.695  1.00  0.00     0.167 HD
ATOM     59  C   UNL A   1      43.387  27.412  32.164  1.00  0.00     0.074 A 
ATOM     60  C   UNL A   1      44.230  26.476  31.450  1.00  0.00     0.031 C 
ATOM     61  C   UNL A   1      43.549  27.747  33.469  1.00  0.00     0.037 A 
BRANCH  48  62
ATOM     62  C   UNL A   1      39.493  31.953  35.482  1.00  0.00     0.064 A 
ATOM     63  C   UNL A   1      38.529  31.507  36.400  1.00  0.00     0.173 A 
ATOM     64  C   UNL A   1      40.014  33.244  35.656  1.00  0.00     0.173 A 
ATOM     65  F   UNL A   1      37.990  30.285  36.272  1.00  0.00    -0.203 F 
ATOM     66  C   UNL A   1      38.080  32.334  37.427  1.00  0.00     0.198 A 
ATOM     67  C   UNL A   1      39.585  34.058  36.701  1.00  0.00     0.198 A 
ATOM     68  F   UNL A   1      40.942  33.718  34.811  1.00  0.00    -0.203 F 
ATOM     69  F   UNL A   1      37.118  31.908  38.257  1.00  0.00    -0.200 F 
ATOM     70  C   UNL A   1      38.612  33.606  37.578  1.00  0.00     0.200 A 
ATOM     71  F   UNL A   1      40.109  35.281  36.854  1.00  0.00    -0.200 F 
ATOM     72  F   UNL A   1      38.177  34.401  38.567  1.00  0.00    -0.200 F 
ENDBRANCH  48  62
BRANCH  49  73
ATOM     73  C   UNL A   1      42.389  26.503  27.657  1.00  0.00     0.064 A 
ATOM     74  C   UNL A   1      43.385  26.951  26.780  1.00  0.00     0.173 A 
ATOM     75  C   UNL A   1      41.811  25.249  27.406  1.00  0.00     0.173 A 
ATOM     76  F   UNL A   1      43.947  28.154  26.962  1.00  0.00    -0.203 F 
ATOM     77  C   UNL A   1      43.784  26.178  25.690  1.00  0.00     0.198 A 
ATOM     78  C   UNL A   1      42.229  24.467  26.333  1.00  0.00     0.198 A 
ATOM     79  F   UNL A   1      40.850  24.780  28.214  1.00  0.00    -0.203 F 
ATOM     80  F   UNL A   1      44.715  26.643  24.846  1.00  0.00    -0.200 F 
ATOM     81  C   UNL A   1      43.211  24.933  25.473  1.00  0.00     0.200 A 
ATOM     82  F   UNL A   1      41.681  23.260  26.133  1.00  0.00    -0.200 F 
ATOM     83  F   UNL A   1      43.602  24.186  24.431  1.00  0.00    -0.200 F 
ENDBRANCH  49  73
BRANCH  61  84
ATOM     84  C   UNL A   1      44.662  27.077  34.223  1.00  0.00     0.064 A 
ATOM     85  C   UNL A   1      44.474  25.854  34.886  1.00  0.00     0.173 A 
ATOM     86  C   UNL A   1      45.945  27.645  34.250  1.00  0.00     0.173 A 
ATOM     87  F   UNL A   1      43.263  25.276  34.904  1.00  0.00    -0.203 F 
ATOM     88  C   UNL A   1      45.522  25.240  35.567  1.00  0.00     0.198 A 
ATOM     89  C   UNL A   1      46.998  27.013  34.907  1.00  0.00     0.198 A 
ATOM     90  F   UNL A   1      46.182  28.810  33.627  1.00  0.00    -0.203 F 
ATOM     91  F   UNL A   1      45.307  24.096  36.232  1.00  0.00    -0.200 F 
ATOM     92  C   UNL A   1      46.785  25.815  35.570  1.00  0.00     0.200 A 
ATOM     93  F   UNL A   1      48.219  27.564  34.896  1.00  0.00    -0.200 F 
ATOM     94  F   UNL A   1      47.793  25.219  36.220  1.00  0.00    -0.200 F 
ENDBRANCH  61  84
ENDBRANCH  35  36
ENDBRANCH  28  30
ENDBRANCH  27  28
ENDBRANCH  26  27
ENDBRANCH  25  26
ENDBRANCH  24  25
ENDBRANCH   1  24
TORSDOF 20
ENDMDL
MODEL 2
REMARK VINA RESULT:     -10.5      1.605      2.621
REMARK SMILES CCCC(O)(CCC)[C@@]1(C)CC[C@@H](C(=O)OCCOCCOC(=O)c2ccc(-c3c4nc(c(-c5c(F)c(F)c(F)c(F)c5F)c5ccc([nH]5)c(-c5c(F)c(F)c(F)c(F)c5F)c5nc(c(-c6c(F)c(F)c(F)c(F)c6F)c6ccc3[nH]6)C=C5)C=C4)cc2)C(C)(C)O1
REMARK SMILES IDX 18 1 17 2 16 3 14 4 15 5 13 6 9 7 10 8 11 9 91 10 12 11
REMARK SMILES IDX 88 12 89 13 90 14 4 15 3 16 2 17 1 18 5 19 6 21 7 22 8 23
REMARK SMILES IDX 19 24 20 25 21 26 22 27 23 28 24 29 25 30 26 31 87 32 27 33
REMARK SMILES IDX 86 34 28 35 29 36 30 37 80 38 31 39 85 40 79 41 81 42 32 43
REMARK SMILES IDX 84 44 78 45 77 46 33 48 65 49 45 50 64 51 46 52 49 53 63 54
REMARK SMILES IDX 82 55 47 56 48 57 62 59 83 60 50 61 34 62 35 63 43 64 36 65
REMARK SMILES IDX 37 66 41 67 44 68 38 69 39 70 42 71 40 72 66 73 67 74 75 75
REMARK SMILES IDX 68 76 69 77 73 78 76 79 70 80 71 81 74 82 72 83 51 84 52 85
REMARK SMILES IDX 60 86 53 87 54 88 58 89 61 90 55 91 56 92 59 93 57 94
REMARK H PARENT 5 20 81 47 49 58
REMARK Flexibility Score: inf
ROOT
ATOM      1  C   UNL A   1      33.232  28.709  27.172  1.00  0.00     0.202 C 
ENDROOT
BRANCH   1   2
ATOM      2  C   UNL A   1      31.745  28.526  26.854  1.00  0.00     0.261 C 
BRANCH   2   3
ATOM      3  O   UNL A   1      31.248  27.218  27.214  1.00  0.00    -0.463 OA
BRANCH   3   4
ATOM      4  C   UNL A   1      31.120  26.332  26.196  1.00  0.00     0.311 C 
ATOM      5  O   UNL A   1      30.321  26.451  25.272  1.00  0.00    -0.252 OA
BRANCH   4   6
ATOM      6  C   UNL A   1      32.002  25.106  26.328  1.00  0.00     0.131 C 
ATOM      7  C   UNL A   1      33.739  22.737  26.216  1.00  0.00     0.095 C 
ATOM      8  C   UNL A   1      34.459  22.368  27.542  1.00  0.00     0.045 C 
ATOM      9  C   UNL A   1      34.298  24.148  25.817  1.00  0.00     0.039 C 
ATOM     10  O   UNL A   1      32.349  22.788  26.582  1.00  0.00    -0.366 OA
ATOM     11  C   UNL A   1      33.314  25.300  25.575  1.00  0.00     0.021 C 
ATOM     12  C   UNL A   1      31.437  23.726  25.986  1.00  0.00     0.077 C 
ATOM     13  C   UNL A   1      31.172  23.508  24.483  1.00  0.00     0.043 C 
ATOM     14  C   UNL A   1      30.131  23.388  26.713  1.00  0.00     0.043 C 
BRANCH   7  15
ATOM     15  C   UNL A   1      33.900  21.545  25.159  1.00  0.00     0.093 C 
BRANCH  15  16
ATOM     16  C   UNL A   1      35.265  20.792  25.106  1.00  0.00     0.038 C 
BRANCH  16  17
ATOM     17  C   UNL A   1      36.504  21.472  24.511  1.00  0.00    -0.000 C 
ATOM     18  C   UNL A   1      37.490  22.008  25.533  1.00  0.00     0.004 C 
ENDBRANCH  16  17
ENDBRANCH  15  16
BRANCH  15  19
ATOM     19  O   UNL A   1      33.662  22.055  23.826  1.00  0.00    -0.387 OA
ATOM     20  H   UNL A   1      34.150  21.517  23.183  1.00  0.00     0.211 HD
ENDBRANCH  15  19
BRANCH  15  21
ATOM     21  C   UNL A   1      32.770  20.442  25.312  1.00  0.00     0.038 C 
BRANCH  21  22
ATOM     22  C   UNL A   1      32.949  19.020  24.761  1.00  0.00    -0.000 C 
ATOM     23  C   UNL A   1      32.427  18.758  23.353  1.00  0.00     0.004 C 
ENDBRANCH  21  22
ENDBRANCH  15  21
ENDBRANCH   7  15
ENDBRANCH   4   6
ENDBRANCH   3   4
ENDBRANCH   2   3
ENDBRANCH   1   2
BRANCH   1  24
ATOM     24  O   UNL A   1      33.777  30.007  26.947  1.00  0.00    -0.374 OA
BRANCH  24  25
ATOM     25  C   UNL A   1      32.925  31.118  27.217  1.00  0.00     0.202 C 
BRANCH  25  26
ATOM     26  C   UNL A   1      33.600  32.304  27.926  1.00  0.00     0.261 C 
BRANCH  26  27
ATOM     27  O   UNL A   1      32.933  33.548  27.626  1.00  0.00    -0.460 OA
BRANCH  27  28
ATOM     28  C   UNL A   1      33.190  34.554  28.491  1.00  0.00     0.338 C 
ATOM     29  O   UNL A   1      32.501  35.547  28.702  1.00  0.00    -0.246 OA
BRANCH  28  30
ATOM     30  C   UNL A   1      34.351  34.227  29.335  1.00  0.00     0.060 A 
ATOM     31  C   UNL A   1      35.620  34.423  28.776  1.00  0.00     0.016 A 
ATOM     32  C   UNL A   1      34.212  33.616  30.583  1.00  0.00     0.016 A 
ATOM     33  C   UNL A   1      36.752  33.946  29.429  1.00  0.00     0.010 A 
ATOM     34  C   UNL A   1      35.354  33.131  31.236  1.00  0.00     0.010 A 
ATOM     35  C   UNL A   1      36.623  33.249  30.638  1.00  0.00    -0.014 A 
BRANCH  35  36
ATOM     36  C   UNL A   1      37.796  32.498  31.155  1.00  0.00     0.031 A 
ATOM     37  C   UNL A   1      38.305  32.797  32.540  1.00  0.00     0.074 A 
ATOM     38  C   UNL A   1      38.347  31.497  30.446  1.00  0.00     0.049 A 
ATOM     39  N   UNL A   1      39.271  32.227  33.216  1.00  0.00    -0.248 NA
ATOM     40  C   UNL A   1      37.626  33.882  33.264  1.00  0.00     0.031 C 
ATOM     41  C   UNL A   1      37.915  31.069  29.118  1.00  0.00     0.029 A 
ATOM     42  N   UNL A   1      39.383  30.651  30.754  1.00  0.00    -0.354 N 
ATOM     43  C   UNL A   1      39.315  32.883  34.440  1.00  0.00     0.074 A 
ATOM     44  C   UNL A   1      38.305  33.918  34.400  1.00  0.00     0.031 C 
ATOM     45  C   UNL A   1      38.676  30.032  28.727  1.00  0.00     0.029 A 
ATOM     46  C   UNL A   1      39.666  29.744  29.765  1.00  0.00     0.049 A 
ATOM     47  H   UNL A   1      39.878  30.692  31.605  1.00  0.00     0.167 HD
ATOM     48  C   UNL A   1      40.115  32.638  35.506  1.00  0.00     0.037 A 
ATOM     49  C   UNL A   1      40.621  28.794  29.700  1.00  0.00     0.037 A 
ATOM     50  C   UNL A   1      41.122  31.609  35.549  1.00  0.00     0.049 A 
ATOM     51  C   UNL A   1      41.558  28.599  30.863  1.00  0.00     0.074 A 
ATOM     52  C   UNL A   1      41.967  31.272  36.592  1.00  0.00     0.029 A 
ATOM     53  N   UNL A   1      41.426  30.758  34.497  1.00  0.00    -0.354 N 
ATOM     54  N   UNL A   1      41.576  29.206  32.024  1.00  0.00    -0.248 NA
ATOM     55  C   UNL A   1      42.607  27.582  30.703  1.00  0.00     0.031 C 
ATOM     56  C   UNL A   1      42.821  30.255  36.152  1.00  0.00     0.029 A 
ATOM     57  C   UNL A   1      42.470  29.918  34.854  1.00  0.00     0.049 A 
ATOM     58  H   UNL A   1      40.968  30.752  33.626  1.00  0.00     0.167 HD
ATOM     59  C   UNL A   1      42.616  28.628  32.742  1.00  0.00     0.074 A 
ATOM     60  C   UNL A   1      43.199  27.614  31.889  1.00  0.00     0.031 C 
ATOM     61  C   UNL A   1      43.045  28.911  33.998  1.00  0.00     0.037 A 
BRANCH  48  62
ATOM     62  C   UNL A   1      39.954  33.528  36.704  1.00  0.00     0.064 A 
ATOM     63  C   UNL A   1      39.015  33.252  37.710  1.00  0.00     0.173 A 
ATOM     64  C   UNL A   1      40.757  34.669  36.853  1.00  0.00     0.173 A 
ATOM     65  F   UNL A   1      38.213  32.181  37.611  1.00  0.00    -0.203 F 
ATOM     66  C   UNL A   1      38.862  34.105  38.801  1.00  0.00     0.198 A 
ATOM     67  C   UNL A   1      40.623  35.502  37.960  1.00  0.00     0.198 A 
ATOM     68  F   UNL A   1      41.675  34.976  35.924  1.00  0.00    -0.203 F 
ATOM     69  F   UNL A   1      37.920  33.853  39.721  1.00  0.00    -0.200 F 
ATOM     70  C   UNL A   1      39.669  35.226  38.927  1.00  0.00     0.200 A 
ATOM     71  F   UNL A   1      41.412  36.577  38.087  1.00  0.00    -0.200 F 
ATOM     72  F   UNL A   1      39.520  36.046  39.977  1.00  0.00    -0.200 F 
ENDBRANCH  48  62
BRANCH  49  73
ATOM     73  C   UNL A   1      40.735  27.949  28.483  1.00  0.00     0.064 A 
ATOM     74  C   UNL A   1      41.489  28.370  27.379  1.00  0.00     0.173 A 
ATOM     75  C   UNL A   1      40.094  26.704  28.402  1.00  0.00     0.173 A 
ATOM     76  F   UNL A   1      42.098  29.563  27.399  1.00  0.00    -0.203 F 
ATOM     77  C   UNL A   1      41.591  27.579  26.236  1.00  0.00     0.198 A 
ATOM     78  C   UNL A   1      40.219  25.904  27.269  1.00  0.00     0.198 A 
ATOM     79  F   UNL A   1      39.357  26.261  29.430  1.00  0.00    -0.203 F 
ATOM     80  F   UNL A   1      42.290  28.018  25.180  1.00  0.00    -0.200 F 
ATOM     81  C   UNL A   1      40.963  26.343  26.185  1.00  0.00     0.200 A 
ATOM     82  F   UNL A   1      39.619  24.706  27.228  1.00  0.00    -0.200 F 
ATOM     83  F   UNL A   1      41.070  25.579  25.090  1.00  0.00    -0.200 F 
ENDBRANCH  49  73
BRANCH  61  84
ATOM     84  C   UNL A   1      44.183  28.095  34.542  1.00  0.00     0.064 A 
ATOM     85  C   UNL A   1      45.514  28.529  34.447  1.00  0.00     0.173 A 
ATOM     86  C   UNL A   1      43.935  26.883  35.204  1.00  0.00     0.173 A 
ATOM     87  F   UNL A   1      45.807  29.673  33.811  1.00  0.00    -0.203 F 
ATOM     88  C   UNL A   1      46.555  27.767  34.972  1.00  0.00     0.198 A 
ATOM     89  C   UNL A   1      44.976  26.138  35.754  1.00  0.00     0.198 A 
ATOM     90  F   UNL A   1      42.680  26.425  35.329  1.00  0.00    -0.203 F 
ATOM     91  F   UNL A   1      47.823  28.178  34.828  1.00  0.00    -0.200 F 
ATOM     92  C   UNL A   1      46.285  26.577  35.632  1.00  0.00     0.200 A 
ATOM     93  F   UNL A   1      44.710  24.996  36.402  1.00  0.00    -0.200 F 
ATOM     94  F   UNL A   1      47.287  25.849  36.142  1.00  0.00    -0.200 F 
ENDBRANCH  61  84
ENDBRANCH  35  36
ENDBRANCH  28  30
ENDBRANCH  27  28
ENDBRANCH  26  27
ENDBRANCH  25  26
ENDBRANCH  24  25
ENDBRANCH   1  24
TORSDOF 20
ENDMDL
MODEL 3
REMARK VINA RESULT:     -10.4      1.936      3.034
REMARK SMILES CCCC(O)(CCC)[C@@]1(C)CC[C@@H](C(=O)OCCOCCOC(=O)c2ccc(-c3c4nc(c(-c5c(F)c(F)c(F)c(F)c5F)c5ccc([nH]5)c(-c5c(F)c(F)c(F)c(F)c5F)c5nc(c(-c6c(F)c(F)c(F)c(F)c6F)c6ccc3[nH]6)C=C5)C=C4)cc2)C(C)(C)O1
REMARK SMILES IDX 18 1 17 2 16 3 14 4 15 5 13 6 9 7 10 8 11 9 91 10 12 11
REMARK SMILES IDX 88 12 89 13 90 14 4 15 3 16 2 17 1 18 5 19 6 21 7 22 8 23
REMARK SMILES IDX 19 24 20 25 21 26 22 27 23 28 24 29 25 30 26 31 87 32 27 33
REMARK SMILES IDX 86 34 28 35 29 36 30 37 80 38 31 39 85 40 79 41 81 42 32 43
REMARK SMILES IDX 84 44 78 45 77 46 33 48 65 49 45 50 64 51 46 52 49 53 63 54
REMARK SMILES IDX 82 55 47 56 48 57 62 59 83 60 50 61 34 62 35 63 43 64 36 65
REMARK SMILES IDX 37 66 41 67 44 68 38 69 39 70 42 71 40 72 66 73 67 74 75 75
REMARK SMILES IDX 68 76 69 77 73 78 76 79 70 80 71 81 74 82 72 83 51 84 52 85
REMARK SMILES IDX 60 86 53 87 54 88 58 89 61 90 55 91 56 92 59 93 57 94
REMARK H PARENT 5 20 81 47 49 58
REMARK Flexibility Score: inf
ROOT
ATOM      1  C   UNL A   1      33.302  29.121  27.291  1.00  0.00     0.202 C 
ENDROOT
BRANCH   1   2
ATOM      2  C   UNL A   1      31.781  28.962  27.385  1.00  0.00     0.261 C 
BRANCH   2   3
ATOM      3  O   UNL A   1      31.233  28.137  26.333  1.00  0.00    -0.463 OA
BRANCH   3   4
ATOM      4  C   UNL A   1      31.369  28.616  25.072  1.00  0.00     0.311 C 
ATOM      5  O   UNL A   1      31.123  29.772  24.741  1.00  0.00    -0.252 OA
BRANCH   4   6
ATOM      6  C   UNL A   1      31.782  27.571  24.055  1.00  0.00     0.131 C 
ATOM      7  C   UNL A   1      32.558  25.298  22.359  1.00  0.00     0.095 C 
ATOM      8  C   UNL A   1      32.403  25.518  20.829  1.00  0.00     0.045 C 
ATOM      9  C   UNL A   1      31.104  25.391  22.942  1.00  0.00     0.039 C 
ATOM     10  O   UNL A   1      33.383  26.398  22.782  1.00  0.00    -0.366 OA
ATOM     11  C   UNL A   1      30.812  26.393  24.066  1.00  0.00     0.021 C 
ATOM     12  C   UNL A   1      33.213  27.031  24.062  1.00  0.00     0.077 C 
ATOM     13  C   UNL A   1      33.545  26.140  25.275  1.00  0.00     0.043 C 
ATOM     14  C   UNL A   1      34.291  28.118  24.012  1.00  0.00     0.043 C 
BRANCH   7  15
ATOM     15  C   UNL A   1      33.389  23.958  22.635  1.00  0.00     0.093 C 
BRANCH  15  16
ATOM     16  C   UNL A   1      34.757  24.083  23.373  1.00  0.00     0.038 C 
BRANCH  16  17
ATOM     17  C   UNL A   1      35.909  23.126  23.041  1.00  0.00    -0.000 C 
ATOM     18  C   UNL A   1      36.799  22.766  24.216  1.00  0.00     0.004 C 
ENDBRANCH  16  17
ENDBRANCH  15  16
BRANCH  15  19
ATOM     19  O   UNL A   1      33.662  23.299  21.377  1.00  0.00    -0.387 OA
ATOM     20  H   UNL A   1      34.450  22.741  21.469  1.00  0.00     0.211 HD
ENDBRANCH  15  19
BRANCH  15  21
ATOM     21  C   UNL A   1      32.541  22.869  23.417  1.00  0.00     0.038 C 
BRANCH  21  22
ATOM     22  C   UNL A   1      33.013  22.287  24.758  1.00  0.00    -0.000 C 
ATOM     23  C   UNL A   1      33.395  20.811  24.769  1.00  0.00     0.004 C 
ENDBRANCH  21  22
ENDBRANCH  15  21
ENDBRANCH   7  15
ENDBRANCH   4   6
ENDBRANCH   3   4
ENDBRANCH   2   3
ENDBRANCH   1   2
BRANCH   1  24
ATOM     24  O   UNL A   1      33.790  30.430  27.012  1.00  0.00    -0.374 OA
BRANCH  24  25
ATOM     25  C   UNL A   1      32.883  31.512  27.214  1.00  0.00     0.202 C 
BRANCH  25  26
ATOM     26  C   UNL A   1      33.515  32.804  27.758  1.00  0.00     0.261 C 
BRANCH  26  27
ATOM     27  O   UNL A   1      32.509  33.784  28.091  1.00  0.00    -0.460 OA
BRANCH  27  28
ATOM     28  C   UNL A   1      32.978  34.896  28.701  1.00  0.00     0.338 C 
ATOM     29  O   UNL A   1      32.457  36.005  28.726  1.00  0.00    -0.246 OA
BRANCH  28  30
ATOM     30  C   UNL A   1      34.149  34.574  29.534  1.00  0.00     0.060 A 
ATOM     31  C   UNL A   1      35.408  34.690  28.932  1.00  0.00     0.016 A 
ATOM     32  C   UNL A   1      34.022  34.041  30.818  1.00  0.00     0.016 A 
ATOM     33  C   UNL A   1      36.540  34.209  29.584  1.00  0.00     0.010 A 
ATOM     34  C   UNL A   1      35.164  33.552  31.469  1.00  0.00     0.010 A 
ATOM     35  C   UNL A   1      36.419  33.588  30.833  1.00  0.00    -0.014 A 
BRANCH  35  36
ATOM     36  C   UNL A   1      37.578  32.823  31.364  1.00  0.00     0.031 A 
ATOM     37  C   UNL A   1      38.091  33.135  32.744  1.00  0.00     0.074 A 
ATOM     38  C   UNL A   1      38.111  31.801  30.672  1.00  0.00     0.049 A 
ATOM     39  N   UNL A   1      39.047  32.559  33.431  1.00  0.00    -0.248 NA
ATOM     40  C   UNL A   1      37.431  34.245  33.450  1.00  0.00     0.031 C 
ATOM     41  C   UNL A   1      37.672  31.360  29.351  1.00  0.00     0.029 A 
ATOM     42  N   UNL A   1      39.131  30.942  30.995  1.00  0.00    -0.354 N 
ATOM     43  C   UNL A   1      39.102  33.234  34.643  1.00  0.00     0.074 A 
ATOM     44  C   UNL A   1      38.111  34.286  34.586  1.00  0.00     0.031 C 
ATOM     45  C   UNL A   1      38.415  30.303  28.977  1.00  0.00     0.029 A 
ATOM     46  C   UNL A   1      39.398  30.013  30.020  1.00  0.00     0.049 A 
ATOM     47  H   UNL A   1      39.626  30.987  31.845  1.00  0.00     0.167 HD
ATOM     48  C   UNL A   1      39.896  32.992  35.714  1.00  0.00     0.037 A 
ATOM     49  C   UNL A   1      40.336  29.046  29.971  1.00  0.00     0.037 A 
ATOM     50  C   UNL A   1      40.884  31.945  35.775  1.00  0.00     0.049 A 
ATOM     51  C   UNL A   1      41.268  28.852  31.138  1.00  0.00     0.074 A 
ATOM     52  C   UNL A   1      41.722  31.610  36.824  1.00  0.00     0.029 A 
ATOM     53  N   UNL A   1      41.174  31.072  34.737  1.00  0.00    -0.354 N 
ATOM     54  N   UNL A   1      41.297  29.478  32.290  1.00  0.00    -0.248 NA
ATOM     55  C   UNL A   1      42.299  27.814  30.996  1.00  0.00     0.031 C 
ATOM     56  C   UNL A   1      42.558  30.571  36.401  1.00  0.00     0.029 A 
ATOM     57  C   UNL A   1      42.202  30.219  35.109  1.00  0.00     0.049 A 
ATOM     58  H   UNL A   1      40.716  31.060  33.866  1.00  0.00     0.167 HD
ATOM     59  C   UNL A   1      42.326  28.893  33.018  1.00  0.00     0.074 A 
ATOM     60  C   UNL A   1      42.890  27.855  32.182  1.00  0.00     0.031 C 
ATOM     61  C   UNL A   1      42.759  29.188  34.269  1.00  0.00     0.037 A 
BRANCH  48  62
ATOM     62  C   UNL A   1      39.751  33.904  36.897  1.00  0.00     0.064 A 
ATOM     63  C   UNL A   1      38.929  33.577  37.988  1.00  0.00     0.173 A 
ATOM     64  C   UNL A   1      40.450  35.119  36.946  1.00  0.00     0.173 A 
ATOM     65  F   UNL A   1      38.229  32.432  37.986  1.00  0.00    -0.203 F 
ATOM     66  C   UNL A   1      38.786  34.449  39.065  1.00  0.00     0.198 A 
ATOM     67  C   UNL A   1      40.329  35.974  38.038  1.00  0.00     0.198 A 
ATOM     68  F   UNL A   1      41.253  35.478  35.934  1.00  0.00    -0.203 F 
ATOM     69  F   UNL A   1      37.953  34.141  40.068  1.00  0.00    -0.200 F 
ATOM     70  C   UNL A   1      39.490  35.643  39.091  1.00  0.00     0.200 A 
ATOM     71  F   UNL A   1      41.019  37.122  38.068  1.00  0.00    -0.200 F 
ATOM     72  F   UNL A   1      39.350  36.482  40.128  1.00  0.00    -0.200 F 
ENDBRANCH  48  62
BRANCH  49  73
ATOM     73  C   UNL A   1      40.436  28.179  28.768  1.00  0.00     0.064 A 
ATOM     74  C   UNL A   1      41.184  28.576  27.652  1.00  0.00     0.173 A 
ATOM     75  C   UNL A   1      39.786  26.937  28.714  1.00  0.00     0.173 A 
ATOM     76  F   UNL A   1      41.801  29.766  27.647  1.00  0.00    -0.203 F 
ATOM     77  C   UNL A   1      41.272  27.764  26.522  1.00  0.00     0.198 A 
ATOM     78  C   UNL A   1      39.897  26.117  27.594  1.00  0.00     0.198 A 
ATOM     79  F   UNL A   1      39.054  26.516  29.755  1.00  0.00    -0.203 F 
ATOM     80  F   UNL A   1      41.966  28.181  25.454  1.00  0.00    -0.200 F 
ATOM     81  C   UNL A   1      40.635  26.533  26.497  1.00  0.00     0.200 A 
ATOM     82  F   UNL A   1      39.289  24.922  27.579  1.00  0.00    -0.200 F 
ATOM     83  F   UNL A   1      40.730  25.749  25.414  1.00  0.00    -0.200 F 
ENDBRANCH  49  73
BRANCH  61  84
ATOM     84  C   UNL A   1      43.881  28.361  34.828  1.00  0.00     0.064 A 
ATOM     85  C   UNL A   1      43.642  27.184  35.554  1.00  0.00     0.173 A 
ATOM     86  C   UNL A   1      45.217  28.728  34.599  1.00  0.00     0.173 A 
ATOM     87  F   UNL A   1      42.384  26.797  35.813  1.00  0.00    -0.203 F 
ATOM     88  C   UNL A   1      44.695  26.420  36.050  1.00  0.00     0.198 A 
ATOM     89  C   UNL A   1      46.268  27.946  35.071  1.00  0.00     0.198 A 
ATOM     90  F   UNL A   1      45.503  29.840  33.905  1.00  0.00    -0.203 F 
ATOM     91  F   UNL A   1      44.442  25.326  36.780  1.00  0.00    -0.200 F 
ATOM     92  C   UNL A   1      46.007  26.797  35.801  1.00  0.00     0.200 A 
ATOM     93  F   UNL A   1      47.534  28.305  34.817  1.00  0.00    -0.200 F 
ATOM     94  F   UNL A   1      47.020  26.058  36.274  1.00  0.00    -0.200 F 
ENDBRANCH  61  84
ENDBRANCH  35  36
ENDBRANCH  28  30
ENDBRANCH  27  28
ENDBRANCH  26  27
ENDBRANCH  25  26
ENDBRANCH  24  25
ENDBRANCH   1  24
TORSDOF 20
ENDMDL
