MODEL 1
REMARK VINA RESULT:     -12.7      0.000      0.000
REMARK SMILES COc1ccc([C@@H]2[C@H](C(=O)OCCOCCOC(=O)c3ccc(-c4c5nc(c(-c6c(F)c(F)c(F)c(F)c6F)c6ccc([nH]6)c(-c6c(F)c(F)c(F)c(F)c6F)c6nc(c(-c7c(F)c(F)c(F)c(F)c7F)c7ccc4[nH]7)C=C6)C=C5)cc3)c3ccccc3C(=O)N2C2CC2)cc1
REMARK SMILES IDX 14 1 13 2 12 3 11 4 9 5 10 6 8 7 7 8 91 9 83 10 89 11 84 12
REMARK SMILES IDX 88 13 90 14 85 15 87 16 86 17 6 18 3 19 4 20 96 21 5 22
REMARK SMILES IDX 95 23 2 24 1 25 92 26 93 27 94 28 15 29 16 30 17 31 18 32
REMARK SMILES IDX 19 33 20 34 21 35 82 36 22 37 81 38 23 39 24 40 25 41 75 42
REMARK SMILES IDX 26 43 80 44 74 45 76 46 27 47 79 48 73 49 72 50 28 52 60 53
REMARK SMILES IDX 40 54 59 55 41 56 44 57 58 58 77 59 42 60 43 61 57 63 78 64
REMARK SMILES IDX 45 65 29 66 30 67 38 68 31 69 32 70 36 71 39 72 33 73 34 74
REMARK SMILES IDX 37 75 35 76 61 77 62 78 70 79 63 80 64 81 68 82 71 83 65 84
REMARK SMILES IDX 66 85 69 86 67 87 46 88 47 89 55 90 48 91 49 92 53 93 56 94
REMARK SMILES IDX 50 95 51 96 54 97 52 98
REMARK H PARENT 76 51 44 62
REMARK Flexibility Score: inf
ROOT
ATOM      1  O   UNL A   1      32.108  30.029  27.577  1.00  0.00    -0.374 OA
ENDROOT
BRANCH   1   2
ATOM      2  C   UNL A   1      32.513  28.719  27.190  1.00  0.00     0.202 C 
BRANCH   2   3
ATOM      3  C   UNL A   1      31.382  27.708  27.030  1.00  0.00     0.261 C 
BRANCH   3   4
ATOM      4  O   UNL A   1      31.652  26.825  25.919  1.00  0.00    -0.463 OA
BRANCH   4   5
ATOM      5  C   UNL A   1      30.581  26.066  25.561  1.00  0.00     0.316 C 
ATOM      6  O   UNL A   1      29.679  25.769  26.340  1.00  0.00    -0.251 OA
BRANCH   5   7
ATOM      7  C   UNL A   1      30.614  25.560  24.132  1.00  0.00     0.157 C 
ATOM      8  C   UNL A   1      30.582  26.654  23.032  1.00  0.00     0.135 C 
ATOM      9  N   UNL A   1      31.896  26.891  22.436  1.00  0.00    -0.327 N 
ATOM     10  C   UNL A   1      31.655  24.482  23.831  1.00  0.00    -0.019 A 
ATOM     11  C   UNL A   1      32.547  25.803  21.867  1.00  0.00     0.254 C 
ATOM     12  C   UNL A   1      31.784  23.358  24.664  1.00  0.00     0.005 A 
ATOM     13  C   UNL A   1      32.464  24.555  22.678  1.00  0.00     0.044 A 
ATOM     14  O   UNL A   1      33.277  25.867  20.885  1.00  0.00    -0.269 OA
ATOM     15  C   UNL A   1      32.698  22.345  24.358  1.00  0.00     0.000 A 
ATOM     16  C   UNL A   1      33.348  23.517  22.356  1.00  0.00     0.014 A 
ATOM     17  C   UNL A   1      33.467  22.416  23.199  1.00  0.00     0.001 A 
BRANCH   8  18
ATOM     18  C   UNL A   1      29.686  27.874  23.219  1.00  0.00    -0.024 A 
ATOM     19  C   UNL A   1      28.161  30.235  23.263  1.00  0.00     0.118 A 
ATOM     20  C   UNL A   1      27.528  29.004  23.141  1.00  0.00     0.047 A 
ATOM     21  C   UNL A   1      29.530  30.298  23.493  1.00  0.00     0.047 A 
ATOM     22  C   UNL A   1      28.286  27.829  23.125  1.00  0.00     0.010 A 
ATOM     23  C   UNL A   1      30.287  29.124  23.468  1.00  0.00     0.010 A 
BRANCH  19  24
ATOM     24  O   UNL A   1      27.396  31.363  23.152  1.00  0.00    -0.497 OA
ATOM     25  C   UNL A   1      28.033  32.314  22.292  1.00  0.00     0.278 C 
ENDBRANCH  19  24
ENDBRANCH   8  18
BRANCH   9  26
ATOM     26  C   UNL A   1      32.549  28.170  22.470  1.00  0.00     0.086 C 
ATOM     27  C   UNL A   1      33.493  28.476  23.602  1.00  0.00     0.027 C 
ATOM     28  C   UNL A   1      34.043  28.277  22.230  1.00  0.00     0.027 C 
ENDBRANCH   9  26
ENDBRANCH   5   7
ENDBRANCH   4   5
ENDBRANCH   3   4
ENDBRANCH   2   3
ENDBRANCH   1   2
BRANCH   1  29
ATOM     29  C   UNL A   1      31.752  30.953  26.552  1.00  0.00     0.202 C 
BRANCH  29  30
ATOM     30  C   UNL A   1      31.863  32.454  26.882  1.00  0.00     0.261 C 
BRANCH  30  31
ATOM     31  O   UNL A   1      33.204  32.950  26.868  1.00  0.00    -0.460 OA
BRANCH  31  32
ATOM     32  C   UNL A   1      33.591  33.564  28.011  1.00  0.00     0.338 C 
ATOM     33  O   UNL A   1      32.994  34.410  28.636  1.00  0.00    -0.246 OA
BRANCH  32  34
ATOM     34  C   UNL A   1      34.798  32.856  28.482  1.00  0.00     0.060 A 
ATOM     35  C   UNL A   1      34.646  31.549  28.952  1.00  0.00     0.016 A 
ATOM     36  C   UNL A   1      36.060  33.458  28.433  1.00  0.00     0.016 A 
ATOM     37  C   UNL A   1      35.755  30.850  29.423  1.00  0.00     0.010 A 
ATOM     38  C   UNL A   1      37.170  32.758  28.907  1.00  0.00     0.010 A 
ATOM     39  C   UNL A   1      37.015  31.465  29.432  1.00  0.00    -0.014 A 
BRANCH  39  40
ATOM     40  C   UNL A   1      38.141  30.814  30.137  1.00  0.00     0.031 A 
ATOM     41  C   UNL A   1      38.387  31.169  31.575  1.00  0.00     0.074 A 
ATOM     42  C   UNL A   1      38.919  29.917  29.506  1.00  0.00     0.049 A 
ATOM     43  N   UNL A   1      39.307  30.731  32.394  1.00  0.00    -0.248 NA
ATOM     44  C   UNL A   1      37.471  32.157  32.170  1.00  0.00     0.031 C 
ATOM     45  C   UNL A   1      38.762  29.491  28.117  1.00  0.00     0.029 A 
ATOM     46  N   UNL A   1      40.005  29.209  29.955  1.00  0.00    -0.354 N 
ATOM     47  C   UNL A   1      39.083  31.388  33.595  1.00  0.00     0.074 A 
ATOM     48  C   UNL A   1      37.960  32.278  33.395  1.00  0.00     0.031 C 
ATOM     49  C   UNL A   1      39.723  28.598  27.824  1.00  0.00     0.029 A 
ATOM     50  C   UNL A   1      40.572  28.407  28.998  1.00  0.00     0.049 A 
ATOM     51  H   UNL A   1      40.345  29.271  30.878  1.00  0.00     0.167 HD
ATOM     52  C   UNL A   1      39.749  31.252  34.765  1.00  0.00     0.037 A 
ATOM     53  C   UNL A   1      41.663  27.618  29.066  1.00  0.00     0.037 A 
ATOM     54  C   UNL A   1      40.860  30.360  34.959  1.00  0.00     0.049 A 
ATOM     55  C   UNL A   1      42.415  27.521  30.368  1.00  0.00     0.074 A 
ATOM     56  C   UNL A   1      41.576  30.110  36.116  1.00  0.00     0.029 A 
ATOM     57  N   UNL A   1      41.420  29.577  33.960  1.00  0.00    -0.354 N 
ATOM     58  N   UNL A   1      42.160  28.099  31.517  1.00  0.00    -0.248 NA
ATOM     59  C   UNL A   1      43.607  26.659  30.384  1.00  0.00     0.031 C 
ATOM     60  C   UNL A   1      42.600  29.209  35.806  1.00  0.00     0.029 A 
ATOM     61  C   UNL A   1      42.494  28.867  34.467  1.00  0.00     0.049 A 
ATOM     62  H   UNL A   1      41.100  29.534  33.030  1.00  0.00     0.167 HD
ATOM     63  C   UNL A   1      43.137  27.654  32.396  1.00  0.00     0.074 A 
ATOM     64  C   UNL A   1      43.986  26.748  31.651  1.00  0.00     0.031 C 
ATOM     65  C   UNL A   1      43.319  27.965  33.704  1.00  0.00     0.037 A 
BRANCH  52  66
ATOM     66  C   UNL A   1      39.306  32.101  35.918  1.00  0.00     0.064 A 
ATOM     67  C   UNL A   1      38.358  31.645  36.846  1.00  0.00     0.173 A 
ATOM     68  C   UNL A   1      39.861  33.375  36.113  1.00  0.00     0.173 A 
ATOM     69  F   UNL A   1      37.789  30.442  36.692  1.00  0.00    -0.203 F 
ATOM     70  C   UNL A   1      37.966  32.444  37.918  1.00  0.00     0.198 A 
ATOM     71  C   UNL A   1      39.483  34.161  37.199  1.00  0.00     0.198 A 
ATOM     72  F   UNL A   1      40.770  33.856  35.253  1.00  0.00    -0.203 F 
ATOM     73  F   UNL A   1      37.030  32.005  38.771  1.00  0.00    -0.200 F 
ATOM     74  C   UNL A   1      38.532  33.697  38.096  1.00  0.00     0.200 A 
ATOM     75  F   UNL A   1      40.037  35.369  37.374  1.00  0.00    -0.200 F 
ATOM     76  F   UNL A   1      38.158  34.462  39.131  1.00  0.00    -0.200 F 
ENDBRANCH  52  66
BRANCH  53  77
ATOM     77  C   UNL A   1      42.111  26.860  27.870  1.00  0.00     0.064 A 
ATOM     78  C   UNL A   1      41.637  25.566  27.611  1.00  0.00     0.173 A 
ATOM     79  C   UNL A   1      43.040  27.405  26.971  1.00  0.00     0.173 A 
ATOM     80  F   UNL A   1      40.767  24.993  28.455  1.00  0.00    -0.203 F 
ATOM     81  C   UNL A   1      42.087  24.841  26.509  1.00  0.00     0.198 A 
ATOM     82  C   UNL A   1      43.470  26.689  25.856  1.00  0.00     0.198 A 
ATOM     83  F   UNL A   1      43.528  28.638  27.173  1.00  0.00    -0.203 F 
ATOM     84  F   UNL A   1      41.650  23.590  26.311  1.00  0.00    -0.200 F 
ATOM     85  C   UNL A   1      42.999  25.404  25.631  1.00  0.00     0.200 A 
ATOM     86  F   UNL A   1      44.345  27.240  25.003  1.00  0.00    -0.200 F 
ATOM     87  F   UNL A   1      43.431  24.706  24.571  1.00  0.00    -0.200 F 
ENDBRANCH  53  77
BRANCH  65  88
ATOM     88  C   UNL A   1      44.462  27.306  34.414  1.00  0.00     0.064 A 
ATOM     89  C   UNL A   1      45.714  27.927  34.518  1.00  0.00     0.173 A 
ATOM     90  C   UNL A   1      44.285  26.065  35.044  1.00  0.00     0.173 A 
ATOM     91  F   UNL A   1      45.934  29.107  33.920  1.00  0.00    -0.203 F 
ATOM     92  C   UNL A   1      46.755  27.320  35.215  1.00  0.00     0.198 A 
ATOM     93  C   UNL A   1      45.321  25.474  35.761  1.00  0.00     0.198 A 
ATOM     94  F   UNL A   1      43.102  25.436  34.979  1.00  0.00    -0.203 F 
ATOM     95  F   UNL A   1      47.956  27.913  35.271  1.00  0.00    -0.200 F 
ATOM     96  C   UNL A   1      46.556  26.099  35.842  1.00  0.00     0.200 A 
ATOM     97  F   UNL A   1      45.123  24.300  36.377  1.00  0.00    -0.200 F 
ATOM     98  F   UNL A   1      47.557  25.522  36.520  1.00  0.00    -0.200 F 
ENDBRANCH  65  88
ENDBRANCH  39  40
ENDBRANCH  32  34
ENDBRANCH  31  32
ENDBRANCH  30  31
ENDBRANCH  29  30
ENDBRANCH   1  29
TORSDOF 17
ENDMDL
MODEL 2
REMARK VINA RESULT:     -12.5      4.729     10.539
REMARK SMILES COc1ccc([C@@H]2[C@H](C(=O)OCCOCCOC(=O)c3ccc(-c4c5nc(c(-c6c(F)c(F)c(F)c(F)c6F)c6ccc([nH]6)c(-c6c(F)c(F)c(F)c(F)c6F)c6nc(c(-c7c(F)c(F)c(F)c(F)c7F)c7ccc4[nH]7)C=C6)C=C5)cc3)c3ccccc3C(=O)N2C2CC2)cc1
REMARK SMILES IDX 14 1 13 2 12 3 11 4 9 5 10 6 8 7 7 8 91 9 83 10 89 11 84 12
REMARK SMILES IDX 88 13 90 14 85 15 87 16 86 17 6 18 3 19 4 20 96 21 5 22
REMARK SMILES IDX 95 23 2 24 1 25 92 26 93 27 94 28 15 29 16 30 17 31 18 32
REMARK SMILES IDX 19 33 20 34 21 35 82 36 22 37 81 38 23 39 24 40 25 41 75 42
REMARK SMILES IDX 26 43 80 44 74 45 76 46 27 47 79 48 73 49 72 50 28 52 60 53
REMARK SMILES IDX 40 54 59 55 41 56 44 57 58 58 77 59 42 60 43 61 57 63 78 64
REMARK SMILES IDX 45 65 29 66 30 67 38 68 31 69 32 70 36 71 39 72 33 73 34 74
REMARK SMILES IDX 37 75 35 76 61 77 62 78 70 79 63 80 64 81 68 82 71 83 65 84
REMARK SMILES IDX 66 85 69 86 67 87 46 88 47 89 55 90 48 91 49 92 53 93 56 94
REMARK SMILES IDX 50 95 51 96 54 97 52 98
REMARK H PARENT 76 51 44 62
REMARK Flexibility Score: inf
ROOT
ATOM      1  O   UNL A   1      37.787  21.501  24.442  1.00  0.00    -0.374 OA
ENDROOT
BRANCH   1   2
ATOM      2  C   UNL A   1      36.659  22.332  24.697  1.00  0.00     0.202 C 
BRANCH   2   3
ATOM      3  C   UNL A   1      35.987  22.917  23.461  1.00  0.00     0.261 C 
BRANCH   3   4
ATOM      4  O   UNL A   1      34.721  23.517  23.814  1.00  0.00    -0.463 OA
BRANCH   4   5
ATOM      5  C   UNL A   1      33.741  23.287  22.899  1.00  0.00     0.316 C 
ATOM      6  O   UNL A   1      33.957  23.189  21.694  1.00  0.00    -0.251 OA
BRANCH   5   7
ATOM      7  C   UNL A   1      32.341  23.219  23.477  1.00  0.00     0.157 C 
ATOM      8  C   UNL A   1      32.060  22.019  24.420  1.00  0.00     0.135 C 
ATOM      9  N   UNL A   1      32.071  22.399  25.832  1.00  0.00    -0.327 N 
ATOM     10  C   UNL A   1      31.789  24.528  24.044  1.00  0.00    -0.019 A 
ATOM     11  C   UNL A   1      31.198  23.404  26.231  1.00  0.00     0.254 C 
ATOM     12  C   UNL A   1      31.867  25.719  23.303  1.00  0.00     0.005 A 
ATOM     13  C   UNL A   1      31.133  24.559  25.292  1.00  0.00     0.044 A 
ATOM     14  O   UNL A   1      30.651  23.453  27.327  1.00  0.00    -0.269 OA
ATOM     15  C   UNL A   1      31.314  26.904  23.798  1.00  0.00     0.000 A 
ATOM     16  C   UNL A   1      30.546  25.741  25.763  1.00  0.00     0.014 A 
ATOM     17  C   UNL A   1      30.641  26.912  25.017  1.00  0.00     0.001 A 
BRANCH   8  18
ATOM     18  C   UNL A   1      32.638  20.650  24.076  1.00  0.00    -0.024 A 
ATOM     19  C   UNL A   1      33.598  18.027  23.757  1.00  0.00     0.118 A 
ATOM     20  C   UNL A   1      32.544  18.479  22.972  1.00  0.00     0.047 A 
ATOM     21  C   UNL A   1      34.264  18.904  24.606  1.00  0.00     0.047 A 
ATOM     22  C   UNL A   1      32.070  19.785  23.127  1.00  0.00     0.010 A 
ATOM     23  C   UNL A   1      33.784  20.205  24.765  1.00  0.00     0.010 A 
BRANCH  19  24
ATOM     24  O   UNL A   1      33.950  16.710  23.660  1.00  0.00    -0.497 OA
ATOM     25  C   UNL A   1      33.262  15.937  24.650  1.00  0.00     0.278 C 
ENDBRANCH  19  24
ENDBRANCH   8  18
BRANCH   9  26
ATOM     26  C   UNL A   1      32.975  21.823  26.788  1.00  0.00     0.086 C 
ATOM     27  C   UNL A   1      34.167  22.624  27.238  1.00  0.00     0.027 C 
ATOM     28  C   UNL A   1      33.055  22.374  28.199  1.00  0.00     0.027 C 
ENDBRANCH   9  26
ENDBRANCH   5   7
ENDBRANCH   4   5
ENDBRANCH   3   4
ENDBRANCH   2   3
ENDBRANCH   1   2
BRANCH   1  29
ATOM     29  C   UNL A   1      37.762  20.163  24.934  1.00  0.00     0.202 C 
BRANCH  29  30
ATOM     30  C   UNL A   1      39.063  19.607  25.542  1.00  0.00     0.261 C 
BRANCH  30  31
ATOM     31  O   UNL A   1      39.508  20.317  26.701  1.00  0.00    -0.460 OA
BRANCH  31  32
ATOM     32  C   UNL A   1      40.853  20.439  26.807  1.00  0.00     0.338 C 
ATOM     33  O   UNL A   1      41.696  19.625  26.507  1.00  0.00    -0.246 OA
BRANCH  32  34
ATOM     34  C   UNL A   1      41.122  21.845  27.167  1.00  0.00     0.060 A 
ATOM     35  C   UNL A   1      40.585  22.842  26.347  1.00  0.00     0.016 A 
ATOM     36  C   UNL A   1      41.863  22.176  28.305  1.00  0.00     0.016 A 
ATOM     37  C   UNL A   1      40.829  24.182  26.639  1.00  0.00     0.010 A 
ATOM     38  C   UNL A   1      42.109  23.518  28.596  1.00  0.00     0.010 A 
ATOM     39  C   UNL A   1      41.619  24.523  27.746  1.00  0.00    -0.014 A 
BRANCH  39  40
ATOM     40  C   UNL A   1      42.064  25.923  27.923  1.00  0.00     0.031 A 
ATOM     41  C   UNL A   1      43.398  26.325  27.364  1.00  0.00     0.074 A 
ATOM     42  C   UNL A   1      41.287  26.815  28.561  1.00  0.00     0.049 A 
ATOM     43  N   UNL A   1      43.996  27.488  27.396  1.00  0.00    -0.248 NA
ATOM     44  C   UNL A   1      44.165  25.271  26.679  1.00  0.00     0.031 C 
ATOM     45  C   UNL A   1      39.971  26.534  29.130  1.00  0.00     0.029 A 
ATOM     46  N   UNL A   1      41.500  28.141  28.842  1.00  0.00    -0.354 N 
ATOM     47  C   UNL A   1      45.205  27.305  26.739  1.00  0.00     0.074 A 
ATOM     48  C   UNL A   1      45.273  25.915  26.345  1.00  0.00     0.031 C 
ATOM     49  C   UNL A   1      39.495  27.654  29.701  1.00  0.00     0.029 A 
ATOM     50  C   UNL A   1      40.481  28.722  29.553  1.00  0.00     0.049 A 
ATOM     51  H   UNL A   1      42.307  28.629  28.559  1.00  0.00     0.167 HD
ATOM     52  C   UNL A   1      46.167  28.220  26.480  1.00  0.00     0.037 A 
ATOM     53  C   UNL A   1      40.370  29.975  30.037  1.00  0.00     0.037 A 
ATOM     54  C   UNL A   1      46.090  29.602  26.868  1.00  0.00     0.049 A 
ATOM     55  C   UNL A   1      41.478  30.962  29.774  1.00  0.00     0.074 A 
ATOM     56  C   UNL A   1      46.986  30.623  26.614  1.00  0.00     0.029 A 
ATOM     57  N   UNL A   1      45.050  30.151  27.606  1.00  0.00    -0.354 N 
ATOM     58  N   UNL A   1      42.590  30.798  29.099  1.00  0.00    -0.248 NA
ATOM     59  C   UNL A   1      41.315  32.310  30.338  1.00  0.00     0.031 C 
ATOM     60  C   UNL A   1      46.512  31.783  27.237  1.00  0.00     0.029 A 
ATOM     61  C   UNL A   1      45.300  31.492  27.843  1.00  0.00     0.049 A 
ATOM     62  H   UNL A   1      44.255  29.660  27.914  1.00  0.00     0.167 HD
ATOM     63  C   UNL A   1      43.244  32.021  29.134  1.00  0.00     0.074 A 
ATOM     64  C   UNL A   1      42.400  32.924  29.888  1.00  0.00     0.031 C 
ATOM     65  C   UNL A   1      44.438  32.370  28.592  1.00  0.00     0.037 A 
BRANCH  52  66
ATOM     66  C   UNL A   1      47.394  27.750  25.758  1.00  0.00     0.064 A 
ATOM     67  C   UNL A   1      48.533  27.313  26.450  1.00  0.00     0.173 A 
ATOM     68  C   UNL A   1      47.418  27.710  24.356  1.00  0.00     0.173 A 
ATOM     69  F   UNL A   1      48.563  27.348  27.790  1.00  0.00    -0.203 F 
ATOM     70  C   UNL A   1      49.661  26.870  25.762  1.00  0.00     0.198 A 
ATOM     71  C   UNL A   1      48.539  27.245  23.673  1.00  0.00     0.198 A 
ATOM     72  F   UNL A   1      46.354  28.119  23.649  1.00  0.00    -0.203 F 
ATOM     73  F   UNL A   1      50.753  26.493  26.442  1.00  0.00    -0.200 F 
ATOM     74  C   UNL A   1      49.660  26.830  24.376  1.00  0.00     0.200 A 
ATOM     75  F   UNL A   1      48.534  27.201  22.333  1.00  0.00    -0.200 F 
ATOM     76  F   UNL A   1      50.744  26.399  23.716  1.00  0.00    -0.200 F 
ENDBRANCH  52  66
BRANCH  53  77
ATOM     77  C   UNL A   1      39.170  30.369  30.820  1.00  0.00     0.064 A 
ATOM     78  C   UNL A   1      39.120  30.186  32.209  1.00  0.00     0.173 A 
ATOM     79  C   UNL A   1      38.041  30.916  30.193  1.00  0.00     0.173 A 
ATOM     80  F   UNL A   1      40.165  29.643  32.850  1.00  0.00    -0.203 F 
ATOM     81  C   UNL A   1      37.979  30.520  32.938  1.00  0.00     0.198 A 
ATOM     82  C   UNL A   1      36.912  31.273  30.927  1.00  0.00     0.198 A 
ATOM     83  F   UNL A   1      38.036  31.109  28.866  1.00  0.00    -0.203 F 
ATOM     84  F   UNL A   1      37.943  30.294  34.259  1.00  0.00    -0.200 F 
ATOM     85  C   UNL A   1      36.879  31.067  32.298  1.00  0.00     0.200 A 
ATOM     86  F   UNL A   1      35.853  31.811  30.305  1.00  0.00    -0.200 F 
ATOM     87  F   UNL A   1      35.783  31.389  33.000  1.00  0.00    -0.200 F 
ENDBRANCH  53  77
BRANCH  65  88
ATOM     88  C   UNL A   1      44.887  33.788  28.775  1.00  0.00     0.064 A 
ATOM     89  C   UNL A   1      45.715  34.160  29.843  1.00  0.00     0.173 A 
ATOM     90  C   UNL A   1      44.531  34.771  27.841  1.00  0.00     0.173 A 
ATOM     91  F   UNL A   1      46.069  33.257  30.769  1.00  0.00    -0.203 F 
ATOM     92  C   UNL A   1      46.156  35.473  29.979  1.00  0.00     0.198 A 
ATOM     93  C   UNL A   1      44.995  36.077  27.966  1.00  0.00     0.198 A 
ATOM     94  F   UNL A   1      43.747  34.461  26.797  1.00  0.00    -0.203 F 
ATOM     95  F   UNL A   1      46.917  35.817  31.028  1.00  0.00    -0.200 F 
ATOM     96  C   UNL A   1      45.803  36.428  29.037  1.00  0.00     0.200 A 
ATOM     97  F   UNL A   1      44.664  36.996  27.048  1.00  0.00    -0.200 F 
ATOM     98  F   UNL A   1      46.238  37.689  29.165  1.00  0.00    -0.200 F 
ENDBRANCH  65  88
ENDBRANCH  39  40
ENDBRANCH  32  34
ENDBRANCH  31  32
ENDBRANCH  30  31
ENDBRANCH  29  30
ENDBRANCH   1  29
TORSDOF 17
ENDMDL
MODEL 3
REMARK VINA RESULT:     -12.4      1.331      3.708
REMARK SMILES COc1ccc([C@@H]2[C@H](C(=O)OCCOCCOC(=O)c3ccc(-c4c5nc(c(-c6c(F)c(F)c(F)c(F)c6F)c6ccc([nH]6)c(-c6c(F)c(F)c(F)c(F)c6F)c6nc(c(-c7c(F)c(F)c(F)c(F)c7F)c7ccc4[nH]7)C=C6)C=C5)cc3)c3ccccc3C(=O)N2C2CC2)cc1
REMARK SMILES IDX 14 1 13 2 12 3 11 4 9 5 10 6 8 7 7 8 91 9 83 10 89 11 84 12
REMARK SMILES IDX 88 13 90 14 85 15 87 16 86 17 6 18 3 19 4 20 96 21 5 22
REMARK SMILES IDX 95 23 2 24 1 25 92 26 93 27 94 28 15 29 16 30 17 31 18 32
REMARK SMILES IDX 19 33 20 34 21 35 82 36 22 37 81 38 23 39 24 40 25 41 75 42
REMARK SMILES IDX 26 43 80 44 74 45 76 46 27 47 79 48 73 49 72 50 28 52 60 53
REMARK SMILES IDX 40 54 59 55 41 56 44 57 58 58 77 59 42 60 43 61 57 63 78 64
REMARK SMILES IDX 45 65 29 66 30 67 38 68 31 69 32 70 36 71 39 72 33 73 34 74
REMARK SMILES IDX 37 75 35 76 61 77 62 78 70 79 63 80 64 81 68 82 71 83 65 84
REMARK SMILES IDX 66 85 69 86 67 87 46 88 47 89 55 90 48 91 49 92 53 93 56 94
REMARK SMILES IDX 50 95 51 96 54 97 52 98
REMARK H PARENT 76 51 44 62
REMARK Flexibility Score: inf
ROOT
ATOM      1  O   UNL A   1      31.953  30.648  27.006  1.00  0.00    -0.374 OA
ENDROOT
BRANCH   1   2
ATOM      2  C   UNL A   1      33.337  30.460  26.722  1.00  0.00     0.202 C 
BRANCH   2   3
ATOM      3  C   UNL A   1      33.648  29.404  25.668  1.00  0.00     0.261 C 
BRANCH   3   4
ATOM      4  O   UNL A   1      32.497  29.181  24.824  1.00  0.00    -0.463 OA
BRANCH   4   5
ATOM      5  C   UNL A   1      32.812  28.661  23.607  1.00  0.00     0.316 C 
ATOM      6  O   UNL A   1      33.892  28.853  23.054  1.00  0.00    -0.251 OA
BRANCH   5   7
ATOM      7  C   UNL A   1      31.699  27.868  22.951  1.00  0.00     0.157 C 
ATOM      8  C   UNL A   1      31.479  26.435  23.505  1.00  0.00     0.135 C 
ATOM      9  N   UNL A   1      30.322  26.347  24.394  1.00  0.00    -0.327 N 
ATOM     10  C   UNL A   1      30.377  28.611  22.757  1.00  0.00    -0.019 A 
ATOM     11  C   UNL A   1      29.092  26.748  23.886  1.00  0.00     0.254 C 
ATOM     12  C   UNL A   1      30.353  29.895  22.186  1.00  0.00     0.005 A 
ATOM     13  C   UNL A   1      29.147  28.003  23.083  1.00  0.00     0.044 A 
ATOM     14  O   UNL A   1      28.017  26.244  24.191  1.00  0.00    -0.269 OA
ATOM     15  C   UNL A   1      29.140  30.551  21.958  1.00  0.00     0.000 A 
ATOM     16  C   UNL A   1      27.934  28.650  22.814  1.00  0.00     0.014 A 
ATOM     17  C   UNL A   1      27.932  29.924  22.256  1.00  0.00     0.001 A 
BRANCH   8  18
ATOM     18  C   UNL A   1      32.690  25.584  23.873  1.00  0.00    -0.024 A 
ATOM     19  C   UNL A   1      35.072  24.145  24.268  1.00  0.00     0.118 A 
ATOM     20  C   UNL A   1      34.706  25.139  25.168  1.00  0.00     0.047 A 
ATOM     21  C   UNL A   1      34.206  23.771  23.248  1.00  0.00     0.047 A 
ATOM     22  C   UNL A   1      33.518  25.850  24.975  1.00  0.00     0.010 A 
ATOM     23  C   UNL A   1      33.024  24.489  23.051  1.00  0.00     0.010 A 
BRANCH  19  24
ATOM     24  O   UNL A   1      36.297  23.558  24.425  1.00  0.00    -0.497 OA
ATOM     25  C   UNL A   1      36.807  23.814  25.738  1.00  0.00     0.278 C 
ENDBRANCH  19  24
ENDBRANCH   8  18
BRANCH   9  26
ATOM     26  C   UNL A   1      30.420  25.926  25.763  1.00  0.00     0.086 C 
ATOM     27  C   UNL A   1      29.251  25.218  26.394  1.00  0.00     0.027 C 
ATOM     28  C   UNL A   1      30.497  24.451  26.110  1.00  0.00     0.027 C 
ENDBRANCH   9  26
ENDBRANCH   5   7
ENDBRANCH   4   5
ENDBRANCH   3   4
ENDBRANCH   2   3
ENDBRANCH   1   2
BRANCH   1  29
ATOM     29  C   UNL A   1      31.396  31.945  26.808  1.00  0.00     0.202 C 
BRANCH  29  30
ATOM     30  C   UNL A   1      32.345  33.151  26.940  1.00  0.00     0.261 C 
BRANCH  30  31
ATOM     31  O   UNL A   1      32.448  33.661  28.271  1.00  0.00    -0.460 OA
BRANCH  31  32
ATOM     32  C   UNL A   1      33.479  34.516  28.470  1.00  0.00     0.338 C 
ATOM     33  O   UNL A   1      33.448  35.726  28.478  1.00  0.00    -0.246 OA
BRANCH  32  34
ATOM     34  C   UNL A   1      34.633  33.696  28.890  1.00  0.00     0.060 A 
ATOM     35  C   UNL A   1      34.380  32.567  29.674  1.00  0.00     0.016 A 
ATOM     36  C   UNL A   1      35.936  34.016  28.494  1.00  0.00     0.016 A 
ATOM     37  C   UNL A   1      35.440  31.775  30.108  1.00  0.00     0.010 A 
ATOM     38  C   UNL A   1      36.998  33.223  28.930  1.00  0.00     0.010 A 
ATOM     39  C   UNL A   1      36.755  32.119  29.765  1.00  0.00    -0.014 A 
BRANCH  39  40
ATOM     40  C   UNL A   1      37.887  31.417  30.408  1.00  0.00     0.031 A 
ATOM     41  C   UNL A   1      38.228  31.761  31.829  1.00  0.00     0.074 A 
ATOM     42  C   UNL A   1      38.586  30.484  29.738  1.00  0.00     0.049 A 
ATOM     43  N   UNL A   1      39.171  31.281  32.597  1.00  0.00    -0.248 NA
ATOM     44  C   UNL A   1      37.394  32.792  32.470  1.00  0.00     0.031 C 
ATOM     45  C   UNL A   1      38.332  30.064  28.362  1.00  0.00     0.029 A 
ATOM     46  N   UNL A   1      39.660  29.726  30.130  1.00  0.00    -0.354 N 
ATOM     47  C   UNL A   1      39.044  31.949  33.807  1.00  0.00     0.074 A 
ATOM     48  C   UNL A   1      37.955  32.890  33.666  1.00  0.00     0.031 C 
ATOM     49  C   UNL A   1      39.232  29.127  28.019  1.00  0.00     0.029 A 
ATOM     50  C   UNL A   1      40.136  28.897  29.145  1.00  0.00     0.049 A 
ATOM     51  H   UNL A   1      40.053  29.772  31.031  1.00  0.00     0.167 HD
ATOM     52  C   UNL A   1      39.768  31.783  34.938  1.00  0.00     0.037 A 
ATOM     53  C   UNL A   1      41.190  28.057  29.156  1.00  0.00     0.037 A 
ATOM     54  C   UNL A   1      40.844  30.840  35.075  1.00  0.00     0.049 A 
ATOM     55  C   UNL A   1      42.008  27.926  30.414  1.00  0.00     0.074 A 
ATOM     56  C   UNL A   1      41.611  30.558  36.190  1.00  0.00     0.029 A 
ATOM     57  N   UNL A   1      41.311  30.030  34.048  1.00  0.00    -0.354 N 
ATOM     58  N   UNL A   1      41.844  28.516  31.574  1.00  0.00    -0.248 NA
ATOM     59  C   UNL A   1      43.156  27.009  30.368  1.00  0.00     0.031 C 
ATOM     60  C   UNL A   1      42.573  29.609  35.828  1.00  0.00     0.029 A 
ATOM     61  C   UNL A   1      42.377  29.271  34.498  1.00  0.00     0.049 A 
ATOM     62  H   UNL A   1      40.938  30.001  33.138  1.00  0.00     0.167 HD
ATOM     63  C   UNL A   1      42.846  28.027  32.399  1.00  0.00     0.074 A 
ATOM     64  C   UNL A   1      43.610  27.081  31.611  1.00  0.00     0.031 C 
ATOM     65  C   UNL A   1      43.115  28.331  33.693  1.00  0.00     0.037 A 
BRANCH  52  66
ATOM     66  C   UNL A   1      39.430  32.653  36.112  1.00  0.00     0.064 A 
ATOM     67  C   UNL A   1      38.494  32.255  37.078  1.00  0.00     0.173 A 
ATOM     68  C   UNL A   1      40.073  33.888  36.286  1.00  0.00     0.173 A 
ATOM     69  F   UNL A   1      37.842  31.091  36.945  1.00  0.00    -0.203 F 
ATOM     70  C   UNL A   1      38.200  33.072  38.167  1.00  0.00     0.198 A 
ATOM     71  C   UNL A   1      39.793  34.690  37.388  1.00  0.00     0.198 A 
ATOM     72  F   UNL A   1      40.974  34.313  35.389  1.00  0.00    -0.203 F 
ATOM     73  F   UNL A   1      37.274  32.689  39.058  1.00  0.00    -0.200 F 
ATOM     74  C   UNL A   1      38.853  34.285  38.325  1.00  0.00     0.200 A 
ATOM     75  F   UNL A   1      40.430  35.860  37.543  1.00  0.00    -0.200 F 
ATOM     76  F   UNL A   1      38.573  35.067  39.376  1.00  0.00    -0.200 F 
ENDBRANCH  52  66
BRANCH  53  77
ATOM     77  C   UNL A   1      41.535  27.278  27.939  1.00  0.00     0.064 A 
ATOM     78  C   UNL A   1      41.033  25.984  27.740  1.00  0.00     0.173 A 
ATOM     79  C   UNL A   1      42.392  27.802  26.960  1.00  0.00     0.173 A 
ATOM     80  F   UNL A   1      40.231  25.430  28.660  1.00  0.00    -0.203 F 
ATOM     81  C   UNL A   1      41.388  25.239  26.617  1.00  0.00     0.198 A 
ATOM     82  C   UNL A   1      42.726  27.066  25.825  1.00  0.00     0.198 A 
ATOM     83  F   UNL A   1      42.902  29.034  27.103  1.00  0.00    -0.203 F 
ATOM     84  F   UNL A   1      40.929  23.988  26.474  1.00  0.00    -0.200 F 
ATOM     85  C   UNL A   1      42.230  25.782  25.659  1.00  0.00     0.200 A 
ATOM     86  F   UNL A   1      43.532  27.598  24.896  1.00  0.00    -0.200 F 
ATOM     87  F   UNL A   1      42.571  25.064  24.579  1.00  0.00    -0.200 F 
ENDBRANCH  53  77
BRANCH  65  88
ATOM     88  C   UNL A   1      44.263  27.619  34.341  1.00  0.00     0.064 A 
ATOM     89  C   UNL A   1      44.100  26.361  34.938  1.00  0.00     0.173 A 
ATOM     90  C   UNL A   1      45.550  28.177  34.315  1.00  0.00     0.173 A 
ATOM     91  F   UNL A   1      42.886  25.795  35.000  1.00  0.00    -0.203 F 
ATOM     92  C   UNL A   1      45.185  25.694  35.502  1.00  0.00     0.198 A 
ATOM     93  C   UNL A   1      46.635  27.495  34.856  1.00  0.00     0.198 A 
ATOM     94  F   UNL A   1      45.756  29.374  33.747  1.00  0.00    -0.203 F 
ATOM     95  F   UNL A   1      45.002  24.508  36.101  1.00  0.00    -0.200 F 
ATOM     96  C   UNL A   1      46.451  26.257  35.454  1.00  0.00     0.200 A 
ATOM     97  F   UNL A   1      47.861  28.035  34.798  1.00  0.00    -0.200 F 
ATOM     98  F   UNL A   1      47.495  25.608  35.988  1.00  0.00    -0.200 F 
ENDBRANCH  65  88
ENDBRANCH  39  40
ENDBRANCH  32  34
ENDBRANCH  31  32
ENDBRANCH  30  31
ENDBRANCH  29  30
ENDBRANCH   1  29
TORSDOF 17
ENDMDL
