MODEL 1
REMARK VINA RESULT:     -10.5      0.000      0.000
REMARK SMILES CCCCCCNC(=O)Oc1cccc(-c2ccc([C@@H](C)C(=O)OCCOCCOC(=O)c3ccc(-c4c5nc(c(-c6c(F)c(F)c(F)c(F)c6F)c6ccc([nH]6)c(-c6c(F)c(F)c(F)c(F)c6F)c6nc(c(-c7c(F)c(F)c(F)c(F)c7F)c7ccc4[nH]7)C=C6)C=C5)cc3)cc2[N+](=O)[O-])c1
REMARK SMILES IDX 22 1 23 2 20 3 21 4 19 5 16 6 17 7 97 8 18 9 96 10 15 11
REMARK SMILES IDX 11 12 12 13 101 14 13 15 14 16 10 17 8 18 7 19 9 21 6 22
REMARK SMILES IDX 5 23 4 24 3 25 2 26 1 27 98 28 99 29 100 30 24 31 25 32
REMARK SMILES IDX 26 33 27 34 28 35 29 36 30 37 31 38 32 39 33 40 34 41 95 42
REMARK SMILES IDX 35 43 94 44 36 45 37 46 38 47 88 48 39 49 93 50 87 51 89 52
REMARK SMILES IDX 40 53 92 54 86 55 85 56 41 58 73 59 53 60 72 61 54 62 57 63
REMARK SMILES IDX 71 64 90 65 55 66 56 67 70 69 91 70 58 71 42 72 43 73 51 74
REMARK SMILES IDX 44 75 45 76 49 77 52 78 46 79 47 80 50 81 48 82 74 83 75 84
REMARK SMILES IDX 83 85 76 86 77 87 81 88 84 89 78 90 79 91 82 92 80 93 59 94
REMARK SMILES IDX 60 95 68 96 61 97 62 98 66 99 69 100 63 101 64 102 67 103
REMARK SMILES IDX 65 104
REMARK H PARENT 7 20 89 57 57 68
REMARK Flexibility Score: inf
ROOT
ATOM      1  C   UNL A   1      38.003  22.478  25.779  1.00  0.00     0.313 C 
ATOM      2  O   UNL A   1      38.177  23.477  25.087  1.00  0.00    -0.252 OA
ENDROOT
BRANCH   1   3
ATOM      3  C   UNL A   1      36.681  21.724  25.775  1.00  0.00     0.126 C 
ATOM      4  C   UNL A   1      36.804  20.509  24.860  1.00  0.00     0.025 C 
BRANCH   3   5
ATOM      5  C   UNL A   1      35.402  22.512  25.501  1.00  0.00    -0.027 A 
ATOM      6  C   UNL A   1      33.087  24.081  24.829  1.00  0.00     0.060 A 
ATOM      7  C   UNL A   1      33.788  24.269  26.035  1.00  0.00     0.016 A 
ATOM      8  C   UNL A   1      33.573  23.075  23.977  1.00  0.00     0.277 A 
ATOM      9  C   UNL A   1      34.924  23.508  26.362  1.00  0.00     0.006 A 
ATOM     10  C   UNL A   1      34.701  22.293  24.304  1.00  0.00     0.091 A 
BRANCH   6  11
ATOM     11  C   UNL A   1      31.931  24.945  24.525  1.00  0.00    -0.008 A 
ATOM     12  C   UNL A   1      30.764  26.529  23.102  1.00  0.00     0.133 A 
ATOM     13  C   UNL A   1      29.729  26.643  24.027  1.00  0.00     0.047 A 
ATOM     14  C   UNL A   1      31.860  25.694  23.339  1.00  0.00     0.056 A 
ATOM     15  C   UNL A   1      29.779  25.896  25.200  1.00  0.00     0.004 A 
ATOM     16  C   UNL A   1      30.870  25.057  25.445  1.00  0.00     0.009 A 
BRANCH  12  17
ATOM     17  O   UNL A   1      30.712  27.390  21.992  1.00  0.00    -0.410 OA
BRANCH  17  18
ATOM     18  C   UNL A   1      30.234  28.680  22.168  1.00  0.00     0.412 C 
ATOM     19  N   UNL A   1      31.180  29.543  22.651  1.00  0.00    -0.321 N 
ATOM     20  H   UNL A   1      30.891  30.474  22.792  1.00  0.00     0.167 HD
ATOM     21  O   UNL A   1      29.090  29.058  21.940  1.00  0.00    -0.224 OA
BRANCH  19  22
ATOM     22  C   UNL A   1      32.559  29.236  22.976  1.00  0.00     0.119 C 
BRANCH  22  23
ATOM     23  C   UNL A   1      32.802  29.195  24.485  1.00  0.00     0.021 C 
BRANCH  23  24
ATOM     24  C   UNL A   1      33.959  28.290  24.931  1.00  0.00     0.002 C 
BRANCH  24  25
ATOM     25  C   UNL A   1      33.885  27.784  26.376  1.00  0.00    -0.000 C 
BRANCH  25  26
ATOM     26  C   UNL A   1      33.085  28.662  27.341  1.00  0.00    -0.003 C 
ATOM     27  C   UNL A   1      31.679  28.143  27.604  1.00  0.00     0.004 C 
ENDBRANCH  25  26
ENDBRANCH  24  25
ENDBRANCH  23  24
ENDBRANCH  22  23
ENDBRANCH  19  22
ENDBRANCH  17  18
ENDBRANCH  12  17
ENDBRANCH   6  11
BRANCH   8  28
ATOM     28  N   UNL A   1      32.957  22.817  22.681  1.00  0.00     0.063 N 
ATOM     29  O   UNL A   1      33.506  23.326  21.694  1.00  0.00    -0.258 OA
ATOM     30  O   UNL A   1      31.909  22.161  22.658  1.00  0.00    -0.258 OA
ENDBRANCH   8  28
ENDBRANCH   3   5
ENDBRANCH   1   3
BRANCH   1  31
ATOM     31  O   UNL A   1      38.926  21.968  26.634  1.00  0.00    -0.463 OA
BRANCH  31  32
ATOM     32  C   UNL A   1      40.193  21.612  26.050  1.00  0.00     0.261 C 
BRANCH  32  33
ATOM     33  C   UNL A   1      40.515  20.134  26.282  1.00  0.00     0.202 C 
BRANCH  33  34
ATOM     34  O   UNL A   1      41.530  19.570  25.455  1.00  0.00    -0.374 OA
BRANCH  34  35
ATOM     35  C   UNL A   1      42.564  18.822  26.093  1.00  0.00     0.202 C 
BRANCH  35  36
ATOM     36  C   UNL A   1      43.787  18.466  25.238  1.00  0.00     0.261 C 
BRANCH  36  37
ATOM     37  O   UNL A   1      44.812  19.474  25.295  1.00  0.00    -0.460 OA
BRANCH  37  38
ATOM     38  C   UNL A   1      44.670  20.474  24.388  1.00  0.00     0.338 C 
ATOM     39  O   UNL A   1      44.568  20.372  23.180  1.00  0.00    -0.246 OA
BRANCH  38  40
ATOM     40  C   UNL A   1      44.443  21.755  25.087  1.00  0.00     0.060 A 
ATOM     41  C   UNL A   1      44.349  22.909  24.296  1.00  0.00     0.016 A 
ATOM     42  C   UNL A   1      44.400  21.844  26.479  1.00  0.00     0.016 A 
ATOM     43  C   UNL A   1      44.252  24.162  24.895  1.00  0.00     0.010 A 
ATOM     44  C   UNL A   1      44.309  23.106  27.080  1.00  0.00     0.010 A 
ATOM     45  C   UNL A   1      44.266  24.271  26.291  1.00  0.00    -0.014 A 
BRANCH  45  46
ATOM     46  C   UNL A   1      44.363  25.613  26.918  1.00  0.00     0.031 A 
ATOM     47  C   UNL A   1      45.718  26.211  27.173  1.00  0.00     0.074 A 
ATOM     48  C   UNL A   1      43.254  26.305  27.233  1.00  0.00     0.049 A 
ATOM     49  N   UNL A   1      46.032  27.345  27.745  1.00  0.00    -0.248 NA
ATOM     50  C   UNL A   1      46.874  25.422  26.721  1.00  0.00     0.031 C 
ATOM     51  C   UNL A   1      41.885  25.853  26.995  1.00  0.00     0.029 A 
ATOM     52  N   UNL A   1      43.107  27.532  27.830  1.00  0.00    -0.354 N 
ATOM     53  C   UNL A   1      47.420  27.403  27.730  1.00  0.00     0.074 A 
ATOM     54  C   UNL A   1      47.888  26.178  27.117  1.00  0.00     0.031 C 
ATOM     55  C   UNL A   1      41.034  26.785  27.458  1.00  0.00     0.029 A 
ATOM     56  C   UNL A   1      41.799  27.880  28.054  1.00  0.00     0.049 A 
ATOM     57  H   UNL A   1      43.868  28.108  28.073  1.00  0.00     0.167 HD
ATOM     58  C   UNL A   1      48.229  28.391  28.182  1.00  0.00     0.037 A 
ATOM     59  C   UNL A   1      41.279  28.945  28.693  1.00  0.00     0.037 A 
ATOM     60  C   UNL A   1      47.762  29.609  28.790  1.00  0.00     0.049 A 
ATOM     61  C   UNL A   1      42.200  29.994  29.259  1.00  0.00     0.074 A 
ATOM     62  C   UNL A   1      48.502  30.689  29.242  1.00  0.00     0.029 A 
ATOM     63  N   UNL A   1      46.430  29.905  29.044  1.00  0.00    -0.354 N 
ATOM     64  N   UNL A   1      43.509  30.057  29.214  1.00  0.00    -0.248 NA
ATOM     65  C   UNL A   1      41.570  31.117  29.967  1.00  0.00     0.031 C 
ATOM     66  C   UNL A   1      47.622  31.609  29.822  1.00  0.00     0.029 A 
ATOM     67  C   UNL A   1      46.329  31.130  29.684  1.00  0.00     0.049 A 
ATOM     68  H   UNL A   1      45.668  29.329  28.804  1.00  0.00     0.167 HD
ATOM     69  C   UNL A   1      43.859  31.228  29.871  1.00  0.00     0.074 A 
ATOM     70  C   UNL A   1      42.623  31.856  30.290  1.00  0.00     0.031 C 
ATOM     71  C   UNL A   1      45.093  31.738  30.108  1.00  0.00     0.037 A 
BRANCH  58  72
ATOM     72  C   UNL A   1      49.711  28.175  28.069  1.00  0.00     0.064 A 
ATOM     73  C   UNL A   1      50.436  28.594  26.945  1.00  0.00     0.173 A 
ATOM     74  C   UNL A   1      50.417  27.560  29.115  1.00  0.00     0.173 A 
ATOM     75  F   UNL A   1      49.808  29.177  25.914  1.00  0.00    -0.203 F 
ATOM     76  C   UNL A   1      51.811  28.378  26.858  1.00  0.00     0.198 A 
ATOM     77  C   UNL A   1      51.793  27.372  29.038  1.00  0.00     0.198 A 
ATOM     78  F   UNL A   1      49.770  27.146  30.215  1.00  0.00    -0.203 F 
ATOM     79  F   UNL A   1      52.477  28.742  25.754  1.00  0.00    -0.200 F 
ATOM     80  C   UNL A   1      52.488  27.773  27.906  1.00  0.00     0.200 A 
ATOM     81  F   UNL A   1      52.448  26.799  30.057  1.00  0.00    -0.200 F 
ATOM     82  F   UNL A   1      53.810  27.568  27.823  1.00  0.00    -0.200 F 
ENDBRANCH  58  72
BRANCH  59  83
ATOM     83  C   UNL A   1      39.806  29.057  28.856  1.00  0.00     0.064 A 
ATOM     84  C   UNL A   1      39.195  28.837  30.097  1.00  0.00     0.173 A 
ATOM     85  C   UNL A   1      38.982  29.392  27.771  1.00  0.00     0.173 A 
ATOM     86  F   UNL A   1      39.937  28.488  31.157  1.00  0.00    -0.203 F 
ATOM     87  C   UNL A   1      37.812  28.942  30.245  1.00  0.00     0.198 A 
ATOM     88  C   UNL A   1      37.604  29.522  27.926  1.00  0.00     0.198 A 
ATOM     89  F   UNL A   1      39.518  29.609  26.561  1.00  0.00    -0.203 F 
ATOM     90  F   UNL A   1      37.249  28.691  31.435  1.00  0.00    -0.200 F 
ATOM     91  C   UNL A   1      37.019  29.291  29.163  1.00  0.00     0.200 A 
ATOM     92  F   UNL A   1      36.844  29.874  26.880  1.00  0.00    -0.200 F 
ATOM     93  F   UNL A   1      35.692  29.401  29.309  1.00  0.00    -0.200 F 
ENDBRANCH  59  83
BRANCH  71  94
ATOM     94  C   UNL A   1      45.171  33.042  30.849  1.00  0.00     0.064 A 
ATOM     95  C   UNL A   1      45.228  33.088  32.249  1.00  0.00     0.173 A 
ATOM     96  C   UNL A   1      45.230  34.258  30.150  1.00  0.00     0.173 A 
ATOM     97  F   UNL A   1      45.159  31.954  32.965  1.00  0.00    -0.203 F 
ATOM     98  C   UNL A   1      45.318  34.303  32.924  1.00  0.00     0.198 A 
ATOM     99  C   UNL A   1      45.351  35.470  30.826  1.00  0.00     0.198 A 
ATOM    100  F   UNL A   1      45.185  34.271  28.809  1.00  0.00    -0.203 F 
ATOM    101  F   UNL A   1      45.325  34.324  34.264  1.00  0.00    -0.200 F 
ATOM    102  C   UNL A   1      45.387  35.491  32.213  1.00  0.00     0.200 A 
ATOM    103  F   UNL A   1      45.430  36.616  30.137  1.00  0.00    -0.200 F 
ATOM    104  F   UNL A   1      45.482  36.659  32.863  1.00  0.00    -0.200 F 
ENDBRANCH  71  94
ENDBRANCH  45  46
ENDBRANCH  38  40
ENDBRANCH  37  38
ENDBRANCH  36  37
ENDBRANCH  35  36
ENDBRANCH  34  35
ENDBRANCH  33  34
ENDBRANCH  32  33
ENDBRANCH  31  32
ENDBRANCH   1  31
TORSDOF 24
ENDMDL
MODEL 2
REMARK VINA RESULT:      -9.7      1.687      2.535
REMARK SMILES CCCCCCNC(=O)Oc1cccc(-c2ccc([C@@H](C)C(=O)OCCOCCOC(=O)c3ccc(-c4c5nc(c(-c6c(F)c(F)c(F)c(F)c6F)c6ccc([nH]6)c(-c6c(F)c(F)c(F)c(F)c6F)c6nc(c(-c7c(F)c(F)c(F)c(F)c7F)c7ccc4[nH]7)C=C6)C=C5)cc3)cc2[N+](=O)[O-])c1
REMARK SMILES IDX 22 1 23 2 20 3 21 4 19 5 16 6 17 7 97 8 18 9 96 10 15 11
REMARK SMILES IDX 11 12 12 13 101 14 13 15 14 16 10 17 8 18 7 19 9 21 6 22
REMARK SMILES IDX 5 23 4 24 3 25 2 26 1 27 98 28 99 29 100 30 24 31 25 32
REMARK SMILES IDX 26 33 27 34 28 35 29 36 30 37 31 38 32 39 33 40 34 41 95 42
REMARK SMILES IDX 35 43 94 44 36 45 37 46 38 47 88 48 39 49 93 50 87 51 89 52
REMARK SMILES IDX 40 53 92 54 86 55 85 56 41 58 73 59 53 60 72 61 54 62 57 63
REMARK SMILES IDX 71 64 90 65 55 66 56 67 70 69 91 70 58 71 42 72 43 73 51 74
REMARK SMILES IDX 44 75 45 76 49 77 52 78 46 79 47 80 50 81 48 82 74 83 75 84
REMARK SMILES IDX 83 85 76 86 77 87 81 88 84 89 78 90 79 91 82 92 80 93 59 94
REMARK SMILES IDX 60 95 68 96 61 97 62 98 66 99 69 100 63 101 64 102 67 103
REMARK SMILES IDX 65 104
REMARK H PARENT 7 20 89 57 57 68
REMARK Flexibility Score: inf
ROOT
ATOM      1  C   UNL A   1      36.398  22.896  25.399  1.00  0.00     0.313 C 
ATOM      2  O   UNL A   1      35.815  22.776  26.473  1.00  0.00    -0.252 OA
ENDROOT
BRANCH   1   3
ATOM      3  C   UNL A   1      35.655  22.814  24.074  1.00  0.00     0.126 C 
ATOM      4  C   UNL A   1      36.666  22.877  22.932  1.00  0.00     0.025 C 
BRANCH   3   5
ATOM      5  C   UNL A   1      34.481  23.763  23.844  1.00  0.00    -0.027 A 
ATOM      6  C   UNL A   1      32.211  25.511  23.599  1.00  0.00     0.060 A 
ATOM      7  C   UNL A   1      32.333  24.339  22.830  1.00  0.00     0.016 A 
ATOM      8  C   UNL A   1      33.267  25.788  24.484  1.00  0.00     0.277 A 
ATOM      9  C   UNL A   1      33.438  23.479  22.954  1.00  0.00     0.006 A 
ATOM     10  C   UNL A   1      34.390  24.942  24.602  1.00  0.00     0.091 A 
BRANCH   6  11
ATOM     11  C   UNL A   1      31.003  26.346  23.456  1.00  0.00    -0.008 A 
ATOM     12  C   UNL A   1      29.907  28.434  22.880  1.00  0.00     0.133 A 
ATOM     13  C   UNL A   1      28.670  27.928  23.272  1.00  0.00     0.047 A 
ATOM     14  C   UNL A   1      31.068  27.661  22.970  1.00  0.00     0.056 A 
ATOM     15  C   UNL A   1      28.588  26.620  23.742  1.00  0.00     0.004 A 
ATOM     16  C   UNL A   1      29.744  25.839  23.833  1.00  0.00     0.009 A 
BRANCH  12  17
ATOM     17  O   UNL A   1      29.943  29.793  22.522  1.00  0.00    -0.410 OA
BRANCH  17  18
ATOM     18  C   UNL A   1      29.286  30.715  23.323  1.00  0.00     0.412 C 
ATOM     19  N   UNL A   1      29.953  30.988  24.486  1.00  0.00    -0.321 N 
ATOM     20  H   UNL A   1      29.529  31.639  25.091  1.00  0.00     0.167 HD
ATOM     21  O   UNL A   1      28.213  31.251  23.067  1.00  0.00    -0.224 OA
BRANCH  19  22
ATOM     22  C   UNL A   1      31.215  30.424  24.924  1.00  0.00     0.119 C 
BRANCH  22  23
ATOM     23  C   UNL A   1      31.726  31.079  26.208  1.00  0.00     0.021 C 
BRANCH  23  24
ATOM     24  C   UNL A   1      32.483  30.140  27.158  1.00  0.00     0.002 C 
BRANCH  24  25
ATOM     25  C   UNL A   1      33.952  30.497  27.410  1.00  0.00    -0.000 C 
BRANCH  25  26
ATOM     26  C   UNL A   1      34.190  31.734  28.279  1.00  0.00    -0.003 C 
ATOM     27  C   UNL A   1      35.418  32.533  27.867  1.00  0.00     0.004 C 
ENDBRANCH  25  26
ENDBRANCH  24  25
ENDBRANCH  23  24
ENDBRANCH  22  23
ENDBRANCH  19  22
ENDBRANCH  17  18
ENDBRANCH  12  17
ENDBRANCH   6  11
BRANCH   8  28
ATOM     28  N   UNL A   1      33.233  26.950  25.364  1.00  0.00     0.063 N 
ATOM     29  O   UNL A   1      32.535  26.854  26.383  1.00  0.00    -0.258 OA
ATOM     30  O   UNL A   1      33.853  27.961  25.012  1.00  0.00    -0.258 OA
ENDBRANCH   8  28
ENDBRANCH   3   5
ENDBRANCH   1   3
BRANCH   1  31
ATOM     31  O   UNL A   1      37.739  23.071  25.270  1.00  0.00    -0.463 OA
BRANCH  31  32
ATOM     32  C   UNL A   1      38.384  23.787  26.339  1.00  0.00     0.261 C 
BRANCH  32  33
ATOM     33  C   UNL A   1      39.536  22.974  26.935  1.00  0.00     0.202 C 
BRANCH  33  34
ATOM     34  O   UNL A   1      39.593  21.597  26.569  1.00  0.00    -0.374 OA
BRANCH  34  35
ATOM     35  C   UNL A   1      40.731  20.847  26.992  1.00  0.00     0.202 C 
BRANCH  35  36
ATOM     36  C   UNL A   1      41.180  19.699  26.078  1.00  0.00     0.261 C 
BRANCH  36  37
ATOM     37  O   UNL A   1      42.562  19.350  26.271  1.00  0.00    -0.460 OA
BRANCH  37  38
ATOM     38  C   UNL A   1      43.388  19.737  25.265  1.00  0.00     0.338 C 
ATOM     39  O   UNL A   1      43.621  19.146  24.228  1.00  0.00    -0.246 OA
BRANCH  38  40
ATOM     40  C   UNL A   1      43.843  21.123  25.496  1.00  0.00     0.060 A 
ATOM     41  C   UNL A   1      44.274  21.449  26.789  1.00  0.00     0.016 A 
ATOM     42  C   UNL A   1      43.780  22.100  24.502  1.00  0.00     0.016 A 
ATOM     43  C   UNL A   1      44.605  22.763  27.105  1.00  0.00     0.010 A 
ATOM     44  C   UNL A   1      44.107  23.424  24.824  1.00  0.00     0.010 A 
ATOM     45  C   UNL A   1      44.490  23.766  26.134  1.00  0.00    -0.014 A 
BRANCH  45  46
ATOM     46  C   UNL A   1      44.652  25.187  26.528  1.00  0.00     0.031 A 
ATOM     47  C   UNL A   1      46.014  25.819  26.465  1.00  0.00     0.074 A 
ATOM     48  C   UNL A   1      43.590  25.917  26.912  1.00  0.00     0.049 A 
ATOM     49  N   UNL A   1      46.386  27.027  26.801  1.00  0.00    -0.248 NA
ATOM     50  C   UNL A   1      47.102  24.972  25.954  1.00  0.00     0.031 C 
ATOM     51  C   UNL A   1      42.213  25.433  26.972  1.00  0.00     0.029 A 
ATOM     52  N   UNL A   1      43.509  27.221  27.334  1.00  0.00    -0.354 N 
ATOM     53  C   UNL A   1      47.751  27.084  26.552  1.00  0.00     0.074 A 
ATOM     54  C   UNL A   1      48.146  25.781  26.061  1.00  0.00     0.031 C 
ATOM     55  C   UNL A   1      41.423  26.423  27.422  1.00  0.00     0.029 A 
ATOM     56  C   UNL A   1      42.245  27.597  27.714  1.00  0.00     0.049 A 
ATOM     57  H   UNL A   1      44.284  27.828  27.361  1.00  0.00     0.167 HD
ATOM     58  C   UNL A   1      48.597  28.131  26.712  1.00  0.00     0.037 A 
ATOM     59  C   UNL A   1      41.807  28.746  28.263  1.00  0.00     0.037 A 
ATOM     60  C   UNL A   1      48.201  29.427  27.199  1.00  0.00     0.049 A 
ATOM     61  C   UNL A   1      42.780  29.870  28.507  1.00  0.00     0.074 A 
ATOM     62  C   UNL A   1      48.976  30.564  27.357  1.00  0.00     0.029 A 
ATOM     63  N   UNL A   1      46.921  29.756  27.620  1.00  0.00    -0.354 N 
ATOM     64  N   UNL A   1      44.062  29.928  28.240  1.00  0.00    -0.248 NA
ATOM     65  C   UNL A   1      42.243  31.088  29.132  1.00  0.00     0.031 C 
ATOM     66  C   UNL A   1      48.178  31.561  27.928  1.00  0.00     0.029 A 
ATOM     67  C   UNL A   1      46.893  31.064  28.076  1.00  0.00     0.049 A 
ATOM     68  H   UNL A   1      46.146  29.149  27.597  1.00  0.00     0.167 HD
ATOM     69  C   UNL A   1      44.483  31.186  28.648  1.00  0.00     0.074 A 
ATOM     70  C   UNL A   1      43.315  31.869  29.164  1.00  0.00     0.031 C 
ATOM     71  C   UNL A   1      45.726  31.727  28.601  1.00  0.00     0.037 A 
BRANCH  58  72
ATOM     72  C   UNL A   1      50.046  27.903  26.393  1.00  0.00     0.064 A 
ATOM     73  C   UNL A   1      50.534  27.968  25.080  1.00  0.00     0.173 A 
ATOM     74  C   UNL A   1      50.963  27.638  27.422  1.00  0.00     0.173 A 
ATOM     75  F   UNL A   1      49.698  28.208  24.059  1.00  0.00    -0.203 F 
ATOM     76  C   UNL A   1      51.882  27.747  24.805  1.00  0.00     0.198 A 
ATOM     77  C   UNL A   1      52.314  27.445  27.147  1.00  0.00     0.198 A 
ATOM     78  F   UNL A   1      50.549  27.570  28.696  1.00  0.00    -0.203 F 
ATOM     79  F   UNL A   1      52.319  27.765  23.538  1.00  0.00    -0.200 F 
ATOM     80  C   UNL A   1      52.771  27.491  25.839  1.00  0.00     0.200 A 
ATOM     81  F   UNL A   1      53.173  27.212  28.148  1.00  0.00    -0.200 F 
ATOM     82  F   UNL A   1      54.068  27.281  25.573  1.00  0.00    -0.200 F 
ENDBRANCH  58  72
BRANCH  59  83
ATOM     83  C   UNL A   1      40.378  28.880  28.645  1.00  0.00     0.064 A 
ATOM     84  C   UNL A   1      39.409  29.264  27.709  1.00  0.00     0.173 A 
ATOM     85  C   UNL A   1      39.954  28.621  29.957  1.00  0.00     0.173 A 
ATOM     86  F   UNL A   1      39.770  29.548  26.450  1.00  0.00    -0.203 F 
ATOM     87  C   UNL A   1      38.069  29.390  28.073  1.00  0.00     0.198 A 
ATOM     88  C   UNL A   1      38.610  28.721  30.312  1.00  0.00     0.198 A 
ATOM     89  F   UNL A   1      40.843  28.254  30.891  1.00  0.00    -0.203 F 
ATOM     90  F   UNL A   1      37.167  29.793  27.167  1.00  0.00    -0.200 F 
ATOM     91  C   UNL A   1      37.670  29.111  29.371  1.00  0.00     0.200 A 
ATOM     92  F   UNL A   1      38.227  28.437  31.566  1.00  0.00    -0.200 F 
ATOM     93  F   UNL A   1      36.380  29.223  29.716  1.00  0.00    -0.200 F 
ENDBRANCH  59  83
BRANCH  71  94
ATOM     94  C   UNL A   1      45.888  33.130  29.115  1.00  0.00     0.064 A 
ATOM     95  C   UNL A   1      46.245  33.386  30.447  1.00  0.00     0.173 A 
ATOM     96  C   UNL A   1      45.722  34.229  28.257  1.00  0.00     0.173 A 
ATOM     97  F   UNL A   1      46.400  32.370  31.311  1.00  0.00    -0.203 F 
ATOM     98  C   UNL A   1      46.411  34.690  30.907  1.00  0.00     0.198 A 
ATOM     99  C   UNL A   1      45.917  35.530  28.713  1.00  0.00     0.198 A 
ATOM    100  F   UNL A   1      45.386  34.039  26.972  1.00  0.00    -0.203 F 
ATOM    101  F   UNL A   1      46.708  34.911  32.195  1.00  0.00    -0.200 F 
ATOM    102  C   UNL A   1      46.254  35.759  30.039  1.00  0.00     0.200 A 
ATOM    103  F   UNL A   1      45.778  36.562  27.870  1.00  0.00    -0.200 F 
ATOM    104  F   UNL A   1      46.421  37.013  30.481  1.00  0.00    -0.200 F 
ENDBRANCH  71  94
ENDBRANCH  45  46
ENDBRANCH  38  40
ENDBRANCH  37  38
ENDBRANCH  36  37
ENDBRANCH  35  36
ENDBRANCH  34  35
ENDBRANCH  33  34
ENDBRANCH  32  33
ENDBRANCH  31  32
ENDBRANCH   1  31
TORSDOF 24
ENDMDL
MODEL 3
REMARK VINA RESULT:      -9.5      1.884      3.191
REMARK SMILES CCCCCCNC(=O)Oc1cccc(-c2ccc([C@@H](C)C(=O)OCCOCCOC(=O)c3ccc(-c4c5nc(c(-c6c(F)c(F)c(F)c(F)c6F)c6ccc([nH]6)c(-c6c(F)c(F)c(F)c(F)c6F)c6nc(c(-c7c(F)c(F)c(F)c(F)c7F)c7ccc4[nH]7)C=C6)C=C5)cc3)cc2[N+](=O)[O-])c1
REMARK SMILES IDX 22 1 23 2 20 3 21 4 19 5 16 6 17 7 97 8 18 9 96 10 15 11
REMARK SMILES IDX 11 12 12 13 101 14 13 15 14 16 10 17 8 18 7 19 9 21 6 22
REMARK SMILES IDX 5 23 4 24 3 25 2 26 1 27 98 28 99 29 100 30 24 31 25 32
REMARK SMILES IDX 26 33 27 34 28 35 29 36 30 37 31 38 32 39 33 40 34 41 95 42
REMARK SMILES IDX 35 43 94 44 36 45 37 46 38 47 88 48 39 49 93 50 87 51 89 52
REMARK SMILES IDX 40 53 92 54 86 55 85 56 41 58 73 59 53 60 72 61 54 62 57 63
REMARK SMILES IDX 71 64 90 65 55 66 56 67 70 69 91 70 58 71 42 72 43 73 51 74
REMARK SMILES IDX 44 75 45 76 49 77 52 78 46 79 47 80 50 81 48 82 74 83 75 84
REMARK SMILES IDX 83 85 76 86 77 87 81 88 84 89 78 90 79 91 82 92 80 93 59 94
REMARK SMILES IDX 60 95 68 96 61 97 62 98 66 99 69 100 63 101 64 102 67 103
REMARK SMILES IDX 65 104
REMARK H PARENT 7 20 89 57 57 68
REMARK Flexibility Score: inf
ROOT
ATOM      1  C   UNL A   1      41.581  21.535  26.183  1.00  0.00     0.313 C 
ATOM      2  O   UNL A   1      42.410  21.561  25.278  1.00  0.00    -0.252 OA
ENDROOT
BRANCH   1   3
ATOM      3  C   UNL A   1      41.016  22.813  26.785  1.00  0.00     0.126 C 
ATOM      4  C   UNL A   1      41.461  22.918  28.241  1.00  0.00     0.025 C 
BRANCH   3   5
ATOM      5  C   UNL A   1      39.521  23.084  26.629  1.00  0.00    -0.027 A 
ATOM      6  C   UNL A   1      36.741  23.638  26.143  1.00  0.00     0.060 A 
ATOM      7  C   UNL A   1      37.517  24.430  27.010  1.00  0.00     0.016 A 
ATOM      8  C   UNL A   1      37.398  22.552  25.538  1.00  0.00     0.277 A 
ATOM      9  C   UNL A   1      38.877  24.166  27.243  1.00  0.00     0.006 A 
ATOM     10  C   UNL A   1      38.758  22.267  25.780  1.00  0.00     0.091 A 
BRANCH   6  11
ATOM     11  C   UNL A   1      35.331  23.998  25.905  1.00  0.00    -0.008 A 
ATOM     12  C   UNL A   1      33.623  25.522  25.096  1.00  0.00     0.133 A 
ATOM     13  C   UNL A   1      32.612  24.675  25.542  1.00  0.00     0.047 A 
ATOM     14  C   UNL A   1      34.972  25.199  25.272  1.00  0.00     0.056 A 
ATOM     15  C   UNL A   1      32.954  23.474  26.158  1.00  0.00     0.004 A 
ATOM     16  C   UNL A   1      34.299  23.142  26.337  1.00  0.00     0.009 A 
BRANCH  12  17
ATOM     17  O   UNL A   1      33.217  26.768  24.584  1.00  0.00    -0.410 OA
BRANCH  17  18
ATOM     18  C   UNL A   1      32.935  27.796  25.471  1.00  0.00     0.412 C 
ATOM     19  N   UNL A   1      31.780  28.465  25.168  1.00  0.00    -0.321 N 
ATOM     20  H   UNL A   1      31.533  29.205  25.769  1.00  0.00     0.167 HD
ATOM     21  O   UNL A   1      33.620  28.120  26.435  1.00  0.00    -0.224 OA
BRANCH  19  22
ATOM     22  C   UNL A   1      30.882  28.203  24.060  1.00  0.00     0.119 C 
BRANCH  22  23
ATOM     23  C   UNL A   1      30.610  29.456  23.228  1.00  0.00     0.021 C 
BRANCH  23  24
ATOM     24  C   UNL A   1      29.131  29.857  23.123  1.00  0.00     0.002 C 
BRANCH  24  25
ATOM     25  C   UNL A   1      28.602  30.069  21.701  1.00  0.00    -0.000 C 
BRANCH  25  26
ATOM     26  C   UNL A   1      28.116  31.485  21.383  1.00  0.00    -0.003 C 
ATOM     27  C   UNL A   1      28.603  32.528  22.379  1.00  0.00     0.004 C 
ENDBRANCH  25  26
ENDBRANCH  24  25
ENDBRANCH  23  24
ENDBRANCH  22  23
ENDBRANCH  19  22
ENDBRANCH  17  18
ENDBRANCH  12  17
ENDBRANCH   6  11
BRANCH   8  28
ATOM     28  N   UNL A   1      36.710  21.686  24.588  1.00  0.00     0.063 N 
ATOM     29  O   UNL A   1      36.538  22.140  23.448  1.00  0.00    -0.258 OA
ATOM     30  O   UNL A   1      36.301  20.591  24.993  1.00  0.00    -0.258 OA
ENDBRANCH   8  28
ENDBRANCH   3   5
ENDBRANCH   1   3
BRANCH   1  31
ATOM     31  O   UNL A   1      41.115  20.399  26.764  1.00  0.00    -0.463 OA
BRANCH  31  32
ATOM     32  C   UNL A   1      42.106  19.561  27.385  1.00  0.00     0.261 C 
BRANCH  32  33
ATOM     33  C   UNL A   1      42.354  18.293  26.564  1.00  0.00     0.202 C 
BRANCH  33  34
ATOM     34  O   UNL A   1      43.663  17.734  26.644  1.00  0.00    -0.374 OA
BRANCH  34  35
ATOM     35  C   UNL A   1      44.652  18.233  25.743  1.00  0.00     0.202 C 
BRANCH  35  36
ATOM     36  C   UNL A   1      44.142  18.878  24.448  1.00  0.00     0.261 C 
BRANCH  36  37
ATOM     37  O   UNL A   1      45.153  19.660  23.786  1.00  0.00    -0.460 OA
BRANCH  37  38
ATOM     38  C   UNL A   1      46.162  20.076  24.593  1.00  0.00     0.338 C 
ATOM     39  O   UNL A   1      47.229  19.527  24.790  1.00  0.00    -0.246 OA
BRANCH  38  40
ATOM     40  C   UNL A   1      45.884  21.444  25.076  1.00  0.00     0.060 A 
ATOM     41  C   UNL A   1      45.941  22.480  24.134  1.00  0.00     0.016 A 
ATOM     42  C   UNL A   1      45.650  21.723  26.423  1.00  0.00     0.016 A 
ATOM     43  C   UNL A   1      45.805  23.804  24.541  1.00  0.00     0.010 A 
ATOM     44  C   UNL A   1      45.521  23.056  26.832  1.00  0.00     0.010 A 
ATOM     45  C   UNL A   1      45.628  24.103  25.898  1.00  0.00    -0.014 A 
BRANCH  45  46
ATOM     46  C   UNL A   1      45.683  25.516  26.348  1.00  0.00     0.031 A 
ATOM     47  C   UNL A   1      46.999  26.241  26.340  1.00  0.00     0.074 A 
ATOM     48  C   UNL A   1      44.566  26.157  26.735  1.00  0.00     0.049 A 
ATOM     49  N   UNL A   1      47.281  27.458  26.729  1.00  0.00    -0.248 NA
ATOM     50  C   UNL A   1      48.154  25.491  25.822  1.00  0.00     0.031 C 
ATOM     51  C   UNL A   1      43.225  25.578  26.746  1.00  0.00     0.029 A 
ATOM     52  N   UNL A   1      44.387  27.435  27.203  1.00  0.00    -0.354 N 
ATOM     53  C   UNL A   1      48.643  27.618  26.512  1.00  0.00     0.074 A 
ATOM     54  C   UNL A   1      49.137  26.365  25.982  1.00  0.00     0.031 C 
ATOM     55  C   UNL A   1      42.360  26.493  27.215  1.00  0.00     0.029 A 
ATOM     56  C   UNL A   1      43.093  27.708  27.569  1.00  0.00     0.049 A 
ATOM     57  H   UNL A   1      45.117  28.092  27.271  1.00  0.00     0.167 HD
ATOM     58  C   UNL A   1      49.411  28.713  26.731  1.00  0.00     0.037 A 
ATOM     59  C   UNL A   1      42.566  28.803  28.150  1.00  0.00     0.037 A 
ATOM     60  C   UNL A   1      48.917  29.959  27.256  1.00  0.00     0.049 A 
ATOM     61  C   UNL A   1      43.454  29.981  28.457  1.00  0.00     0.074 A 
ATOM     62  C   UNL A   1      49.609  31.139  27.474  1.00  0.00     0.029 A 
ATOM     63  N   UNL A   1      47.609  30.183  27.660  1.00  0.00    -0.354 N 
ATOM     64  N   UNL A   1      44.734  30.136  28.222  1.00  0.00    -0.248 NA
ATOM     65  C   UNL A   1      42.822  31.134  29.115  1.00  0.00     0.031 C 
ATOM     66  C   UNL A   1      48.732  32.056  28.063  1.00  0.00     0.029 A 
ATOM     67  C   UNL A   1      47.482  31.468  28.164  1.00  0.00     0.049 A 
ATOM     68  H   UNL A   1      46.879  29.526  27.597  1.00  0.00     0.167 HD
ATOM     69  C   UNL A   1      45.059  31.403  28.685  1.00  0.00     0.074 A 
ATOM     70  C   UNL A   1      43.836  31.984  29.200  1.00  0.00     0.031 C 
ATOM     71  C   UNL A   1      46.261  32.029  28.686  1.00  0.00     0.037 A 
BRANCH  58  72
ATOM     72  C   UNL A   1      50.878  28.597  26.436  1.00  0.00     0.064 A 
ATOM     73  C   UNL A   1      51.378  28.660  25.127  1.00  0.00     0.173 A 
ATOM     74  C   UNL A   1      51.800  28.443  27.484  1.00  0.00     0.173 A 
ATOM     75  F   UNL A   1      50.539  28.796  24.089  1.00  0.00    -0.203 F 
ATOM     76  C   UNL A   1      52.744  28.544  24.875  1.00  0.00     0.198 A 
ATOM     77  C   UNL A   1      53.165  28.356  27.231  1.00  0.00     0.198 A 
ATOM     78  F   UNL A   1      51.374  28.382  28.754  1.00  0.00    -0.203 F 
ATOM     79  F   UNL A   1      53.195  28.558  23.613  1.00  0.00    -0.200 F 
ATOM     80  C   UNL A   1      53.636  28.397  25.927  1.00  0.00     0.200 A 
ATOM     81  F   UNL A   1      54.027  28.227  28.249  1.00  0.00    -0.200 F 
ATOM     82  F   UNL A   1      54.950  28.288  25.684  1.00  0.00    -0.200 F 
ENDBRANCH  58  72
BRANCH  59  83
ATOM     83  C   UNL A   1      41.123  28.824  28.505  1.00  0.00     0.064 A 
ATOM     84  C   UNL A   1      40.151  29.199  27.568  1.00  0.00     0.173 A 
ATOM     85  C   UNL A   1      40.690  28.464  29.789  1.00  0.00     0.173 A 
ATOM     86  F   UNL A   1      40.518  29.577  26.336  1.00  0.00    -0.203 F 
ATOM     87  C   UNL A   1      38.798  29.219  27.906  1.00  0.00     0.198 A 
ATOM     88  C   UNL A   1      39.336  28.458  30.117  1.00  0.00     0.198 A 
ATOM     89  F   UNL A   1      41.581  28.101  30.723  1.00  0.00    -0.203 F 
ATOM     90  F   UNL A   1      37.891  29.616  27.003  1.00  0.00    -0.200 F 
ATOM     91  C   UNL A   1      38.391  28.841  29.177  1.00  0.00     0.200 A 
ATOM     92  F   UNL A   1      38.947  28.080  31.343  1.00  0.00    -0.200 F 
ATOM     93  F   UNL A   1      37.090  28.851  29.497  1.00  0.00    -0.200 F 
ENDBRANCH  59  83
BRANCH  71  94
ATOM     94  C   UNL A   1      46.316  33.419  29.256  1.00  0.00     0.064 A 
ATOM     95  C   UNL A   1      46.634  33.647  30.602  1.00  0.00     0.173 A 
ATOM     96  C   UNL A   1      46.087  34.536  28.437  1.00  0.00     0.173 A 
ATOM     97  F   UNL A   1      46.846  32.612  31.431  1.00  0.00    -0.203 F 
ATOM     98  C   UNL A   1      46.700  34.941  31.114  1.00  0.00     0.198 A 
ATOM     99  C   UNL A   1      46.182  35.829  28.945  1.00  0.00     0.198 A 
ATOM    100  F   UNL A   1      45.784  34.373  27.140  1.00  0.00    -0.203 F 
ATOM    101  F   UNL A   1      46.961  35.132  32.415  1.00  0.00    -0.200 F 
ATOM    102  C   UNL A   1      46.481  36.029  30.284  1.00  0.00     0.200 A 
ATOM    103  F   UNL A   1      45.984  36.881  28.139  1.00  0.00    -0.200 F 
ATOM    104  F   UNL A   1      46.552  37.274  30.776  1.00  0.00    -0.200 F 
ENDBRANCH  71  94
ENDBRANCH  45  46
ENDBRANCH  38  40
ENDBRANCH  37  38
ENDBRANCH  36  37
ENDBRANCH  35  36
ENDBRANCH  34  35
ENDBRANCH  33  34
ENDBRANCH  32  33
ENDBRANCH  31  32
ENDBRANCH   1  31
TORSDOF 24
ENDMDL
