MODEL 1
REMARK VINA RESULT:     -10.1      0.000      0.000
REMARK SMILES CC(C)(C)c1cc2c(cc1Cl)C=C(C(=O)OCCOCCOC(=O)c1ccc(-c3c4nc(c(-c5c(F)c(F)c(F)c(F)c5F)c5ccc([nH]5)c(-c5c(F)c(F)c(F)c(F)c5F)c5nc(c(-c6c(F)c(F)c(F)c(F)c6F)c6ccc3[nH]6)C=C5)C=C4)cc1)[C@@H](C(F)(F)F)O2
REMARK SMILES IDX 20 1 19 2 18 3 17 4 16 5 14 6 15 7 13 8 5 9 6 10 10 11 7 12
REMARK SMILES IDX 9 13 11 14 8 15 93 16 12 17 88 18 2 19 1 20 3 21 4 22 89 23
REMARK SMILES IDX 90 24 91 25 92 26 21 27 22 28 23 29 24 30 25 31 26 32 87 33
REMARK SMILES IDX 27 34 86 35 28 36 29 37 30 38 80 39 31 40 85 41 79 42 81 43
REMARK SMILES IDX 32 44 84 45 78 46 77 47 33 49 65 50 45 51 64 52 46 53 49 54
REMARK SMILES IDX 63 55 82 56 47 57 48 58 62 60 83 61 50 62 34 63 35 64 43 65
REMARK SMILES IDX 36 66 37 67 41 68 44 69 38 70 39 71 42 72 40 73 66 74 67 75
REMARK SMILES IDX 75 76 68 77 69 78 73 79 76 80 70 81 71 82 74 83 72 84 51 85
REMARK SMILES IDX 52 86 60 87 53 88 54 89 58 90 61 91 55 92 56 93 59 94 57 95
REMARK H PARENT 81 48 49 59
REMARK Flexibility Score: inf
ROOT
ATOM      1  C   UNL A   1      33.632  35.304  28.560  1.00  0.00     0.202 C 
ENDROOT
BRANCH   1   2
ATOM      2  O   UNL A   1      32.655  36.135  29.186  1.00  0.00    -0.374 OA
BRANCH   2   3
ATOM      3  C   UNL A   1      32.878  36.562  30.525  1.00  0.00     0.202 C 
BRANCH   3   4
ATOM      4  C   UNL A   1      32.764  35.514  31.637  1.00  0.00     0.261 C 
BRANCH   4   5
ATOM      5  O   UNL A   1      33.986  35.374  32.377  1.00  0.00    -0.460 OA
BRANCH   5   6
ATOM      6  C   UNL A   1      34.747  34.324  31.986  1.00  0.00     0.338 C 
ATOM      7  O   UNL A   1      34.376  33.342  31.366  1.00  0.00    -0.246 OA
BRANCH   6   8
ATOM      8  C   UNL A   1      36.162  34.580  32.307  1.00  0.00     0.087 C 
ATOM      9  C   UNL A   1      41.195  34.335  32.132  1.00  0.00    -0.020 A 
ATOM     10  C   UNL A   1      40.233  34.661  33.124  1.00  0.00     0.053 A 
ATOM     11  C   UNL A   1      40.704  34.199  30.812  1.00  0.00     0.045 A 
ATOM     12  C   UNL A   1      38.867  34.762  32.841  1.00  0.00     0.128 A 
ATOM     13  C   UNL A   1      39.337  34.339  30.527  1.00  0.00     0.032 A 
ATOM     14  Cl  UNL A   1      41.665  33.777  29.438  1.00  0.00    -0.084 Cl
ATOM     15  C   UNL A   1      38.417  34.577  31.543  1.00  0.00     0.019 A 
ATOM     16  O   UNL A   1      38.037  35.024  33.896  1.00  0.00    -0.475 OA
ATOM     17  C   UNL A   1      36.997  34.522  31.264  1.00  0.00     0.027 C 
ATOM     18  C   UNL A   1      36.602  34.829  33.723  1.00  0.00     0.316 C 
BRANCH   9  19
ATOM     19  C   UNL A   1      42.660  34.046  32.548  1.00  0.00    -0.012 C 
ATOM     20  C   UNL A   1      43.712  34.704  31.612  1.00  0.00     0.016 C 
ATOM     21  C   UNL A   1      43.013  32.540  32.547  1.00  0.00     0.016 C 
ATOM     22  C   UNL A   1      42.897  34.644  33.953  1.00  0.00     0.016 C 
ENDBRANCH   9  19
BRANCH  18  23
ATOM     23  C   UNL A   1      36.136  33.726  34.686  1.00  0.00     0.430 C 
ATOM     24  F   UNL A   1      36.226  32.502  34.113  1.00  0.00    -0.167 F 
ATOM     25  F   UNL A   1      36.901  33.683  35.804  1.00  0.00    -0.167 F 
ATOM     26  F   UNL A   1      34.855  33.900  35.079  1.00  0.00    -0.167 F 
ENDBRANCH  18  23
ENDBRANCH   6   8
ENDBRANCH   5   6
ENDBRANCH   4   5
ENDBRANCH   3   4
ENDBRANCH   2   3
ENDBRANCH   1   2
BRANCH   1  27
ATOM     27  C   UNL A   1      33.267  33.843  28.264  1.00  0.00     0.261 C 
BRANCH  27  28
ATOM     28  O   UNL A   1      34.300  33.148  27.542  1.00  0.00    -0.460 OA
BRANCH  28  29
ATOM     29  C   UNL A   1      34.218  31.794  27.578  1.00  0.00     0.338 C 
ATOM     30  O   UNL A   1      33.361  31.085  27.077  1.00  0.00    -0.246 OA
BRANCH  29  31
ATOM     31  C   UNL A   1      35.465  31.265  28.157  1.00  0.00     0.060 A 
ATOM     32  C   UNL A   1      36.601  32.068  28.252  1.00  0.00     0.016 A 
ATOM     33  C   UNL A   1      35.479  29.946  28.627  1.00  0.00     0.016 A 
ATOM     34  C   UNL A   1      37.759  31.543  28.827  1.00  0.00     0.010 A 
ATOM     35  C   UNL A   1      36.639  29.422  29.199  1.00  0.00     0.010 A 
ATOM     36  C   UNL A   1      37.785  30.221  29.311  1.00  0.00    -0.014 A 
BRANCH  36  37
ATOM     37  C   UNL A   1      38.986  29.717  30.020  1.00  0.00     0.031 A 
ATOM     38  C   UNL A   1      39.298  30.143  31.423  1.00  0.00     0.074 A 
ATOM     39  C   UNL A   1      39.795  28.854  29.378  1.00  0.00     0.049 A 
ATOM     40  N   UNL A   1      40.261  29.732  32.211  1.00  0.00    -0.248 NA
ATOM     41  C   UNL A   1      38.422  31.160  32.020  1.00  0.00     0.031 C 
ATOM     42  C   UNL A   1      39.604  28.395  28.001  1.00  0.00     0.029 A 
ATOM     43  N   UNL A   1      40.926  28.200  29.796  1.00  0.00    -0.354 N 
ATOM     44  C   UNL A   1      40.093  30.422  33.403  1.00  0.00     0.074 A 
ATOM     45  C   UNL A   1      38.969  31.317  33.218  1.00  0.00     0.031 C 
ATOM     46  C   UNL A   1      40.562  27.505  27.701  1.00  0.00     0.029 A 
ATOM     47  C   UNL A   1      41.451  27.356  28.850  1.00  0.00     0.049 A 
ATOM     48  H   UNL A   1      41.322  28.324  30.689  1.00  0.00     0.167 HD
ATOM     49  C   UNL A   1      40.801  30.297  34.552  1.00  0.00     0.037 A 
ATOM     50  C   UNL A   1      42.527  26.548  28.902  1.00  0.00     0.037 A 
ATOM     51  C   UNL A   1      41.927  29.413  34.723  1.00  0.00     0.049 A 
ATOM     52  C   UNL A   1      43.328  26.473  30.172  1.00  0.00     0.074 A 
ATOM     53  C   UNL A   1      42.688  29.198  35.859  1.00  0.00     0.029 A 
ATOM     54  N   UNL A   1      42.462  28.607  33.728  1.00  0.00    -0.354 N 
ATOM     55  N   UNL A   1      43.120  27.075  31.318  1.00  0.00    -0.248 NA
ATOM     56  C   UNL A   1      44.512  25.603  30.160  1.00  0.00     0.031 C 
ATOM     57  C   UNL A   1      43.717  28.310  35.536  1.00  0.00     0.029 A 
ATOM     58  C   UNL A   1      43.563  27.920  34.216  1.00  0.00     0.049 A 
ATOM     59  H   UNL A   1      42.113  28.535  32.810  1.00  0.00     0.167 HD
ATOM     60  C   UNL A   1      44.129  26.642  32.167  1.00  0.00     0.074 A 
ATOM     61  C   UNL A   1      44.937  25.708  31.411  1.00  0.00     0.031 C 
ATOM     62  C   UNL A   1      44.365  26.992  33.456  1.00  0.00     0.037 A 
BRANCH  49  63
ATOM     63  C   UNL A   1      40.378  31.125  35.732  1.00  0.00     0.064 A 
ATOM     64  C   UNL A   1      41.194  32.152  36.232  1.00  0.00     0.173 A 
ATOM     65  C   UNL A   1      39.111  30.955  36.310  1.00  0.00     0.173 A 
ATOM     66  F   UNL A   1      42.416  32.354  35.717  1.00  0.00    -0.203 F 
ATOM     67  C   UNL A   1      40.762  32.968  37.275  1.00  0.00     0.198 A 
ATOM     68  C   UNL A   1      38.671  31.791  37.334  1.00  0.00     0.198 A 
ATOM     69  F   UNL A   1      38.288  29.994  35.865  1.00  0.00    -0.203 F 
ATOM     70  F   UNL A   1      41.570  33.924  37.754  1.00  0.00    -0.200 F 
ATOM     71  C   UNL A   1      39.498  32.794  37.817  1.00  0.00     0.200 A 
ATOM     72  F   UNL A   1      37.442  31.634  37.844  1.00  0.00    -0.200 F 
ATOM     73  F   UNL A   1      39.075  33.594  38.805  1.00  0.00    -0.200 F 
ENDBRANCH  49  63
BRANCH  50  74
ATOM     74  C   UNL A   1      42.882  25.720  27.720  1.00  0.00     0.064 A 
ATOM     75  C   UNL A   1      42.268  24.479  27.500  1.00  0.00     0.173 A 
ATOM     76  C   UNL A   1      43.821  26.161  26.776  1.00  0.00     0.173 A 
ATOM     77  F   UNL A   1      41.378  24.007  28.385  1.00  0.00    -0.203 F 
ATOM     78  C   UNL A   1      42.589  23.706  26.386  1.00  0.00     0.198 A 
ATOM     79  C   UNL A   1      44.117  25.401  25.646  1.00  0.00     0.198 A 
ATOM     80  F   UNL A   1      44.434  27.343  26.939  1.00  0.00    -0.203 F 
ATOM     81  F   UNL A   1      42.014  22.507  26.219  1.00  0.00    -0.200 F 
ATOM     82  C   UNL A   1      43.505  24.172  25.456  1.00  0.00     0.200 A 
ATOM     83  F   UNL A   1      44.990  25.864  24.741  1.00  0.00    -0.200 F 
ATOM     84  F   UNL A   1      43.801  23.435  24.377  1.00  0.00    -0.200 F 
ENDBRANCH  50  74
BRANCH  62  85
ATOM     85  C   UNL A   1      45.539  26.356  34.146  1.00  0.00     0.064 A 
ATOM     86  C   UNL A   1      46.798  26.975  34.171  1.00  0.00     0.173 A 
ATOM     87  C   UNL A   1      45.388  25.149  34.845  1.00  0.00     0.173 A 
ATOM     88  F   UNL A   1      46.999  28.124  33.508  1.00  0.00    -0.203 F 
ATOM     89  C   UNL A   1      47.865  26.399  34.856  1.00  0.00     0.198 A 
ATOM     90  C   UNL A   1      46.448  24.593  35.557  1.00  0.00     0.198 A 
ATOM     91  F   UNL A   1      44.203  24.519  34.860  1.00  0.00    -0.203 F 
ATOM     92  F   UNL A   1      49.069  26.987  34.831  1.00  0.00    -0.200 F 
ATOM     93  C   UNL A   1      47.687  25.216  35.557  1.00  0.00     0.200 A 
ATOM     94  F   UNL A   1      46.269  23.460  36.247  1.00  0.00    -0.200 F 
ATOM     95  F   UNL A   1      48.712  24.673  36.229  1.00  0.00    -0.200 F 
ENDBRANCH  62  85
ENDBRANCH  36  37
ENDBRANCH  29  31
ENDBRANCH  28  29
ENDBRANCH  27  28
ENDBRANCH   1  27
TORSDOF 16
ENDMDL
MODEL 2
REMARK VINA RESULT:     -10.0      0.913      7.196
REMARK SMILES CC(C)(C)c1cc2c(cc1Cl)C=C(C(=O)OCCOCCOC(=O)c1ccc(-c3c4nc(c(-c5c(F)c(F)c(F)c(F)c5F)c5ccc([nH]5)c(-c5c(F)c(F)c(F)c(F)c5F)c5nc(c(-c6c(F)c(F)c(F)c(F)c6F)c6ccc3[nH]6)C=C5)C=C4)cc1)[C@@H](C(F)(F)F)O2
REMARK SMILES IDX 20 1 19 2 18 3 17 4 16 5 14 6 15 7 13 8 5 9 6 10 10 11 7 12
REMARK SMILES IDX 9 13 11 14 8 15 93 16 12 17 88 18 2 19 1 20 3 21 4 22 89 23
REMARK SMILES IDX 90 24 91 25 92 26 21 27 22 28 23 29 24 30 25 31 26 32 87 33
REMARK SMILES IDX 27 34 86 35 28 36 29 37 30 38 80 39 31 40 85 41 79 42 81 43
REMARK SMILES IDX 32 44 84 45 78 46 77 47 33 49 65 50 45 51 64 52 46 53 49 54
REMARK SMILES IDX 63 55 82 56 47 57 48 58 62 60 83 61 50 62 34 63 35 64 43 65
REMARK SMILES IDX 36 66 37 67 41 68 44 69 38 70 39 71 42 72 40 73 66 74 67 75
REMARK SMILES IDX 75 76 68 77 69 78 73 79 76 80 70 81 71 82 74 83 72 84 51 85
REMARK SMILES IDX 52 86 60 87 53 88 54 89 58 90 61 91 55 92 56 93 59 94 57 95
REMARK H PARENT 81 48 49 59
REMARK Flexibility Score: inf
ROOT
ATOM      1  C   UNL A   1      33.887  35.367  28.392  1.00  0.00     0.202 C 
ENDROOT
BRANCH   1   2
ATOM      2  O   UNL A   1      33.028  36.330  29.000  1.00  0.00    -0.374 OA
BRANCH   2   3
ATOM      3  C   UNL A   1      33.216  36.641  30.376  1.00  0.00     0.202 C 
BRANCH   3   4
ATOM      4  C   UNL A   1      32.737  35.619  31.412  1.00  0.00     0.261 C 
BRANCH   4   5
ATOM      5  O   UNL A   1      33.779  35.244  32.325  1.00  0.00    -0.460 OA
BRANCH   5   6
ATOM      6  C   UNL A   1      34.559  34.230  31.881  1.00  0.00     0.338 C 
ATOM      7  O   UNL A   1      34.203  33.265  31.226  1.00  0.00    -0.246 OA
BRANCH   6   8
ATOM      8  C   UNL A   1      35.972  34.510  32.192  1.00  0.00     0.087 C 
ATOM      9  C   UNL A   1      41.004  34.190  32.139  1.00  0.00    -0.020 A 
ATOM     10  C   UNL A   1      40.030  34.648  33.066  1.00  0.00     0.053 A 
ATOM     11  C   UNL A   1      40.532  33.894  30.839  1.00  0.00     0.045 A 
ATOM     12  C   UNL A   1      38.670  34.728  32.748  1.00  0.00     0.128 A 
ATOM     13  C   UNL A   1      39.172  34.011  30.514  1.00  0.00     0.032 A 
ATOM     14  Cl  UNL A   1      41.510  33.292  29.545  1.00  0.00    -0.084 Cl
ATOM     15  C   UNL A   1      38.239  34.386  31.475  1.00  0.00     0.019 A 
ATOM     16  O   UNL A   1      37.826  35.130  33.746  1.00  0.00    -0.475 OA
ATOM     17  C   UNL A   1      36.824  34.312  31.180  1.00  0.00     0.027 C 
ATOM     18  C   UNL A   1      36.392  34.930  33.573  1.00  0.00     0.316 C 
BRANCH   9  19
ATOM     19  C   UNL A   1      42.458  33.939  32.615  1.00  0.00    -0.012 C 
ATOM     20  C   UNL A   1      43.532  34.379  31.581  1.00  0.00     0.016 C 
ATOM     21  C   UNL A   1      42.763  32.450  32.897  1.00  0.00     0.016 C 
ATOM     22  C   UNL A   1      42.709  34.781  33.885  1.00  0.00     0.016 C 
ENDBRANCH   9  19
BRANCH  18  23
ATOM     23  C   UNL A   1      35.896  33.963  34.659  1.00  0.00     0.430 C 
ATOM     24  F   UNL A   1      34.947  34.540  35.435  1.00  0.00    -0.167 F 
ATOM     25  F   UNL A   1      35.329  32.856  34.121  1.00  0.00    -0.167 F 
ATOM     26  F   UNL A   1      36.894  33.552  35.471  1.00  0.00    -0.167 F 
ENDBRANCH  18  23
ENDBRANCH   6   8
ENDBRANCH   5   6
ENDBRANCH   4   5
ENDBRANCH   3   4
ENDBRANCH   2   3
ENDBRANCH   1   2
BRANCH   1  27
ATOM     27  C   UNL A   1      33.310  33.989  28.042  1.00  0.00     0.261 C 
BRANCH  27  28
ATOM     28  O   UNL A   1      34.219  33.185  27.269  1.00  0.00    -0.460 OA
BRANCH  28  29
ATOM     29  C   UNL A   1      34.068  31.844  27.412  1.00  0.00     0.338 C 
ATOM     30  O   UNL A   1      33.212  31.132  26.913  1.00  0.00    -0.246 OA
BRANCH  29  31
ATOM     31  C   UNL A   1      35.246  31.314  28.119  1.00  0.00     0.060 A 
ATOM     32  C   UNL A   1      36.428  32.051  28.186  1.00  0.00     0.016 A 
ATOM     33  C   UNL A   1      35.149  30.061  28.740  1.00  0.00     0.016 A 
ATOM     34  C   UNL A   1      37.518  31.529  28.883  1.00  0.00     0.010 A 
ATOM     35  C   UNL A   1      36.241  29.540  29.434  1.00  0.00     0.010 A 
ATOM     36  C   UNL A   1      37.431  30.276  29.517  1.00  0.00    -0.014 A 
BRANCH  36  37
ATOM     37  C   UNL A   1      38.559  29.788  30.348  1.00  0.00     0.031 A 
ATOM     38  C   UNL A   1      39.593  28.859  29.789  1.00  0.00     0.074 A 
ATOM     39  C   UNL A   1      38.644  30.208  31.624  1.00  0.00     0.049 A 
ATOM     40  N   UNL A   1      40.684  28.406  30.356  1.00  0.00    -0.248 NA
ATOM     41  C   UNL A   1      39.378  28.370  28.420  1.00  0.00     0.031 C 
ATOM     42  C   UNL A   1      37.677  31.088  32.281  1.00  0.00     0.029 A 
ATOM     43  N   UNL A   1      39.586  29.964  32.590  1.00  0.00    -0.354 N 
ATOM     44  C   UNL A   1      41.297  27.601  29.408  1.00  0.00     0.074 A 
ATOM     45  C   UNL A   1      40.431  27.582  28.247  1.00  0.00     0.031 C 
ATOM     46  C   UNL A   1      38.096  31.343  33.530  1.00  0.00     0.029 A 
ATOM     47  C   UNL A   1      39.341  30.618  33.772  1.00  0.00     0.049 A 
ATOM     48  H   UNL A   1      40.365  29.378  32.449  1.00  0.00     0.167 HD
ATOM     49  C   UNL A   1      42.487  26.957  29.495  1.00  0.00     0.037 A 
ATOM     50  C   UNL A   1      40.041  30.635  34.921  1.00  0.00     0.037 A 
ATOM     51  C   UNL A   1      43.336  26.970  30.660  1.00  0.00     0.049 A 
ATOM     52  C   UNL A   1      41.330  29.865  35.008  1.00  0.00     0.074 A 
ATOM     53  C   UNL A   1      44.572  26.372  30.831  1.00  0.00     0.029 A 
ATOM     54  N   UNL A   1      43.033  27.604  31.857  1.00  0.00    -0.354 N 
ATOM     55  N   UNL A   1      41.938  29.164  34.082  1.00  0.00    -0.248 NA
ATOM     56  C   UNL A   1      42.033  29.891  36.298  1.00  0.00     0.031 C 
ATOM     57  C   UNL A   1      44.989  26.591  32.147  1.00  0.00     0.029 A 
ATOM     58  C   UNL A   1      44.043  27.382  32.780  1.00  0.00     0.049 A 
ATOM     59  H   UNL A   1      42.219  28.132  32.026  1.00  0.00     0.167 HD
ATOM     60  C   UNL A   1      43.102  28.685  34.668  1.00  0.00     0.074 A 
ATOM     61  C   UNL A   1      43.127  29.195  36.023  1.00  0.00     0.031 C 
ATOM     62  C   UNL A   1      44.060  27.891  34.130  1.00  0.00     0.037 A 
BRANCH  49  63
ATOM     63  C   UNL A   1      42.960  26.188  28.295  1.00  0.00     0.064 A 
ATOM     64  C   UNL A   1      42.662  24.826  28.137  1.00  0.00     0.173 A 
ATOM     65  C   UNL A   1      43.637  26.835  27.250  1.00  0.00     0.173 A 
ATOM     66  F   UNL A   1      42.019  24.159  29.108  1.00  0.00    -0.203 F 
ATOM     67  C   UNL A   1      43.034  24.138  26.985  1.00  0.00     0.198 A 
ATOM     68  C   UNL A   1      43.983  26.151  26.087  1.00  0.00     0.198 A 
ATOM     69  F   UNL A   1      43.939  28.139  27.345  1.00  0.00    -0.203 F 
ATOM     70  F   UNL A   1      42.763  22.831  26.870  1.00  0.00    -0.200 F 
ATOM     71  C   UNL A   1      43.685  24.804  25.957  1.00  0.00     0.200 A 
ATOM     72  F   UNL A   1      44.595  26.800  25.086  1.00  0.00    -0.200 F 
ATOM     73  F   UNL A   1      44.023  24.146  24.840  1.00  0.00    -0.200 F 
ENDBRANCH  49  63
BRANCH  50  74
ATOM     74  C   UNL A   1      39.550  31.443  36.069  1.00  0.00     0.064 A 
ATOM     75  C   UNL A   1      38.473  31.002  36.850  1.00  0.00     0.173 A 
ATOM     76  C   UNL A   1      40.159  32.656  36.422  1.00  0.00     0.173 A 
ATOM     77  F   UNL A   1      37.846  29.858  36.540  1.00  0.00    -0.203 F 
ATOM     78  C   UNL A   1      38.018  31.749  37.934  1.00  0.00     0.198 A 
ATOM     79  C   UNL A   1      39.723  33.386  37.525  1.00  0.00     0.198 A 
ATOM     80  F   UNL A   1      41.196  33.120  35.708  1.00  0.00    -0.203 F 
ATOM     81  F   UNL A   1      36.963  31.323  38.642  1.00  0.00    -0.200 F 
ATOM     82  C   UNL A   1      38.649  32.935  38.276  1.00  0.00     0.200 A 
ATOM     83  F   UNL A   1      40.348  34.522  37.862  1.00  0.00    -0.200 F 
ATOM     84  F   UNL A   1      38.220  33.646  39.328  1.00  0.00    -0.200 F 
ENDBRANCH  50  74
BRANCH  62  85
ATOM     85  C   UNL A   1      45.231  27.526  34.999  1.00  0.00     0.064 A 
ATOM     86  C   UNL A   1      46.363  28.349  35.087  1.00  0.00     0.173 A 
ATOM     87  C   UNL A   1      45.191  26.376  35.803  1.00  0.00     0.173 A 
ATOM     88  F   UNL A   1      46.457  29.452  34.330  1.00  0.00    -0.203 F 
ATOM     89  C   UNL A   1      47.420  28.023  35.934  1.00  0.00     0.198 A 
ATOM     90  C   UNL A   1      46.235  26.072  36.673  1.00  0.00     0.198 A 
ATOM     91  F   UNL A   1      44.128  25.558  35.763  1.00  0.00    -0.203 F 
ATOM     92  F   UNL A   1      48.511  28.802  35.970  1.00  0.00    -0.200 F 
ATOM     93  C   UNL A   1      47.351  26.892  36.734  1.00  0.00     0.200 A 
ATOM     94  F   UNL A   1      46.157  24.989  37.458  1.00  0.00    -0.200 F 
ATOM     95  F   UNL A   1      48.362  26.592  37.560  1.00  0.00    -0.200 F 
ENDBRANCH  62  85
ENDBRANCH  36  37
ENDBRANCH  29  31
ENDBRANCH  28  29
ENDBRANCH  27  28
ENDBRANCH   1  27
TORSDOF 16
ENDMDL
MODEL 3
REMARK VINA RESULT:      -9.7      4.951      8.252
REMARK SMILES CC(C)(C)c1cc2c(cc1Cl)C=C(C(=O)OCCOCCOC(=O)c1ccc(-c3c4nc(c(-c5c(F)c(F)c(F)c(F)c5F)c5ccc([nH]5)c(-c5c(F)c(F)c(F)c(F)c5F)c5nc(c(-c6c(F)c(F)c(F)c(F)c6F)c6ccc3[nH]6)C=C5)C=C4)cc1)[C@@H](C(F)(F)F)O2
REMARK SMILES IDX 20 1 19 2 18 3 17 4 16 5 14 6 15 7 13 8 5 9 6 10 10 11 7 12
REMARK SMILES IDX 9 13 11 14 8 15 93 16 12 17 88 18 2 19 1 20 3 21 4 22 89 23
REMARK SMILES IDX 90 24 91 25 92 26 21 27 22 28 23 29 24 30 25 31 26 32 87 33
REMARK SMILES IDX 27 34 86 35 28 36 29 37 30 38 80 39 31 40 85 41 79 42 81 43
REMARK SMILES IDX 32 44 84 45 78 46 77 47 33 49 65 50 45 51 64 52 46 53 49 54
REMARK SMILES IDX 63 55 82 56 47 57 48 58 62 60 83 61 50 62 34 63 35 64 43 65
REMARK SMILES IDX 36 66 37 67 41 68 44 69 38 70 39 71 42 72 40 73 66 74 67 75
REMARK SMILES IDX 75 76 68 77 69 78 73 79 76 80 70 81 71 82 74 83 72 84 51 85
REMARK SMILES IDX 52 86 60 87 53 88 54 89 58 90 61 91 55 92 56 93 59 94 57 95
REMARK H PARENT 81 48 49 59
REMARK Flexibility Score: inf
ROOT
ATOM      1  C   UNL A   1      31.687  30.521  25.784  1.00  0.00     0.202 C 
ENDROOT
BRANCH   1   2
ATOM      2  O   UNL A   1      32.874  29.941  25.247  1.00  0.00    -0.374 OA
BRANCH   2   3
ATOM      3  C   UNL A   1      33.512  28.894  25.972  1.00  0.00     0.202 C 
BRANCH   3   4
ATOM      4  C   UNL A   1      32.709  27.617  26.237  1.00  0.00     0.261 C 
BRANCH   4   5
ATOM      5  O   UNL A   1      33.525  26.438  26.157  1.00  0.00    -0.460 OA
BRANCH   5   6
ATOM      6  C   UNL A   1      33.581  25.893  24.918  1.00  0.00     0.338 C 
ATOM      7  O   UNL A   1      33.980  26.431  23.898  1.00  0.00    -0.246 OA
BRANCH   6   8
ATOM      8  C   UNL A   1      33.202  24.471  24.977  1.00  0.00     0.087 C 
ATOM      9  C   UNL A   1      33.461  19.459  24.488  1.00  0.00    -0.020 A 
ATOM     10  C   UNL A   1      32.413  20.415  24.554  1.00  0.00     0.053 A 
ATOM     11  C   UNL A   1      34.758  19.937  24.790  1.00  0.00     0.045 A 
ATOM     12  C   UNL A   1      32.647  21.768  24.821  1.00  0.00     0.128 A 
ATOM     13  C   UNL A   1      34.982  21.289  25.094  1.00  0.00     0.032 A 
ATOM     14  Cl  UNL A   1      36.199  18.982  24.749  1.00  0.00    -0.084 Cl
ATOM     15  C   UNL A   1      33.939  22.208  25.068  1.00  0.00     0.019 A 
ATOM     16  O   UNL A   1      31.560  22.597  24.800  1.00  0.00    -0.475 OA
ATOM     17  C   UNL A   1      34.216  23.624  25.188  1.00  0.00     0.027 C 
ATOM     18  C   UNL A   1      31.779  24.039  24.755  1.00  0.00     0.316 C 
BRANCH   9  19
ATOM     19  C   UNL A   1      33.158  18.020  23.996  1.00  0.00    -0.012 C 
ATOM     20  C   UNL A   1      34.435  17.176  23.724  1.00  0.00     0.016 C 
ATOM     21  C   UNL A   1      32.364  17.979  22.670  1.00  0.00     0.016 C 
ATOM     22  C   UNL A   1      32.377  17.279  25.104  1.00  0.00     0.016 C 
ENDBRANCH   9  19
BRANCH  18  23
ATOM     23  C   UNL A   1      31.196  24.584  23.443  1.00  0.00     0.430 C 
ATOM     24  F   UNL A   1      30.862  25.892  23.560  1.00  0.00    -0.167 F 
ATOM     25  F   UNL A   1      32.092  24.507  22.428  1.00  0.00    -0.167 F 
ATOM     26  F   UNL A   1      30.090  23.912  23.058  1.00  0.00    -0.167 F 
ENDBRANCH  18  23
ENDBRANCH   6   8
ENDBRANCH   5   6
ENDBRANCH   4   5
ENDBRANCH   3   4
ENDBRANCH   2   3
ENDBRANCH   1   2
BRANCH   1  27
ATOM     27  C   UNL A   1      31.793  31.873  26.503  1.00  0.00     0.261 C 
BRANCH  27  28
ATOM     28  O   UNL A   1      32.709  31.841  27.612  1.00  0.00    -0.460 OA
BRANCH  28  29
ATOM     29  C   UNL A   1      33.667  32.802  27.597  1.00  0.00     0.338 C 
ATOM     30  O   UNL A   1      33.536  33.982  27.315  1.00  0.00    -0.246 OA
BRANCH  29  31
ATOM     31  C   UNL A   1      34.897  32.247  28.187  1.00  0.00     0.060 A 
ATOM     32  C   UNL A   1      36.061  33.011  28.257  1.00  0.00     0.016 A 
ATOM     33  C   UNL A   1      34.866  30.941  28.695  1.00  0.00     0.016 A 
ATOM     34  C   UNL A   1      37.202  32.462  28.843  1.00  0.00     0.010 A 
ATOM     35  C   UNL A   1      36.010  30.393  29.278  1.00  0.00     0.010 A 
ATOM     36  C   UNL A   1      37.183  31.154  29.363  1.00  0.00    -0.014 A 
BRANCH  36  37
ATOM     37  C   UNL A   1      38.369  30.629  30.083  1.00  0.00     0.031 A 
ATOM     38  C   UNL A   1      38.671  31.042  31.492  1.00  0.00     0.074 A 
ATOM     39  C   UNL A   1      39.172  29.757  29.445  1.00  0.00     0.049 A 
ATOM     40  N   UNL A   1      39.619  30.613  32.288  1.00  0.00    -0.248 NA
ATOM     41  C   UNL A   1      37.804  32.068  32.085  1.00  0.00     0.031 C 
ATOM     42  C   UNL A   1      38.990  29.309  28.064  1.00  0.00     0.029 A 
ATOM     43  N   UNL A   1      40.288  29.084  29.872  1.00  0.00    -0.354 N 
ATOM     44  C   UNL A   1      39.449  31.298  33.483  1.00  0.00     0.074 A 
ATOM     45  C   UNL A   1      38.340  32.211  33.290  1.00  0.00     0.031 C 
ATOM     46  C   UNL A   1      39.937  28.406  27.770  1.00  0.00     0.029 A 
ATOM     47  C   UNL A   1      40.812  28.238  28.927  1.00  0.00     0.049 A 
ATOM     48  H   UNL A   1      40.676  29.197  30.770  1.00  0.00     0.167 HD
ATOM     49  C   UNL A   1      40.141  31.156  34.639  1.00  0.00     0.037 A 
ATOM     50  C   UNL A   1      41.875  27.413  28.987  1.00  0.00     0.037 A 
ATOM     51  C   UNL A   1      41.253  30.255  34.816  1.00  0.00     0.049 A 
ATOM     52  C   UNL A   1      42.660  27.319  30.265  1.00  0.00     0.074 A 
ATOM     53  C   UNL A   1      41.998  30.022  35.959  1.00  0.00     0.029 A 
ATOM     54  N   UNL A   1      41.787  29.446  33.823  1.00  0.00    -0.354 N 
ATOM     55  N   UNL A   1      42.448  27.918  31.412  1.00  0.00    -0.248 NA
ATOM     56  C   UNL A   1      43.832  26.431  30.261  1.00  0.00     0.031 C 
ATOM     57  C   UNL A   1      43.017  29.120  35.643  1.00  0.00     0.029 A 
ATOM     58  C   UNL A   1      42.872  28.740  34.319  1.00  0.00     0.049 A 
ATOM     59  H   UNL A   1      41.446  29.385  32.901  1.00  0.00     0.167 HD
ATOM     60  C   UNL A   1      43.441  27.465  32.270  1.00  0.00     0.074 A 
ATOM     61  C   UNL A   1      44.244  26.523  31.518  1.00  0.00     0.031 C 
ATOM     62  C   UNL A   1      43.668  27.804  33.563  1.00  0.00     0.037 A 
BRANCH  49  63
ATOM     63  C   UNL A   1      39.718  31.984  35.818  1.00  0.00     0.064 A 
ATOM     64  C   UNL A   1      40.320  33.221  36.095  1.00  0.00     0.173 A 
ATOM     65  C   UNL A   1      38.642  31.584  36.625  1.00  0.00     0.173 A 
ATOM     66  F   UNL A   1      41.356  33.648  35.356  1.00  0.00    -0.203 F 
ATOM     67  C   UNL A   1      39.870  34.021  37.143  1.00  0.00     0.198 A 
ATOM     68  C   UNL A   1      38.175  32.400  37.654  1.00  0.00     0.198 A 
ATOM     69  F   UNL A   1      38.024  30.416  36.399  1.00  0.00    -0.203 F 
ATOM     70  F   UNL A   1      40.479  35.185  37.405  1.00  0.00    -0.200 F 
ATOM     71  C   UNL A   1      38.791  33.613  37.914  1.00  0.00     0.200 A 
ATOM     72  F   UNL A   1      37.121  32.014  38.386  1.00  0.00    -0.200 F 
ATOM     73  F   UNL A   1      38.344  34.395  38.907  1.00  0.00    -0.200 F 
ENDBRANCH  49  63
BRANCH  50  74
ATOM     74  C   UNL A   1      42.230  26.587  27.804  1.00  0.00     0.064 A 
ATOM     75  C   UNL A   1      43.204  27.017  26.891  1.00  0.00     0.173 A 
ATOM     76  C   UNL A   1      41.624  25.343  27.574  1.00  0.00     0.173 A 
ATOM     77  F   UNL A   1      43.798  28.207  27.058  1.00  0.00    -0.203 F 
ATOM     78  C   UNL A   1      43.549  26.239  25.789  1.00  0.00     0.198 A 
ATOM     79  C   UNL A   1      41.994  24.552  26.488  1.00  0.00     0.198 A 
ATOM     80  F   UNL A   1      40.689  24.884  28.420  1.00  0.00    -0.203 F 
ATOM     81  F   UNL A   1      44.457  26.690  24.912  1.00  0.00    -0.200 F 
ATOM     82  C   UNL A   1      42.951  25.003  25.594  1.00  0.00     0.200 A 
ATOM     83  F   UNL A   1      41.425  23.351  26.314  1.00  0.00    -0.200 F 
ATOM     84  F   UNL A   1      43.294  24.249  24.541  1.00  0.00    -0.200 F 
ENDBRANCH  50  74
BRANCH  62  85
ATOM     85  C   UNL A   1      44.825  27.148  34.262  1.00  0.00     0.064 A 
ATOM     86  C   UNL A   1      46.090  27.752  34.314  1.00  0.00     0.173 A 
ATOM     87  C   UNL A   1      44.650  25.933  34.944  1.00  0.00     0.173 A 
ATOM     88  F   UNL A   1      46.313  28.907  33.668  1.00  0.00    -0.203 F 
ATOM     89  C   UNL A   1      47.140  27.156  35.007  1.00  0.00     0.198 A 
ATOM     90  C   UNL A   1      45.694  25.357  35.664  1.00  0.00     0.198 A 
ATOM     91  F   UNL A   1      43.459  25.316  34.933  1.00  0.00    -0.203 F 
ATOM     92  F   UNL A   1      48.351  27.731  35.008  1.00  0.00    -0.200 F 
ATOM     93  C   UNL A   1      46.939  25.966  35.690  1.00  0.00     0.200 A 
ATOM     94  F   UNL A   1      45.492  24.217  36.338  1.00  0.00    -0.200 F 
ATOM     95  F   UNL A   1      47.948  25.404  36.371  1.00  0.00    -0.200 F 
ENDBRANCH  62  85
ENDBRANCH  36  37
ENDBRANCH  29  31
ENDBRANCH  28  29
ENDBRANCH  27  28
ENDBRANCH   1  27
TORSDOF 16
ENDMDL
