MODEL 1
REMARK VINA RESULT:     -11.6      0.000      0.000
REMARK SMILES COc1ccc(OC)c(NC(=O)[C@@H]2[C@@H](C(=O)OCCOCCOC(=O)c3ccc(-c4c5nc(c(-c6c(F)c(F)c(F)c(F)c6F)c6ccc([nH]6)c(-c6c(F)c(F)c(F)c(F)c6F)c6nc(c(-c7c(F)c(F)c(F)c(F)c7F)c7ccc4[nH]7)C=C6)C=C5)cc3)[C@H]3C=C[C@@H]2C3)c1
REMARK SMILES IDX 19 1 18 2 17 3 15 4 16 5 14 6 13 7 92 8 89 9 91 10 93 11
REMARK SMILES IDX 90 12 11 13 10 14 12 16 9 17 3 18 4 19 94 20 5 21 6 22 2 23
REMARK SMILES IDX 1 24 7 25 8 26 20 27 21 28 22 29 23 30 24 31 25 32 26 33
REMARK SMILES IDX 27 34 88 35 28 36 87 37 29 38 30 39 31 40 81 41 32 42 86 43
REMARK SMILES IDX 80 44 82 45 33 46 85 47 79 48 78 49 34 51 66 52 46 53 65 54
REMARK SMILES IDX 47 55 50 56 64 57 83 58 48 59 49 60 63 62 84 63 51 64 35 65
REMARK SMILES IDX 36 66 44 67 37 68 38 69 42 70 45 71 39 72 40 73 43 74 41 75
REMARK SMILES IDX 67 76 68 77 76 78 69 79 70 80 74 81 77 82 71 83 72 84 75 85
REMARK SMILES IDX 73 86 52 87 53 88 61 89 54 90 55 91 59 92 62 93 56 94 57 95
REMARK SMILES IDX 60 96 58 97
REMARK H PARENT 10 15 82 50 50 61
REMARK Flexibility Score: inf
ROOT
ATOM      1  C   UNL A   1      33.893  28.651  25.659  1.00  0.00     0.202 C 
ENDROOT
BRANCH   1   2
ATOM      2  C   UNL A   1      33.229  27.525  26.476  1.00  0.00     0.261 C 
BRANCH   2   3
ATOM      3  O   UNL A   1      33.394  26.171  25.980  1.00  0.00    -0.463 OA
BRANCH   3   4
ATOM      4  C   UNL A   1      32.309  25.354  26.116  1.00  0.00     0.310 C 
ATOM      5  O   UNL A   1      31.803  25.110  27.204  1.00  0.00    -0.252 OA
BRANCH   4   6
ATOM      6  C   UNL A   1      31.865  24.727  24.781  1.00  0.00     0.119 C 
ATOM      7  C   UNL A   1      32.559  25.341  23.508  1.00  0.00     0.100 C 
ATOM      8  C   UNL A   1      31.345  26.025  22.791  1.00  0.00     0.025 C 
ATOM      9  C   UNL A   1      30.347  25.052  24.532  1.00  0.00     0.027 C 
ATOM     10  C   UNL A   1      30.771  27.127  23.644  1.00  0.00    -0.027 C 
ATOM     11  C   UNL A   1      30.252  24.967  23.010  1.00  0.00     0.017 C 
ATOM     12  C   UNL A   1      30.106  26.542  24.649  1.00  0.00    -0.027 C 
BRANCH   7  13
ATOM     13  C   UNL A   1      33.162  24.353  22.473  1.00  0.00     0.229 C 
ATOM     14  N   UNL A   1      33.588  23.086  22.702  1.00  0.00    -0.323 N 
ATOM     15  H   UNL A   1      33.818  22.601  21.877  1.00  0.00     0.170 HD
ATOM     16  O   UNL A   1      33.281  24.695  21.286  1.00  0.00    -0.274 OA
BRANCH  14  17
ATOM     17  C   UNL A   1      33.770  22.318  23.852  1.00  0.00     0.087 A 
ATOM     18  C   UNL A   1      32.930  20.515  25.228  1.00  0.00     0.121 A 
ATOM     19  C   UNL A   1      33.651  20.995  26.305  1.00  0.00     0.050 A 
ATOM     20  C   UNL A   1      32.948  21.194  24.013  1.00  0.00     0.076 A 
ATOM     21  C   UNL A   1      34.570  22.010  26.085  1.00  0.00     0.052 A 
ATOM     22  C   UNL A   1      34.705  22.598  24.833  1.00  0.00     0.142 A 
BRANCH  18  23
ATOM     23  O   UNL A   1      32.154  19.402  25.369  1.00  0.00    -0.497 OA
ATOM     24  C   UNL A   1      32.574  18.386  24.451  1.00  0.00     0.278 C 
ENDBRANCH  18  23
BRANCH  22  25
ATOM     25  O   UNL A   1      35.768  23.431  24.651  1.00  0.00    -0.495 OA
ATOM     26  C   UNL A   1      36.973  22.929  25.240  1.00  0.00     0.278 C 
ENDBRANCH  22  25
ENDBRANCH  14  17
ENDBRANCH   7  13
ENDBRANCH   4   6
ENDBRANCH   3   4
ENDBRANCH   2   3
ENDBRANCH   1   2
BRANCH   1  27
ATOM     27  O   UNL A   1      33.015  29.584  25.031  1.00  0.00    -0.374 OA
BRANCH  27  28
ATOM     28  C   UNL A   1      31.817  29.881  25.746  1.00  0.00     0.202 C 
BRANCH  28  29
ATOM     29  C   UNL A   1      31.791  31.275  26.383  1.00  0.00     0.261 C 
BRANCH  29  30
ATOM     30  O   UNL A   1      32.611  31.332  27.569  1.00  0.00    -0.460 OA
BRANCH  30  31
ATOM     31  C   UNL A   1      33.479  32.361  27.646  1.00  0.00     0.338 C 
ATOM     32  O   UNL A   1      33.223  33.552  27.521  1.00  0.00    -0.246 OA
BRANCH  31  33
ATOM     33  C   UNL A   1      34.817  31.881  28.065  1.00  0.00     0.060 A 
ATOM     34  C   UNL A   1      34.943  30.520  28.360  1.00  0.00     0.016 A 
ATOM     35  C   UNL A   1      35.922  32.726  28.209  1.00  0.00     0.016 A 
ATOM     36  C   UNL A   1      36.149  30.011  28.849  1.00  0.00     0.010 A 
ATOM     37  C   UNL A   1      37.140  32.206  28.680  1.00  0.00     0.010 A 
ATOM     38  C   UNL A   1      37.256  30.850  29.044  1.00  0.00    -0.014 A 
BRANCH  38  39
ATOM     39  C   UNL A   1      38.453  30.326  29.767  1.00  0.00     0.031 A 
ATOM     40  C   UNL A   1      38.678  30.725  31.207  1.00  0.00     0.074 A 
ATOM     41  C   UNL A   1      39.300  29.448  29.191  1.00  0.00     0.049 A 
ATOM     42  N   UNL A   1      39.615  30.342  32.041  1.00  0.00    -0.248 NA
ATOM     43  C   UNL A   1      37.733  31.695  31.781  1.00  0.00     0.031 C 
ATOM     44  C   UNL A   1      39.225  28.975  27.809  1.00  0.00     0.029 A 
ATOM     45  N   UNL A   1      40.391  28.785  29.708  1.00  0.00    -0.354 N 
ATOM     46  C   UNL A   1      39.379  31.035  33.222  1.00  0.00     0.074 A 
ATOM     47  C   UNL A   1      38.242  31.897  32.986  1.00  0.00     0.031 C 
ATOM     48  C   UNL A   1      40.210  28.084  27.596  1.00  0.00     0.029 A 
ATOM     49  C   UNL A   1      40.999  27.932  28.816  1.00  0.00     0.049 A 
ATOM     50  H   UNL A   1      40.705  28.908  30.634  1.00  0.00     0.167 HD
ATOM     51  C   UNL A   1      40.027  30.947  34.407  1.00  0.00     0.037 A 
ATOM     52  C   UNL A   1      42.068  27.121  28.966  1.00  0.00     0.037 A 
ATOM     53  C   UNL A   1      41.117  30.050  34.680  1.00  0.00     0.049 A 
ATOM     54  C   UNL A   1      42.766  27.038  30.302  1.00  0.00     0.074 A 
ATOM     55  C   UNL A   1      41.784  29.847  35.876  1.00  0.00     0.029 A 
ATOM     56  N   UNL A   1      41.695  29.203  33.750  1.00  0.00    -0.354 N 
ATOM     57  N   UNL A   1      42.483  27.646  31.427  1.00  0.00    -0.248 NA
ATOM     58  C   UNL A   1      43.931  26.140  30.390  1.00  0.00     0.031 C 
ATOM     59  C   UNL A   1      42.796  28.908  35.659  1.00  0.00     0.029 A 
ATOM     60  C   UNL A   1      42.727  28.491  34.341  1.00  0.00     0.049 A 
ATOM     61  H   UNL A   1      41.415  29.119  32.810  1.00  0.00     0.167 HD
ATOM     62  C   UNL A   1      43.405  27.181  32.358  1.00  0.00     0.074 A 
ATOM     63  C   UNL A   1      44.249  26.227  31.674  1.00  0.00     0.031 C 
ATOM     64  C   UNL A   1      43.543  27.519  33.663  1.00  0.00     0.037 A 
BRANCH  51  65
ATOM     65  C   UNL A   1      39.572  31.844  35.521  1.00  0.00     0.064 A 
ATOM     66  C   UNL A   1      40.088  33.138  35.681  1.00  0.00     0.173 A 
ATOM     67  C   UNL A   1      38.560  31.424  36.396  1.00  0.00     0.173 A 
ATOM     68  F   UNL A   1      41.066  33.580  34.877  1.00  0.00    -0.203 F 
ATOM     69  C   UNL A   1      39.618  33.974  36.691  1.00  0.00     0.198 A 
ATOM     70  C   UNL A   1      38.073  32.274  37.386  1.00  0.00     0.198 A 
ATOM     71  F   UNL A   1      38.030  30.197  36.280  1.00  0.00    -0.203 F 
ATOM     72  F   UNL A   1      40.152  35.193  36.851  1.00  0.00    -0.200 F 
ATOM     73  C   UNL A   1      38.605  33.545  37.536  1.00  0.00     0.200 A 
ATOM     74  F   UNL A   1      37.084  31.862  38.192  1.00  0.00    -0.200 F 
ATOM     75  F   UNL A   1      38.144  34.356  38.497  1.00  0.00    -0.200 F 
ENDBRANCH  51  65
BRANCH  52  76
ATOM     76  C   UNL A   1      42.563  26.302  27.824  1.00  0.00     0.064 A 
ATOM     77  C   UNL A   1      43.551  26.789  26.955  1.00  0.00     0.173 A 
ATOM     78  C   UNL A   1      42.001  25.051  27.533  1.00  0.00     0.173 A 
ATOM     79  F   UNL A   1      44.099  27.993  27.172  1.00  0.00    -0.203 F 
ATOM     80  C   UNL A   1      43.930  26.073  25.821  1.00  0.00     0.198 A 
ATOM     81  C   UNL A   1      42.403  24.322  26.416  1.00  0.00     0.198 A 
ATOM     82  F   UNL A   1      41.048  24.543  28.327  1.00  0.00    -0.203 F 
ATOM     83  F   UNL A   1      44.825  26.594  24.970  1.00  0.00    -0.200 F 
ATOM     84  C   UNL A   1      43.358  24.840  25.553  1.00  0.00     0.200 A 
ATOM     85  F   UNL A   1      41.852  23.127  26.164  1.00  0.00    -0.200 F 
ATOM     86  F   UNL A   1      43.711  24.158  24.455  1.00  0.00    -0.200 F 
ENDBRANCH  52  76
BRANCH  64  87
ATOM     87  C   UNL A   1      44.608  26.823  34.460  1.00  0.00     0.064 A 
ATOM     88  C   UNL A   1      44.366  25.603  35.108  1.00  0.00     0.173 A 
ATOM     89  C   UNL A   1      45.905  27.356  34.529  1.00  0.00     0.173 A 
ATOM     90  F   UNL A   1      43.140  25.058  35.083  1.00  0.00    -0.203 F 
ATOM     91  C   UNL A   1      45.376  24.954  35.813  1.00  0.00     0.198 A 
ATOM     92  C   UNL A   1      46.920  26.689  35.209  1.00  0.00     0.198 A 
ATOM     93  F   UNL A   1      46.192  28.515  33.918  1.00  0.00    -0.203 F 
ATOM     94  F   UNL A   1      45.111  23.810  36.459  1.00  0.00    -0.200 F 
ATOM     95  C   UNL A   1      46.653  25.492  35.857  1.00  0.00     0.200 A 
ATOM     96  F   UNL A   1      48.158  27.203  35.236  1.00  0.00    -0.200 F 
ATOM     97  F   UNL A   1      47.627  24.860  36.526  1.00  0.00    -0.200 F 
ENDBRANCH  64  87
ENDBRANCH  38  39
ENDBRANCH  31  33
ENDBRANCH  30  31
ENDBRANCH  29  30
ENDBRANCH  28  29
ENDBRANCH  27  28
ENDBRANCH   1  27
TORSDOF 18
ENDMDL
MODEL 2
REMARK VINA RESULT:     -11.5      4.150     10.061
REMARK SMILES COc1ccc(OC)c(NC(=O)[C@@H]2[C@@H](C(=O)OCCOCCOC(=O)c3ccc(-c4c5nc(c(-c6c(F)c(F)c(F)c(F)c6F)c6ccc([nH]6)c(-c6c(F)c(F)c(F)c(F)c6F)c6nc(c(-c7c(F)c(F)c(F)c(F)c7F)c7ccc4[nH]7)C=C6)C=C5)cc3)[C@H]3C=C[C@@H]2C3)c1
REMARK SMILES IDX 19 1 18 2 17 3 15 4 16 5 14 6 13 7 92 8 89 9 91 10 93 11
REMARK SMILES IDX 90 12 11 13 10 14 12 16 9 17 3 18 4 19 94 20 5 21 6 22 2 23
REMARK SMILES IDX 1 24 7 25 8 26 20 27 21 28 22 29 23 30 24 31 25 32 26 33
REMARK SMILES IDX 27 34 88 35 28 36 87 37 29 38 30 39 31 40 81 41 32 42 86 43
REMARK SMILES IDX 80 44 82 45 33 46 85 47 79 48 78 49 34 51 66 52 46 53 65 54
REMARK SMILES IDX 47 55 50 56 64 57 83 58 48 59 49 60 63 62 84 63 51 64 35 65
REMARK SMILES IDX 36 66 44 67 37 68 38 69 42 70 45 71 39 72 40 73 43 74 41 75
REMARK SMILES IDX 67 76 68 77 76 78 69 79 70 80 74 81 77 82 71 83 72 84 75 85
REMARK SMILES IDX 73 86 52 87 53 88 61 89 54 90 55 91 59 92 62 93 56 94 57 95
REMARK SMILES IDX 60 96 58 97
REMARK H PARENT 10 15 82 50 50 61
REMARK Flexibility Score: inf
ROOT
ATOM      1  C   UNL A   1      36.026  21.404  25.420  1.00  0.00     0.202 C 
ENDROOT
BRANCH   1   2
ATOM      2  C   UNL A   1      36.173  22.833  25.978  1.00  0.00     0.261 C 
BRANCH   2   3
ATOM      3  O   UNL A   1      36.092  23.922  25.022  1.00  0.00    -0.463 OA
BRANCH   3   4
ATOM      4  C   UNL A   1      34.858  24.485  24.868  1.00  0.00     0.310 C 
ATOM      5  O   UNL A   1      34.197  24.887  25.816  1.00  0.00    -0.252 OA
BRANCH   4   6
ATOM      6  C   UNL A   1      34.377  24.474  23.404  1.00  0.00     0.119 C 
ATOM      7  C   UNL A   1      33.071  25.314  23.142  1.00  0.00     0.100 C 
ATOM      8  C   UNL A   1      32.051  24.189  22.755  1.00  0.00     0.025 C 
ATOM      9  C   UNL A   1      33.931  23.019  23.012  1.00  0.00     0.027 C 
ATOM     10  C   UNL A   1      31.830  23.247  23.910  1.00  0.00    -0.027 C 
ATOM     11  C   UNL A   1      32.937  23.286  21.883  1.00  0.00     0.017 C 
ATOM     12  C   UNL A   1      32.930  22.490  24.018  1.00  0.00    -0.027 C 
BRANCH   7  13
ATOM     13  C   UNL A   1      33.084  26.305  21.945  1.00  0.00     0.229 C 
ATOM     14  N   UNL A   1      32.817  27.634  21.980  1.00  0.00    -0.323 N 
ATOM     15  H   UNL A   1      33.006  28.088  21.127  1.00  0.00     0.170 HD
ATOM     16  O   UNL A   1      33.377  25.901  20.809  1.00  0.00    -0.274 OA
BRANCH  14  17
ATOM     17  C   UNL A   1      32.335  28.500  22.961  1.00  0.00     0.087 A 
ATOM     18  C   UNL A   1      32.752  29.570  25.090  1.00  0.00     0.121 A 
ATOM     19  C   UNL A   1      31.398  29.790  25.250  1.00  0.00     0.050 A 
ATOM     20  C   UNL A   1      33.225  28.888  23.972  1.00  0.00     0.076 A 
ATOM     21  C   UNL A   1      30.556  29.538  24.176  1.00  0.00     0.052 A 
ATOM     22  C   UNL A   1      31.042  28.993  22.994  1.00  0.00     0.142 A 
BRANCH  18  23
ATOM     23  O   UNL A   1      33.627  29.976  26.055  1.00  0.00    -0.497 OA
ATOM     24  C   UNL A   1      32.933  30.694  27.082  1.00  0.00     0.278 C 
ENDBRANCH  18  23
BRANCH  22  25
ATOM     25  O   UNL A   1      30.198  28.977  21.926  1.00  0.00    -0.495 OA
ATOM     26  C   UNL A   1      29.406  30.166  21.827  1.00  0.00     0.278 C 
ENDBRANCH  22  25
ENDBRANCH  14  17
ENDBRANCH   7  13
ENDBRANCH   4   6
ENDBRANCH   3   4
ENDBRANCH   2   3
ENDBRANCH   1   2
BRANCH   1  27
ATOM     27  O   UNL A   1      37.119  20.908  24.648  1.00  0.00    -0.374 OA
BRANCH  27  28
ATOM     28  C   UNL A   1      37.438  19.532  24.845  1.00  0.00     0.202 C 
BRANCH  28  29
ATOM     29  C   UNL A   1      38.787  19.289  25.533  1.00  0.00     0.261 C 
BRANCH  29  30
ATOM     30  O   UNL A   1      39.520  20.519  25.712  1.00  0.00    -0.460 OA
BRANCH  30  31
ATOM     31  C   UNL A   1      40.572  20.469  26.556  1.00  0.00     0.338 C 
ATOM     32  O   UNL A   1      41.292  19.504  26.779  1.00  0.00    -0.246 OA
BRANCH  31  33
ATOM     33  C   UNL A   1      40.865  21.815  27.099  1.00  0.00     0.060 A 
ATOM     34  C   UNL A   1      40.342  22.912  26.406  1.00  0.00     0.016 A 
ATOM     35  C   UNL A   1      41.659  22.027  28.231  1.00  0.00     0.016 A 
ATOM     36  C   UNL A   1      40.651  24.214  26.804  1.00  0.00     0.010 A 
ATOM     37  C   UNL A   1      41.951  23.340  28.642  1.00  0.00     0.010 A 
ATOM     38  C   UNL A   1      41.483  24.448  27.910  1.00  0.00    -0.014 A 
BRANCH  38  39
ATOM     39  C   UNL A   1      41.970  25.834  28.179  1.00  0.00     0.031 A 
ATOM     40  C   UNL A   1      43.303  26.270  27.616  1.00  0.00     0.074 A 
ATOM     41  C   UNL A   1      41.218  26.732  28.849  1.00  0.00     0.049 A 
ATOM     42  N   UNL A   1      43.889  27.442  27.675  1.00  0.00    -0.248 NA
ATOM     43  C   UNL A   1      44.088  25.249  26.905  1.00  0.00     0.031 C 
ATOM     44  C   UNL A   1      39.918  26.462  29.462  1.00  0.00     0.029 A 
ATOM     45  N   UNL A   1      41.439  28.064  29.117  1.00  0.00    -0.354 N 
ATOM     46  C   UNL A   1      45.110  27.288  27.029  1.00  0.00     0.074 A 
ATOM     47  C   UNL A   1      45.204  25.903  26.626  1.00  0.00     0.031 C 
ATOM     48  C   UNL A   1      39.448  27.597  30.013  1.00  0.00     0.029 A 
ATOM     49  C   UNL A   1      40.418  28.671  29.811  1.00  0.00     0.049 A 
ATOM     50  H   UNL A   1      42.255  28.541  28.836  1.00  0.00     0.167 HD
ATOM     51  C   UNL A   1      46.058  28.218  26.766  1.00  0.00     0.037 A 
ATOM     52  C   UNL A   1      40.279  29.946  30.233  1.00  0.00     0.037 A 
ATOM     53  C   UNL A   1      45.955  29.612  27.101  1.00  0.00     0.049 A 
ATOM     54  C   UNL A   1      41.350  30.962  29.917  1.00  0.00     0.074 A 
ATOM     55  C   UNL A   1      46.841  30.635  26.807  1.00  0.00     0.029 A 
ATOM     56  N   UNL A   1      44.902  30.181  27.797  1.00  0.00    -0.354 N 
ATOM     57  N   UNL A   1      42.462  30.815  29.241  1.00  0.00    -0.248 NA
ATOM     58  C   UNL A   1      41.137  32.332  30.417  1.00  0.00     0.031 C 
ATOM     59  C   UNL A   1      46.345  31.817  27.364  1.00  0.00     0.029 A 
ATOM     60  C   UNL A   1      45.127  31.539  27.961  1.00  0.00     0.049 A 
ATOM     61  H   UNL A   1      44.112  29.695  28.125  1.00  0.00     0.167 HD
ATOM     62  C   UNL A   1      43.059  32.071  29.204  1.00  0.00     0.074 A 
ATOM     63  C   UNL A   1      42.180  32.975  29.912  1.00  0.00     0.031 C 
ATOM     64  C   UNL A   1      44.233  32.440  28.639  1.00  0.00     0.037 A 
BRANCH  51  65
ATOM     65  C   UNL A   1      47.307  27.764  26.067  1.00  0.00     0.064 A 
ATOM     66  C   UNL A   1      47.392  27.718  24.668  1.00  0.00     0.173 A 
ATOM     67  C   UNL A   1      48.452  27.438  26.808  1.00  0.00     0.173 A 
ATOM     68  F   UNL A   1      46.320  28.008  23.916  1.00  0.00    -0.203 F 
ATOM     69  C   UNL A   1      48.574  27.341  24.036  1.00  0.00     0.198 A 
ATOM     70  C   UNL A   1      49.640  27.091  26.172  1.00  0.00     0.198 A 
ATOM     71  F   UNL A   1      48.423  27.474  28.149  1.00  0.00    -0.203 F 
ATOM     72  F   UNL A   1      48.622  27.266  22.699  1.00  0.00    -0.200 F 
ATOM     73  C   UNL A   1      49.700  27.038  24.788  1.00  0.00     0.200 A 
ATOM     74  F   UNL A   1      50.731  26.812  26.900  1.00  0.00    -0.200 F 
ATOM     75  F   UNL A   1      50.841  26.692  24.178  1.00  0.00    -0.200 F 
ENDBRANCH  51  65
BRANCH  52  76
ATOM     76  C   UNL A   1      39.074  30.361  31.004  1.00  0.00     0.064 A 
ATOM     77  C   UNL A   1      37.972  30.951  30.367  1.00  0.00     0.173 A 
ATOM     78  C   UNL A   1      39.034  30.250  32.400  1.00  0.00     0.173 A 
ATOM     79  F   UNL A   1      37.973  31.109  29.035  1.00  0.00    -0.203 F 
ATOM     80  C   UNL A   1      36.895  31.446  31.101  1.00  0.00     0.198 A 
ATOM     81  C   UNL A   1      37.943  30.717  33.131  1.00  0.00     0.198 A 
ATOM     82  F   UNL A   1      40.064  29.700  33.060  1.00  0.00    -0.203 F 
ATOM     83  F   UNL A   1      35.888  32.069  30.472  1.00  0.00    -0.200 F 
ATOM     84  C   UNL A   1      36.880  31.327  32.481  1.00  0.00     0.200 A 
ATOM     85  F   UNL A   1      37.930  30.594  34.465  1.00  0.00    -0.200 F 
ATOM     86  F   UNL A   1      35.852  31.816  33.188  1.00  0.00    -0.200 F 
ENDBRANCH  52  76
BRANCH  64  87
ATOM     87  C   UNL A   1      44.623  33.888  28.710  1.00  0.00     0.064 A 
ATOM     88  C   UNL A   1      45.432  34.385  29.742  1.00  0.00     0.173 A 
ATOM     89  C   UNL A   1      44.228  34.779  27.700  1.00  0.00     0.173 A 
ATOM     90  F   UNL A   1      45.828  33.577  30.738  1.00  0.00    -0.203 F 
ATOM     91  C   UNL A   1      45.813  35.724  29.771  1.00  0.00     0.198 A 
ATOM     92  C   UNL A   1      44.635  36.110  27.716  1.00  0.00     0.198 A 
ATOM     93  F   UNL A   1      43.461  34.352  26.684  1.00  0.00    -0.203 F 
ATOM     94  F   UNL A   1      46.553  36.186  30.789  1.00  0.00    -0.200 F 
ATOM     95  C   UNL A   1      45.422  36.583  28.756  1.00  0.00     0.200 A 
ATOM     96  F   UNL A   1      44.269  36.935  26.725  1.00  0.00    -0.200 F 
ATOM     97  F   UNL A   1      45.799  37.869  28.780  1.00  0.00    -0.200 F 
ENDBRANCH  64  87
ENDBRANCH  38  39
ENDBRANCH  31  33
ENDBRANCH  30  31
ENDBRANCH  29  30
ENDBRANCH  28  29
ENDBRANCH  27  28
ENDBRANCH   1  27
TORSDOF 18
ENDMDL
MODEL 3
REMARK VINA RESULT:     -11.4      1.132      2.781
REMARK SMILES COc1ccc(OC)c(NC(=O)[C@@H]2[C@@H](C(=O)OCCOCCOC(=O)c3ccc(-c4c5nc(c(-c6c(F)c(F)c(F)c(F)c6F)c6ccc([nH]6)c(-c6c(F)c(F)c(F)c(F)c6F)c6nc(c(-c7c(F)c(F)c(F)c(F)c7F)c7ccc4[nH]7)C=C6)C=C5)cc3)[C@H]3C=C[C@@H]2C3)c1
REMARK SMILES IDX 19 1 18 2 17 3 15 4 16 5 14 6 13 7 92 8 89 9 91 10 93 11
REMARK SMILES IDX 90 12 11 13 10 14 12 16 9 17 3 18 4 19 94 20 5 21 6 22 2 23
REMARK SMILES IDX 1 24 7 25 8 26 20 27 21 28 22 29 23 30 24 31 25 32 26 33
REMARK SMILES IDX 27 34 88 35 28 36 87 37 29 38 30 39 31 40 81 41 32 42 86 43
REMARK SMILES IDX 80 44 82 45 33 46 85 47 79 48 78 49 34 51 66 52 46 53 65 54
REMARK SMILES IDX 47 55 50 56 64 57 83 58 48 59 49 60 63 62 84 63 51 64 35 65
REMARK SMILES IDX 36 66 44 67 37 68 38 69 42 70 45 71 39 72 40 73 43 74 41 75
REMARK SMILES IDX 67 76 68 77 76 78 69 79 70 80 74 81 77 82 71 83 72 84 75 85
REMARK SMILES IDX 73 86 52 87 53 88 61 89 54 90 55 91 59 92 62 93 56 94 57 95
REMARK SMILES IDX 60 96 58 97
REMARK H PARENT 10 15 82 50 50 61
REMARK Flexibility Score: inf
ROOT
ATOM      1  C   UNL A   1      33.260  29.628  27.116  1.00  0.00     0.202 C 
ENDROOT
BRANCH   1   2
ATOM      2  C   UNL A   1      33.611  28.165  26.782  1.00  0.00     0.261 C 
BRANCH   2   3
ATOM      3  O   UNL A   1      33.618  27.796  25.379  1.00  0.00    -0.463 OA
BRANCH   3   4
ATOM      4  C   UNL A   1      33.444  26.468  25.114  1.00  0.00     0.310 C 
ATOM      5  O   UNL A   1      34.160  25.855  24.334  1.00  0.00    -0.252 OA
BRANCH   4   6
ATOM      6  C   UNL A   1      32.218  25.873  25.833  1.00  0.00     0.119 C 
ATOM      7  C   UNL A   1      31.905  24.376  25.456  1.00  0.00     0.100 C 
ATOM      8  C   UNL A   1      30.530  24.522  24.719  1.00  0.00     0.025 C 
ATOM      9  C   UNL A   1      30.920  26.622  25.359  1.00  0.00     0.027 C 
ATOM     10  C   UNL A   1      30.680  25.345  23.466  1.00  0.00    -0.027 C 
ATOM     11  C   UNL A   1      29.840  25.571  25.606  1.00  0.00     0.017 C 
ATOM     12  C   UNL A   1      30.838  26.619  23.847  1.00  0.00    -0.027 C 
BRANCH   7  13
ATOM     13  C   UNL A   1      31.658  23.380  26.622  1.00  0.00     0.229 C 
ATOM     14  N   UNL A   1      32.425  22.315  26.966  1.00  0.00    -0.323 N 
ATOM     15  H   UNL A   1      32.146  21.897  27.813  1.00  0.00     0.170 HD
ATOM     16  O   UNL A   1      30.676  23.528  27.367  1.00  0.00    -0.274 OA
BRANCH  14  17
ATOM     17  C   UNL A   1      33.523  21.683  26.383  1.00  0.00     0.087 A 
ATOM     18  C   UNL A   1      35.874  21.826  25.830  1.00  0.00     0.121 A 
ATOM     19  C   UNL A   1      35.711  20.847  24.869  1.00  0.00     0.050 A 
ATOM     20  C   UNL A   1      34.778  22.281  26.559  1.00  0.00     0.076 A 
ATOM     21  C   UNL A   1      34.503  20.165  24.817  1.00  0.00     0.052 A 
ATOM     22  C   UNL A   1      33.446  20.514  25.647  1.00  0.00     0.142 A 
BRANCH  18  23
ATOM     23  O   UNL A   1      37.100  22.387  26.030  1.00  0.00    -0.497 OA
ATOM     24  C   UNL A   1      37.216  23.604  25.283  1.00  0.00     0.278 C 
ENDBRANCH  18  23
BRANCH  22  25
ATOM     25  O   UNL A   1      32.380  19.666  25.682  1.00  0.00    -0.495 OA
ATOM     26  C   UNL A   1      32.530  18.550  24.798  1.00  0.00     0.278 C 
ENDBRANCH  22  25
ENDBRANCH  14  17
ENDBRANCH   7  13
ENDBRANCH   4   6
ENDBRANCH   3   4
ENDBRANCH   2   3
ENDBRANCH   1   2
BRANCH   1  27
ATOM     27  O   UNL A   1      31.877  29.978  27.058  1.00  0.00    -0.374 OA
BRANCH  27  28
ATOM     28  C   UNL A   1      31.564  31.129  26.276  1.00  0.00     0.202 C 
BRANCH  28  29
ATOM     29  C   UNL A   1      31.552  32.444  27.064  1.00  0.00     0.261 C 
BRANCH  29  30
ATOM     30  O   UNL A   1      32.803  33.153  26.932  1.00  0.00    -0.460 OA
BRANCH  30  31
ATOM     31  C   UNL A   1      33.311  33.682  28.063  1.00  0.00     0.338 C 
ATOM     32  O   UNL A   1      32.773  34.498  28.801  1.00  0.00    -0.246 OA
BRANCH  31  33
ATOM     33  C   UNL A   1      34.592  33.026  28.413  1.00  0.00     0.060 A 
ATOM     34  C   UNL A   1      34.521  31.767  29.017  1.00  0.00     0.016 A 
ATOM     35  C   UNL A   1      35.840  33.622  28.200  1.00  0.00     0.016 A 
ATOM     36  C   UNL A   1      35.681  31.126  29.458  1.00  0.00     0.010 A 
ATOM     37  C   UNL A   1      37.007  32.963  28.626  1.00  0.00     0.010 A 
ATOM     38  C   UNL A   1      36.938  31.727  29.296  1.00  0.00    -0.014 A 
BRANCH  38  39
ATOM     39  C   UNL A   1      38.129  31.124  29.966  1.00  0.00     0.031 A 
ATOM     40  C   UNL A   1      38.397  31.442  31.419  1.00  0.00     0.074 A 
ATOM     41  C   UNL A   1      38.932  30.246  29.330  1.00  0.00     0.049 A 
ATOM     42  N   UNL A   1      39.335  30.984  32.213  1.00  0.00    -0.248 NA
ATOM     43  C   UNL A   1      37.500  32.416  32.060  1.00  0.00     0.031 C 
ATOM     44  C   UNL A   1      38.812  29.846  27.928  1.00  0.00     0.029 A 
ATOM     45  N   UNL A   1      40.006  29.518  29.790  1.00  0.00    -0.354 N 
ATOM     46  C   UNL A   1      39.148  31.626  33.431  1.00  0.00     0.074 A 
ATOM     47  C   UNL A   1      38.040  32.539  33.263  1.00  0.00     0.031 C 
ATOM     48  C   UNL A   1      39.758  28.931  27.650  1.00  0.00     0.029 A 
ATOM     49  C   UNL A   1      40.565  28.690  28.845  1.00  0.00     0.049 A 
ATOM     50  H   UNL A   1      40.344  29.584  30.714  1.00  0.00     0.167 HD
ATOM     51  C   UNL A   1      39.816  31.455  34.596  1.00  0.00     0.037 A 
ATOM     52  C   UNL A   1      41.606  27.835  28.931  1.00  0.00     0.037 A 
ATOM     53  C   UNL A   1      40.877  30.507  34.802  1.00  0.00     0.049 A 
ATOM     54  C   UNL A   1      42.327  27.659  30.247  1.00  0.00     0.074 A 
ATOM     55  C   UNL A   1      41.559  30.220  35.972  1.00  0.00     0.029 A 
ATOM     56  N   UNL A   1      41.405  29.687  33.819  1.00  0.00    -0.354 N 
ATOM     57  N   UNL A   1      42.088  28.221  31.406  1.00  0.00    -0.248 NA
ATOM     58  C   UNL A   1      43.459  26.717  30.266  1.00  0.00     0.031 C 
ATOM     59  C   UNL A   1      42.531  29.257  35.688  1.00  0.00     0.029 A 
ATOM     60  C   UNL A   1      42.420  28.910  34.352  1.00  0.00     0.049 A 
ATOM     61  H   UNL A   1      41.104  29.660  32.882  1.00  0.00     0.167 HD
ATOM     62  C   UNL A   1      43.011  27.677  32.293  1.00  0.00     0.074 A 
ATOM     63  C   UNL A   1      43.805  26.728  31.545  1.00  0.00     0.031 C 
ATOM     64  C   UNL A   1      43.187  27.944  33.610  1.00  0.00     0.037 A 
BRANCH  51  65
ATOM     65  C   UNL A   1      39.417  32.311  35.763  1.00  0.00     0.064 A 
ATOM     66  C   UNL A   1      38.451  31.891  36.689  1.00  0.00     0.173 A 
ATOM     67  C   UNL A   1      40.059  33.537  35.991  1.00  0.00     0.173 A 
ATOM     68  F   UNL A   1      37.801  30.732  36.507  1.00  0.00    -0.203 F 
ATOM     69  C   UNL A   1      38.130  32.676  37.792  1.00  0.00     0.198 A 
ATOM     70  C   UNL A   1      39.755  34.306  37.111  1.00  0.00     0.198 A 
ATOM     71  F   UNL A   1      40.994  33.980  35.138  1.00  0.00    -0.203 F 
ATOM     72  F   UNL A   1      37.176  32.273  38.644  1.00  0.00    -0.200 F 
ATOM     73  C   UNL A   1      38.788  33.878  38.007  1.00  0.00     0.200 A 
ATOM     74  F   UNL A   1      40.403  35.460  37.325  1.00  0.00    -0.200 F 
ATOM     75  F   UNL A   1      38.488  34.625  39.078  1.00  0.00    -0.200 F 
ENDBRANCH  51  65
BRANCH  52  76
ATOM     76  C   UNL A   1      42.048  27.056  27.740  1.00  0.00     0.064 A 
ATOM     77  C   UNL A   1      41.573  25.759  27.503  1.00  0.00     0.173 A 
ATOM     78  C   UNL A   1      43.014  27.565  26.861  1.00  0.00     0.173 A 
ATOM     79  F   UNL A   1      40.670  25.214  28.333  1.00  0.00    -0.203 F 
ATOM     80  C   UNL A   1      42.074  24.986  26.456  1.00  0.00     0.198 A 
ATOM     81  C   UNL A   1      43.492  26.804  25.795  1.00  0.00     0.198 A 
ATOM     82  F   UNL A   1      43.508  28.798  27.046  1.00  0.00    -0.203 F 
ATOM     83  F   UNL A   1      41.653  23.724  26.296  1.00  0.00    -0.200 F 
ATOM     84  C   UNL A   1      43.031  25.510  25.602  1.00  0.00     0.200 A 
ATOM     85  F   UNL A   1      44.413  27.317  24.968  1.00  0.00    -0.200 F 
ATOM     86  F   UNL A   1      43.523  24.764  24.604  1.00  0.00    -0.200 F 
ENDBRANCH  52  76
BRANCH  64  87
ATOM     87  C   UNL A   1      44.240  27.171  34.349  1.00  0.00     0.064 A 
ATOM     88  C   UNL A   1      45.544  27.665  34.506  1.00  0.00     0.173 A 
ATOM     89  C   UNL A   1      43.926  25.946  34.957  1.00  0.00     0.173 A 
ATOM     90  F   UNL A   1      45.899  28.826  33.934  1.00  0.00    -0.203 F 
ATOM     91  C   UNL A   1      46.498  26.950  35.226  1.00  0.00     0.198 A 
ATOM     92  C   UNL A   1      44.873  25.249  35.701  1.00  0.00     0.198 A 
ATOM     93  F   UNL A   1      42.690  25.434  34.846  1.00  0.00    -0.203 F 
ATOM     94  F   UNL A   1      47.748  27.422  35.328  1.00  0.00    -0.200 F 
ATOM     95  C   UNL A   1      46.161  25.749  35.829  1.00  0.00     0.200 A 
ATOM     96  F   UNL A   1      44.541  24.096  36.297  1.00  0.00    -0.200 F 
ATOM     97  F   UNL A   1      47.077  25.068  36.531  1.00  0.00    -0.200 F 
ENDBRANCH  64  87
ENDBRANCH  38  39
ENDBRANCH  31  33
ENDBRANCH  30  31
ENDBRANCH  29  30
ENDBRANCH  28  29
ENDBRANCH  27  28
ENDBRANCH   1  27
TORSDOF 18
ENDMDL
