MODEL 1
REMARK VINA RESULT:     -11.9      0.000      0.000
REMARK SMILES COc1cccc(C(=O)/C=C(/Nc2cc(C)c(C)cc2[N+](=O)[O-])C(=O)OCCOCCOC(=O)c2ccc(-c3c4nc(c(-c5c(F)c(F)c(F)c(F)c5F)c5ccc([nH]5)c(-c5c(F)c(F)c(F)c(F)c5F)c5nc(c(-c6c(F)c(F)c(F)c(F)c6F)c6ccc3[nH]6)C=C5)C=C4)cc2)c1
REMARK SMILES IDX 28 1 27 2 26 3 24 4 25 5 11 6 10 7 8 8 9 9 7 10 3 11 4 12
REMARK SMILES IDX 98 13 5 14 6 15 2 16 1 17 12 18 13 20 14 21 20 22 15 23
REMARK SMILES IDX 19 24 16 25 17 26 18 27 21 28 22 29 23 30 29 31 30 32 31 33
REMARK SMILES IDX 32 34 33 35 34 36 35 37 36 38 97 39 37 40 96 41 38 42 39 43
REMARK SMILES IDX 40 44 90 45 41 46 95 47 89 48 91 49 42 50 94 51 88 52 87 53
REMARK SMILES IDX 43 55 75 56 55 57 74 58 56 59 59 60 73 61 92 62 57 63 58 64
REMARK SMILES IDX 72 66 93 67 60 68 44 69 45 70 53 71 46 72 47 73 51 74 54 75
REMARK SMILES IDX 48 76 49 77 52 78 50 79 76 80 77 81 85 82 78 83 79 84 83 85
REMARK SMILES IDX 86 86 80 87 81 88 84 89 82 90 61 91 62 92 70 93 63 94 64 95
REMARK SMILES IDX 68 96 71 97 65 98 66 99 69 100 67 101
REMARK H PARENT 12 19 91 54 59 65
REMARK Flexibility Score: inf
ROOT
ATOM      1  C   UNL A   1      31.789  29.207  26.126  1.00  0.00     0.202 C 
ENDROOT
BRANCH   1   2
ATOM      2  C   UNL A   1      32.369  27.984  26.848  1.00  0.00     0.261 C 
BRANCH   2   3
ATOM      3  O   UNL A   1      32.412  26.875  25.975  1.00  0.00    -0.459 OA
BRANCH   3   4
ATOM      4  C   UNL A   1      31.233  26.277  25.746  1.00  0.00     0.354 C 
ATOM      5  O   UNL A   1      30.244  26.296  26.452  1.00  0.00    -0.244 OA
BRANCH   4   6
ATOM      6  C   UNL A   1      31.408  25.433  24.545  1.00  0.00     0.129 C 
ATOM      7  C   UNL A   1      31.441  26.064  23.354  1.00  0.00     0.086 C 
BRANCH   7   8
ATOM      8  C   UNL A   1      31.333  27.472  22.804  1.00  0.00     0.188 C 
ATOM      9  O   UNL A   1      32.405  27.962  22.425  1.00  0.00    -0.289 OA
BRANCH   8  10
ATOM     10  C   UNL A   1      30.136  28.374  22.747  1.00  0.00     0.026 A 
ATOM     11  C   UNL A   1      28.951  30.453  22.262  1.00  0.00     0.119 A 
ATOM     12  C   UNL A   1      27.737  29.886  22.639  1.00  0.00     0.046 A 
ATOM     13  C   UNL A   1      30.147  29.730  22.419  1.00  0.00     0.058 A 
ATOM     14  C   UNL A   1      27.718  28.582  23.120  1.00  0.00     0.005 A 
ATOM     15  C   UNL A   1      28.901  27.828  23.150  1.00  0.00     0.012 A 
BRANCH  11  16
ATOM     16  O   UNL A   1      29.038  31.748  21.824  1.00  0.00    -0.497 OA
ATOM     17  C   UNL A   1      27.918  32.182  21.047  1.00  0.00     0.278 C 
ENDBRANCH  11  16
ENDBRANCH   8  10
ENDBRANCH   7   8
BRANCH   6  18
ATOM     18  N   UNL A   1      31.658  24.067  24.787  1.00  0.00    -0.344 N 
ATOM     19  H   UNL A   1      30.894  23.447  24.755  1.00  0.00     0.167 HD
BRANCH  18  20
ATOM     20  C   UNL A   1      32.944  23.526  25.073  1.00  0.00     0.118 A 
ATOM     21  C   UNL A   1      33.887  23.425  24.032  1.00  0.00     0.037 A 
ATOM     22  C   UNL A   1      33.429  23.313  26.379  1.00  0.00     0.292 A 
ATOM     23  C   UNL A   1      35.272  23.263  24.290  1.00  0.00    -0.046 A 
ATOM     24  C   UNL A   1      34.805  23.293  26.654  1.00  0.00     0.091 A 
ATOM     25  C   UNL A   1      36.205  23.028  23.129  1.00  0.00     0.045 C 
ATOM     26  C   UNL A   1      35.740  23.328  25.614  1.00  0.00    -0.041 A 
ATOM     27  C   UNL A   1      37.201  23.370  25.966  1.00  0.00     0.045 C 
BRANCH  22  28
ATOM     28  N   UNL A   1      32.513  23.001  27.487  1.00  0.00     0.064 N 
ATOM     29  O   UNL A   1      32.876  22.150  28.314  1.00  0.00    -0.258 OA
ATOM     30  O   UNL A   1      31.394  23.538  27.483  1.00  0.00    -0.258 OA
ENDBRANCH  22  28
ENDBRANCH  18  20
ENDBRANCH   6  18
ENDBRANCH   4   6
ENDBRANCH   3   4
ENDBRANCH   2   3
ENDBRANCH   1   2
BRANCH   1  31
ATOM     31  O   UNL A   1      32.275  30.499  26.468  1.00  0.00    -0.374 OA
BRANCH  31  32
ATOM     32  C   UNL A   1      31.403  31.626  26.462  1.00  0.00     0.202 C 
BRANCH  32  33
ATOM     33  C   UNL A   1      31.970  32.974  26.904  1.00  0.00     0.261 C 
BRANCH  33  34
ATOM     34  O   UNL A   1      32.859  32.857  28.030  1.00  0.00    -0.460 OA
BRANCH  34  35
ATOM     35  C   UNL A   1      33.926  33.689  28.004  1.00  0.00     0.338 C 
ATOM     36  O   UNL A   1      33.925  34.898  27.852  1.00  0.00    -0.246 OA
BRANCH  35  37
ATOM     37  C   UNL A   1      35.148  32.948  28.354  1.00  0.00     0.060 A 
ATOM     38  C   UNL A   1      35.016  31.662  28.901  1.00  0.00     0.016 A 
ATOM     39  C   UNL A   1      36.397  33.557  28.250  1.00  0.00     0.016 A 
ATOM     40  C   UNL A   1      36.134  31.004  29.406  1.00  0.00     0.010 A 
ATOM     41  C   UNL A   1      37.512  32.905  28.775  1.00  0.00     0.010 A 
ATOM     42  C   UNL A   1      37.375  31.650  29.396  1.00  0.00    -0.014 A 
BRANCH  42  43
ATOM     43  C   UNL A   1      38.499  31.120  30.200  1.00  0.00     0.031 A 
ATOM     44  C   UNL A   1      39.375  30.061  29.592  1.00  0.00     0.074 A 
ATOM     45  C   UNL A   1      38.714  31.550  31.454  1.00  0.00     0.049 A 
ATOM     46  N   UNL A   1      40.325  29.352  30.142  1.00  0.00    -0.248 NA
ATOM     47  C   UNL A   1      39.140  29.759  28.170  1.00  0.00     0.031 C 
ATOM     48  C   UNL A   1      37.969  32.614  32.121  1.00  0.00     0.029 A 
ATOM     49  N   UNL A   1      39.610  31.117  32.398  1.00  0.00    -0.354 N 
ATOM     50  C   UNL A   1      40.797  28.516  29.137  1.00  0.00     0.074 A 
ATOM     51  C   UNL A   1      40.007  28.781  27.955  1.00  0.00     0.031 C 
ATOM     52  C   UNL A   1      38.406  32.720  33.387  1.00  0.00     0.029 A 
ATOM     53  C   UNL A   1      39.440  31.715  33.622  1.00  0.00     0.049 A 
ATOM     54  H   UNL A   1      40.305  30.445  32.216  1.00  0.00     0.167 HD
ATOM     55  C   UNL A   1      41.805  27.613  29.199  1.00  0.00     0.037 A 
ATOM     56  C   UNL A   1      40.033  31.451  34.802  1.00  0.00     0.037 A 
ATOM     57  C   UNL A   1      42.578  27.353  30.383  1.00  0.00     0.049 A 
ATOM     58  C   UNL A   1      41.091  30.379  34.869  1.00  0.00     0.074 A 
ATOM     59  C   UNL A   1      43.634  26.475  30.550  1.00  0.00     0.029 A 
ATOM     60  N   UNL A   1      42.371  27.967  31.611  1.00  0.00    -0.354 N 
ATOM     61  N   UNL A   1      41.550  29.607  33.913  1.00  0.00    -0.248 NA
ATOM     62  C   UNL A   1      41.719  30.149  36.176  1.00  0.00     0.031 C 
ATOM     63  C   UNL A   1      44.025  26.511  31.893  1.00  0.00     0.029 A 
ATOM     64  C   UNL A   1      43.258  27.463  32.548  1.00  0.00     0.049 A 
ATOM     65  H   UNL A   1      41.694  28.658  31.789  1.00  0.00     0.167 HD
ATOM     66  C   UNL A   1      42.547  28.831  34.493  1.00  0.00     0.074 A 
ATOM     67  C   UNL A   1      42.628  29.230  35.882  1.00  0.00     0.031 C 
ATOM     68  C   UNL A   1      43.329  27.878  33.926  1.00  0.00     0.037 A 
BRANCH  55  69
ATOM     69  C   UNL A   1      42.103  26.820  27.960  1.00  0.00     0.064 A 
ATOM     70  C   UNL A   1      43.065  27.237  27.027  1.00  0.00     0.173 A 
ATOM     71  C   UNL A   1      41.438  25.609  27.716  1.00  0.00     0.173 A 
ATOM     72  F   UNL A   1      43.719  28.395  27.202  1.00  0.00    -0.203 F 
ATOM     73  C   UNL A   1      43.330  26.483  25.885  1.00  0.00     0.198 A 
ATOM     74  C   UNL A   1      41.727  24.843  26.590  1.00  0.00     0.198 A 
ATOM     75  F   UNL A   1      40.509  25.163  28.577  1.00  0.00    -0.203 F 
ATOM     76  F   UNL A   1      44.216  26.927  24.983  1.00  0.00    -0.200 F 
ATOM     77  C   UNL A   1      42.666  25.284  25.671  1.00  0.00     0.200 A 
ATOM     78  F   UNL A   1      41.093  23.679  26.394  1.00  0.00    -0.200 F 
ATOM     79  F   UNL A   1      42.927  24.558  24.576  1.00  0.00    -0.200 F 
ENDBRANCH  55  69
BRANCH  56  80
ATOM     80  C   UNL A   1      39.631  32.205  36.018  1.00  0.00     0.064 A 
ATOM     81  C   UNL A   1      40.353  33.328  36.445  1.00  0.00     0.173 A 
ATOM     82  C   UNL A   1      38.524  31.811  36.785  1.00  0.00     0.173 A 
ATOM     83  F   UNL A   1      41.432  33.730  35.756  1.00  0.00    -0.203 F 
ATOM     84  C   UNL A   1      39.999  34.013  37.605  1.00  0.00     0.198 A 
ATOM     85  C   UNL A   1      38.153  32.516  37.929  1.00  0.00     0.198 A 
ATOM     86  F   UNL A   1      37.796  30.747  36.418  1.00  0.00    -0.203 F 
ATOM     87  F   UNL A   1      40.738  35.052  38.017  1.00  0.00    -0.200 F 
ATOM     88  C   UNL A   1      38.897  33.610  38.343  1.00  0.00     0.200 A 
ATOM     89  F   UNL A   1      37.080  32.130  38.632  1.00  0.00    -0.200 F 
ATOM     90  F   UNL A   1      38.556  34.270  39.458  1.00  0.00    -0.200 F 
ENDBRANCH  56  80
BRANCH  68  91
ATOM     91  C   UNL A   1      44.372  27.233  34.795  1.00  0.00     0.064 A 
ATOM     92  C   UNL A   1      45.639  27.804  34.980  1.00  0.00     0.173 A 
ATOM     93  C   UNL A   1      44.080  26.045  35.485  1.00  0.00     0.173 A 
ATOM     94  F   UNL A   1      45.973  28.931  34.333  1.00  0.00    -0.203 F 
ATOM     95  C   UNL A   1      46.585  27.194  35.799  1.00  0.00     0.198 A 
ATOM     96  C   UNL A   1      45.016  25.458  36.330  1.00  0.00     0.198 A 
ATOM     97  F   UNL A   1      42.879  25.463  35.350  1.00  0.00    -0.203 F 
ATOM     98  F   UNL A   1      47.808  27.730  35.919  1.00  0.00    -0.200 F 
ATOM     99  C   UNL A   1      46.270  26.027  36.480  1.00  0.00     0.200 A 
ATOM    100  F   UNL A   1      44.703  24.341  37.001  1.00  0.00    -0.200 F 
ATOM    101  F   UNL A   1      47.180  25.448  37.275  1.00  0.00    -0.200 F 
ENDBRANCH  68  91
ENDBRANCH  42  43
ENDBRANCH  35  37
ENDBRANCH  34  35
ENDBRANCH  33  34
ENDBRANCH  32  33
ENDBRANCH  31  32
ENDBRANCH   1  31
TORSDOF 20
ENDMDL
MODEL 2
REMARK VINA RESULT:     -11.8      1.182      7.269
REMARK SMILES COc1cccc(C(=O)/C=C(/Nc2cc(C)c(C)cc2[N+](=O)[O-])C(=O)OCCOCCOC(=O)c2ccc(-c3c4nc(c(-c5c(F)c(F)c(F)c(F)c5F)c5ccc([nH]5)c(-c5c(F)c(F)c(F)c(F)c5F)c5nc(c(-c6c(F)c(F)c(F)c(F)c6F)c6ccc3[nH]6)C=C5)C=C4)cc2)c1
REMARK SMILES IDX 28 1 27 2 26 3 24 4 25 5 11 6 10 7 8 8 9 9 7 10 3 11 4 12
REMARK SMILES IDX 98 13 5 14 6 15 2 16 1 17 12 18 13 20 14 21 20 22 15 23
REMARK SMILES IDX 19 24 16 25 17 26 18 27 21 28 22 29 23 30 29 31 30 32 31 33
REMARK SMILES IDX 32 34 33 35 34 36 35 37 36 38 97 39 37 40 96 41 38 42 39 43
REMARK SMILES IDX 40 44 90 45 41 46 95 47 89 48 91 49 42 50 94 51 88 52 87 53
REMARK SMILES IDX 43 55 75 56 55 57 74 58 56 59 59 60 73 61 92 62 57 63 58 64
REMARK SMILES IDX 72 66 93 67 60 68 44 69 45 70 53 71 46 72 47 73 51 74 54 75
REMARK SMILES IDX 48 76 49 77 52 78 50 79 76 80 77 81 85 82 78 83 79 84 83 85
REMARK SMILES IDX 86 86 80 87 81 88 84 89 82 90 61 91 62 92 70 93 63 94 64 95
REMARK SMILES IDX 68 96 71 97 65 98 66 99 69 100 67 101
REMARK H PARENT 12 19 91 54 59 65
REMARK Flexibility Score: inf
ROOT
ATOM      1  C   UNL A   1      32.389  29.098  25.991  1.00  0.00     0.202 C 
ENDROOT
BRANCH   1   2
ATOM      2  C   UNL A   1      33.274  28.216  26.881  1.00  0.00     0.261 C 
BRANCH   2   3
ATOM      3  O   UNL A   1      33.653  27.046  26.188  1.00  0.00    -0.459 OA
BRANCH   3   4
ATOM      4  C   UNL A   1      32.650  26.208  25.883  1.00  0.00     0.354 C 
ATOM      5  O   UNL A   1      31.619  26.032  26.502  1.00  0.00    -0.244 OA
BRANCH   4   6
ATOM      6  C   UNL A   1      33.106  25.397  24.734  1.00  0.00     0.129 C 
ATOM      7  C   UNL A   1      33.032  25.967  23.516  1.00  0.00     0.086 C 
BRANCH   7   8
ATOM      8  C   UNL A   1      32.583  27.272  22.891  1.00  0.00     0.188 C 
ATOM      9  O   UNL A   1      33.497  27.961  22.418  1.00  0.00    -0.289 OA
BRANCH   8  10
ATOM     10  C   UNL A   1      31.211  27.878  22.853  1.00  0.00     0.026 A 
ATOM     11  C   UNL A   1      29.559  29.585  22.290  1.00  0.00     0.119 A 
ATOM     12  C   UNL A   1      28.530  28.807  22.809  1.00  0.00     0.046 A 
ATOM     13  C   UNL A   1      30.895  29.164  22.412  1.00  0.00     0.058 A 
ATOM     14  C   UNL A   1      28.836  27.585  23.399  1.00  0.00     0.005 A 
ATOM     15  C   UNL A   1      30.158  27.117  23.398  1.00  0.00     0.012 A 
BRANCH  11  16
ATOM     16  O   UNL A   1      29.324  30.818  21.738  1.00  0.00    -0.497 OA
ATOM     17  C   UNL A   1      27.980  31.014  21.291  1.00  0.00     0.278 C 
ENDBRANCH  11  16
ENDBRANCH   8  10
ENDBRANCH   7   8
BRANCH   6  18
ATOM     18  N   UNL A   1      33.696  24.158  25.056  1.00  0.00    -0.344 N 
ATOM     19  H   UNL A   1      34.605  24.166  25.437  1.00  0.00     0.167 HD
BRANCH  18  20
ATOM     20  C   UNL A   1      33.065  22.895  24.867  1.00  0.00     0.118 A 
ATOM     21  C   UNL A   1      32.657  22.527  23.570  1.00  0.00     0.037 A 
ATOM     22  C   UNL A   1      33.041  21.879  25.843  1.00  0.00     0.292 A 
ATOM     23  C   UNL A   1      32.379  21.179  23.229  1.00  0.00    -0.046 A 
ATOM     24  C   UNL A   1      32.906  20.528  25.488  1.00  0.00     0.091 A 
ATOM     25  C   UNL A   1      31.820  20.876  21.862  1.00  0.00     0.045 C 
ATOM     26  C   UNL A   1      32.632  20.162  24.166  1.00  0.00    -0.041 A 
ATOM     27  C   UNL A   1      32.560  18.698  23.829  1.00  0.00     0.045 C 
BRANCH  22  28
ATOM     28  N   UNL A   1      33.056  22.205  27.277  1.00  0.00     0.064 N 
ATOM     29  O   UNL A   1      32.163  22.951  27.708  1.00  0.00    -0.258 OA
ATOM     30  O   UNL A   1      34.007  21.790  27.956  1.00  0.00    -0.258 OA
ENDBRANCH  22  28
ENDBRANCH  18  20
ENDBRANCH   6  18
ENDBRANCH   4   6
ENDBRANCH   3   4
ENDBRANCH   2   3
ENDBRANCH   1   2
BRANCH   1  31
ATOM     31  O   UNL A   1      32.588  30.506  26.006  1.00  0.00    -0.374 OA
BRANCH  31  32
ATOM     32  C   UNL A   1      31.517  31.385  26.339  1.00  0.00     0.202 C 
BRANCH  32  33
ATOM     33  C   UNL A   1      31.868  32.763  26.899  1.00  0.00     0.261 C 
BRANCH  33  34
ATOM     34  O   UNL A   1      32.807  32.693  27.989  1.00  0.00    -0.460 OA
BRANCH  34  35
ATOM     35  C   UNL A   1      33.921  33.446  27.832  1.00  0.00     0.338 C 
ATOM     36  O   UNL A   1      33.987  34.641  27.607  1.00  0.00    -0.246 OA
BRANCH  35  37
ATOM     37  C   UNL A   1      35.115  32.641  28.134  1.00  0.00     0.060 A 
ATOM     38  C   UNL A   1      34.953  31.267  28.372  1.00  0.00     0.016 A 
ATOM     39  C   UNL A   1      36.357  33.253  28.291  1.00  0.00     0.016 A 
ATOM     40  C   UNL A   1      36.027  30.510  28.832  1.00  0.00     0.010 A 
ATOM     41  C   UNL A   1      37.426  32.498  28.771  1.00  0.00     0.010 A 
ATOM     42  C   UNL A   1      37.251  31.138  29.088  1.00  0.00    -0.014 A 
BRANCH  42  43
ATOM     43  C   UNL A   1      38.299  30.441  29.867  1.00  0.00     0.031 A 
ATOM     44  C   UNL A   1      38.511  30.846  31.298  1.00  0.00     0.074 A 
ATOM     45  C   UNL A   1      39.064  29.493  29.303  1.00  0.00     0.049 A 
ATOM     46  N   UNL A   1      39.449  30.485  32.134  1.00  0.00    -0.248 NA
ATOM     47  C   UNL A   1      37.535  31.795  31.859  1.00  0.00     0.031 C 
ATOM     48  C   UNL A   1      38.905  28.978  27.946  1.00  0.00     0.029 A 
ATOM     49  N   UNL A   1      40.148  28.817  29.800  1.00  0.00    -0.354 N 
ATOM     50  C   UNL A   1      39.179  31.164  33.315  1.00  0.00     0.074 A 
ATOM     51  C   UNL A   1      38.012  31.986  33.080  1.00  0.00     0.031 C 
ATOM     52  C   UNL A   1      39.890  28.097  27.699  1.00  0.00     0.029 A 
ATOM     53  C   UNL A   1      40.759  28.011  28.871  1.00  0.00     0.049 A 
ATOM     54  H   UNL A   1      40.457  28.900  30.731  1.00  0.00     0.167 HD
ATOM     55  C   UNL A   1      39.846  31.100  34.493  1.00  0.00     0.037 A 
ATOM     56  C   UNL A   1      41.907  27.313  28.955  1.00  0.00     0.037 A 
ATOM     57  C   UNL A   1      41.010  30.285  34.714  1.00  0.00     0.049 A 
ATOM     58  C   UNL A   1      42.682  27.326  30.248  1.00  0.00     0.074 A 
ATOM     59  C   UNL A   1      41.750  30.130  35.872  1.00  0.00     0.029 A 
ATOM     60  N   UNL A   1      41.611  29.491  33.746  1.00  0.00    -0.354 N 
ATOM     61  N   UNL A   1      42.412  27.951  31.369  1.00  0.00    -0.248 NA
ATOM     62  C   UNL A   1      43.915  26.529  30.289  1.00  0.00     0.031 C 
ATOM     63  C   UNL A   1      42.834  29.292  35.590  1.00  0.00     0.029 A 
ATOM     64  C   UNL A   1      42.731  28.869  34.273  1.00  0.00     0.049 A 
ATOM     65  H   UNL A   1      41.289  29.385  32.823  1.00  0.00     0.167 HD
ATOM     66  C   UNL A   1      43.417  27.591  32.259  1.00  0.00     0.074 A 
ATOM     67  C   UNL A   1      44.298  26.689  31.548  1.00  0.00     0.031 C 
ATOM     68  C   UNL A   1      43.593  27.968  33.551  1.00  0.00     0.037 A 
BRANCH  55  69
ATOM     69  C   UNL A   1      39.350  31.960  35.619  1.00  0.00     0.064 A 
ATOM     70  C   UNL A   1      38.459  31.471  36.588  1.00  0.00     0.173 A 
ATOM     71  C   UNL A   1      39.795  33.284  35.749  1.00  0.00     0.173 A 
ATOM     72  F   UNL A   1      37.989  30.218  36.502  1.00  0.00    -0.203 F 
ATOM     73  C   UNL A   1      38.014  32.285  37.628  1.00  0.00     0.198 A 
ATOM     74  C   UNL A   1      39.372  34.084  36.807  1.00  0.00     0.198 A 
ATOM     75  F   UNL A   1      40.648  33.802  34.851  1.00  0.00    -0.203 F 
ATOM     76  F   UNL A   1      37.124  31.812  38.511  1.00  0.00    -0.200 F 
ATOM     77  C   UNL A   1      38.476  33.587  37.741  1.00  0.00     0.200 A 
ATOM     78  F   UNL A   1      39.831  35.339  36.921  1.00  0.00    -0.200 F 
ATOM     79  F   UNL A   1      38.052  34.366  38.745  1.00  0.00    -0.200 F 
ENDBRANCH  55  69
BRANCH  56  80
ATOM     80  C   UNL A   1      42.399  26.553  27.776  1.00  0.00     0.064 A 
ATOM     81  C   UNL A   1      41.974  25.240  27.532  1.00  0.00     0.173 A 
ATOM     82  C   UNL A   1      43.315  27.120  26.877  1.00  0.00     0.173 A 
ATOM     83  F   UNL A   1      41.116  24.648  28.376  1.00  0.00    -0.203 F 
ATOM     84  C   UNL A   1      42.464  24.515  26.448  1.00  0.00     0.198 A 
ATOM     85  C   UNL A   1      43.781  26.403  25.776  1.00  0.00     0.198 A 
ATOM     86  F   UNL A   1      43.751  28.375  27.061  1.00  0.00    -0.203 F 
ATOM     87  F   UNL A   1      42.079  23.244  26.268  1.00  0.00    -0.200 F 
ATOM     88  C   UNL A   1      43.362  25.099  25.569  1.00  0.00     0.200 A 
ATOM     89  F   UNL A   1      44.640  26.976  24.922  1.00  0.00    -0.200 F 
ATOM     90  F   UNL A   1      43.832  24.400  24.525  1.00  0.00    -0.200 F 
ENDBRANCH  56  80
BRANCH  68  91
ATOM     91  C   UNL A   1      44.755  27.370  34.294  1.00  0.00     0.064 A 
ATOM     92  C   UNL A   1      44.656  26.139  34.958  1.00  0.00     0.173 A 
ATOM     93  C   UNL A   1      45.997  28.024  34.304  1.00  0.00     0.173 A 
ATOM     94  F   UNL A   1      43.487  25.481  34.989  1.00  0.00    -0.203 F 
ATOM     95  C   UNL A   1      45.749  25.599  35.629  1.00  0.00     0.198 A 
ATOM     96  C   UNL A   1      47.097  27.464  34.946  1.00  0.00     0.198 A 
ATOM     97  F   UNL A   1      46.148  29.199  33.676  1.00  0.00    -0.203 F 
ATOM     98  F   UNL A   1      45.617  24.448  36.302  1.00  0.00    -0.200 F 
ATOM     99  C   UNL A   1      46.971  26.258  35.616  1.00  0.00     0.200 A 
ATOM    100  F   UNL A   1      48.281  28.093  34.916  1.00  0.00    -0.200 F 
ATOM    101  F   UNL A   1      48.023  25.730  36.255  1.00  0.00    -0.200 F 
ENDBRANCH  68  91
ENDBRANCH  42  43
ENDBRANCH  35  37
ENDBRANCH  34  35
ENDBRANCH  33  34
ENDBRANCH  32  33
ENDBRANCH  31  32
ENDBRANCH   1  31
TORSDOF 20
ENDMDL
MODEL 3
REMARK VINA RESULT:     -11.7      1.384      2.515
REMARK SMILES COc1cccc(C(=O)/C=C(/Nc2cc(C)c(C)cc2[N+](=O)[O-])C(=O)OCCOCCOC(=O)c2ccc(-c3c4nc(c(-c5c(F)c(F)c(F)c(F)c5F)c5ccc([nH]5)c(-c5c(F)c(F)c(F)c(F)c5F)c5nc(c(-c6c(F)c(F)c(F)c(F)c6F)c6ccc3[nH]6)C=C5)C=C4)cc2)c1
REMARK SMILES IDX 28 1 27 2 26 3 24 4 25 5 11 6 10 7 8 8 9 9 7 10 3 11 4 12
REMARK SMILES IDX 98 13 5 14 6 15 2 16 1 17 12 18 13 20 14 21 20 22 15 23
REMARK SMILES IDX 19 24 16 25 17 26 18 27 21 28 22 29 23 30 29 31 30 32 31 33
REMARK SMILES IDX 32 34 33 35 34 36 35 37 36 38 97 39 37 40 96 41 38 42 39 43
REMARK SMILES IDX 40 44 90 45 41 46 95 47 89 48 91 49 42 50 94 51 88 52 87 53
REMARK SMILES IDX 43 55 75 56 55 57 74 58 56 59 59 60 73 61 92 62 57 63 58 64
REMARK SMILES IDX 72 66 93 67 60 68 44 69 45 70 53 71 46 72 47 73 51 74 54 75
REMARK SMILES IDX 48 76 49 77 52 78 50 79 76 80 77 81 85 82 78 83 79 84 83 85
REMARK SMILES IDX 86 86 80 87 81 88 84 89 82 90 61 91 62 92 70 93 63 94 64 95
REMARK SMILES IDX 68 96 71 97 65 98 66 99 69 100 67 101
REMARK H PARENT 12 19 91 54 59 65
REMARK Flexibility Score: inf
ROOT
ATOM      1  C   UNL A   1      31.924  27.466  26.881  1.00  0.00     0.202 C 
ENDROOT
BRANCH   1   2
ATOM      2  C   UNL A   1      33.102  26.993  26.021  1.00  0.00     0.261 C 
BRANCH   2   3
ATOM      3  O   UNL A   1      33.289  25.602  26.169  1.00  0.00    -0.459 OA
BRANCH   3   4
ATOM      4  C   UNL A   1      32.183  24.855  26.028  1.00  0.00     0.354 C 
ATOM      5  O   UNL A   1      31.460  24.430  26.907  1.00  0.00    -0.244 OA
BRANCH   4   6
ATOM      6  C   UNL A   1      32.094  24.490  24.598  1.00  0.00     0.129 C 
ATOM      7  C   UNL A   1      31.133  25.094  23.871  1.00  0.00     0.086 C 
BRANCH   7   8
ATOM      8  C   UNL A   1      30.015  26.099  24.067  1.00  0.00     0.188 C 
ATOM      9  O   UNL A   1      29.107  25.721  24.819  1.00  0.00    -0.289 OA
BRANCH   8  10
ATOM     10  C   UNL A   1      29.817  27.431  23.407  1.00  0.00     0.026 A 
ATOM     11  C   UNL A   1      28.565  29.437  22.798  1.00  0.00     0.119 A 
ATOM     12  C   UNL A   1      29.677  29.977  22.161  1.00  0.00     0.046 A 
ATOM     13  C   UNL A   1      28.614  28.131  23.319  1.00  0.00     0.058 A 
ATOM     14  C   UNL A   1      30.850  29.232  22.096  1.00  0.00     0.005 A 
ATOM     15  C   UNL A   1      30.925  27.984  22.733  1.00  0.00     0.012 A 
BRANCH  11  16
ATOM     16  O   UNL A   1      27.369  30.104  22.854  1.00  0.00    -0.497 OA
ATOM     17  C   UNL A   1      27.397  31.292  23.648  1.00  0.00     0.278 C 
ENDBRANCH  11  16
ENDBRANCH   8  10
ENDBRANCH   7   8
BRANCH   6  18
ATOM     18  N   UNL A   1      33.115  23.645  24.117  1.00  0.00    -0.344 N 
ATOM     19  H   UNL A   1      33.748  24.017  23.460  1.00  0.00     0.167 HD
BRANCH  18  20
ATOM     20  C   UNL A   1      33.291  22.291  24.518  1.00  0.00     0.118 A 
ATOM     21  C   UNL A   1      32.567  21.284  23.850  1.00  0.00     0.037 A 
ATOM     22  C   UNL A   1      34.324  21.857  25.373  1.00  0.00     0.292 A 
ATOM     23  C   UNL A   1      32.948  19.920  23.917  1.00  0.00    -0.046 A 
ATOM     24  C   UNL A   1      34.796  20.535  25.337  1.00  0.00     0.091 A 
ATOM     25  C   UNL A   1      32.053  18.883  23.288  1.00  0.00     0.045 C 
ATOM     26  C   UNL A   1      34.147  19.568  24.562  1.00  0.00    -0.041 A 
ATOM     27  C   UNL A   1      34.732  18.184  24.509  1.00  0.00     0.045 C 
BRANCH  22  28
ATOM     28  N   UNL A   1      34.877  22.745  26.406  1.00  0.00     0.064 N 
ATOM     29  O   UNL A   1      35.796  23.512  26.076  1.00  0.00    -0.258 OA
ATOM     30  O   UNL A   1      34.459  22.616  27.567  1.00  0.00    -0.258 OA
ENDBRANCH  22  28
ENDBRANCH  18  20
ENDBRANCH   6  18
ENDBRANCH   4   6
ENDBRANCH   3   4
ENDBRANCH   2   3
ENDBRANCH   1   2
BRANCH   1  31
ATOM     31  O   UNL A   1      31.753  28.860  27.105  1.00  0.00    -0.374 OA
BRANCH  31  32
ATOM     32  C   UNL A   1      31.807  29.780  26.017  1.00  0.00     0.202 C 
BRANCH  32  33
ATOM     33  C   UNL A   1      32.047  31.255  26.336  1.00  0.00     0.261 C 
BRANCH  33  34
ATOM     34  O   UNL A   1      32.689  31.447  27.611  1.00  0.00    -0.460 OA
BRANCH  34  35
ATOM     35  C   UNL A   1      33.567  32.476  27.659  1.00  0.00     0.338 C 
ATOM     36  O   UNL A   1      33.325  33.666  27.561  1.00  0.00    -0.246 OA
BRANCH  35  37
ATOM     37  C   UNL A   1      34.904  31.977  28.016  1.00  0.00     0.060 A 
ATOM     38  C   UNL A   1      35.049  30.617  28.328  1.00  0.00     0.016 A 
ATOM     39  C   UNL A   1      35.973  32.861  28.153  1.00  0.00     0.016 A 
ATOM     40  C   UNL A   1      36.255  30.146  28.841  1.00  0.00     0.010 A 
ATOM     41  C   UNL A   1      37.173  32.392  28.685  1.00  0.00     0.010 A 
ATOM     42  C   UNL A   1      37.300  31.046  29.074  1.00  0.00    -0.014 A 
BRANCH  42  43
ATOM     43  C   UNL A   1      38.460  30.644  29.901  1.00  0.00     0.031 A 
ATOM     44  C   UNL A   1      39.418  29.631  29.342  1.00  0.00     0.074 A 
ATOM     45  C   UNL A   1      38.638  31.148  31.133  1.00  0.00     0.049 A 
ATOM     46  N   UNL A   1      40.420  29.024  29.923  1.00  0.00    -0.248 NA
ATOM     47  C   UNL A   1      39.212  29.245  27.936  1.00  0.00     0.031 C 
ATOM     48  C   UNL A   1      37.810  32.180  31.750  1.00  0.00     0.029 A 
ATOM     49  N   UNL A   1      39.562  30.831  32.095  1.00  0.00    -0.354 N 
ATOM     50  C   UNL A   1      40.959  28.182  28.959  1.00  0.00     0.074 A 
ATOM     51  C   UNL A   1      40.154  28.329  27.766  1.00  0.00     0.031 C 
ATOM     52  C   UNL A   1      38.234  32.379  33.009  1.00  0.00     0.029 A 
ATOM     53  C   UNL A   1      39.343  31.470  33.290  1.00  0.00     0.049 A 
ATOM     54  H   UNL A   1      40.309  30.208  31.944  1.00  0.00     0.167 HD
ATOM     55  C   UNL A   1      42.034  27.365  29.061  1.00  0.00     0.037 A 
ATOM     56  C   UNL A   1      39.951  31.309  34.480  1.00  0.00     0.037 A 
ATOM     57  C   UNL A   1      42.823  27.222  30.256  1.00  0.00     0.049 A 
ATOM     58  C   UNL A   1      41.090  30.328  34.596  1.00  0.00     0.074 A 
ATOM     59  C   UNL A   1      43.944  26.438  30.462  1.00  0.00     0.029 A 
ATOM     60  N   UNL A   1      42.564  27.874  31.454  1.00  0.00    -0.354 N 
ATOM     61  N   UNL A   1      41.611  29.551  33.677  1.00  0.00    -0.248 NA
ATOM     62  C   UNL A   1      41.730  30.209  35.913  1.00  0.00     0.031 C 
ATOM     63  C   UNL A   1      44.327  26.568  31.802  1.00  0.00     0.029 A 
ATOM     64  C   UNL A   1      43.486  27.486  32.412  1.00  0.00     0.049 A 
ATOM     65  H   UNL A   1      41.835  28.518  31.600  1.00  0.00     0.167 HD
ATOM     66  C   UNL A   1      42.664  28.883  34.292  1.00  0.00     0.074 A 
ATOM     67  C   UNL A   1      42.710  29.352  35.661  1.00  0.00     0.031 C 
ATOM     68  C   UNL A   1      43.520  27.970  33.769  1.00  0.00     0.037 A 
BRANCH  55  69
ATOM     69  C   UNL A   1      42.398  26.541  27.860  1.00  0.00     0.064 A 
ATOM     70  C   UNL A   1      41.790  25.303  27.600  1.00  0.00     0.173 A 
ATOM     71  C   UNL A   1      43.347  27.010  26.939  1.00  0.00     0.173 A 
ATOM     72  F   UNL A   1      40.887  24.800  28.456  1.00  0.00    -0.203 F 
ATOM     73  C   UNL A   1      42.138  24.555  26.477  1.00  0.00     0.198 A 
ATOM     74  C   UNL A   1      43.670  26.275  25.802  1.00  0.00     0.198 A 
ATOM     75  F   UNL A   1      43.958  28.188  27.139  1.00  0.00    -0.203 F 
ATOM     76  F   UNL A   1      41.581  23.353  26.276  1.00  0.00    -0.200 F 
ATOM     77  C   UNL A   1      43.072  25.045  25.576  1.00  0.00     0.200 A 
ATOM     78  F   UNL A   1      44.563  26.756  24.927  1.00  0.00    -0.200 F 
ATOM     79  F   UNL A   1      43.401  24.327  24.493  1.00  0.00    -0.200 F 
ENDBRANCH  55  69
BRANCH  56  80
ATOM     80  C   UNL A   1      39.488  32.085  35.660  1.00  0.00     0.064 A 
ATOM     81  C   UNL A   1      38.520  31.569  36.532  1.00  0.00     0.173 A 
ATOM     82  C   UNL A   1      39.995  33.365  35.933  1.00  0.00     0.173 A 
ATOM     83  F   UNL A   1      37.990  30.359  36.301  1.00  0.00    -0.203 F 
ATOM     84  C   UNL A   1      38.058  32.312  37.617  1.00  0.00     0.198 A 
ATOM     85  C   UNL A   1      39.555  34.095  37.036  1.00  0.00     0.198 A 
ATOM     86  F   UNL A   1      40.927  33.904  35.133  1.00  0.00    -0.203 F 
ATOM     87  F   UNL A   1      37.095  31.814  38.404  1.00  0.00    -0.200 F 
ATOM     88  C   UNL A   1      38.580  33.571  37.871  1.00  0.00     0.200 A 
ATOM     89  F   UNL A   1      40.070  35.306  37.284  1.00  0.00    -0.200 F 
ATOM     90  F   UNL A   1      38.136  34.284  38.915  1.00  0.00    -0.200 F 
ENDBRANCH  56  80
BRANCH  68  91
ATOM     91  C   UNL A   1      44.608  27.449  34.666  1.00  0.00     0.064 A 
ATOM     92  C   UNL A   1      44.457  26.268  35.406  1.00  0.00     0.173 A 
ATOM     93  C   UNL A   1      45.835  28.126  34.753  1.00  0.00     0.173 A 
ATOM     94  F   UNL A   1      43.299  25.591  35.370  1.00  0.00    -0.203 F 
ATOM     95  C   UNL A   1      45.483  25.799  36.222  1.00  0.00     0.198 A 
ATOM     96  C   UNL A   1      46.872  27.635  35.541  1.00  0.00     0.198 A 
ATOM     97  F   UNL A   1      46.035  29.256  34.058  1.00  0.00    -0.203 F 
ATOM     98  F   UNL A   1      45.298  24.696  36.960  1.00  0.00    -0.200 F 
ATOM     99  C   UNL A   1      46.692  26.478  36.282  1.00  0.00     0.200 A 
ATOM    100  F   UNL A   1      48.044  28.282  35.583  1.00  0.00    -0.200 F 
ATOM    101  F   UNL A   1      47.681  26.018  37.060  1.00  0.00    -0.200 F 
ENDBRANCH  68  91
ENDBRANCH  42  43
ENDBRANCH  35  37
ENDBRANCH  34  35
ENDBRANCH  33  34
ENDBRANCH  32  33
ENDBRANCH  31  32
ENDBRANCH   1  31
TORSDOF 20
ENDMDL
