MODEL 1
REMARK VINA RESULT:     -11.8      0.000      0.000
REMARK SMILES Cc1cc(C[N@H+]2CC[C@](C)(C(=O)OCCOCCOC(=O)c3ccc(-c4c5nc(c(-c6c(F)c(F)c(F)c(F)c6F)c6ccc([nH]6)c(-c6c(F)c(F)c(F)c(F)c6F)c6nc(c(-c7c(F)c(F)c(F)c(F)c7F)c7ccc4[nH]7)C=C6)C=C5)cc3)C2)c2ccccc2n1
REMARK SMILES IDX 16 1 15 2 14 3 13 4 11 5 12 6 9 7 6 8 7 9 85 10 8 12 10 13
REMARK SMILES IDX 5 14 4 15 1 16 2 17 3 18 92 19 91 20 86 21 90 22 87 23 89 24
REMARK SMILES IDX 88 25 17 26 18 27 19 28 20 29 21 30 22 31 23 32 84 33 24 34
REMARK SMILES IDX 83 35 25 36 26 37 27 38 77 39 28 40 82 41 76 42 78 43 29 44
REMARK SMILES IDX 81 45 75 46 74 47 30 49 62 50 42 51 61 52 43 53 46 54 60 55
REMARK SMILES IDX 79 56 44 57 45 58 59 60 80 61 47 62 31 63 32 64 40 65 33 66
REMARK SMILES IDX 34 67 38 68 41 69 35 70 36 71 39 72 37 73 63 74 64 75 72 76
REMARK SMILES IDX 65 77 66 78 70 79 73 80 67 81 68 82 71 83 69 84 48 85 49 86
REMARK SMILES IDX 57 87 50 88 51 89 55 90 58 91 52 92 53 93 56 94 54 95
REMARK H PARENT 6 11 78 48 46 59
REMARK Flexibility Score: inf
ROOT
ATOM      1  O   UNL A   1      31.933  30.446  26.769  1.00  0.00    -0.374 OA
ENDROOT
BRANCH   1   2
ATOM      2  C   UNL A   1      31.846  29.218  26.046  1.00  0.00     0.202 C 
BRANCH   2   3
ATOM      3  C   UNL A   1      31.206  29.287  24.658  1.00  0.00     0.261 C 
BRANCH   3   4
ATOM      4  O   UNL A   1      30.510  28.065  24.356  1.00  0.00    -0.463 OA
BRANCH   4   5
ATOM      5  C   UNL A   1      30.877  27.438  23.207  1.00  0.00     0.317 C 
ATOM      6  O   UNL A   1      30.480  27.745  22.089  1.00  0.00    -0.251 OA
BRANCH   5   7
ATOM      7  C   UNL A   1      31.821  26.275  23.461  1.00  0.00     0.119 C 
ATOM      8  N   UNL A   1      33.268  25.616  25.286  1.00  0.00    -0.330 N 
ATOM      9  C   UNL A   1      34.083  25.762  24.084  1.00  0.00     0.263 C 
ATOM     10  C   UNL A   1      31.858  25.773  24.913  1.00  0.00     0.281 C 
ATOM     11  H   UNL A   1      33.502  26.371  25.931  1.00  0.00     0.348 HD
ATOM     12  C   UNL A   1      33.269  26.718  23.229  1.00  0.00     0.086 C 
ATOM     13  C   UNL A   1      31.418  25.136  22.510  1.00  0.00     0.030 C 
BRANCH   8  14
ATOM     14  C   UNL A   1      33.606  24.488  26.169  1.00  0.00     0.299 C 
BRANCH  14  15
ATOM     15  C   UNL A   1      34.143  23.247  25.473  1.00  0.00     0.017 A 
ATOM     16  C   UNL A   1      32.719  20.058  23.994  1.00  0.00     0.067 C 
ATOM     17  C   UNL A   1      33.667  21.074  24.557  1.00  0.00     0.038 A 
ATOM     18  C   UNL A   1      33.220  22.318  24.969  1.00  0.00     0.033 A 
ATOM     19  N   UNL A   1      34.955  20.690  24.692  1.00  0.00    -0.253 NA
ATOM     20  C   UNL A   1      35.855  21.585  25.132  1.00  0.00     0.071 A 
ATOM     21  C   UNL A   1      35.522  22.919  25.442  1.00  0.00     0.009 A 
ATOM     22  C   UNL A   1      37.166  21.166  25.325  1.00  0.00     0.029 A 
ATOM     23  C   UNL A   1      36.571  23.822  25.748  1.00  0.00     0.011 A 
ATOM     24  C   UNL A   1      38.171  22.040  25.745  1.00  0.00     0.002 A 
ATOM     25  C   UNL A   1      37.880  23.383  25.920  1.00  0.00     0.001 A 
ENDBRANCH  14  15
ENDBRANCH   8  14
ENDBRANCH   5   7
ENDBRANCH   4   5
ENDBRANCH   3   4
ENDBRANCH   2   3
ENDBRANCH   1   2
BRANCH   1  26
ATOM     26  C   UNL A   1      31.253  31.576  26.225  1.00  0.00     0.202 C 
BRANCH  26  27
ATOM     27  C   UNL A   1      31.560  32.937  26.870  1.00  0.00     0.261 C 
BRANCH  27  28
ATOM     28  O   UNL A   1      32.955  33.289  26.814  1.00  0.00    -0.460 OA
BRANCH  28  29
ATOM     29  C   UNL A   1      33.463  33.764  27.975  1.00  0.00     0.338 C 
ATOM     30  O   UNL A   1      32.954  34.586  28.729  1.00  0.00    -0.246 OA
BRANCH  29  31
ATOM     31  C   UNL A   1      34.694  33.039  28.338  1.00  0.00     0.060 A 
ATOM     32  C   UNL A   1      34.561  31.700  28.728  1.00  0.00     0.016 A 
ATOM     33  C   UNL A   1      35.939  33.670  28.385  1.00  0.00     0.016 A 
ATOM     34  C   UNL A   1      35.665  30.998  29.209  1.00  0.00     0.010 A 
ATOM     35  C   UNL A   1      37.045  32.966  28.878  1.00  0.00     0.010 A 
ATOM     36  C   UNL A   1      36.906  31.638  29.324  1.00  0.00    -0.014 A 
BRANCH  36  37
ATOM     37  C   UNL A   1      38.018  30.956  30.034  1.00  0.00     0.031 A 
ATOM     38  C   UNL A   1      38.267  31.276  31.482  1.00  0.00     0.074 A 
ATOM     39  C   UNL A   1      38.775  30.039  29.407  1.00  0.00     0.049 A 
ATOM     40  N   UNL A   1      39.192  30.817  32.288  1.00  0.00    -0.248 NA
ATOM     41  C   UNL A   1      37.351  32.241  32.109  1.00  0.00     0.031 C 
ATOM     42  C   UNL A   1      38.604  29.607  28.022  1.00  0.00     0.029 A 
ATOM     43  N   UNL A   1      39.843  29.304  29.861  1.00  0.00    -0.354 N 
ATOM     44  C   UNL A   1      38.976  31.444  33.508  1.00  0.00     0.074 A 
ATOM     45  C   UNL A   1      37.845  32.331  33.336  1.00  0.00     0.031 C 
ATOM     46  C   UNL A   1      39.541  28.686  27.734  1.00  0.00     0.029 A 
ATOM     47  C   UNL A   1      40.395  28.488  28.905  1.00  0.00     0.049 A 
ATOM     48  H   UNL A   1      40.181  29.358  30.784  1.00  0.00     0.167 HD
ATOM     49  C   UNL A   1      39.654  31.287  34.670  1.00  0.00     0.037 A 
ATOM     50  C   UNL A   1      41.478  27.688  28.963  1.00  0.00     0.037 A 
ATOM     51  C   UNL A   1      40.766  30.391  34.849  1.00  0.00     0.049 A 
ATOM     52  C   UNL A   1      42.260  27.593  30.249  1.00  0.00     0.074 A 
ATOM     53  C   UNL A   1      41.484  30.128  36.002  1.00  0.00     0.029 A 
ATOM     54  N   UNL A   1      41.327  29.619  33.843  1.00  0.00    -0.354 N 
ATOM     55  N   UNL A   1      42.024  28.157  31.407  1.00  0.00    -0.248 NA
ATOM     56  C   UNL A   1      43.465  26.748  30.230  1.00  0.00     0.031 C 
ATOM     57  C   UNL A   1      42.514  29.237  35.683  1.00  0.00     0.029 A 
ATOM     58  C   UNL A   1      42.406  28.907  34.342  1.00  0.00     0.049 A 
ATOM     59  H   UNL A   1      41.006  29.582  32.914  1.00  0.00     0.167 HD
ATOM     60  C   UNL A   1      43.028  27.716  32.260  1.00  0.00     0.074 A 
ATOM     61  C   UNL A   1      43.871  26.827  31.489  1.00  0.00     0.031 C 
ATOM     62  C   UNL A   1      43.232  28.019  33.566  1.00  0.00     0.037 A 
BRANCH  49  63
ATOM     63  C   UNL A   1      39.232  32.121  35.842  1.00  0.00     0.064 A 
ATOM     64  C   UNL A   1      38.332  31.642  36.805  1.00  0.00     0.173 A 
ATOM     65  C   UNL A   1      39.783  33.397  36.035  1.00  0.00     0.173 A 
ATOM     66  F   UNL A   1      37.769  30.432  36.660  1.00  0.00    -0.203 F 
ATOM     67  C   UNL A   1      37.986  32.417  37.909  1.00  0.00     0.198 A 
ATOM     68  C   UNL A   1      39.454  34.159  37.151  1.00  0.00     0.198 A 
ATOM     69  F   UNL A   1      40.652  33.899  35.144  1.00  0.00    -0.203 F 
ATOM     70  F   UNL A   1      37.098  31.954  38.799  1.00  0.00    -0.200 F 
ATOM     71  C   UNL A   1      38.552  33.670  38.086  1.00  0.00     0.200 A 
ATOM     72  F   UNL A   1      40.011  35.366  37.326  1.00  0.00    -0.200 F 
ATOM     73  F   UNL A   1      38.227  34.411  39.155  1.00  0.00    -0.200 F 
ENDBRANCH  49  63
BRANCH  50  74
ATOM     74  C   UNL A   1      41.907  26.921  27.765  1.00  0.00     0.064 A 
ATOM     75  C   UNL A   1      41.420  25.629  27.522  1.00  0.00     0.173 A 
ATOM     76  C   UNL A   1      42.840  27.448  26.859  1.00  0.00     0.173 A 
ATOM     77  F   UNL A   1      40.549  25.071  28.375  1.00  0.00    -0.203 F 
ATOM     78  C   UNL A   1      41.864  24.886  26.430  1.00  0.00     0.198 A 
ATOM     79  C   UNL A   1      43.263  26.714  25.753  1.00  0.00     0.198 A 
ATOM     80  F   UNL A   1      43.341  28.678  27.050  1.00  0.00    -0.203 F 
ATOM     81  F   UNL A   1      41.422  23.634  26.250  1.00  0.00    -0.200 F 
ATOM     82  C   UNL A   1      42.782  25.430  25.544  1.00  0.00     0.200 A 
ATOM     83  F   UNL A   1      44.142  27.249  24.895  1.00  0.00    -0.200 F 
ATOM     84  F   UNL A   1      43.211  24.714  24.496  1.00  0.00    -0.200 F 
ENDBRANCH  50  74
BRANCH  62  85
ATOM     85  C   UNL A   1      44.390  27.360  34.257  1.00  0.00     0.064 A 
ATOM     86  C   UNL A   1      45.641  27.986  34.352  1.00  0.00     0.173 A 
ATOM     87  C   UNL A   1      44.234  26.107  34.870  1.00  0.00     0.173 A 
ATOM     88  F   UNL A   1      45.846  29.177  33.769  1.00  0.00    -0.203 F 
ATOM     89  C   UNL A   1      46.699  27.373  35.019  1.00  0.00     0.198 A 
ATOM     90  C   UNL A   1      45.285  25.511  35.560  1.00  0.00     0.198 A 
ATOM     91  F   UNL A   1      43.055  25.469  34.813  1.00  0.00    -0.203 F 
ATOM     92  F   UNL A   1      47.898  27.971  35.061  1.00  0.00    -0.200 F 
ATOM     93  C   UNL A   1      46.518  26.141  35.628  1.00  0.00     0.200 A 
ATOM     94  F   UNL A   1      45.104  24.326  36.160  1.00  0.00    -0.200 F 
ATOM     95  F   UNL A   1      47.535  25.557  36.277  1.00  0.00    -0.200 F 
ENDBRANCH  62  85
ENDBRANCH  36  37
ENDBRANCH  29  31
ENDBRANCH  28  29
ENDBRANCH  27  28
ENDBRANCH  26  27
ENDBRANCH   1  26
TORSDOF 16
ENDMDL
MODEL 2
REMARK VINA RESULT:     -11.8      1.044      1.774
REMARK SMILES Cc1cc(C[N@H+]2CC[C@](C)(C(=O)OCCOCCOC(=O)c3ccc(-c4c5nc(c(-c6c(F)c(F)c(F)c(F)c6F)c6ccc([nH]6)c(-c6c(F)c(F)c(F)c(F)c6F)c6nc(c(-c7c(F)c(F)c(F)c(F)c7F)c7ccc4[nH]7)C=C6)C=C5)cc3)C2)c2ccccc2n1
REMARK SMILES IDX 16 1 15 2 14 3 13 4 11 5 12 6 9 7 6 8 7 9 85 10 8 12 10 13
REMARK SMILES IDX 5 14 4 15 1 16 2 17 3 18 92 19 91 20 86 21 90 22 87 23 89 24
REMARK SMILES IDX 88 25 17 26 18 27 19 28 20 29 21 30 22 31 23 32 84 33 24 34
REMARK SMILES IDX 83 35 25 36 26 37 27 38 77 39 28 40 82 41 76 42 78 43 29 44
REMARK SMILES IDX 81 45 75 46 74 47 30 49 62 50 42 51 61 52 43 53 46 54 60 55
REMARK SMILES IDX 79 56 44 57 45 58 59 60 80 61 47 62 31 63 32 64 40 65 33 66
REMARK SMILES IDX 34 67 38 68 41 69 35 70 36 71 39 72 37 73 63 74 64 75 72 76
REMARK SMILES IDX 65 77 66 78 70 79 73 80 67 81 68 82 71 83 69 84 48 85 49 86
REMARK SMILES IDX 57 87 50 88 51 89 55 90 58 91 52 92 53 93 56 94 54 95
REMARK H PARENT 6 11 78 48 46 59
REMARK Flexibility Score: inf
ROOT
ATOM      1  O   UNL A   1      32.978  29.556  24.894  1.00  0.00    -0.374 OA
ENDROOT
BRANCH   1   2
ATOM      2  C   UNL A   1      33.151  28.837  23.673  1.00  0.00     0.202 C 
BRANCH   2   3
ATOM      3  C   UNL A   1      31.903  28.167  23.094  1.00  0.00     0.261 C 
BRANCH   3   4
ATOM      4  O   UNL A   1      31.832  26.788  23.497  1.00  0.00    -0.463 OA
BRANCH   4   5
ATOM      5  C   UNL A   1      30.804  26.462  24.325  1.00  0.00     0.317 C 
ATOM      6  O   UNL A   1      29.624  26.700  24.098  1.00  0.00    -0.251 OA
BRANCH   5   7
ATOM      7  C   UNL A   1      31.283  25.790  25.601  1.00  0.00     0.119 C 
ATOM      8  N   UNL A   1      32.346  23.680  26.125  1.00  0.00    -0.330 N 
ATOM      9  C   UNL A   1      31.092  23.759  26.868  1.00  0.00     0.263 C 
ATOM     10  C   UNL A   1      32.572  24.966  25.458  1.00  0.00     0.281 C 
ATOM     11  H   UNL A   1      32.251  22.969  25.400  1.00  0.00     0.348 HD
ATOM     12  C   UNL A   1      30.266  24.734  26.048  1.00  0.00     0.086 C 
ATOM     13  C   UNL A   1      31.462  26.888  26.662  1.00  0.00     0.030 C 
BRANCH   8  14
ATOM     14  C   UNL A   1      33.488  23.086  26.838  1.00  0.00     0.299 C 
BRANCH  14  15
ATOM     15  C   UNL A   1      34.371  22.163  26.011  1.00  0.00     0.017 A 
ATOM     16  C   UNL A   1      34.097  18.711  24.463  1.00  0.00     0.067 C 
ATOM     17  C   UNL A   1      34.649  19.998  25.001  1.00  0.00     0.038 A 
ATOM     18  C   UNL A   1      33.816  20.965  25.537  1.00  0.00     0.033 A 
ATOM     19  N   UNL A   1      35.993  20.132  24.985  1.00  0.00    -0.253 NA
ATOM     20  C   UNL A   1      36.533  21.292  25.397  1.00  0.00     0.071 A 
ATOM     21  C   UNL A   1      35.759  22.388  25.827  1.00  0.00     0.009 A 
ATOM     22  C   UNL A   1      37.917  21.401  25.435  1.00  0.00     0.029 A 
ATOM     23  C   UNL A   1      36.416  23.615  26.092  1.00  0.00     0.011 A 
ATOM     24  C   UNL A   1      38.559  22.582  25.815  1.00  0.00     0.002 A 
ATOM     25  C   UNL A   1      37.805  23.707  26.108  1.00  0.00     0.001 A 
ENDBRANCH  14  15
ENDBRANCH   8  14
ENDBRANCH   5   7
ENDBRANCH   4   5
ENDBRANCH   3   4
ENDBRANCH   2   3
ENDBRANCH   1   2
BRANCH   1  26
ATOM     26  C   UNL A   1      31.680  30.079  25.168  1.00  0.00     0.202 C 
BRANCH  26  27
ATOM     27  C   UNL A   1      31.605  31.238  26.175  1.00  0.00     0.261 C 
BRANCH  27  28
ATOM     28  O   UNL A   1      32.452  31.046  27.324  1.00  0.00    -0.460 OA
BRANCH  28  29
ATOM     29  C   UNL A   1      33.285  32.080  27.588  1.00  0.00     0.338 C 
ATOM     30  O   UNL A   1      33.002  33.273  27.624  1.00  0.00    -0.246 OA
BRANCH  29  31
ATOM     31  C   UNL A   1      34.611  31.587  28.000  1.00  0.00     0.060 A 
ATOM     32  C   UNL A   1      34.743  30.211  28.232  1.00  0.00     0.016 A 
ATOM     33  C   UNL A   1      35.681  32.452  28.243  1.00  0.00     0.016 A 
ATOM     34  C   UNL A   1      35.932  29.700  28.751  1.00  0.00     0.010 A 
ATOM     35  C   UNL A   1      36.871  31.937  28.773  1.00  0.00     0.010 A 
ATOM     36  C   UNL A   1      36.990  30.564  29.060  1.00  0.00    -0.014 A 
BRANCH  36  37
ATOM     37  C   UNL A   1      38.163  30.045  29.808  1.00  0.00     0.031 A 
ATOM     38  C   UNL A   1      38.395  30.508  31.220  1.00  0.00     0.074 A 
ATOM     39  C   UNL A   1      38.994  29.147  29.249  1.00  0.00     0.049 A 
ATOM     40  N   UNL A   1      39.364  30.202  32.047  1.00  0.00    -0.248 NA
ATOM     41  C   UNL A   1      37.402  31.439  31.778  1.00  0.00     0.031 C 
ATOM     42  C   UNL A   1      38.851  28.586  27.908  1.00  0.00     0.029 A 
ATOM     43  N   UNL A   1      40.126  28.551  29.746  1.00  0.00    -0.354 N 
ATOM     44  C   UNL A   1      39.102  30.909  33.214  1.00  0.00     0.074 A 
ATOM     45  C   UNL A   1      37.897  31.676  32.985  1.00  0.00     0.031 C 
ATOM     46  C   UNL A   1      39.863  27.729  27.684  1.00  0.00     0.029 A 
ATOM     47  C   UNL A   1      40.740  27.708  28.854  1.00  0.00     0.049 A 
ATOM     48  H   UNL A   1      40.466  28.712  30.656  1.00  0.00     0.167 HD
ATOM     49  C   UNL A   1      39.801  30.911  34.374  1.00  0.00     0.037 A 
ATOM     50  C   UNL A   1      41.891  27.013  28.962  1.00  0.00     0.037 A 
ATOM     51  C   UNL A   1      40.990  30.135  34.610  1.00  0.00     0.049 A 
ATOM     52  C   UNL A   1      42.688  27.096  30.239  1.00  0.00     0.074 A 
ATOM     53  C   UNL A   1      41.738  30.034  35.770  1.00  0.00     0.029 A 
ATOM     54  N   UNL A   1      41.609  29.331  33.665  1.00  0.00    -0.354 N 
ATOM     55  N   UNL A   1      42.413  27.734  31.349  1.00  0.00    -0.248 NA
ATOM     56  C   UNL A   1      43.963  26.362  30.272  1.00  0.00     0.031 C 
ATOM     57  C   UNL A   1      42.839  29.213  35.511  1.00  0.00     0.029 A 
ATOM     58  C   UNL A   1      42.751  28.762  34.204  1.00  0.00     0.049 A 
ATOM     59  H   UNL A   1      41.285  29.187  32.746  1.00  0.00     0.167 HD
ATOM     60  C   UNL A   1      43.458  27.456  32.221  1.00  0.00     0.074 A 
ATOM     61  C   UNL A   1      44.370  26.582  31.514  1.00  0.00     0.031 C 
ATOM     62  C   UNL A   1      43.645  27.886  33.493  1.00  0.00     0.037 A 
BRANCH  49  63
ATOM     63  C   UNL A   1      39.317  31.802  35.478  1.00  0.00     0.064 A 
ATOM     64  C   UNL A   1      38.452  31.336  36.479  1.00  0.00     0.173 A 
ATOM     65  C   UNL A   1      39.773  33.126  35.567  1.00  0.00     0.173 A 
ATOM     66  F   UNL A   1      37.980  30.081  36.432  1.00  0.00    -0.203 F 
ATOM     67  C   UNL A   1      38.047  32.168  37.520  1.00  0.00     0.198 A 
ATOM     68  C   UNL A   1      39.386  33.948  36.622  1.00  0.00     0.198 A 
ATOM     69  F   UNL A   1      40.605  33.619  34.637  1.00  0.00    -0.203 F 
ATOM     70  F   UNL A   1      37.194  31.713  38.447  1.00  0.00    -0.200 F 
ATOM     71  C   UNL A   1      38.521  33.470  37.595  1.00  0.00     0.200 A 
ATOM     72  F   UNL A   1      39.853  35.202  36.699  1.00  0.00    -0.200 F 
ATOM     73  F   UNL A   1      38.140  34.266  38.603  1.00  0.00    -0.200 F 
ENDBRANCH  49  63
BRANCH  50  74
ATOM     74  C   UNL A   1      42.376  26.187  27.826  1.00  0.00     0.064 A 
ATOM     75  C   UNL A   1      43.359  26.669  26.951  1.00  0.00     0.173 A 
ATOM     76  C   UNL A   1      41.840  24.916  27.570  1.00  0.00     0.173 A 
ATOM     77  F   UNL A   1      43.880  27.890  27.137  1.00  0.00    -0.203 F 
ATOM     78  C   UNL A   1      43.773  25.920  25.851  1.00  0.00     0.198 A 
ATOM     79  C   UNL A   1      42.275  24.157  26.486  1.00  0.00     0.198 A 
ATOM     80  F   UNL A   1      40.893  24.411  28.375  1.00  0.00    -0.203 F 
ATOM     81  F   UNL A   1      44.677  26.426  25.001  1.00  0.00    -0.200 F 
ATOM     82  C   UNL A   1      43.235  24.663  25.622  1.00  0.00     0.200 A 
ATOM     83  F   UNL A   1      41.758  22.939  26.275  1.00  0.00    -0.200 F 
ATOM     84  F   UNL A   1      43.631  23.944  24.563  1.00  0.00    -0.200 F 
ENDBRANCH  50  74
BRANCH  62  85
ATOM     85  C   UNL A   1      44.863  27.392  34.219  1.00  0.00     0.064 A 
ATOM     86  C   UNL A   1      46.088  28.070  34.144  1.00  0.00     0.173 A 
ATOM     87  C   UNL A   1      44.791  26.253  35.035  1.00  0.00     0.173 A 
ATOM     88  F   UNL A   1      46.212  29.155  33.364  1.00  0.00    -0.203 F 
ATOM     89  C   UNL A   1      47.202  27.614  34.843  1.00  0.00     0.198 A 
ATOM     90  C   UNL A   1      45.899  25.817  35.756  1.00  0.00     0.198 A 
ATOM     91  F   UNL A   1      43.640  25.573  35.147  1.00  0.00    -0.203 F 
ATOM     92  F   UNL A   1      48.374  28.254  34.723  1.00  0.00    -0.200 F 
ATOM     93  C   UNL A   1      47.105  26.493  35.654  1.00  0.00     0.200 A 
ATOM     94  F   UNL A   1      45.799  24.741  36.549  1.00  0.00    -0.200 F 
ATOM     95  F   UNL A   1      48.176  26.061  36.334  1.00  0.00    -0.200 F 
ENDBRANCH  62  85
ENDBRANCH  36  37
ENDBRANCH  29  31
ENDBRANCH  28  29
ENDBRANCH  27  28
ENDBRANCH  26  27
ENDBRANCH   1  26
TORSDOF 16
ENDMDL
MODEL 3
REMARK VINA RESULT:     -11.8      1.101      7.423
REMARK SMILES Cc1cc(C[N@H+]2CC[C@](C)(C(=O)OCCOCCOC(=O)c3ccc(-c4c5nc(c(-c6c(F)c(F)c(F)c(F)c6F)c6ccc([nH]6)c(-c6c(F)c(F)c(F)c(F)c6F)c6nc(c(-c7c(F)c(F)c(F)c(F)c7F)c7ccc4[nH]7)C=C6)C=C5)cc3)C2)c2ccccc2n1
REMARK SMILES IDX 16 1 15 2 14 3 13 4 11 5 12 6 9 7 6 8 7 9 85 10 8 12 10 13
REMARK SMILES IDX 5 14 4 15 1 16 2 17 3 18 92 19 91 20 86 21 90 22 87 23 89 24
REMARK SMILES IDX 88 25 17 26 18 27 19 28 20 29 21 30 22 31 23 32 84 33 24 34
REMARK SMILES IDX 83 35 25 36 26 37 27 38 77 39 28 40 82 41 76 42 78 43 29 44
REMARK SMILES IDX 81 45 75 46 74 47 30 49 62 50 42 51 61 52 43 53 46 54 60 55
REMARK SMILES IDX 79 56 44 57 45 58 59 60 80 61 47 62 31 63 32 64 40 65 33 66
REMARK SMILES IDX 34 67 38 68 41 69 35 70 36 71 39 72 37 73 63 74 64 75 72 76
REMARK SMILES IDX 65 77 66 78 70 79 73 80 67 81 68 82 71 83 69 84 48 85 49 86
REMARK SMILES IDX 57 87 50 88 51 89 55 90 58 91 52 92 53 93 56 94 54 95
REMARK H PARENT 6 11 78 48 46 59
REMARK Flexibility Score: inf
ROOT
ATOM      1  O   UNL A   1      32.678  29.126  23.759  1.00  0.00    -0.374 OA
ENDROOT
BRANCH   1   2
ATOM      2  C   UNL A   1      32.655  27.927  22.984  1.00  0.00     0.202 C 
BRANCH   2   3
ATOM      3  C   UNL A   1      31.276  27.407  22.571  1.00  0.00     0.261 C 
BRANCH   3   4
ATOM      4  O   UNL A   1      31.015  26.125  23.169  1.00  0.00    -0.463 OA
BRANCH   4   5
ATOM      5  C   UNL A   1      30.220  26.132  24.272  1.00  0.00     0.317 C 
ATOM      6  O   UNL A   1      29.055  26.511  24.288  1.00  0.00    -0.251 OA
BRANCH   5   7
ATOM      7  C   UNL A   1      30.951  25.646  25.512  1.00  0.00     0.119 C 
ATOM      8  N   UNL A   1      32.456  23.813  25.999  1.00  0.00    -0.330 N 
ATOM      9  C   UNL A   1      31.295  23.699  26.876  1.00  0.00     0.263 C 
ATOM     10  C   UNL A   1      32.355  25.075  25.257  1.00  0.00     0.281 C 
ATOM     11  H   UNL A   1      32.427  23.053  25.320  1.00  0.00     0.348 HD
ATOM     12  C   UNL A   1      30.213  24.446  26.115  1.00  0.00     0.086 C 
ATOM     13  C   UNL A   1      31.021  26.822  26.499  1.00  0.00     0.030 C 
BRANCH   8  14
ATOM     14  C   UNL A   1      33.760  23.493  26.601  1.00  0.00     0.299 C 
BRANCH  14  15
ATOM     15  C   UNL A   1      34.589  22.455  25.860  1.00  0.00     0.017 A 
ATOM     16  C   UNL A   1      34.051  18.991  24.412  1.00  0.00     0.067 C 
ATOM     17  C   UNL A   1      34.700  20.236  24.940  1.00  0.00     0.038 A 
ATOM     18  C   UNL A   1      33.942  21.302  25.392  1.00  0.00     0.033 A 
ATOM     19  N   UNL A   1      36.049  20.233  25.002  1.00  0.00    -0.253 NA
ATOM     20  C   UNL A   1      36.681  21.347  25.408  1.00  0.00     0.071 A 
ATOM     21  C   UNL A   1      36.001  22.532  25.753  1.00  0.00     0.009 A 
ATOM     22  C   UNL A   1      38.065  21.319  25.526  1.00  0.00     0.029 A 
ATOM     23  C   UNL A   1      36.765  23.696  26.018  1.00  0.00     0.011 A 
ATOM     24  C   UNL A   1      38.802  22.443  25.906  1.00  0.00     0.002 A 
ATOM     25  C   UNL A   1      38.152  23.648  26.115  1.00  0.00     0.001 A 
ENDBRANCH  14  15
ENDBRANCH   8  14
ENDBRANCH   5   7
ENDBRANCH   4   5
ENDBRANCH   3   4
ENDBRANCH   2   3
ENDBRANCH   1   2
BRANCH   1  26
ATOM     26  C   UNL A   1      31.425  29.637  24.211  1.00  0.00     0.202 C 
BRANCH  26  27
ATOM     27  C   UNL A   1      31.432  30.379  25.557  1.00  0.00     0.261 C 
BRANCH  27  28
ATOM     28  O   UNL A   1      32.624  30.140  26.329  1.00  0.00    -0.460 OA
BRANCH  28  29
ATOM     29  C   UNL A   1      33.087  31.222  26.998  1.00  0.00     0.338 C 
ATOM     30  O   UNL A   1      32.480  32.258  27.251  1.00  0.00    -0.246 OA
BRANCH  29  31
ATOM     31  C   UNL A   1      34.425  30.955  27.554  1.00  0.00     0.060 A 
ATOM     32  C   UNL A   1      34.772  29.617  27.783  1.00  0.00     0.016 A 
ATOM     33  C   UNL A   1      35.291  31.984  27.930  1.00  0.00     0.016 A 
ATOM     34  C   UNL A   1      35.967  29.304  28.429  1.00  0.00     0.010 A 
ATOM     35  C   UNL A   1      36.487  31.668  28.588  1.00  0.00     0.010 A 
ATOM     36  C   UNL A   1      36.814  30.329  28.870  1.00  0.00    -0.014 A 
BRANCH  36  37
ATOM     37  C   UNL A   1      37.970  29.998  29.742  1.00  0.00     0.031 A 
ATOM     38  C   UNL A   1      39.033  29.068  29.227  1.00  0.00     0.074 A 
ATOM     39  C   UNL A   1      38.089  30.546  30.964  1.00  0.00     0.049 A 
ATOM     40  N   UNL A   1      40.113  28.627  29.824  1.00  0.00    -0.248 NA
ATOM     41  C   UNL A   1      38.859  28.566  27.855  1.00  0.00     0.031 C 
ATOM     42  C   UNL A   1      37.153  31.498  31.558  1.00  0.00     0.029 A 
ATOM     43  N   UNL A   1      39.055  30.377  31.926  1.00  0.00    -0.354 N 
ATOM     44  C   UNL A   1      40.737  27.792  28.907  1.00  0.00     0.074 A 
ATOM     45  C   UNL A   1      39.909  27.768  27.720  1.00  0.00     0.031 C 
ATOM     46  C   UNL A   1      37.585  31.825  32.788  1.00  0.00     0.029 A 
ATOM     47  C   UNL A   1      38.811  31.081  33.079  1.00  0.00     0.049 A 
ATOM     48  H   UNL A   1      39.846  29.805  31.801  1.00  0.00     0.167 HD
ATOM     49  C   UNL A   1      41.902  27.112  29.040  1.00  0.00     0.037 A 
ATOM     50  C   UNL A   1      39.490  31.107  34.244  1.00  0.00     0.037 A 
ATOM     51  C   UNL A   1      42.736  27.149  30.213  1.00  0.00     0.049 A 
ATOM     52  C   UNL A   1      40.741  30.279  34.390  1.00  0.00     0.074 A 
ATOM     53  C   UNL A   1      43.957  26.532  30.421  1.00  0.00     0.029 A 
ATOM     54  N   UNL A   1      42.430  27.834  31.378  1.00  0.00    -0.354 N 
ATOM     55  N   UNL A   1      41.344  29.524  33.505  1.00  0.00    -0.248 NA
ATOM     56  C   UNL A   1      41.402  30.304  35.704  1.00  0.00     0.031 C 
ATOM     57  C   UNL A   1      44.365  26.800  31.731  1.00  0.00     0.029 A 
ATOM     58  C   UNL A   1      43.421  27.624  32.323  1.00  0.00     0.049 A 
ATOM     59  H   UNL A   1      41.627  28.387  31.515  1.00  0.00     0.167 HD
ATOM     60  C   UNL A   1      42.468  29.012  34.141  1.00  0.00     0.074 A 
ATOM     61  C   UNL A   1      42.469  29.548  35.485  1.00  0.00     0.031 C 
ATOM     62  C   UNL A   1      43.415  28.172  33.654  1.00  0.00     0.037 A 
BRANCH  49  63
ATOM     63  C   UNL A   1      42.337  26.243  27.898  1.00  0.00     0.064 A 
ATOM     64  C   UNL A   1      41.867  24.930  27.749  1.00  0.00     0.173 A 
ATOM     65  C   UNL A   1      43.191  26.753  26.909  1.00  0.00     0.173 A 
ATOM     66  F   UNL A   1      41.057  24.393  28.674  1.00  0.00    -0.203 F 
ATOM     67  C   UNL A   1      42.250  24.153  26.658  1.00  0.00     0.198 A 
ATOM     68  C   UNL A   1      43.552  25.983  25.808  1.00  0.00     0.198 A 
ATOM     69  F   UNL A   1      43.664  28.005  27.004  1.00  0.00    -0.203 F 
ATOM     70  F   UNL A   1      41.817  22.890  26.552  1.00  0.00    -0.200 F 
ATOM     71  C   UNL A   1      43.085  24.682  25.685  1.00  0.00     0.200 A 
ATOM     72  F   UNL A   1      44.350  26.499  24.863  1.00  0.00    -0.200 F 
ATOM     73  F   UNL A   1      43.444  23.938  24.630  1.00  0.00    -0.200 F 
ENDBRANCH  49  63
BRANCH  50  74
ATOM     74  C   UNL A   1      38.997  31.931  35.378  1.00  0.00     0.064 A 
ATOM     75  C   UNL A   1      39.323  33.290  35.478  1.00  0.00     0.173 A 
ATOM     76  C   UNL A   1      38.224  31.368  36.404  1.00  0.00     0.173 A 
ATOM     77  F   UNL A   1      40.086  33.867  34.537  1.00  0.00    -0.203 F 
ATOM     78  C   UNL A   1      38.912  34.051  36.571  1.00  0.00     0.198 A 
ATOM     79  C   UNL A   1      37.790  32.136  37.482  1.00  0.00     0.198 A 
ATOM     80  F   UNL A   1      37.889  30.070  36.358  1.00  0.00    -0.203 F 
ATOM     81  F   UNL A   1      39.281  35.336  36.667  1.00  0.00    -0.200 F 
ATOM     82  C   UNL A   1      38.142  33.475  37.569  1.00  0.00     0.200 A 
ATOM     83  F   UNL A   1      37.038  31.576  38.440  1.00  0.00    -0.200 F 
ATOM     84  F   UNL A   1      37.748  34.205  38.622  1.00  0.00    -0.200 F 
ENDBRANCH  50  74
BRANCH  62  85
ATOM     85  C   UNL A   1      44.551  27.807  34.565  1.00  0.00     0.064 A 
ATOM     86  C   UNL A   1      44.526  26.636  35.337  1.00  0.00     0.173 A 
ATOM     87  C   UNL A   1      45.696  28.615  34.632  1.00  0.00     0.173 A 
ATOM     88  F   UNL A   1      43.447  25.839  35.320  1.00  0.00    -0.203 F 
ATOM     89  C   UNL A   1      45.599  26.298  36.157  1.00  0.00     0.198 A 
ATOM     90  C   UNL A   1      46.779  28.259  35.431  1.00  0.00     0.198 A 
ATOM     91  F   UNL A   1      45.773  29.741  33.908  1.00  0.00    -0.203 F 
ATOM     92  F   UNL A   1      45.537  25.196  36.919  1.00  0.00    -0.200 F 
ATOM     93  C   UNL A   1      46.727  27.105  36.199  1.00  0.00     0.200 A 
ATOM     94  F   UNL A   1      47.873  29.032  35.459  1.00  0.00    -0.200 F 
ATOM     95  F   UNL A   1      47.762  26.772  36.983  1.00  0.00    -0.200 F 
ENDBRANCH  62  85
ENDBRANCH  36  37
ENDBRANCH  29  31
ENDBRANCH  28  29
ENDBRANCH  27  28
ENDBRANCH  26  27
ENDBRANCH   1  26
TORSDOF 16
ENDMDL
