MODEL 1
REMARK VINA RESULT:     -10.9      0.000      0.000
REMARK SMILES C[C@@H]1[C@@H](C(=O)OCCOCCOC(=O)c2ccc(-c3c4nc(c(-c5c(F)c(F)c(F)c(F)c5F)c5ccc([nH]5)c(-c5c(F)c(F)c(F)c(F)c5F)c5nc(c(-c6c(F)c(F)c(F)c(F)c6F)c6ccc3[nH]6)C=C5)C=C4)cc2)CCN1C(=O)Nc1nccs1
REMARK SMILES IDX 9 1 8 2 7 3 6 4 4 5 5 6 3 7 1 8 2 9 80 10 78 11 79 12 81 13
REMARK SMILES IDX 82 14 83 15 84 17 85 18 88 19 86 20 87 21 10 22 11 23 12 24
REMARK SMILES IDX 13 25 14 26 15 27 16 28 77 29 17 30 76 31 18 32 19 33 20 34
REMARK SMILES IDX 70 35 21 36 75 37 69 38 71 39 22 40 74 41 68 42 67 43 23 45
REMARK SMILES IDX 55 46 35 47 54 48 36 49 39 50 53 51 72 52 37 53 38 54 52 56
REMARK SMILES IDX 73 57 40 58 24 59 25 60 33 61 26 62 27 63 31 64 34 65 28 66
REMARK SMILES IDX 29 67 32 68 30 69 56 70 57 71 65 72 58 73 59 74 63 75 66 76
REMARK SMILES IDX 60 77 61 78 64 79 62 80 41 81 42 82 50 83 43 84 44 85 48 86
REMARK SMILES IDX 51 87 45 88 46 89 49 90 47 91
REMARK H PARENT 83 16 71 44 39 55
REMARK Flexibility Score: inf
ROOT
ATOM      1  O   UNL A   1      31.964  30.440  27.221  1.00  0.00    -0.374 OA
ENDROOT
BRANCH   1   2
ATOM      2  C   UNL A   1      32.767  29.481  26.539  1.00  0.00     0.202 C 
BRANCH   2   3
ATOM      3  C   UNL A   1      32.944  29.670  25.031  1.00  0.00     0.261 C 
BRANCH   3   4
ATOM      4  O   UNL A   1      32.813  28.427  24.321  1.00  0.00    -0.463 OA
BRANCH   4   5
ATOM      5  C   UNL A   1      31.531  28.109  23.981  1.00  0.00     0.311 C 
ATOM      6  O   UNL A   1      30.868  28.711  23.149  1.00  0.00    -0.252 OA
BRANCH   5   7
ATOM      7  C   UNL A   1      31.074  26.865  24.731  1.00  0.00     0.123 C 
ATOM      8  C   UNL A   1      32.060  24.994  26.145  1.00  0.00     0.032 C 
ATOM      9  C   UNL A   1      32.298  25.983  24.998  1.00  0.00     0.098 C 
ATOM     10  N   UNL A   1      32.472  25.271  23.730  1.00  0.00    -0.321 N 
ATOM     11  C   UNL A   1      30.190  25.978  23.866  1.00  0.00     0.039 C 
ATOM     12  C   UNL A   1      31.193  25.189  23.027  1.00  0.00     0.122 C 
BRANCH  10  13
ATOM     13  C   UNL A   1      33.606  25.070  22.990  1.00  0.00     0.323 C 
ATOM     14  O   UNL A   1      33.803  25.736  21.963  1.00  0.00    -0.248 OA
ATOM     15  N   UNL A   1      34.633  24.294  23.386  1.00  0.00    -0.283 N 
ATOM     16  H   UNL A   1      35.500  24.557  23.001  1.00  0.00     0.174 HD
BRANCH  15  17
ATOM     17  C   UNL A   1      34.708  23.217  24.212  1.00  0.00     0.190 A 
ATOM     18  N   UNL A   1      34.242  22.002  24.077  1.00  0.00    -0.228 NA
ATOM     19  S   UNL A   1      35.590  23.524  25.647  1.00  0.00    -0.105 S 
ATOM     20  C   UNL A   1      34.526  21.269  25.213  1.00  0.00     0.125 A 
ATOM     21  C   UNL A   1      35.222  21.941  26.194  1.00  0.00     0.088 A 
ENDBRANCH  15  17
ENDBRANCH  10  13
ENDBRANCH   5   7
ENDBRANCH   4   5
ENDBRANCH   3   4
ENDBRANCH   2   3
ENDBRANCH   1   2
BRANCH   1  22
ATOM     22  C   UNL A   1      31.469  31.555  26.478  1.00  0.00     0.202 C 
BRANCH  22  23
ATOM     23  C   UNL A   1      32.003  32.940  26.864  1.00  0.00     0.261 C 
BRANCH  23  24
ATOM     24  O   UNL A   1      32.890  32.881  27.998  1.00  0.00    -0.460 OA
BRANCH  24  25
ATOM     25  C   UNL A   1      33.979  33.678  27.910  1.00  0.00     0.338 C 
ATOM     26  O   UNL A   1      34.002  34.889  27.724  1.00  0.00    -0.246 OA
BRANCH  25  27
ATOM     27  C   UNL A   1      35.192  32.920  28.261  1.00  0.00     0.060 A 
ATOM     28  C   UNL A   1      35.035  31.573  28.612  1.00  0.00     0.016 A 
ATOM     29  C   UNL A   1      36.445  33.533  28.333  1.00  0.00     0.016 A 
ATOM     30  C   UNL A   1      36.123  30.843  29.085  1.00  0.00     0.010 A 
ATOM     31  C   UNL A   1      37.534  32.802  28.821  1.00  0.00     0.010 A 
ATOM     32  C   UNL A   1      37.369  31.467  29.233  1.00  0.00    -0.014 A 
BRANCH  32  33
ATOM     33  C   UNL A   1      38.450  30.765  29.966  1.00  0.00     0.031 A 
ATOM     34  C   UNL A   1      38.676  31.093  31.415  1.00  0.00     0.074 A 
ATOM     35  C   UNL A   1      39.193  29.824  29.360  1.00  0.00     0.049 A 
ATOM     36  N   UNL A   1      39.570  30.619  32.245  1.00  0.00    -0.248 NA
ATOM     37  C   UNL A   1      37.771  32.090  32.010  1.00  0.00     0.031 C 
ATOM     38  C   UNL A   1      39.041  29.391  27.973  1.00  0.00     0.029 A 
ATOM     39  N   UNL A   1      40.231  29.064  29.840  1.00  0.00    -0.354 N 
ATOM     40  C   UNL A   1      39.338  31.260  33.456  1.00  0.00     0.074 A 
ATOM     41  C   UNL A   1      38.239  32.177  33.246  1.00  0.00     0.031 C 
ATOM     42  C   UNL A   1      39.960  28.447  27.709  1.00  0.00     0.029 A 
ATOM     43  C   UNL A   1      40.782  28.231  28.899  1.00  0.00     0.049 A 
ATOM     44  H   UNL A   1      40.549  29.112  30.771  1.00  0.00     0.167 HD
ATOM     45  C   UNL A   1      39.978  31.092  34.637  1.00  0.00     0.037 A 
ATOM     46  C   UNL A   1      41.841  27.404  28.987  1.00  0.00     0.037 A 
ATOM     47  C   UNL A   1      41.070  30.178  34.844  1.00  0.00     0.049 A 
ATOM     48  C   UNL A   1      42.580  27.284  30.295  1.00  0.00     0.074 A 
ATOM     49  C   UNL A   1      41.773  29.922  36.008  1.00  0.00     0.029 A 
ATOM     50  N   UNL A   1      41.622  29.373  33.858  1.00  0.00    -0.354 N 
ATOM     51  N   UNL A   1      42.338  27.874  31.440  1.00  0.00    -0.248 NA
ATOM     52  C   UNL A   1      43.738  26.378  30.321  1.00  0.00     0.031 C 
ATOM     53  C   UNL A   1      42.780  28.997  35.716  1.00  0.00     0.029 A 
ATOM     54  C   UNL A   1      42.674  28.639  34.382  1.00  0.00     0.049 A 
ATOM     55  H   UNL A   1      41.312  29.331  32.924  1.00  0.00     0.167 HD
ATOM     56  C   UNL A   1      43.292  27.393  32.328  1.00  0.00     0.074 A 
ATOM     57  C   UNL A   1      44.111  26.453  31.591  1.00  0.00     0.031 C 
ATOM     58  C   UNL A   1      43.473  27.702  33.635  1.00  0.00     0.037 A 
BRANCH  45  59
ATOM     59  C   UNL A   1      39.525  31.931  35.794  1.00  0.00     0.064 A 
ATOM     60  C   UNL A   1      40.099  33.183  36.064  1.00  0.00     0.173 A 
ATOM     61  C   UNL A   1      38.482  31.494  36.623  1.00  0.00     0.173 A 
ATOM     62  F   UNL A   1      41.110  33.639  35.310  1.00  0.00    -0.203 F 
ATOM     63  C   UNL A   1      39.659  33.955  37.136  1.00  0.00     0.198 A 
ATOM     64  C   UNL A   1      38.027  32.279  37.678  1.00  0.00     0.198 A 
ATOM     65  F   UNL A   1      37.899  30.306  36.405  1.00  0.00    -0.203 F 
ATOM     66  F   UNL A   1      40.250  35.128  37.402  1.00  0.00    -0.200 F 
ATOM     67  C   UNL A   1      38.620  33.506  37.937  1.00  0.00     0.200 A 
ATOM     68  F   UNL A   1      37.017  31.848  38.446  1.00  0.00    -0.200 F 
ATOM     69  F   UNL A   1      38.194  34.253  38.966  1.00  0.00    -0.200 F 
ENDBRANCH  45  59
BRANCH  46  70
ATOM     70  C   UNL A   1      42.276  26.627  27.797  1.00  0.00     0.064 A 
ATOM     71  C   UNL A   1      41.751  25.356  27.531  1.00  0.00     0.173 A 
ATOM     72  C   UNL A   1      43.241  27.134  26.913  1.00  0.00     0.173 A 
ATOM     73  F   UNL A   1      40.847  24.818  28.362  1.00  0.00    -0.203 F 
ATOM     74  C   UNL A   1      42.186  24.613  26.436  1.00  0.00     0.198 A 
ATOM     75  C   UNL A   1      43.655  26.402  25.804  1.00  0.00     0.198 A 
ATOM     76  F   UNL A   1      43.776  28.345  27.126  1.00  0.00    -0.203 F 
ATOM     77  F   UNL A   1      41.701  23.380  26.229  1.00  0.00    -0.200 F 
ATOM     78  C   UNL A   1      43.134  25.138  25.569  1.00  0.00     0.200 A 
ATOM     79  F   UNL A   1      44.563  26.917  24.964  1.00  0.00    -0.200 F 
ATOM     80  F   UNL A   1      43.550  24.424  24.515  1.00  0.00    -0.200 F 
ENDBRANCH  46  70
BRANCH  58  81
ATOM     81  C   UNL A   1      44.576  26.991  34.365  1.00  0.00     0.064 A 
ATOM     82  C   UNL A   1      45.860  27.545  34.477  1.00  0.00     0.173 A 
ATOM     83  C   UNL A   1      44.333  25.762  34.997  1.00  0.00     0.173 A 
ATOM     84  F   UNL A   1      46.146  28.711  33.879  1.00  0.00    -0.203 F 
ATOM     85  C   UNL A   1      46.866  26.883  35.176  1.00  0.00     0.198 A 
ATOM     86  C   UNL A   1      45.333  25.116  35.718  1.00  0.00     0.198 A 
ATOM     87  F   UNL A   1      43.119  25.194  34.926  1.00  0.00    -0.203 F 
ATOM     88  F   UNL A   1      48.097  27.409  35.233  1.00  0.00    -0.200 F 
ATOM     89  C   UNL A   1      46.600  25.674  35.801  1.00  0.00     0.200 A 
ATOM     90  F   UNL A   1      45.070  23.954  36.332  1.00  0.00    -0.200 F 
ATOM     91  F   UNL A   1      47.568  25.040  36.479  1.00  0.00    -0.200 F 
ENDBRANCH  58  81
ENDBRANCH  32  33
ENDBRANCH  25  27
ENDBRANCH  24  25
ENDBRANCH  23  24
ENDBRANCH  22  23
ENDBRANCH   1  22
TORSDOF 16
ENDMDL
MODEL 2
REMARK VINA RESULT:     -10.7      1.170      7.703
REMARK SMILES C[C@@H]1[C@@H](C(=O)OCCOCCOC(=O)c2ccc(-c3c4nc(c(-c5c(F)c(F)c(F)c(F)c5F)c5ccc([nH]5)c(-c5c(F)c(F)c(F)c(F)c5F)c5nc(c(-c6c(F)c(F)c(F)c(F)c6F)c6ccc3[nH]6)C=C5)C=C4)cc2)CCN1C(=O)Nc1nccs1
REMARK SMILES IDX 9 1 8 2 7 3 6 4 4 5 5 6 3 7 1 8 2 9 80 10 78 11 79 12 81 13
REMARK SMILES IDX 82 14 83 15 84 17 85 18 88 19 86 20 87 21 10 22 11 23 12 24
REMARK SMILES IDX 13 25 14 26 15 27 16 28 77 29 17 30 76 31 18 32 19 33 20 34
REMARK SMILES IDX 70 35 21 36 75 37 69 38 71 39 22 40 74 41 68 42 67 43 23 45
REMARK SMILES IDX 55 46 35 47 54 48 36 49 39 50 53 51 72 52 37 53 38 54 52 56
REMARK SMILES IDX 73 57 40 58 24 59 25 60 33 61 26 62 27 63 31 64 34 65 28 66
REMARK SMILES IDX 29 67 32 68 30 69 56 70 57 71 65 72 58 73 59 74 63 75 66 76
REMARK SMILES IDX 60 77 61 78 64 79 62 80 41 81 42 82 50 83 43 84 44 85 48 86
REMARK SMILES IDX 51 87 45 88 46 89 49 90 47 91
REMARK H PARENT 83 16 71 44 39 55
REMARK Flexibility Score: inf
ROOT
ATOM      1  O   UNL A   1      31.717  28.793  24.585  1.00  0.00    -0.374 OA
ENDROOT
BRANCH   1   2
ATOM      2  C   UNL A   1      30.575  29.318  23.913  1.00  0.00     0.202 C 
BRANCH   2   3
ATOM      3  C   UNL A   1      29.803  28.358  23.005  1.00  0.00     0.261 C 
BRANCH   3   4
ATOM      4  O   UNL A   1      30.687  27.526  22.237  1.00  0.00    -0.463 OA
BRANCH   4   5
ATOM      5  C   UNL A   1      30.824  26.258  22.721  1.00  0.00     0.311 C 
ATOM      6  O   UNL A   1      30.041  25.727  23.496  1.00  0.00    -0.252 OA
BRANCH   5   7
ATOM      7  C   UNL A   1      32.044  25.583  22.107  1.00  0.00     0.123 C 
ATOM      8  C   UNL A   1      33.267  23.355  22.206  1.00  0.00     0.032 C 
ATOM      9  C   UNL A   1      32.412  24.371  22.970  1.00  0.00     0.098 C 
ATOM     10  N   UNL A   1      33.175  24.969  24.067  1.00  0.00    -0.321 N 
ATOM     11  C   UNL A   1      33.281  26.463  22.200  1.00  0.00     0.039 C 
ATOM     12  C   UNL A   1      33.780  26.225  23.625  1.00  0.00     0.122 C 
BRANCH  10  13
ATOM     13  C   UNL A   1      33.068  24.769  25.417  1.00  0.00     0.323 C 
ATOM     14  O   UNL A   1      32.143  25.297  26.051  1.00  0.00    -0.248 OA
ATOM     15  N   UNL A   1      33.819  23.888  26.107  1.00  0.00    -0.283 N 
ATOM     16  H   UNL A   1      33.384  23.551  26.922  1.00  0.00     0.174 HD
BRANCH  15  17
ATOM     17  C   UNL A   1      35.061  23.377  25.899  1.00  0.00     0.190 A 
ATOM     18  N   UNL A   1      36.187  23.965  25.586  1.00  0.00    -0.228 NA
ATOM     19  S   UNL A   1      35.140  21.681  26.121  1.00  0.00    -0.105 S 
ATOM     20  C   UNL A   1      37.177  23.015  25.431  1.00  0.00     0.125 A 
ATOM     21  C   UNL A   1      36.787  21.711  25.645  1.00  0.00     0.088 A 
ENDBRANCH  15  17
ENDBRANCH  10  13
ENDBRANCH   5   7
ENDBRANCH   4   5
ENDBRANCH   3   4
ENDBRANCH   2   3
ENDBRANCH   1   2
BRANCH   1  22
ATOM     22  C   UNL A   1      31.692  28.738  26.012  1.00  0.00     0.202 C 
BRANCH  22  23
ATOM     23  C   UNL A   1      31.897  30.060  26.763  1.00  0.00     0.261 C 
BRANCH  23  24
ATOM     24  O   UNL A   1      33.091  30.744  26.336  1.00  0.00    -0.460 OA
BRANCH  24  25
ATOM     25  C   UNL A   1      33.545  31.684  27.195  1.00  0.00     0.338 C 
ATOM     26  O   UNL A   1      32.935  32.656  27.627  1.00  0.00    -0.246 OA
BRANCH  25  27
ATOM     27  C   UNL A   1      34.863  31.294  27.724  1.00  0.00     0.060 A 
ATOM     28  C   UNL A   1      35.063  29.942  28.033  1.00  0.00     0.016 A 
ATOM     29  C   UNL A   1      35.854  32.239  27.997  1.00  0.00     0.016 A 
ATOM     30  C   UNL A   1      36.236  29.535  28.664  1.00  0.00     0.010 A 
ATOM     31  C   UNL A   1      37.027  31.831  28.642  1.00  0.00     0.010 A 
ATOM     32  C   UNL A   1      37.206  30.485  29.010  1.00  0.00    -0.014 A 
BRANCH  32  33
ATOM     33  C   UNL A   1      38.326  30.088  29.896  1.00  0.00     0.031 A 
ATOM     34  C   UNL A   1      39.353  29.120  29.379  1.00  0.00     0.074 A 
ATOM     35  C   UNL A   1      38.449  30.612  31.128  1.00  0.00     0.049 A 
ATOM     36  N   UNL A   1      40.403  28.620  29.980  1.00  0.00    -0.248 NA
ATOM     37  C   UNL A   1      39.171  28.650  27.995  1.00  0.00     0.031 C 
ATOM     38  C   UNL A   1      37.541  31.589  31.723  1.00  0.00     0.029 A 
ATOM     39  N   UNL A   1      39.391  30.387  32.101  1.00  0.00    -0.354 N 
ATOM     40  C   UNL A   1      41.004  27.779  29.053  1.00  0.00     0.074 A 
ATOM     41  C   UNL A   1      40.188  27.811  27.859  1.00  0.00     0.031 C 
ATOM     42  C   UNL A   1      37.964  31.874  32.966  1.00  0.00     0.029 A 
ATOM     43  C   UNL A   1      39.155  31.078  33.262  1.00  0.00     0.049 A 
ATOM     44  H   UNL A   1      40.161  29.787  31.977  1.00  0.00     0.167 HD
ATOM     45  C   UNL A   1      42.139  27.052  29.183  1.00  0.00     0.037 A 
ATOM     46  C   UNL A   1      39.817  31.055  34.435  1.00  0.00     0.037 A 
ATOM     47  C   UNL A   1      42.951  27.023  30.371  1.00  0.00     0.049 A 
ATOM     48  C   UNL A   1      41.040  30.186  34.577  1.00  0.00     0.074 A 
ATOM     49  C   UNL A   1      44.129  26.332  30.595  1.00  0.00     0.029 A 
ATOM     50  N   UNL A   1      42.663  27.712  31.539  1.00  0.00    -0.354 N 
ATOM     51  N   UNL A   1      41.615  29.413  33.688  1.00  0.00    -0.248 NA
ATOM     52  C   UNL A   1      41.707  30.189  35.888  1.00  0.00     0.031 C 
ATOM     53  C   UNL A   1      44.529  26.566  31.914  1.00  0.00     0.029 A 
ATOM     54  C   UNL A   1      43.627  27.443  32.497  1.00  0.00     0.049 A 
ATOM     55  H   UNL A   1      41.887  28.305  31.669  1.00  0.00     0.167 HD
ATOM     56  C   UNL A   1      42.723  28.862  34.319  1.00  0.00     0.074 A 
ATOM     57  C   UNL A   1      42.746  29.398  35.664  1.00  0.00     0.031 C 
ATOM     58  C   UNL A   1      43.639  27.992  33.828  1.00  0.00     0.037 A 
BRANCH  45  59
ATOM     59  C   UNL A   1      42.559  26.211  28.015  1.00  0.00     0.064 A 
ATOM     60  C   UNL A   1      42.079  24.904  27.839  1.00  0.00     0.173 A 
ATOM     61  C   UNL A   1      43.425  26.730  27.042  1.00  0.00     0.173 A 
ATOM     62  F   UNL A   1      41.260  24.357  28.750  1.00  0.00    -0.203 F 
ATOM     63  C   UNL A   1      42.471  24.140  26.742  1.00  0.00     0.198 A 
ATOM     64  C   UNL A   1      43.794  25.973  25.933  1.00  0.00     0.198 A 
ATOM     65  F   UNL A   1      43.910  27.975  27.163  1.00  0.00    -0.203 F 
ATOM     66  F   UNL A   1      42.034  22.880  26.616  1.00  0.00    -0.200 F 
ATOM     67  C   UNL A   1      43.321  24.677  25.788  1.00  0.00     0.200 A 
ATOM     68  F   UNL A   1      44.609  26.496  25.007  1.00  0.00    -0.200 F 
ATOM     69  F   UNL A   1      43.692  23.942  24.729  1.00  0.00    -0.200 F 
ENDBRANCH  45  59
BRANCH  46  70
ATOM     70  C   UNL A   1      39.333  31.874  35.576  1.00  0.00     0.064 A 
ATOM     71  C   UNL A   1      39.775  33.191  35.761  1.00  0.00     0.173 A 
ATOM     72  C   UNL A   1      38.434  31.349  36.516  1.00  0.00     0.173 A 
ATOM     73  F   UNL A   1      40.655  33.728  34.904  1.00  0.00    -0.203 F 
ATOM     74  C   UNL A   1      39.349  33.946  36.851  1.00  0.00     0.198 A 
ATOM     75  C   UNL A   1      37.987  32.114  37.590  1.00  0.00     0.198 A 
ATOM     76  F   UNL A   1      37.984  30.092  36.385  1.00  0.00    -0.203 F 
ATOM     77  F   UNL A   1      39.822  35.188  37.029  1.00  0.00    -0.200 F 
ATOM     78  C   UNL A   1      38.451  33.409  37.762  1.00  0.00     0.200 A 
ATOM     79  F   UNL A   1      37.113  31.594  38.463  1.00  0.00    -0.200 F 
ATOM     80  F   UNL A   1      38.040  34.137  38.809  1.00  0.00    -0.200 F 
ENDBRANCH  46  70
BRANCH  58  81
ATOM     81  C   UNL A   1      44.765  27.590  34.737  1.00  0.00     0.064 A 
ATOM     82  C   UNL A   1      44.683  26.451  35.551  1.00  0.00     0.173 A 
ATOM     83  C   UNL A   1      45.956  28.331  34.761  1.00  0.00     0.173 A 
ATOM     84  F   UNL A   1      43.559  25.717  35.574  1.00  0.00    -0.203 F 
ATOM     85  C   UNL A   1      45.745  26.081  36.372  1.00  0.00     0.198 A 
ATOM     86  C   UNL A   1      47.026  27.942  35.563  1.00  0.00     0.198 A 
ATOM     87  F   UNL A   1      46.088  29.425  33.996  1.00  0.00    -0.203 F 
ATOM     88  F   UNL A   1      45.628  25.013  37.174  1.00  0.00    -0.200 F 
ATOM     89  C   UNL A   1      46.917  26.822  36.372  1.00  0.00     0.200 A 
ATOM     90  F   UNL A   1      48.163  28.652  35.551  1.00  0.00    -0.200 F 
ATOM     91  F   UNL A   1      47.941  26.460  37.158  1.00  0.00    -0.200 F 
ENDBRANCH  58  81
ENDBRANCH  32  33
ENDBRANCH  25  27
ENDBRANCH  24  25
ENDBRANCH  23  24
ENDBRANCH  22  23
ENDBRANCH   1  22
TORSDOF 16
ENDMDL
MODEL 3
REMARK VINA RESULT:     -10.7      4.600      7.839
REMARK SMILES C[C@@H]1[C@@H](C(=O)OCCOCCOC(=O)c2ccc(-c3c4nc(c(-c5c(F)c(F)c(F)c(F)c5F)c5ccc([nH]5)c(-c5c(F)c(F)c(F)c(F)c5F)c5nc(c(-c6c(F)c(F)c(F)c(F)c6F)c6ccc3[nH]6)C=C5)C=C4)cc2)CCN1C(=O)Nc1nccs1
REMARK SMILES IDX 9 1 8 2 7 3 6 4 4 5 5 6 3 7 1 8 2 9 80 10 78 11 79 12 81 13
REMARK SMILES IDX 82 14 83 15 84 17 85 18 88 19 86 20 87 21 10 22 11 23 12 24
REMARK SMILES IDX 13 25 14 26 15 27 16 28 77 29 17 30 76 31 18 32 19 33 20 34
REMARK SMILES IDX 70 35 21 36 75 37 69 38 71 39 22 40 74 41 68 42 67 43 23 45
REMARK SMILES IDX 55 46 35 47 54 48 36 49 39 50 53 51 72 52 37 53 38 54 52 56
REMARK SMILES IDX 73 57 40 58 24 59 25 60 33 61 26 62 27 63 31 64 34 65 28 66
REMARK SMILES IDX 29 67 32 68 30 69 56 70 57 71 65 72 58 73 59 74 63 75 66 76
REMARK SMILES IDX 60 77 61 78 64 79 62 80 41 81 42 82 50 83 43 84 44 85 48 86
REMARK SMILES IDX 51 87 45 88 46 89 49 90 47 91
REMARK H PARENT 83 16 71 44 39 55
REMARK Flexibility Score: inf
ROOT
ATOM      1  O   UNL A   1      35.695  22.765  25.039  1.00  0.00    -0.374 OA
ENDROOT
BRANCH   1   2
ATOM      2  C   UNL A   1      34.753  23.459  24.226  1.00  0.00     0.202 C 
BRANCH   2   3
ATOM      3  C   UNL A   1      33.435  23.869  24.886  1.00  0.00     0.261 C 
BRANCH   3   4
ATOM      4  O   UNL A   1      32.828  24.984  24.212  1.00  0.00    -0.463 OA
BRANCH   4   5
ATOM      5  C   UNL A   1      32.155  25.837  25.037  1.00  0.00     0.311 C 
ATOM      6  O   UNL A   1      31.444  25.481  25.966  1.00  0.00    -0.252 OA
BRANCH   5   7
ATOM      7  C   UNL A   1      32.469  27.283  24.678  1.00  0.00     0.123 C 
ATOM      8  C   UNL A   1      31.505  29.610  25.030  1.00  0.00     0.032 C 
ATOM      9  C   UNL A   1      31.198  28.118  24.870  1.00  0.00     0.098 C 
ATOM     10  N   UNL A   1      30.454  27.872  23.633  1.00  0.00    -0.321 N 
ATOM     11  C   UNL A   1      32.768  27.444  23.195  1.00  0.00     0.039 C 
ATOM     12  C   UNL A   1      31.381  27.515  22.559  1.00  0.00     0.122 C 
BRANCH  10  13
ATOM     13  C   UNL A   1      29.137  27.545  23.456  1.00  0.00     0.323 C 
ATOM     14  O   UNL A   1      28.738  26.405  23.734  1.00  0.00    -0.248 OA
ATOM     15  N   UNL A   1      28.178  28.438  23.143  1.00  0.00    -0.283 N 
ATOM     16  H   UNL A   1      27.279  28.176  23.448  1.00  0.00     0.174 HD
BRANCH  15  17
ATOM     17  C   UNL A   1      28.206  29.627  22.487  1.00  0.00     0.190 A 
ATOM     18  N   UNL A   1      28.474  29.909  21.238  1.00  0.00    -0.228 NA
ATOM     19  S   UNL A   1      27.790  30.959  23.480  1.00  0.00    -0.105 S 
ATOM     20  C   UNL A   1      28.426  31.276  21.051  1.00  0.00     0.125 A 
ATOM     21  C   UNL A   1      28.106  32.017  22.168  1.00  0.00     0.088 A 
ENDBRANCH  15  17
ENDBRANCH  10  13
ENDBRANCH   5   7
ENDBRANCH   4   5
ENDBRANCH   3   4
ENDBRANCH   2   3
ENDBRANCH   1   2
BRANCH   1  22
ATOM     22  C   UNL A   1      35.666  21.337  25.033  1.00  0.00     0.202 C 
BRANCH  22  23
ATOM     23  C   UNL A   1      37.019  20.615  25.028  1.00  0.00     0.261 C 
BRANCH  23  24
ATOM     24  O   UNL A   1      38.125  21.538  25.075  1.00  0.00    -0.460 OA
BRANCH  24  25
ATOM     25  C   UNL A   1      39.073  21.243  25.994  1.00  0.00     0.338 C 
ATOM     26  O   UNL A   1      39.573  20.148  26.222  1.00  0.00    -0.246 OA
BRANCH  25  27
ATOM     27  C   UNL A   1      39.595  22.480  26.598  1.00  0.00     0.060 A 
ATOM     28  C   UNL A   1      39.085  23.697  26.127  1.00  0.00     0.016 A 
ATOM     29  C   UNL A   1      40.625  22.458  27.541  1.00  0.00     0.016 A 
ATOM     30  C   UNL A   1      39.637  24.900  26.561  1.00  0.00     0.010 A 
ATOM     31  C   UNL A   1      41.187  23.667  27.965  1.00  0.00     0.010 A 
ATOM     32  C   UNL A   1      40.720  24.889  27.449  1.00  0.00    -0.014 A 
BRANCH  32  33
ATOM     33  C   UNL A   1      41.458  26.148  27.708  1.00  0.00     0.031 A 
ATOM     34  C   UNL A   1      40.771  27.251  28.464  1.00  0.00     0.074 A 
ATOM     35  C   UNL A   1      42.734  26.293  27.310  1.00  0.00     0.049 A 
ATOM     36  N   UNL A   1      41.215  28.439  28.789  1.00  0.00    -0.248 NA
ATOM     37  C   UNL A   1      39.397  26.977  28.917  1.00  0.00     0.031 C 
ATOM     38  C   UNL A   1      43.518  25.281  26.606  1.00  0.00     0.029 A 
ATOM     39  N   UNL A   1      43.592  27.357  27.440  1.00  0.00    -0.354 N 
ATOM     40  C   UNL A   1      40.177  29.053  29.478  1.00  0.00     0.074 A 
ATOM     41  C   UNL A   1      39.072  28.120  29.502  1.00  0.00     0.031 C 
ATOM     42  C   UNL A   1      44.742  25.776  26.357  1.00  0.00     0.029 A 
ATOM     43  C   UNL A   1      44.816  27.148  26.858  1.00  0.00     0.049 A 
ATOM     44  H   UNL A   1      43.351  28.190  27.907  1.00  0.00     0.167 HD
ATOM     45  C   UNL A   1      40.152  30.281  30.049  1.00  0.00     0.037 A 
ATOM     46  C   UNL A   1      45.868  27.979  26.729  1.00  0.00     0.037 A 
ATOM     47  C   UNL A   1      41.253  31.208  30.026  1.00  0.00     0.049 A 
ATOM     48  C   UNL A   1      45.792  29.365  27.314  1.00  0.00     0.074 A 
ATOM     49  C   UNL A   1      41.332  32.469  30.591  1.00  0.00     0.029 A 
ATOM     50  N   UNL A   1      42.468  30.973  29.399  1.00  0.00    -0.354 N 
ATOM     51  N   UNL A   1      44.818  29.929  27.985  1.00  0.00    -0.248 NA
ATOM     52  C   UNL A   1      46.966  30.231  27.124  1.00  0.00     0.031 C 
ATOM     53  C   UNL A   1      42.578  33.016  30.265  1.00  0.00     0.029 A 
ATOM     54  C   UNL A   1      43.294  32.077  29.540  1.00  0.00     0.049 A 
ATOM     55  H   UNL A   1      42.707  30.145  28.922  1.00  0.00     0.167 HD
ATOM     56  C   UNL A   1      45.268  31.199  28.322  1.00  0.00     0.074 A 
ATOM     57  C   UNL A   1      46.609  31.320  27.789  1.00  0.00     0.031 C 
ATOM     58  C   UNL A   1      44.629  32.177  29.010  1.00  0.00     0.037 A 
BRANCH  45  59
ATOM     59  C   UNL A   1      38.884  30.703  30.728  1.00  0.00     0.064 A 
ATOM     60  C   UNL A   1      37.802  31.229  30.007  1.00  0.00     0.173 A 
ATOM     61  C   UNL A   1      38.735  30.545  32.114  1.00  0.00     0.173 A 
ATOM     62  F   UNL A   1      37.900  31.413  28.681  1.00  0.00    -0.203 F 
ATOM     63  C   UNL A   1      36.627  31.606  30.652  1.00  0.00     0.198 A 
ATOM     64  C   UNL A   1      37.550  30.898  32.753  1.00  0.00     0.198 A 
ATOM     65  F   UNL A   1      39.739  30.044  32.849  1.00  0.00    -0.203 F 
ATOM     66  F   UNL A   1      35.622  32.147  29.949  1.00  0.00    -0.200 F 
ATOM     67  C   UNL A   1      36.499  31.433  32.022  1.00  0.00     0.200 A 
ATOM     68  F   UNL A   1      37.425  30.723  34.075  1.00  0.00    -0.200 F 
ATOM     69  F   UNL A   1      35.365  31.790  32.641  1.00  0.00    -0.200 F 
ENDBRANCH  45  59
BRANCH  46  70
ATOM     70  C   UNL A   1      47.086  27.528  26.007  1.00  0.00     0.064 A 
ATOM     71  C   UNL A   1      47.181  27.632  24.612  1.00  0.00     0.173 A 
ATOM     72  C   UNL A   1      48.171  26.965  26.695  1.00  0.00     0.173 A 
ATOM     73  F   UNL A   1      46.158  28.138  23.908  1.00  0.00    -0.203 F 
ATOM     74  C   UNL A   1      48.307  27.175  23.932  1.00  0.00     0.198 A 
ATOM     75  C   UNL A   1      49.308  26.534  26.016  1.00  0.00     0.198 A 
ATOM     76  F   UNL A   1      48.128  26.840  28.029  1.00  0.00    -0.203 F 
ATOM     77  F   UNL A   1      48.354  27.245  22.594  1.00  0.00    -0.200 F 
ATOM     78  C   UNL A   1      49.373  26.631  24.634  1.00  0.00     0.200 A 
ATOM     79  F   UNL A   1      50.339  26.017  26.700  1.00  0.00    -0.200 F 
ATOM     80  F   UNL A   1      50.456  26.194  23.979  1.00  0.00    -0.200 F 
ENDBRANCH  46  70
BRANCH  58  81
ATOM     81  C   UNL A   1      45.384  33.450  29.260  1.00  0.00     0.064 A 
ATOM     82  C   UNL A   1      46.153  33.635  30.418  1.00  0.00     0.173 A 
ATOM     83  C   UNL A   1      45.371  34.481  28.309  1.00  0.00     0.173 A 
ATOM     84  F   UNL A   1      46.187  32.684  31.364  1.00  0.00    -0.203 F 
ATOM     85  C   UNL A   1      46.864  34.814  30.624  1.00  0.00     0.198 A 
ATOM     86  C   UNL A   1      46.104  35.648  28.505  1.00  0.00     0.198 A 
ATOM     87  F   UNL A   1      44.655  34.351  27.180  1.00  0.00    -0.203 F 
ATOM     88  F   UNL A   1      47.558  34.986  31.758  1.00  0.00    -0.200 F 
ATOM     89  C   UNL A   1      46.845  35.815  29.665  1.00  0.00     0.200 A 
ATOM     90  F   UNL A   1      46.095  36.609  27.571  1.00  0.00    -0.200 F 
ATOM     91  F   UNL A   1      47.535  36.948  29.862  1.00  0.00    -0.200 F 
ENDBRANCH  58  81
ENDBRANCH  32  33
ENDBRANCH  25  27
ENDBRANCH  24  25
ENDBRANCH  23  24
ENDBRANCH  22  23
ENDBRANCH   1  22
TORSDOF 16
ENDMDL
