MODEL 1
REMARK VINA RESULT:     -11.4      0.000      0.000
REMARK SMILES O=C1CN(S(=O)(=O)c2ccc(CC(=O)OCCOCCOC(=O)c3ccc(-c4c5nc(c(-c6c(F)c(F)c(F)c(F)c6F)c6ccc([nH]6)c(-c6c(F)c(F)c(F)c(F)c6F)c6nc(c(-c7c(F)c(F)c(F)c(F)c7F)c7ccc4[nH]7)C=C6)C=C5)cc3)cc2)CCN1
REMARK SMILES IDX 17 1 16 2 15 3 13 4 14 5 12 6 11 7 8 8 9 9 88 10 10 11 87 12
REMARK SMILES IDX 5 13 6 14 7 15 4 16 1 17 2 18 3 19 91 20 90 21 89 23 18 24
REMARK SMILES IDX 19 25 20 26 21 27 22 28 23 29 24 30 25 31 86 32 26 33 85 34
REMARK SMILES IDX 27 35 28 36 29 37 79 38 30 39 84 40 78 41 80 42 31 43 83 44
REMARK SMILES IDX 77 45 76 46 32 48 64 49 44 50 63 51 45 52 48 53 62 54 81 55
REMARK SMILES IDX 46 56 47 57 61 59 82 60 49 61 33 62 34 63 42 64 35 65 36 66
REMARK SMILES IDX 40 67 43 68 37 69 38 70 41 71 39 72 65 73 66 74 74 75 67 76
REMARK SMILES IDX 68 77 72 78 75 79 69 80 70 81 73 82 71 83 50 84 51 85 59 86
REMARK SMILES IDX 52 87 53 88 57 89 60 90 54 91 55 92 58 93 56 94
REMARK H PARENT 91 22 80 47 48 58
REMARK Flexibility Score: inf
ROOT
ATOM      1  C   UNL A   1      34.462  34.654  29.100  1.00  0.00     0.202 C 
ENDROOT
BRANCH   1   2
ATOM      2  C   UNL A   1      33.933  33.668  28.054  1.00  0.00     0.261 C 
BRANCH   2   3
ATOM      3  O   UNL A   1      33.764  32.332  28.565  1.00  0.00    -0.463 OA
BRANCH   3   4
ATOM      4  C   UNL A   1      34.076  31.333  27.696  1.00  0.00     0.310 C 
ATOM      5  O   UNL A   1      35.220  30.963  27.450  1.00  0.00    -0.252 OA
BRANCH   4   6
ATOM      6  C   UNL A   1      32.888  30.698  27.009  1.00  0.00     0.158 C 
BRANCH   6   7
ATOM      7  C   UNL A   1      32.962  29.243  26.598  1.00  0.00    -0.037 A 
ATOM      8  C   UNL A   1      32.978  26.553  25.779  1.00  0.00     0.082 A 
ATOM      9  C   UNL A   1      33.638  27.514  25.011  1.00  0.00     0.022 A 
ATOM     10  C   UNL A   1      32.335  26.924  26.965  1.00  0.00     0.022 A 
ATOM     11  C   UNL A   1      33.625  28.854  25.420  1.00  0.00     0.006 A 
ATOM     12  C   UNL A   1      32.318  28.262  27.364  1.00  0.00     0.006 A 
BRANCH   8  13
ATOM     13  S   UNL A   1      33.126  24.826  25.374  1.00  0.00     0.243 S 
ATOM     14  O   UNL A   1      33.297  24.112  26.624  1.00  0.00    -0.207 OA
ATOM     15  O   UNL A   1      34.119  24.703  24.330  1.00  0.00    -0.207 OA
BRANCH  13  16
ATOM     16  N   UNL A   1      31.625  24.371  24.690  1.00  0.00    -0.187 NA
ATOM     17  O   UNL A   1      29.888  23.076  27.621  1.00  0.00    -0.274 OA
ATOM     18  C   UNL A   1      30.457  23.077  26.531  1.00  0.00     0.235 C 
ATOM     19  C   UNL A   1      30.465  24.297  25.623  1.00  0.00     0.202 C 
ATOM     20  N   UNL A   1      31.013  21.925  26.035  1.00  0.00    -0.354 N 
ATOM     21  C   UNL A   1      31.865  21.877  24.858  1.00  0.00     0.132 C 
ATOM     22  H   UNL A   1      30.824  21.080  26.504  1.00  0.00     0.163 HD
ATOM     23  C   UNL A   1      31.691  23.081  23.918  1.00  0.00     0.124 C 
ENDBRANCH  13  16
ENDBRANCH   8  13
ENDBRANCH   6   7
ENDBRANCH   4   6
ENDBRANCH   3   4
ENDBRANCH   2   3
ENDBRANCH   1   2
BRANCH   1  24
ATOM     24  O   UNL A   1      33.516  35.301  29.946  1.00  0.00    -0.374 OA
BRANCH  24  25
ATOM     25  C   UNL A   1      33.547  35.001  31.339  1.00  0.00     0.202 C 
BRANCH  25  26
ATOM     26  C   UNL A   1      34.839  34.414  31.924  1.00  0.00     0.261 C 
BRANCH  26  27
ATOM     27  O   UNL A   1      34.838  32.979  31.985  1.00  0.00    -0.460 OA
BRANCH  27  28
ATOM     28  C   UNL A   1      35.795  32.460  32.792  1.00  0.00     0.338 C 
ATOM     29  O   UNL A   1      35.851  32.520  34.010  1.00  0.00    -0.246 OA
BRANCH  28  30
ATOM     30  C   UNL A   1      36.724  31.618  32.016  1.00  0.00     0.060 A 
ATOM     31  C   UNL A   1      37.699  30.914  32.735  1.00  0.00     0.016 A 
ATOM     32  C   UNL A   1      36.716  31.602  30.621  1.00  0.00     0.016 A 
ATOM     33  C   UNL A   1      38.720  30.252  32.059  1.00  0.00     0.010 A 
ATOM     34  C   UNL A   1      37.744  30.938  29.943  1.00  0.00     0.010 A 
ATOM     35  C   UNL A   1      38.777  30.304  30.661  1.00  0.00    -0.014 A 
BRANCH  35  36
ATOM     36  C   UNL A   1      40.009  29.849  29.972  1.00  0.00     0.031 A 
ATOM     37  C   UNL A   1      41.156  30.810  29.828  1.00  0.00     0.074 A 
ATOM     38  C   UNL A   1      40.123  28.584  29.533  1.00  0.00     0.049 A 
ATOM     39  N   UNL A   1      42.321  30.638  29.256  1.00  0.00    -0.248 NA
ATOM     40  C   UNL A   1      40.964  32.150  30.405  1.00  0.00     0.031 C 
ATOM     41  C   UNL A   1      39.096  27.552  29.658  1.00  0.00     0.029 A 
ATOM     42  N   UNL A   1      41.160  27.953  28.890  1.00  0.00    -0.354 N 
ATOM     43  C   UNL A   1      42.994  31.847  29.397  1.00  0.00     0.074 A 
ATOM     44  C   UNL A   1      42.095  32.755  30.075  1.00  0.00     0.031 C 
ATOM     45  C   UNL A   1      39.550  26.416  29.102  1.00  0.00     0.029 A 
ATOM     46  C   UNL A   1      40.885  26.651  28.554  1.00  0.00     0.049 A 
ATOM     47  H   UNL A   1      42.017  28.393  28.689  1.00  0.00     0.167 HD
ATOM     48  C   UNL A   1      44.250  32.165  29.004  1.00  0.00     0.037 A 
ATOM     49  C   UNL A   1      41.623  25.760  27.864  1.00  0.00     0.037 A 
ATOM     50  C   UNL A   1      45.139  31.254  28.330  1.00  0.00     0.049 A 
ATOM     51  C   UNL A   1      42.994  26.160  27.380  1.00  0.00     0.074 A 
ATOM     52  C   UNL A   1      46.436  31.470  27.902  1.00  0.00     0.029 A 
ATOM     53  N   UNL A   1      44.816  29.950  27.982  1.00  0.00    -0.354 N 
ATOM     54  N   UNL A   1      43.631  27.296  27.536  1.00  0.00    -0.248 NA
ATOM     55  C   UNL A   1      43.752  25.147  26.632  1.00  0.00     0.031 C 
ATOM     56  C   UNL A   1      46.876  30.320  27.241  1.00  0.00     0.029 A 
ATOM     57  C   UNL A   1      45.881  29.359  27.320  1.00  0.00     0.049 A 
ATOM     58  H   UNL A   1      43.956  29.509  28.176  1.00  0.00     0.167 HD
ATOM     59  C   UNL A   1      44.875  27.123  26.941  1.00  0.00     0.074 A 
ATOM     60  C   UNL A   1      44.905  25.768  26.430  1.00  0.00     0.031 C 
ATOM     61  C   UNL A   1      45.900  28.004  26.831  1.00  0.00     0.037 A 
BRANCH  48  62
ATOM     62  C   UNL A   1      44.726  33.566  29.262  1.00  0.00     0.064 A 
ATOM     63  C   UNL A   1      44.503  34.607  28.346  1.00  0.00     0.173 A 
ATOM     64  C   UNL A   1      45.389  33.879  30.459  1.00  0.00     0.173 A 
ATOM     65  F   UNL A   1      43.886  34.360  27.182  1.00  0.00    -0.203 F 
ATOM     66  C   UNL A   1      44.953  35.899  28.607  1.00  0.00     0.198 A 
ATOM     67  C   UNL A   1      45.807  35.179  30.731  1.00  0.00     0.198 A 
ATOM     68  F   UNL A   1      45.624  32.925  31.373  1.00  0.00    -0.203 F 
ATOM     69  F   UNL A   1      44.776  36.865  27.694  1.00  0.00    -0.200 F 
ATOM     70  C   UNL A   1      45.597  36.187  29.801  1.00  0.00     0.200 A 
ATOM     71  F   UNL A   1      46.416  35.457  31.892  1.00  0.00    -0.200 F 
ATOM     72  F   UNL A   1      46.021  37.432  30.054  1.00  0.00    -0.200 F 
ENDBRANCH  48  62
BRANCH  49  73
ATOM     73  C   UNL A   1      41.081  24.404  27.584  1.00  0.00     0.064 A 
ATOM     74  C   UNL A   1      41.611  23.267  28.209  1.00  0.00     0.173 A 
ATOM     75  C   UNL A   1      40.031  24.215  26.672  1.00  0.00     0.173 A 
ATOM     76  F   UNL A   1      42.630  23.391  29.072  1.00  0.00    -0.203 F 
ATOM     77  C   UNL A   1      41.128  21.993  27.916  1.00  0.00     0.198 A 
ATOM     78  C   UNL A   1      39.528  22.945  26.404  1.00  0.00     0.198 A 
ATOM     79  F   UNL A   1      39.488  25.269  26.046  1.00  0.00    -0.203 F 
ATOM     80  F   UNL A   1      41.689  20.919  28.489  1.00  0.00    -0.200 F 
ATOM     81  C   UNL A   1      40.084  21.833  27.019  1.00  0.00     0.200 A 
ATOM     82  F   UNL A   1      38.509  22.797  25.547  1.00  0.00    -0.200 F 
ATOM     83  F   UNL A   1      39.619  20.608  26.739  1.00  0.00    -0.200 F 
ENDBRANCH  49  73
BRANCH  61  84
ATOM     84  C   UNL A   1      47.167  27.514  26.185  1.00  0.00     0.064 A 
ATOM     85  C   UNL A   1      48.233  26.998  26.935  1.00  0.00     0.173 A 
ATOM     86  C   UNL A   1      47.295  27.529  24.787  1.00  0.00     0.173 A 
ATOM     87  F   UNL A   1      48.168  26.971  28.275  1.00  0.00    -0.203 F 
ATOM     88  C   UNL A   1      49.395  26.547  26.312  1.00  0.00     0.198 A 
ATOM     89  C   UNL A   1      48.442  27.044  24.165  1.00  0.00     0.198 A 
ATOM     90  F   UNL A   1      46.301  28.003  24.021  1.00  0.00    -0.203 F 
ATOM     91  F   UNL A   1      50.423  26.112  27.051  1.00  0.00    -0.200 F 
ATOM     92  C   UNL A   1      49.494  26.564  24.929  1.00  0.00     0.200 A 
ATOM     93  F   UNL A   1      48.528  27.044  22.829  1.00  0.00    -0.200 F 
ATOM     94  F   UNL A   1      50.610  26.122  24.331  1.00  0.00    -0.200 F 
ENDBRANCH  61  84
ENDBRANCH  35  36
ENDBRANCH  28  30
ENDBRANCH  27  28
ENDBRANCH  26  27
ENDBRANCH  25  26
ENDBRANCH  24  25
ENDBRANCH   1  24
TORSDOF 17
ENDMDL
MODEL 2
REMARK VINA RESULT:     -11.2      4.983     11.118
REMARK SMILES O=C1CN(S(=O)(=O)c2ccc(CC(=O)OCCOCCOC(=O)c3ccc(-c4c5nc(c(-c6c(F)c(F)c(F)c(F)c6F)c6ccc([nH]6)c(-c6c(F)c(F)c(F)c(F)c6F)c6nc(c(-c7c(F)c(F)c(F)c(F)c7F)c7ccc4[nH]7)C=C6)C=C5)cc3)cc2)CCN1
REMARK SMILES IDX 17 1 16 2 15 3 13 4 14 5 12 6 11 7 8 8 9 9 88 10 10 11 87 12
REMARK SMILES IDX 5 13 6 14 7 15 4 16 1 17 2 18 3 19 91 20 90 21 89 23 18 24
REMARK SMILES IDX 19 25 20 26 21 27 22 28 23 29 24 30 25 31 86 32 26 33 85 34
REMARK SMILES IDX 27 35 28 36 29 37 79 38 30 39 84 40 78 41 80 42 31 43 83 44
REMARK SMILES IDX 77 45 76 46 32 48 64 49 44 50 63 51 45 52 48 53 62 54 81 55
REMARK SMILES IDX 46 56 47 57 61 59 82 60 49 61 33 62 34 63 42 64 35 65 36 66
REMARK SMILES IDX 40 67 43 68 37 69 38 70 41 71 39 72 65 73 66 74 74 75 67 76
REMARK SMILES IDX 68 77 72 78 75 79 69 80 70 81 73 82 71 83 50 84 51 85 59 86
REMARK SMILES IDX 52 87 53 88 57 89 60 90 54 91 55 92 58 93 56 94
REMARK H PARENT 91 22 80 47 48 58
REMARK Flexibility Score: inf
ROOT
ATOM      1  C   UNL A   1      44.348  18.921  24.930  1.00  0.00     0.202 C 
ENDROOT
BRANCH   1   2
ATOM      2  C   UNL A   1      45.063  20.117  24.292  1.00  0.00     0.261 C 
BRANCH   2   3
ATOM      3  O   UNL A   1      44.217  21.274  24.147  1.00  0.00    -0.463 OA
BRANCH   3   4
ATOM      4  C   UNL A   1      44.723  22.430  24.652  1.00  0.00     0.310 C 
ATOM      5  O   UNL A   1      44.367  23.552  24.303  1.00  0.00    -0.252 OA
BRANCH   4   6
ATOM      6  C   UNL A   1      45.807  22.248  25.691  1.00  0.00     0.158 C 
BRANCH   6   7
ATOM      7  C   UNL A   1      45.858  23.184  26.880  1.00  0.00    -0.037 A 
ATOM      8  C   UNL A   1      46.008  24.823  29.160  1.00  0.00     0.082 A 
ATOM      9  C   UNL A   1      46.998  24.908  28.179  1.00  0.00     0.022 A 
ATOM     10  C   UNL A   1      44.931  23.944  28.994  1.00  0.00     0.022 A 
ATOM     11  C   UNL A   1      46.922  24.087  27.047  1.00  0.00     0.006 A 
ATOM     12  C   UNL A   1      44.865  23.122  27.866  1.00  0.00     0.006 A 
BRANCH   8  13
ATOM     13  S   UNL A   1      45.989  25.972  30.518  1.00  0.00     0.243 S 
ATOM     14  O   UNL A   1      46.001  27.304  29.946  1.00  0.00    -0.207 OA
ATOM     15  O   UNL A   1      47.025  25.574  31.446  1.00  0.00    -0.207 OA
BRANCH  13  16
ATOM     16  N   UNL A   1      44.493  25.737  31.314  1.00  0.00    -0.187 NA
ATOM     17  O   UNL A   1      43.100  29.104  31.183  1.00  0.00    -0.274 OA
ATOM     18  C   UNL A   1      43.586  28.081  31.661  1.00  0.00     0.235 C 
ATOM     19  C   UNL A   1      43.414  26.719  31.004  1.00  0.00     0.202 C 
ATOM     20  N   UNL A   1      44.212  28.111  32.881  1.00  0.00    -0.354 N 
ATOM     21  C   UNL A   1      44.977  27.003  33.429  1.00  0.00     0.132 C 
ATOM     22  H   UNL A   1      44.137  28.932  33.420  1.00  0.00     0.163 HD
ATOM     23  C   UNL A   1      44.625  25.641  32.810  1.00  0.00     0.124 C 
ENDBRANCH  13  16
ENDBRANCH   8  13
ENDBRANCH   6   7
ENDBRANCH   4   6
ENDBRANCH   3   4
ENDBRANCH   2   3
ENDBRANCH   1   2
BRANCH   1  24
ATOM     24  O   UNL A   1      43.667  19.130  26.163  1.00  0.00    -0.374 OA
BRANCH  24  25
ATOM     25  C   UNL A   1      42.249  19.278  26.129  1.00  0.00     0.202 C 
BRANCH  25  26
ATOM     26  C   UNL A   1      41.671  20.699  26.100  1.00  0.00     0.261 C 
BRANCH  26  27
ATOM     27  O   UNL A   1      40.499  20.856  26.915  1.00  0.00    -0.460 OA
BRANCH  27  28
ATOM     28  C   UNL A   1      39.641  21.807  26.471  1.00  0.00     0.338 C 
ATOM     29  O   UNL A   1      38.636  21.644  25.798  1.00  0.00    -0.246 OA
BRANCH  28  30
ATOM     30  C   UNL A   1      39.971  23.116  27.063  1.00  0.00     0.060 A 
ATOM     31  C   UNL A   1      39.358  24.244  26.500  1.00  0.00     0.016 A 
ATOM     32  C   UNL A   1      40.932  23.253  28.065  1.00  0.00     0.016 A 
ATOM     33  C   UNL A   1      39.762  25.520  26.882  1.00  0.00     0.010 A 
ATOM     34  C   UNL A   1      41.339  24.536  28.447  1.00  0.00     0.010 A 
ATOM     35  C   UNL A   1      40.791  25.672  27.820  1.00  0.00    -0.014 A 
BRANCH  35  36
ATOM     36  C   UNL A   1      41.406  27.009  28.005  1.00  0.00     0.031 A 
ATOM     37  C   UNL A   1      42.780  27.259  27.445  1.00  0.00     0.074 A 
ATOM     38  C   UNL A   1      40.729  27.999  28.612  1.00  0.00     0.049 A 
ATOM     39  N   UNL A   1      43.516  28.340  27.494  1.00  0.00    -0.248 NA
ATOM     40  C   UNL A   1      43.410  26.136  26.733  1.00  0.00     0.031 C 
ATOM     41  C   UNL A   1      39.377  27.887  29.153  1.00  0.00     0.029 A 
ATOM     42  N   UNL A   1      41.093  29.296  28.875  1.00  0.00    -0.354 N 
ATOM     43  C   UNL A   1      44.696  28.024  26.831  1.00  0.00     0.074 A 
ATOM     44  C   UNL A   1      44.594  26.641  26.419  1.00  0.00     0.031 C 
ATOM     45  C   UNL A   1      39.025  29.066  29.692  1.00  0.00     0.029 A 
ATOM     46  C   UNL A   1      40.138  30.004  29.563  1.00  0.00     0.049 A 
ATOM     47  H   UNL A   1      41.955  29.682  28.598  1.00  0.00     0.167 HD
ATOM     48  C   UNL A   1      45.763  28.819  26.581  1.00  0.00     0.037 A 
ATOM     49  C   UNL A   1      40.174  31.260  30.048  1.00  0.00     0.037 A 
ATOM     50  C   UNL A   1      45.856  30.196  26.993  1.00  0.00     0.049 A 
ATOM     51  C   UNL A   1      41.400  32.105  29.813  1.00  0.00     0.074 A 
ATOM     52  C   UNL A   1      46.886  31.095  26.778  1.00  0.00     0.029 A 
ATOM     53  N   UNL A   1      44.880  30.872  27.712  1.00  0.00    -0.354 N 
ATOM     54  N   UNL A   1      42.502  31.807  29.167  1.00  0.00    -0.248 NA
ATOM     55  C   UNL A   1      41.381  33.465  30.368  1.00  0.00     0.031 C 
ATOM     56  C   UNL A   1      46.560  32.294  27.419  1.00  0.00     0.029 A 
ATOM     57  C   UNL A   1      45.296  32.168  27.972  1.00  0.00     0.049 A 
ATOM     58  H   UNL A   1      44.020  30.487  27.997  1.00  0.00     0.167 HD
ATOM     59  C   UNL A   1      43.289  32.951  29.204  1.00  0.00     0.074 A 
ATOM     60  C   UNL A   1      42.533  33.952  29.928  1.00  0.00     0.031 C 
ATOM     61  C   UNL A   1      44.524  33.157  28.682  1.00  0.00     0.037 A 
BRANCH  48  62
ATOM     62  C   UNL A   1      46.929  28.211  25.855  1.00  0.00     0.064 A 
ATOM     63  C   UNL A   1      46.917  28.012  24.466  1.00  0.00     0.173 A 
ATOM     64  C   UNL A   1      48.091  27.851  26.557  1.00  0.00     0.173 A 
ATOM     65  F   UNL A   1      45.828  28.327  23.748  1.00  0.00    -0.203 F 
ATOM     66  C   UNL A   1      48.010  27.447  23.813  1.00  0.00     0.198 A 
ATOM     67  C   UNL A   1      49.194  27.318  25.897  1.00  0.00     0.198 A 
ATOM     68  F   UNL A   1      48.160  28.024  27.886  1.00  0.00    -0.203 F 
ATOM     69  F   UNL A   1      47.955  27.217  22.493  1.00  0.00    -0.200 F 
ATOM     70  C   UNL A   1      49.150  27.108  24.526  1.00  0.00     0.200 A 
ATOM     71  F   UNL A   1      50.299  27.005  26.586  1.00  0.00    -0.200 F 
ATOM     72  F   UNL A   1      50.204  26.573  23.895  1.00  0.00    -0.200 F 
ENDBRANCH  48  62
BRANCH  49  73
ATOM     73  C   UNL A   1      39.014  31.794  30.811  1.00  0.00     0.064 A 
ATOM     74  C   UNL A   1      38.012  32.543  30.179  1.00  0.00     0.173 A 
ATOM     75  C   UNL A   1      38.893  31.581  32.193  1.00  0.00     0.173 A 
ATOM     76  F   UNL A   1      38.093  32.794  28.864  1.00  0.00    -0.203 F 
ATOM     77  C   UNL A   1      36.947  33.077  30.902  1.00  0.00     0.198 A 
ATOM     78  C   UNL A   1      37.811  32.088  32.909  1.00  0.00     0.198 A 
ATOM     79  F   UNL A   1      39.824  30.872  32.848  1.00  0.00    -0.203 F 
ATOM     80  F   UNL A   1      36.032  33.834  30.281  1.00  0.00    -0.200 F 
ATOM     81  C   UNL A   1      36.844  32.844  32.264  1.00  0.00     0.200 A 
ATOM     82  F   UNL A   1      37.709  31.848  34.223  1.00  0.00    -0.200 F 
ATOM     83  F   UNL A   1      35.818  33.356  32.958  1.00  0.00    -0.200 F 
ENDBRANCH  49  73
BRANCH  61  84
ATOM     84  C   UNL A   1      45.114  34.533  28.821  1.00  0.00     0.064 A 
ATOM     85  C   UNL A   1      44.890  35.538  27.871  1.00  0.00     0.173 A 
ATOM     86  C   UNL A   1      45.887  34.857  29.948  1.00  0.00     0.173 A 
ATOM     87  F   UNL A   1      44.169  35.279  26.769  1.00  0.00    -0.203 F 
ATOM     88  C   UNL A   1      45.445  36.807  28.025  1.00  0.00     0.198 A 
ATOM     89  C   UNL A   1      46.409  36.135  30.118  1.00  0.00     0.198 A 
ATOM     90  F   UNL A   1      46.124  33.935  30.894  1.00  0.00    -0.203 F 
ATOM     91  F   UNL A   1      45.265  37.734  27.076  1.00  0.00    -0.200 F 
ATOM     92  C   UNL A   1      46.197  37.106  29.151  1.00  0.00     0.200 A 
ATOM     93  F   UNL A   1      47.119  36.427  31.216  1.00  0.00    -0.200 F 
ATOM     94  F   UNL A   1      46.723  38.329  29.302  1.00  0.00    -0.200 F 
ENDBRANCH  61  84
ENDBRANCH  35  36
ENDBRANCH  28  30
ENDBRANCH  27  28
ENDBRANCH  26  27
ENDBRANCH  25  26
ENDBRANCH  24  25
ENDBRANCH   1  24
TORSDOF 17
ENDMDL
MODEL 3
REMARK VINA RESULT:     -11.2      5.038      7.329
REMARK SMILES O=C1CN(S(=O)(=O)c2ccc(CC(=O)OCCOCCOC(=O)c3ccc(-c4c5nc(c(-c6c(F)c(F)c(F)c(F)c6F)c6ccc([nH]6)c(-c6c(F)c(F)c(F)c(F)c6F)c6nc(c(-c7c(F)c(F)c(F)c(F)c7F)c7ccc4[nH]7)C=C6)C=C5)cc3)cc2)CCN1
REMARK SMILES IDX 17 1 16 2 15 3 13 4 14 5 12 6 11 7 8 8 9 9 88 10 10 11 87 12
REMARK SMILES IDX 5 13 6 14 7 15 4 16 1 17 2 18 3 19 91 20 90 21 89 23 18 24
REMARK SMILES IDX 19 25 20 26 21 27 22 28 23 29 24 30 25 31 86 32 26 33 85 34
REMARK SMILES IDX 27 35 28 36 29 37 79 38 30 39 84 40 78 41 80 42 31 43 83 44
REMARK SMILES IDX 77 45 76 46 32 48 64 49 44 50 63 51 45 52 48 53 62 54 81 55
REMARK SMILES IDX 46 56 47 57 61 59 82 60 49 61 33 62 34 63 42 64 35 65 36 66
REMARK SMILES IDX 40 67 43 68 37 69 38 70 41 71 39 72 65 73 66 74 74 75 67 76
REMARK SMILES IDX 68 77 72 78 75 79 69 80 70 81 73 82 71 83 50 84 51 85 59 86
REMARK SMILES IDX 52 87 53 88 57 89 60 90 54 91 55 92 58 93 56 94
REMARK H PARENT 91 22 80 47 48 58
REMARK Flexibility Score: inf
ROOT
ATOM      1  C   UNL A   1      34.615  32.419  29.039  1.00  0.00     0.202 C 
ENDROOT
BRANCH   1   2
ATOM      2  C   UNL A   1      34.214  31.737  27.726  1.00  0.00     0.261 C 
BRANCH   2   3
ATOM      3  O   UNL A   1      33.879  30.345  27.887  1.00  0.00    -0.463 OA
BRANCH   3   4
ATOM      4  C   UNL A   1      32.974  29.859  26.996  1.00  0.00     0.310 C 
ATOM      5  O   UNL A   1      31.788  29.668  27.249  1.00  0.00    -0.252 OA
BRANCH   4   6
ATOM      6  C   UNL A   1      33.540  29.532  25.633  1.00  0.00     0.158 C 
BRANCH   6   7
ATOM      7  C   UNL A   1      33.614  28.086  25.189  1.00  0.00    -0.037 A 
ATOM      8  C   UNL A   1      33.621  25.390  24.391  1.00  0.00     0.082 A 
ATOM      9  C   UNL A   1      33.541  26.397  23.428  1.00  0.00     0.022 A 
ATOM     10  C   UNL A   1      33.726  25.723  25.747  1.00  0.00     0.022 A 
ATOM     11  C   UNL A   1      33.534  27.739  23.829  1.00  0.00     0.006 A 
ATOM     12  C   UNL A   1      33.710  27.063  26.142  1.00  0.00     0.006 A 
BRANCH   8  13
ATOM     13  S   UNL A   1      33.807  23.690  23.899  1.00  0.00     0.243 S 
ATOM     14  O   UNL A   1      34.440  22.995  25.003  1.00  0.00    -0.207 OA
ATOM     15  O   UNL A   1      34.420  23.676  22.589  1.00  0.00    -0.207 OA
BRANCH  13  16
ATOM     16  N   UNL A   1      32.220  23.078  23.711  1.00  0.00    -0.187 NA
ATOM     17  O   UNL A   1      30.963  23.346  27.123  1.00  0.00    -0.274 OA
ATOM     18  C   UNL A   1      31.356  22.822  26.082  1.00  0.00     0.235 C 
ATOM     19  C   UNL A   1      31.218  23.505  24.729  1.00  0.00     0.202 C 
ATOM     20  N   UNL A   1      31.834  21.537  26.087  1.00  0.00    -0.354 N 
ATOM     21  C   UNL A   1      32.493  20.911  24.952  1.00  0.00     0.132 C 
ATOM     22  H   UNL A   1      31.723  21.005  26.908  1.00  0.00     0.163 HD
ATOM     23  C   UNL A   1      32.171  21.577  23.605  1.00  0.00     0.124 C 
ENDBRANCH  13  16
ENDBRANCH   8  13
ENDBRANCH   6   7
ENDBRANCH   4   6
ENDBRANCH   3   4
ENDBRANCH   2   3
ENDBRANCH   1   2
BRANCH   1  24
ATOM     24  O   UNL A   1      34.946  33.804  28.998  1.00  0.00    -0.374 OA
BRANCH  24  25
ATOM     25  C   UNL A   1      34.055  34.687  28.321  1.00  0.00     0.202 C 
BRANCH  25  26
ATOM     26  C   UNL A   1      33.162  35.603  29.169  1.00  0.00     0.261 C 
BRANCH  26  27
ATOM     27  O   UNL A   1      32.606  34.951  30.321  1.00  0.00    -0.460 OA
BRANCH  27  28
ATOM     28  C   UNL A   1      32.839  35.598  31.489  1.00  0.00     0.338 C 
ATOM     29  O   UNL A   1      32.188  36.508  31.975  1.00  0.00    -0.246 OA
BRANCH  28  30
ATOM     30  C   UNL A   1      33.923  34.937  32.238  1.00  0.00     0.060 A 
ATOM     31  C   UNL A   1      35.138  35.628  32.346  1.00  0.00     0.016 A 
ATOM     32  C   UNL A   1      33.797  33.636  32.727  1.00  0.00     0.016 A 
ATOM     33  C   UNL A   1      36.257  34.991  32.874  1.00  0.00     0.010 A 
ATOM     34  C   UNL A   1      34.923  32.996  33.255  1.00  0.00     0.010 A 
ATOM     35  C   UNL A   1      36.168  33.654  33.284  1.00  0.00    -0.014 A 
BRANCH  35  36
ATOM     36  C   UNL A   1      37.414  32.904  33.570  1.00  0.00     0.031 A 
ATOM     37  C   UNL A   1      38.139  33.168  34.862  1.00  0.00     0.074 A 
ATOM     38  C   UNL A   1      37.862  31.964  32.719  1.00  0.00     0.049 A 
ATOM     39  N   UNL A   1      39.248  32.642  35.318  1.00  0.00    -0.248 NA
ATOM     40  C   UNL A   1      37.532  34.161  35.761  1.00  0.00     0.031 C 
ATOM     41  C   UNL A   1      37.219  31.591  31.462  1.00  0.00     0.029 A 
ATOM     42  N   UNL A   1      38.967  31.153  32.788  1.00  0.00    -0.354 N 
ATOM     43  C   UNL A   1      39.475  33.246  36.549  1.00  0.00     0.074 A 
ATOM     44  C   UNL A   1      38.409  34.204  36.753  1.00  0.00     0.031 C 
ATOM     45  C   UNL A   1      37.946  30.627  30.870  1.00  0.00     0.029 A 
ATOM     46  C   UNL A   1      39.120  30.340  31.692  1.00  0.00     0.049 A 
ATOM     47  H   UNL A   1      39.591  31.154  33.550  1.00  0.00     0.167 HD
ATOM     48  C   UNL A   1      40.475  33.016  37.431  1.00  0.00     0.037 A 
ATOM     49  C   UNL A   1      40.109  29.480  31.383  1.00  0.00     0.037 A 
ATOM     50  C   UNL A   1      41.531  32.059  37.221  1.00  0.00     0.049 A 
ATOM     51  C   UNL A   1      41.247  29.288  32.353  1.00  0.00     0.074 A 
ATOM     52  C   UNL A   1      42.585  31.737  38.057  1.00  0.00     0.029 A 
ATOM     53  N   UNL A   1      41.668  31.273  36.085  1.00  0.00    -0.354 N 
ATOM     54  N   UNL A   1      41.442  29.846  33.524  1.00  0.00    -0.248 NA
ATOM     55  C   UNL A   1      42.296  28.338  31.961  1.00  0.00     0.031 C 
ATOM     56  C   UNL A   1      43.392  30.802  37.403  1.00  0.00     0.029 A 
ATOM     57  C   UNL A   1      42.804  30.486  36.189  1.00  0.00     0.049 A 
ATOM     58  H   UNL A   1      41.049  31.274  35.319  1.00  0.00     0.167 HD
ATOM     59  C   UNL A   1      42.613  29.289  34.024  1.00  0.00     0.074 A 
ATOM     60  C   UNL A   1      43.077  28.340  33.032  1.00  0.00     0.031 C 
ATOM     61  C   UNL A   1      43.244  29.536  35.199  1.00  0.00     0.037 A 
BRANCH  48  62
ATOM     62  C   UNL A   1      40.495  33.834  38.691  1.00  0.00     0.064 A 
ATOM     63  C   UNL A   1      39.791  33.443  39.841  1.00  0.00     0.173 A 
ATOM     64  C   UNL A   1      41.254  35.013  38.758  1.00  0.00     0.173 A 
ATOM     65  F   UNL A   1      39.040  32.332  39.828  1.00  0.00    -0.203 F 
ATOM     66  C   UNL A   1      39.824  34.217  40.999  1.00  0.00     0.198 A 
ATOM     67  C   UNL A   1      41.311  35.766  39.927  1.00  0.00     0.198 A 
ATOM     68  F   UNL A   1      41.950  35.432  37.690  1.00  0.00    -0.203 F 
ATOM     69  F   UNL A   1      39.102  33.851  42.068  1.00  0.00    -0.200 F 
ATOM     70  C   UNL A   1      40.589  35.372  41.045  1.00  0.00     0.200 A 
ATOM     71  F   UNL A   1      42.063  36.874  39.974  1.00  0.00    -0.200 F 
ATOM     72  F   UNL A   1      40.627  36.111  42.162  1.00  0.00    -0.200 F 
ENDBRANCH  48  62
BRANCH  49  73
ATOM     73  C   UNL A   1      40.071  28.737  30.095  1.00  0.00     0.064 A 
ATOM     74  C   UNL A   1      39.455  27.481  29.999  1.00  0.00     0.173 A 
ATOM     75  C   UNL A   1      40.666  29.260  28.937  1.00  0.00     0.173 A 
ATOM     76  F   UNL A   1      38.892  26.927  31.083  1.00  0.00    -0.203 F 
ATOM     77  C   UNL A   1      39.456  26.768  28.802  1.00  0.00     0.198 A 
ATOM     78  C   UNL A   1      40.637  28.561  27.733  1.00  0.00     0.198 A 
ATOM     79  F   UNL A   1      41.269  30.457  28.973  1.00  0.00    -0.203 F 
ATOM     80  F   UNL A   1      38.906  25.547  28.752  1.00  0.00    -0.200 F 
ATOM     81  C   UNL A   1      40.041  27.311  27.668  1.00  0.00     0.200 A 
ATOM     82  F   UNL A   1      41.192  29.096  26.637  1.00  0.00    -0.200 F 
ATOM     83  F   UNL A   1      40.039  26.626  26.517  1.00  0.00    -0.200 F 
ENDBRANCH  49  73
BRANCH  61  84
ATOM     84  C   UNL A   1      44.473  28.727  35.507  1.00  0.00     0.064 A 
ATOM     85  C   UNL A   1      44.407  27.498  36.178  1.00  0.00     0.173 A 
ATOM     86  C   UNL A   1      45.736  29.177  35.088  1.00  0.00     0.173 A 
ATOM     87  F   UNL A   1      43.227  27.027  36.611  1.00  0.00    -0.203 F 
ATOM     88  C   UNL A   1      45.561  26.766  36.448  1.00  0.00     0.198 A 
ATOM     89  C   UNL A   1      46.883  28.426  35.327  1.00  0.00     0.198 A 
ATOM     90  F   UNL A   1      45.855  30.342  34.432  1.00  0.00    -0.203 F 
ATOM     91  F   UNL A   1      45.479  25.623  37.141  1.00  0.00    -0.200 F 
ATOM     92  C   UNL A   1      46.795  27.227  36.016  1.00  0.00     0.200 A 
ATOM     93  F   UNL A   1      48.071  28.864  34.892  1.00  0.00    -0.200 F 
ATOM     94  F   UNL A   1      47.904  26.517  36.270  1.00  0.00    -0.200 F 
ENDBRANCH  61  84
ENDBRANCH  35  36
ENDBRANCH  28  30
ENDBRANCH  27  28
ENDBRANCH  26  27
ENDBRANCH  25  26
ENDBRANCH  24  25
ENDBRANCH   1  24
TORSDOF 17
ENDMDL
