MODEL 1
REMARK VINA RESULT:     -10.7      0.000      0.000
REMARK SMILES CC(C)[C@@H]1CCCN1C(=O)N1CCO[C@H](CC(=O)OCCOCCOC(=O)c2ccc(-c3c4nc(c(-c5c(F)c(F)c(F)c(F)c5F)c5ccc([nH]5)c(-c5c(F)c(F)c(F)c(F)c5F)c5nc(c(-c6c(F)c(F)c(F)c(F)c6F)c6ccc3[nH]6)C=C5)C=C4)cc2)C1
REMARK SMILES IDX 21 1 20 2 19 3 17 4 18 5 16 6 15 7 11 8 12 9 91 10 13 11
REMARK SMILES IDX 14 12 9 13 10 14 8 15 4 16 5 17 6 18 7 19 2 20 1 21 3 22
REMARK SMILES IDX 22 23 23 24 24 25 25 26 26 27 27 28 28 29 29 30 90 31 30 32
REMARK SMILES IDX 89 33 31 34 32 35 33 36 83 37 34 38 88 39 82 40 84 41 35 42
REMARK SMILES IDX 87 43 81 44 80 45 36 47 68 48 48 49 67 50 49 51 52 52 66 53
REMARK SMILES IDX 85 54 50 55 51 56 65 58 86 59 53 60 37 61 38 62 46 63 39 64
REMARK SMILES IDX 40 65 44 66 47 67 41 68 42 69 45 70 43 71 69 72 70 73 78 74
REMARK SMILES IDX 71 75 72 76 76 77 79 78 73 79 74 80 77 81 75 82 54 83 55 84
REMARK SMILES IDX 63 85 56 86 57 87 61 88 64 89 58 90 59 91 62 92 60 93
REMARK H PARENT 84 46 52 57
REMARK Flexibility Score: inf
ROOT
ATOM      1  C   UNL A   1      32.956  29.618  27.253  1.00  0.00     0.202 C 
ENDROOT
BRANCH   1   2
ATOM      2  C   UNL A   1      31.820  28.607  27.108  1.00  0.00     0.261 C 
BRANCH   2   3
ATOM      3  O   UNL A   1      32.058  27.802  25.939  1.00  0.00    -0.463 OA
BRANCH   3   4
ATOM      4  C   UNL A   1      31.153  27.855  24.946  1.00  0.00     0.308 C 
ATOM      5  O   UNL A   1      30.646  28.893  24.533  1.00  0.00    -0.252 OA
BRANCH   4   6
ATOM      6  C   UNL A   1      30.716  26.511  24.415  1.00  0.00     0.156 C 
BRANCH   6   7
ATOM      7  C   UNL A   1      31.086  25.931  23.029  1.00  0.00     0.149 C 
ATOM      8  N   UNL A   1      32.335  23.840  23.280  1.00  0.00    -0.320 N 
ATOM      9  C   UNL A   1      33.081  24.046  22.054  1.00  0.00     0.150 C 
ATOM     10  C   UNL A   1      31.003  24.392  23.120  1.00  0.00     0.154 C 
ATOM     11  C   UNL A   1      33.037  25.520  21.610  1.00  0.00     0.182 C 
ATOM     12  O   UNL A   1      32.329  26.408  22.494  1.00  0.00    -0.374 OA
BRANCH   8  13
ATOM     13  C   UNL A   1      32.443  22.646  23.943  1.00  0.00     0.320 C 
ATOM     14  O   UNL A   1      31.674  21.723  23.667  1.00  0.00    -0.248 OA
BRANCH  13  15
ATOM     15  N   UNL A   1      33.340  22.567  24.991  1.00  0.00    -0.321 N 
ATOM     16  C   UNL A   1      34.800  22.793  25.107  1.00  0.00     0.089 C 
ATOM     17  C   UNL A   1      35.088  22.425  26.574  1.00  0.00     0.027 C 
ATOM     18  C   UNL A   1      33.860  22.924  27.296  1.00  0.00     0.024 C 
ATOM     19  C   UNL A   1      32.743  22.573  26.327  1.00  0.00     0.122 C 
BRANCH  16  20
ATOM     20  C   UNL A   1      35.838  22.044  24.237  1.00  0.00     0.005 C 
ATOM     21  C   UNL A   1      36.604  22.876  23.216  1.00  0.00     0.009 C 
ATOM     22  C   UNL A   1      36.721  21.178  25.112  1.00  0.00     0.009 C 
ENDBRANCH  16  20
ENDBRANCH  13  15
ENDBRANCH   8  13
ENDBRANCH   6   7
ENDBRANCH   4   6
ENDBRANCH   3   4
ENDBRANCH   2   3
ENDBRANCH   1   2
BRANCH   1  23
ATOM     23  O   UNL A   1      32.777  30.795  26.461  1.00  0.00    -0.374 OA
BRANCH  23  24
ATOM     24  C   UNL A   1      31.707  31.656  26.847  1.00  0.00     0.202 C 
BRANCH  24  25
ATOM     25  C   UNL A   1      32.102  33.123  27.019  1.00  0.00     0.261 C 
BRANCH  25  26
ATOM     26  O   UNL A   1      32.518  33.413  28.365  1.00  0.00    -0.460 OA
BRANCH  26  27
ATOM     27  C   UNL A   1      33.652  34.146  28.445  1.00  0.00     0.338 C 
ATOM     28  O   UNL A   1      33.744  35.361  28.486  1.00  0.00    -0.246 OA
BRANCH  27  29
ATOM     29  C   UNL A   1      34.835  33.272  28.566  1.00  0.00     0.060 A 
ATOM     30  C   UNL A   1      34.644  32.031  29.185  1.00  0.00     0.016 A 
ATOM     31  C   UNL A   1      36.119  33.705  28.226  1.00  0.00     0.016 A 
ATOM     32  C   UNL A   1      35.743  31.272  29.571  1.00  0.00     0.010 A 
ATOM     33  C   UNL A   1      37.224  32.933  28.603  1.00  0.00     0.010 A 
ATOM     34  C   UNL A   1      37.040  31.749  29.340  1.00  0.00    -0.014 A 
BRANCH  34  35
ATOM     35  C   UNL A   1      38.175  31.103  30.047  1.00  0.00     0.031 A 
ATOM     36  C   UNL A   1      38.410  31.429  31.499  1.00  0.00     0.074 A 
ATOM     37  C   UNL A   1      38.933  30.179  29.431  1.00  0.00     0.049 A 
ATOM     38  N   UNL A   1      39.318  30.964  32.321  1.00  0.00    -0.248 NA
ATOM     39  C   UNL A   1      37.501  32.412  32.108  1.00  0.00     0.031 C 
ATOM     40  C   UNL A   1      38.777  29.749  28.045  1.00  0.00     0.029 A 
ATOM     41  N   UNL A   1      39.981  29.431  29.904  1.00  0.00    -0.354 N 
ATOM     42  C   UNL A   1      39.093  31.604  33.534  1.00  0.00     0.074 A 
ATOM     43  C   UNL A   1      37.992  32.519  33.333  1.00  0.00     0.031 C 
ATOM     44  C   UNL A   1      39.697  28.806  27.776  1.00  0.00     0.029 A 
ATOM     45  C   UNL A   1      40.523  28.590  28.963  1.00  0.00     0.049 A 
ATOM     46  H   UNL A   1      40.313  29.490  30.829  1.00  0.00     0.167 HD
ATOM     47  C   UNL A   1      39.735  31.431  34.714  1.00  0.00     0.037 A 
ATOM     48  C   UNL A   1      41.574  27.753  29.050  1.00  0.00     0.037 A 
ATOM     49  C   UNL A   1      40.822  30.509  34.918  1.00  0.00     0.049 A 
ATOM     50  C   UNL A   1      42.308  27.620  30.360  1.00  0.00     0.074 A 
ATOM     51  C   UNL A   1      41.527  30.248  36.080  1.00  0.00     0.029 A 
ATOM     52  N   UNL A   1      41.365  29.699  33.931  1.00  0.00    -0.354 N 
ATOM     53  N   UNL A   1      42.073  28.210  31.507  1.00  0.00    -0.248 NA
ATOM     54  C   UNL A   1      43.447  26.692  30.388  1.00  0.00     0.031 C 
ATOM     55  C   UNL A   1      42.532  29.322  35.783  1.00  0.00     0.029 A 
ATOM     56  C   UNL A   1      42.412  28.955  34.452  1.00  0.00     0.049 A 
ATOM     57  H   UNL A   1      41.052  29.658  32.998  1.00  0.00     0.167 HD
ATOM     58  C   UNL A   1      43.009  27.701  32.399  1.00  0.00     0.074 A 
ATOM     59  C   UNL A   1      43.807  26.742  31.662  1.00  0.00     0.031 C 
ATOM     60  C   UNL A   1      43.191  27.997  33.710  1.00  0.00     0.037 A 
BRANCH  47  61
ATOM     61  C   UNL A   1      39.296  32.278  35.876  1.00  0.00     0.064 A 
ATOM     62  C   UNL A   1      38.368  31.818  36.822  1.00  0.00     0.173 A 
ATOM     63  C   UNL A   1      39.841  33.558  36.063  1.00  0.00     0.173 A 
ATOM     64  F   UNL A   1      37.808  30.607  36.684  1.00  0.00    -0.203 F 
ATOM     65  C   UNL A   1      37.981  32.616  37.895  1.00  0.00     0.198 A 
ATOM     66  C   UNL A   1      39.476  34.342  37.155  1.00  0.00     0.198 A 
ATOM     67  F   UNL A   1      40.736  34.048  35.192  1.00  0.00    -0.203 F 
ATOM     68  F   UNL A   1      37.055  32.175  38.758  1.00  0.00    -0.200 F 
ATOM     69  C   UNL A   1      38.541  33.874  38.066  1.00  0.00     0.200 A 
ATOM     70  F   UNL A   1      40.029  35.551  37.326  1.00  0.00    -0.200 F 
ATOM     71  F   UNL A   1      38.173  34.638  39.104  1.00  0.00    -0.200 F 
ENDBRANCH  47  61
BRANCH  48  72
ATOM     72  C   UNL A   1      42.000  26.972  27.858  1.00  0.00     0.064 A 
ATOM     73  C   UNL A   1      42.922  27.492  26.939  1.00  0.00     0.173 A 
ATOM     74  C   UNL A   1      41.476  25.696  27.605  1.00  0.00     0.173 A 
ATOM     75  F   UNL A   1      43.433  28.718  27.126  1.00  0.00    -0.203 F 
ATOM     76  C   UNL A   1      43.285  26.776  25.801  1.00  0.00     0.198 A 
ATOM     77  C   UNL A   1      41.865  24.966  26.484  1.00  0.00     0.198 A 
ATOM     78  F   UNL A   1      40.591  25.151  28.453  1.00  0.00    -0.203 F 
ATOM     79  F   UNL A   1      44.129  27.318  24.913  1.00  0.00    -0.200 F 
ATOM     80  C   UNL A   1      42.762  25.511  25.577  1.00  0.00     0.200 A 
ATOM     81  F   UNL A   1      41.368  23.740  26.280  1.00  0.00    -0.200 F 
ATOM     82  F   UNL A   1      43.115  24.821  24.485  1.00  0.00    -0.200 F 
ENDBRANCH  48  72
BRANCH  60  83
ATOM     83  C   UNL A   1      44.261  27.240  34.448  1.00  0.00     0.064 A 
ATOM     84  C   UNL A   1      45.568  27.732  34.571  1.00  0.00     0.173 A 
ATOM     85  C   UNL A   1      43.962  26.015  35.064  1.00  0.00     0.173 A 
ATOM     86  F   UNL A   1      45.910  28.894  33.993  1.00  0.00    -0.203 F 
ATOM     87  C   UNL A   1      46.546  27.009  35.250  1.00  0.00     0.198 A 
ATOM     88  C   UNL A   1      44.932  25.310  35.771  1.00  0.00     0.198 A 
ATOM     89  F   UNL A   1      42.724  25.502  34.986  1.00  0.00    -0.203 F 
ATOM     90  F   UNL A   1      47.803  27.470  35.302  1.00  0.00    -0.200 F 
ATOM     91  C   UNL A   1      46.226  25.802  35.854  1.00  0.00     0.200 A 
ATOM     92  F   UNL A   1      44.616  24.154  36.369  1.00  0.00    -0.200 F 
ATOM     93  F   UNL A   1      47.167  25.109  36.510  1.00  0.00    -0.200 F 
ENDBRANCH  60  83
ENDBRANCH  34  35
ENDBRANCH  27  29
ENDBRANCH  26  27
ENDBRANCH  25  26
ENDBRANCH  24  25
ENDBRANCH  23  24
ENDBRANCH   1  23
TORSDOF 18
ENDMDL
MODEL 2
REMARK VINA RESULT:     -10.7      5.620     11.393
REMARK SMILES CC(C)[C@@H]1CCCN1C(=O)N1CCO[C@H](CC(=O)OCCOCCOC(=O)c2ccc(-c3c4nc(c(-c5c(F)c(F)c(F)c(F)c5F)c5ccc([nH]5)c(-c5c(F)c(F)c(F)c(F)c5F)c5nc(c(-c6c(F)c(F)c(F)c(F)c6F)c6ccc3[nH]6)C=C5)C=C4)cc2)C1
REMARK SMILES IDX 21 1 20 2 19 3 17 4 18 5 16 6 15 7 11 8 12 9 91 10 13 11
REMARK SMILES IDX 14 12 9 13 10 14 8 15 4 16 5 17 6 18 7 19 2 20 1 21 3 22
REMARK SMILES IDX 22 23 23 24 24 25 25 26 26 27 27 28 28 29 29 30 90 31 30 32
REMARK SMILES IDX 89 33 31 34 32 35 33 36 83 37 34 38 88 39 82 40 84 41 35 42
REMARK SMILES IDX 87 43 81 44 80 45 36 47 68 48 48 49 67 50 49 51 52 52 66 53
REMARK SMILES IDX 85 54 50 55 51 56 65 58 86 59 53 60 37 61 38 62 46 63 39 64
REMARK SMILES IDX 40 65 44 66 47 67 41 68 42 69 45 70 43 71 69 72 70 73 78 74
REMARK SMILES IDX 71 75 72 76 76 77 79 78 73 79 74 80 77 81 75 82 54 83 55 84
REMARK SMILES IDX 63 85 56 86 57 87 61 88 64 89 58 90 59 91 62 92 60 93
REMARK H PARENT 84 46 52 57
REMARK Flexibility Score: inf
ROOT
ATOM      1  C   UNL A   1      43.368  18.139  26.178  1.00  0.00     0.202 C 
ENDROOT
BRANCH   1   2
ATOM      2  C   UNL A   1      44.023  18.827  24.982  1.00  0.00     0.261 C 
BRANCH   2   3
ATOM      3  O   UNL A   1      45.446  18.618  25.044  1.00  0.00    -0.463 OA
BRANCH   3   4
ATOM      4  C   UNL A   1      46.243  19.700  24.990  1.00  0.00     0.308 C 
ATOM      5  O   UNL A   1      47.387  19.690  24.547  1.00  0.00    -0.252 OA
BRANCH   4   6
ATOM      6  C   UNL A   1      45.660  20.947  25.611  1.00  0.00     0.156 C 
BRANCH   6   7
ATOM      7  C   UNL A   1      45.318  22.250  24.852  1.00  0.00     0.149 C 
ATOM      8  N   UNL A   1      45.800  24.206  26.246  1.00  0.00    -0.320 N 
ATOM      9  C   UNL A   1      44.750  24.998  25.635  1.00  0.00     0.150 C 
ATOM     10  C   UNL A   1      46.362  23.318  25.245  1.00  0.00     0.154 C 
ATOM     11  C   UNL A   1      43.726  24.108  24.905  1.00  0.00     0.182 C 
ATOM     12  O   UNL A   1      43.961  22.692  25.003  1.00  0.00    -0.374 OA
BRANCH   8  13
ATOM     13  C   UNL A   1      46.673  24.799  27.118  1.00  0.00     0.320 C 
ATOM     14  O   UNL A   1      46.322  25.017  28.280  1.00  0.00    -0.248 OA
BRANCH  13  15
ATOM     15  N   UNL A   1      47.883  25.244  26.620  1.00  0.00    -0.321 N 
ATOM     16  C   UNL A   1      48.277  26.380  25.755  1.00  0.00     0.089 C 
ATOM     17  C   UNL A   1      49.791  26.163  25.574  1.00  0.00     0.027 C 
ATOM     18  C   UNL A   1      50.221  25.635  26.921  1.00  0.00     0.024 C 
ATOM     19  C   UNL A   1      49.068  24.719  27.298  1.00  0.00     0.122 C 
BRANCH  16  20
ATOM     20  C   UNL A   1      47.679  26.611  24.346  1.00  0.00     0.005 C 
ATOM     21  C   UNL A   1      46.745  27.805  24.186  1.00  0.00     0.009 C 
ATOM     22  C   UNL A   1      48.771  26.539  23.299  1.00  0.00     0.009 C 
ENDBRANCH  16  20
ENDBRANCH  13  15
ENDBRANCH   8  13
ENDBRANCH   6   7
ENDBRANCH   4   6
ENDBRANCH   3   4
ENDBRANCH   2   3
ENDBRANCH   1   2
BRANCH   1  23
ATOM     23  O   UNL A   1      42.525  19.005  26.943  1.00  0.00    -0.374 OA
BRANCH  23  24
ATOM     24  C   UNL A   1      41.847  20.026  26.214  1.00  0.00     0.202 C 
BRANCH  24  25
ATOM     25  C   UNL A   1      41.310  21.171  27.073  1.00  0.00     0.261 C 
BRANCH  25  26
ATOM     26  O   UNL A   1      41.004  22.335  26.286  1.00  0.00    -0.460 OA
BRANCH  26  27
ATOM     27  C   UNL A   1      39.707  22.713  26.342  1.00  0.00     0.338 C 
ATOM     28  O   UNL A   1      38.727  22.027  26.105  1.00  0.00    -0.246 OA
BRANCH  27  29
ATOM     29  C   UNL A   1      39.585  24.102  26.826  1.00  0.00     0.060 A 
ATOM     30  C   UNL A   1      40.272  25.086  26.106  1.00  0.00     0.016 A 
ATOM     31  C   UNL A   1      38.947  24.418  28.029  1.00  0.00     0.016 A 
ATOM     32  C   UNL A   1      40.423  26.360  26.641  1.00  0.00     0.010 A 
ATOM     33  C   UNL A   1      39.089  25.705  28.560  1.00  0.00     0.010 A 
ATOM     34  C   UNL A   1      39.887  26.658  27.901  1.00  0.00    -0.014 A 
BRANCH  34  35
ATOM     35  C   UNL A   1      40.338  27.891  28.595  1.00  0.00     0.031 A 
ATOM     36  C   UNL A   1      41.799  28.043  28.935  1.00  0.00     0.074 A 
ATOM     37  C   UNL A   1      39.479  28.894  28.845  1.00  0.00     0.049 A 
ATOM     38  N   UNL A   1      42.420  29.042  29.512  1.00  0.00    -0.248 NA
ATOM     39  C   UNL A   1      42.677  26.918  28.580  1.00  0.00     0.031 C 
ATOM     40  C   UNL A   1      38.054  28.883  28.525  1.00  0.00     0.029 A 
ATOM     41  N   UNL A   1      39.690  30.123  29.417  1.00  0.00    -0.354 N 
ATOM     42  C   UNL A   1      43.754  28.661  29.594  1.00  0.00     0.074 A 
ATOM     43  C   UNL A   1      43.848  27.325  29.048  1.00  0.00     0.031 C 
ATOM     44  C   UNL A   1      37.515  30.055  28.904  1.00  0.00     0.029 A 
ATOM     45  C   UNL A   1      38.551  30.883  29.519  1.00  0.00     0.049 A 
ATOM     46  H   UNL A   1      40.572  30.430  29.727  1.00  0.00     0.167 HD
ATOM     47  C   UNL A   1      44.809  29.367  30.066  1.00  0.00     0.037 A 
ATOM     48  C   UNL A   1      38.366  32.103  30.058  1.00  0.00     0.037 A 
ATOM     49  C   UNL A   1      44.718  30.702  30.597  1.00  0.00     0.049 A 
ATOM     50  C   UNL A   1      39.547  32.846  30.628  1.00  0.00     0.074 A 
ATOM     51  C   UNL A   1      45.732  31.510  31.083  1.00  0.00     0.029 A 
ATOM     52  N   UNL A   1      43.540  31.426  30.713  1.00  0.00    -0.354 N 
ATOM     53  N   UNL A   1      40.808  32.488  30.680  1.00  0.00    -0.248 NA
ATOM     54  C   UNL A   1      39.279  34.171  31.204  1.00  0.00     0.031 C 
ATOM     55  C   UNL A   1      45.159  32.699  31.546  1.00  0.00     0.029 A 
ATOM     56  C   UNL A   1      43.798  32.662  31.287  1.00  0.00     0.049 A 
ATOM     57  H   UNL A   1      42.652  31.110  30.430  1.00  0.00     0.167 HD
ATOM     58  C   UNL A   1      41.486  33.553  31.259  1.00  0.00     0.074 A 
ATOM     59  C   UNL A   1      40.498  34.577  31.529  1.00  0.00     0.031 C 
ATOM     60  C   UNL A   1      42.808  33.675  31.540  1.00  0.00     0.037 A 
BRANCH  47  61
ATOM     61  C   UNL A   1      46.155  28.698  30.056  1.00  0.00     0.064 A 
ATOM     62  C   UNL A   1      46.537  27.782  31.048  1.00  0.00     0.173 A 
ATOM     63  C   UNL A   1      47.064  28.954  29.018  1.00  0.00     0.173 A 
ATOM     64  F   UNL A   1      45.711  27.511  32.070  1.00  0.00    -0.203 F 
ATOM     65  C   UNL A   1      47.786  27.168  31.016  1.00  0.00     0.198 A 
ATOM     66  C   UNL A   1      48.301  28.314  28.970  1.00  0.00     0.198 A 
ATOM     67  F   UNL A   1      46.751  29.818  28.041  1.00  0.00    -0.203 F 
ATOM     68  F   UNL A   1      48.148  26.334  32.001  1.00  0.00    -0.200 F 
ATOM     69  C   UNL A   1      48.663  27.427  29.974  1.00  0.00     0.200 A 
ATOM     70  F   UNL A   1      49.141  28.556  27.955  1.00  0.00    -0.200 F 
ATOM     71  F   UNL A   1      49.863  26.829  29.940  1.00  0.00    -0.200 F 
ENDBRANCH  47  61
BRANCH  48  72
ATOM     72  C   UNL A   1      37.006  32.702  30.088  1.00  0.00     0.064 A 
ATOM     73  C   UNL A   1      36.551  33.527  29.050  1.00  0.00     0.173 A 
ATOM     74  C   UNL A   1      36.139  32.476  31.167  1.00  0.00     0.173 A 
ATOM     75  F   UNL A   1      37.352  33.792  28.007  1.00  0.00    -0.203 F 
ATOM     76  C   UNL A   1      35.293  34.122  29.101  1.00  0.00     0.198 A 
ATOM     77  C   UNL A   1      34.868  33.044  31.202  1.00  0.00     0.198 A 
ATOM     78  F   UNL A   1      36.524  31.693  32.187  1.00  0.00    -0.203 F 
ATOM     79  F   UNL A   1      34.904  34.948  28.121  1.00  0.00    -0.200 F 
ATOM     80  C   UNL A   1      34.449  33.875  30.174  1.00  0.00     0.200 A 
ATOM     81  F   UNL A   1      34.052  32.791  32.234  1.00  0.00    -0.200 F 
ATOM     82  F   UNL A   1      33.237  34.444  30.222  1.00  0.00    -0.200 F 
ENDBRANCH  48  72
BRANCH  60  83
ATOM     83  C   UNL A   1      43.272  34.980  32.125  1.00  0.00     0.064 A 
ATOM     84  C   UNL A   1      43.652  36.063  31.318  1.00  0.00     0.173 A 
ATOM     85  C   UNL A   1      43.310  35.157  33.517  1.00  0.00     0.173 A 
ATOM     86  F   UNL A   1      43.644  35.944  29.982  1.00  0.00    -0.203 F 
ATOM     87  C   UNL A   1      44.089  37.259  31.882  1.00  0.00     0.198 A 
ATOM     88  C   UNL A   1      43.714  36.366  34.078  1.00  0.00     0.198 A 
ATOM     89  F   UNL A   1      42.948  34.158  34.337  1.00  0.00    -0.203 F 
ATOM     90  F   UNL A   1      44.505  38.258  31.091  1.00  0.00    -0.200 F 
ATOM     91  C   UNL A   1      44.114  37.412  33.260  1.00  0.00     0.200 A 
ATOM     92  F   UNL A   1      43.720  36.516  35.409  1.00  0.00    -0.200 F 
ATOM     93  F   UNL A   1      44.531  38.565  33.800  1.00  0.00    -0.200 F 
ENDBRANCH  60  83
ENDBRANCH  34  35
ENDBRANCH  27  29
ENDBRANCH  26  27
ENDBRANCH  25  26
ENDBRANCH  24  25
ENDBRANCH  23  24
ENDBRANCH   1  23
TORSDOF 18
ENDMDL
MODEL 3
REMARK VINA RESULT:     -10.7      0.750      2.095
REMARK SMILES CC(C)[C@@H]1CCCN1C(=O)N1CCO[C@H](CC(=O)OCCOCCOC(=O)c2ccc(-c3c4nc(c(-c5c(F)c(F)c(F)c(F)c5F)c5ccc([nH]5)c(-c5c(F)c(F)c(F)c(F)c5F)c5nc(c(-c6c(F)c(F)c(F)c(F)c6F)c6ccc3[nH]6)C=C5)C=C4)cc2)C1
REMARK SMILES IDX 21 1 20 2 19 3 17 4 18 5 16 6 15 7 11 8 12 9 91 10 13 11
REMARK SMILES IDX 14 12 9 13 10 14 8 15 4 16 5 17 6 18 7 19 2 20 1 21 3 22
REMARK SMILES IDX 22 23 23 24 24 25 25 26 26 27 27 28 28 29 29 30 90 31 30 32
REMARK SMILES IDX 89 33 31 34 32 35 33 36 83 37 34 38 88 39 82 40 84 41 35 42
REMARK SMILES IDX 87 43 81 44 80 45 36 47 68 48 48 49 67 50 49 51 52 52 66 53
REMARK SMILES IDX 85 54 50 55 51 56 65 58 86 59 53 60 37 61 38 62 46 63 39 64
REMARK SMILES IDX 40 65 44 66 47 67 41 68 42 69 45 70 43 71 69 72 70 73 78 74
REMARK SMILES IDX 71 75 72 76 76 77 79 78 73 79 74 80 77 81 75 82 54 83 55 84
REMARK SMILES IDX 63 85 56 86 57 87 61 88 64 89 58 90 59 91 62 92 60 93
REMARK H PARENT 84 46 52 57
REMARK Flexibility Score: inf
ROOT
ATOM      1  C   UNL A   1      32.591  29.212  27.219  1.00  0.00     0.202 C 
ENDROOT
BRANCH   1   2
ATOM      2  C   UNL A   1      31.458  28.328  26.698  1.00  0.00     0.261 C 
BRANCH   2   3
ATOM      3  O   UNL A   1      31.954  27.527  25.609  1.00  0.00    -0.463 OA
BRANCH   3   4
ATOM      4  C   UNL A   1      31.498  27.798  24.373  1.00  0.00     0.308 C 
ATOM      5  O   UNL A   1      31.746  28.832  23.761  1.00  0.00    -0.252 OA
BRANCH   4   6
ATOM      6  C   UNL A   1      30.559  26.763  23.803  1.00  0.00     0.156 C 
BRANCH   6   7
ATOM      7  C   UNL A   1      30.969  25.599  22.869  1.00  0.00     0.149 C 
ATOM      8  N   UNL A   1      32.576  24.127  23.987  1.00  0.00    -0.320 N 
ATOM      9  C   UNL A   1      33.223  23.758  22.742  1.00  0.00     0.150 C 
ATOM     10  C   UNL A   1      31.162  24.337  23.738  1.00  0.00     0.154 C 
ATOM     11  C   UNL A   1      32.902  24.765  21.622  1.00  0.00     0.182 C 
ATOM     12  O   UNL A   1      32.085  25.883  22.014  1.00  0.00    -0.374 OA
BRANCH   8  13
ATOM     13  C   UNL A   1      32.919  23.480  25.144  1.00  0.00     0.320 C 
ATOM     14  O   UNL A   1      32.947  24.104  26.207  1.00  0.00    -0.248 OA
BRANCH  13  15
ATOM     15  N   UNL A   1      33.341  22.168  25.051  1.00  0.00    -0.321 N 
ATOM     16  C   UNL A   1      34.626  21.485  25.331  1.00  0.00     0.089 C 
ATOM     17  C   UNL A   1      34.341  20.033  24.903  1.00  0.00     0.027 C 
ATOM     18  C   UNL A   1      32.903  19.834  25.315  1.00  0.00     0.024 C 
ATOM     19  C   UNL A   1      32.272  21.172  24.966  1.00  0.00     0.122 C 
BRANCH  16  20
ATOM     20  C   UNL A   1      35.961  21.901  24.668  1.00  0.00     0.005 C 
ATOM     21  C   UNL A   1      36.433  23.328  24.916  1.00  0.00     0.009 C 
ATOM     22  C   UNL A   1      37.020  20.849  24.927  1.00  0.00     0.009 C 
ENDBRANCH  16  20
ENDBRANCH  13  15
ENDBRANCH   8  13
ENDBRANCH   6   7
ENDBRANCH   4   6
ENDBRANCH   3   4
ENDBRANCH   2   3
ENDBRANCH   1   2
BRANCH   1  23
ATOM     23  O   UNL A   1      32.739  30.435  26.493  1.00  0.00    -0.374 OA
BRANCH  23  24
ATOM     24  C   UNL A   1      31.673  31.376  26.624  1.00  0.00     0.202 C 
BRANCH  24  25
ATOM     25  C   UNL A   1      32.123  32.815  26.879  1.00  0.00     0.261 C 
BRANCH  25  26
ATOM     26  O   UNL A   1      32.619  32.993  28.218  1.00  0.00    -0.460 OA
BRANCH  26  27
ATOM     27  C   UNL A   1      33.683  33.822  28.305  1.00  0.00     0.338 C 
ATOM     28  O   UNL A   1      33.668  35.040  28.351  1.00  0.00    -0.246 OA
BRANCH  27  29
ATOM     29  C   UNL A   1      34.937  33.054  28.429  1.00  0.00     0.060 A 
ATOM     30  C   UNL A   1      34.821  31.703  28.774  1.00  0.00     0.016 A 
ATOM     31  C   UNL A   1      36.193  33.664  28.360  1.00  0.00     0.016 A 
ATOM     32  C   UNL A   1      35.947  30.987  29.164  1.00  0.00     0.010 A 
ATOM     33  C   UNL A   1      37.328  32.937  28.740  1.00  0.00     0.010 A 
ATOM     34  C   UNL A   1      37.197  31.618  29.211  1.00  0.00    -0.014 A 
BRANCH  34  35
ATOM     35  C   UNL A   1      38.307  30.952  29.940  1.00  0.00     0.031 A 
ATOM     36  C   UNL A   1      38.515  31.269  31.398  1.00  0.00     0.074 A 
ATOM     37  C   UNL A   1      39.064  30.019  29.337  1.00  0.00     0.049 A 
ATOM     38  N   UNL A   1      39.398  30.787  32.237  1.00  0.00    -0.248 NA
ATOM     39  C   UNL A   1      37.609  32.264  31.991  1.00  0.00     0.031 C 
ATOM     40  C   UNL A   1      38.931  29.596  27.945  1.00  0.00     0.029 A 
ATOM     41  N   UNL A   1      40.090  29.253  29.829  1.00  0.00    -0.354 N 
ATOM     42  C   UNL A   1      39.157  31.425  33.448  1.00  0.00     0.074 A 
ATOM     43  C   UNL A   1      38.075  32.358  33.228  1.00  0.00     0.031 C 
ATOM     44  C   UNL A   1      39.842  28.640  27.693  1.00  0.00     0.029 A 
ATOM     45  C   UNL A   1      40.639  28.407  28.896  1.00  0.00     0.049 A 
ATOM     46  H   UNL A   1      40.403  29.304  30.761  1.00  0.00     0.167 HD
ATOM     47  C   UNL A   1      39.771  31.238  34.641  1.00  0.00     0.037 A 
ATOM     48  C   UNL A   1      41.674  27.554  29.002  1.00  0.00     0.037 A 
ATOM     49  C   UNL A   1      40.840  30.299  34.864  1.00  0.00     0.049 A 
ATOM     50  C   UNL A   1      42.378  27.405  30.327  1.00  0.00     0.074 A 
ATOM     51  C   UNL A   1      41.515  30.022  36.040  1.00  0.00     0.029 A 
ATOM     52  N   UNL A   1      41.390  29.485  33.886  1.00  0.00    -0.354 N 
ATOM     53  N   UNL A   1      42.128  27.993  31.471  1.00  0.00    -0.248 NA
ATOM     54  C   UNL A   1      43.502  26.459  30.375  1.00  0.00     0.031 C 
ATOM     55  C   UNL A   1      42.512  29.082  35.761  1.00  0.00     0.029 A 
ATOM     56  C   UNL A   1      42.415  28.722  34.426  1.00  0.00     0.049 A 
ATOM     57  H   UNL A   1      41.098  29.452  32.946  1.00  0.00     0.167 HD
ATOM     58  C   UNL A   1      43.037  27.467  32.381  1.00  0.00     0.074 A 
ATOM     59  C   UNL A   1      43.835  26.499  31.657  1.00  0.00     0.031 C 
ATOM     60  C   UNL A   1      43.195  27.755  33.697  1.00  0.00     0.037 A 
BRANCH  47  61
ATOM     61  C   UNL A   1      39.321  32.087  35.797  1.00  0.00     0.064 A 
ATOM     62  C   UNL A   1      39.822  33.380  36.008  1.00  0.00     0.173 A 
ATOM     63  C   UNL A   1      38.346  31.610  36.687  1.00  0.00     0.173 A 
ATOM     64  F   UNL A   1      40.765  33.880  35.195  1.00  0.00    -0.203 F 
ATOM     65  C   UNL A   1      39.386  34.153  37.081  1.00  0.00     0.198 A 
ATOM     66  C   UNL A   1      37.887  32.398  37.740  1.00  0.00     0.198 A 
ATOM     67  F   UNL A   1      37.828  30.382  36.530  1.00  0.00    -0.203 F 
ATOM     68  F   UNL A   1      39.916  35.366  37.293  1.00  0.00    -0.200 F 
ATOM     69  C   UNL A   1      38.414  33.665  37.941  1.00  0.00     0.200 A 
ATOM     70  F   UNL A   1      36.937  31.929  38.561  1.00  0.00    -0.200 F 
ATOM     71  F   UNL A   1      37.988  34.413  38.969  1.00  0.00    -0.200 F 
ENDBRANCH  47  61
BRANCH  48  72
ATOM     72  C   UNL A   1      42.114  26.771  27.816  1.00  0.00     0.064 A 
ATOM     73  C   UNL A   1      41.589  25.499  27.549  1.00  0.00     0.173 A 
ATOM     74  C   UNL A   1      43.084  27.274  26.937  1.00  0.00     0.173 A 
ATOM     75  F   UNL A   1      40.675  24.966  28.373  1.00  0.00    -0.203 F 
ATOM     76  C   UNL A   1      42.034  24.751  26.462  1.00  0.00     0.198 A 
ATOM     77  C   UNL A   1      43.505  26.539  25.831  1.00  0.00     0.198 A 
ATOM     78  F   UNL A   1      43.619  28.487  27.146  1.00  0.00    -0.203 F 
ATOM     79  F   UNL A   1      41.553  23.517  26.259  1.00  0.00    -0.200 F 
ATOM     80  C   UNL A   1      42.987  25.273  25.600  1.00  0.00     0.200 A 
ATOM     81  F   UNL A   1      44.415  27.054  24.994  1.00  0.00    -0.200 F 
ATOM     82  F   UNL A   1      43.412  24.555  24.552  1.00  0.00    -0.200 F 
ENDBRANCH  48  72
BRANCH  60  83
ATOM     83  C   UNL A   1      44.237  26.979  34.454  1.00  0.00     0.064 A 
ATOM     84  C   UNL A   1      43.953  25.742  35.051  1.00  0.00     0.173 A 
ATOM     85  C   UNL A   1      45.547  27.471  34.558  1.00  0.00     0.173 A 
ATOM     86  F   UNL A   1      42.715  25.231  34.991  1.00  0.00    -0.203 F 
ATOM     87  C   UNL A   1      44.932  25.046  35.757  1.00  0.00     0.198 A 
ATOM     88  C   UNL A   1      46.532  26.756  35.234  1.00  0.00     0.198 A 
ATOM     89  F   UNL A   1      45.876  28.645  33.997  1.00  0.00    -0.203 F 
ATOM     90  F   UNL A   1      44.622  23.896  36.371  1.00  0.00    -0.200 F 
ATOM     91  C   UNL A   1      46.221  25.550  35.842  1.00  0.00     0.200 A 
ATOM     92  F   UNL A   1      47.781  27.237  35.300  1.00  0.00    -0.200 F 
ATOM     93  F   UNL A   1      47.162  24.877  36.519  1.00  0.00    -0.200 F 
ENDBRANCH  60  83
ENDBRANCH  34  35
ENDBRANCH  27  29
ENDBRANCH  26  27
ENDBRANCH  25  26
ENDBRANCH  24  25
ENDBRANCH  23  24
ENDBRANCH   1  23
TORSDOF 18
ENDMDL
