MODEL 1
REMARK VINA RESULT:     -12.4      0.000      0.000
REMARK SMILES O=C(OCCOCCOC(=O)[C@H]1Cc2c([nH]c3ccccc23)[C@@H](c2ccc(OC(F)(F)F)cc2)[NH2+]1)c1ccc(-c2c3nc(c(-c4c(F)c(F)c(F)c(F)c4F)c4ccc([nH]4)c(-c4c(F)c(F)c(F)c(F)c4F)c4nc(c(-c5c(F)c(F)c(F)c(F)c5F)c5ccc2[nH]5)C=C4)C=C3)cc1
REMARK SMILES IDX 7 1 6 2 5 3 4 4 3 5 2 6 1 7 36 8 37 9 98 10 38 11 97 12
REMARK SMILES IDX 39 13 40 14 41 15 91 16 42 17 96 18 90 19 92 20 43 21 95 22
REMARK SMILES IDX 89 23 88 24 44 26 76 27 56 28 75 29 57 30 60 31 74 32 93 33
REMARK SMILES IDX 58 34 59 35 73 37 94 38 61 39 45 40 46 41 54 42 47 43 48 44
REMARK SMILES IDX 52 45 55 46 49 47 50 48 53 49 51 50 77 51 78 52 86 53 79 54
REMARK SMILES IDX 80 55 84 56 87 57 81 58 82 59 85 60 83 61 62 62 63 63 71 64
REMARK SMILES IDX 64 65 65 66 69 67 72 68 66 69 67 70 70 71 68 72 8 73 9 74
REMARK SMILES IDX 10 75 11 76 12 77 13 78 35 79 14 80 23 81 15 84 22 85 16 86
REMARK SMILES IDX 17 87 21 88 18 90 20 91 19 92 24 93 25 94 34 95 26 96 33 97
REMARK SMILES IDX 27 98 28 99 29 100 30 101 31 102 32 103
REMARK H PARENT 92 25 60 36 35 82 35 83 16 89
REMARK Flexibility Score: inf
ROOT
ATOM      1  C   UNL A   1      31.553  26.785  23.980  1.00  0.00     0.202 C 
ENDROOT
BRANCH   1   2
ATOM      2  O   UNL A   1      32.214  27.973  24.448  1.00  0.00    -0.374 OA
BRANCH   2   3
ATOM      3  C   UNL A   1      31.903  28.346  25.794  1.00  0.00     0.202 C 
BRANCH   3   4
ATOM      4  C   UNL A   1      31.837  29.846  26.113  1.00  0.00     0.261 C 
BRANCH   4   5
ATOM      5  O   UNL A   1      33.156  30.416  26.198  1.00  0.00    -0.460 OA
BRANCH   5   6
ATOM      6  C   UNL A   1      33.650  31.228  27.164  1.00  0.00     0.338 C 
ATOM      7  O   UNL A   1      32.996  32.199  27.529  1.00  0.00    -0.246 OA
BRANCH   6   8
ATOM      8  C   UNL A   1      34.963  30.972  27.823  1.00  0.00     0.060 A 
ATOM      9  C   UNL A   1      35.357  29.724  28.292  1.00  0.00     0.016 A 
ATOM     10  C   UNL A   1      35.879  32.031  27.928  1.00  0.00     0.016 A 
ATOM     11  C   UNL A   1      36.549  29.534  28.948  1.00  0.00     0.010 A 
ATOM     12  C   UNL A   1      37.135  31.832  28.516  1.00  0.00     0.010 A 
ATOM     13  C   UNL A   1      37.459  30.578  29.041  1.00  0.00    -0.014 A 
BRANCH  13  14
ATOM     14  C   UNL A   1      38.691  30.267  29.780  1.00  0.00     0.031 A 
ATOM     15  C   UNL A   1      38.794  30.704  31.203  1.00  0.00     0.074 A 
ATOM     16  C   UNL A   1      39.539  29.369  29.242  1.00  0.00     0.049 A 
ATOM     17  N   UNL A   1      39.736  30.460  32.073  1.00  0.00    -0.248 NA
ATOM     18  C   UNL A   1      37.669  31.493  31.735  1.00  0.00     0.031 C 
ATOM     19  C   UNL A   1      39.390  28.767  27.911  1.00  0.00     0.029 A 
ATOM     20  N   UNL A   1      40.631  28.738  29.769  1.00  0.00    -0.354 N 
ATOM     21  C   UNL A   1      39.332  31.085  33.242  1.00  0.00     0.074 A 
ATOM     22  C   UNL A   1      38.057  31.714  32.982  1.00  0.00     0.031 C 
ATOM     23  C   UNL A   1      40.318  27.812  27.754  1.00  0.00     0.029 A 
ATOM     24  C   UNL A   1      41.178  27.799  28.929  1.00  0.00     0.049 A 
ATOM     25  H   UNL A   1      40.990  28.937  30.664  1.00  0.00     0.167 HD
ATOM     26  C   UNL A   1      39.988  31.130  34.423  1.00  0.00     0.037 A 
ATOM     27  C   UNL A   1      42.278  27.040  29.088  1.00  0.00     0.037 A 
ATOM     28  C   UNL A   1      41.259  30.495  34.639  1.00  0.00     0.049 A 
ATOM     29  C   UNL A   1      43.041  27.195  30.374  1.00  0.00     0.074 A 
ATOM     30  C   UNL A   1      42.099  30.576  35.732  1.00  0.00     0.029 A 
ATOM     31  N   UNL A   1      41.866  29.642  33.723  1.00  0.00    -0.354 N 
ATOM     32  N   UNL A   1      42.731  27.901  31.437  1.00  0.00    -0.248 NA
ATOM     33  C   UNL A   1      44.315  26.476  30.478  1.00  0.00     0.031 C 
ATOM     34  C   UNL A   1      43.230  29.796  35.465  1.00  0.00     0.029 A 
ATOM     35  C   UNL A   1      43.075  29.195  34.224  1.00  0.00     0.049 A 
ATOM     36  H   UNL A   1      41.490  29.394  32.849  1.00  0.00     0.167 HD
ATOM     37  C   UNL A   1      43.773  27.722  32.332  1.00  0.00     0.074 A 
ATOM     38  C   UNL A   1      44.702  26.802  31.704  1.00  0.00     0.031 C 
ATOM     39  C   UNL A   1      43.963  28.279  33.553  1.00  0.00     0.037 A 
BRANCH  26  40
ATOM     40  C   UNL A   1      39.375  31.959  35.509  1.00  0.00     0.064 A 
ATOM     41  C   UNL A   1      39.678  33.319  35.666  1.00  0.00     0.173 A 
ATOM     42  C   UNL A   1      38.503  31.368  36.436  1.00  0.00     0.173 A 
ATOM     43  F   UNL A   1      40.536  33.920  34.827  1.00  0.00    -0.203 F 
ATOM     44  C   UNL A   1      39.146  34.052  36.724  1.00  0.00     0.198 A 
ATOM     45  C   UNL A   1      37.956  32.109  37.480  1.00  0.00     0.198 A 
ATOM     46  F   UNL A   1      38.196  30.066  36.340  1.00  0.00    -0.203 F 
ATOM     47  F   UNL A   1      39.489  35.338  36.886  1.00  0.00    -0.200 F 
ATOM     48  C   UNL A   1      38.283  33.449  37.627  1.00  0.00     0.200 A 
ATOM     49  F   UNL A   1      37.127  31.523  38.354  1.00  0.00    -0.200 F 
ATOM     50  F   UNL A   1      37.780  34.154  38.650  1.00  0.00    -0.200 F 
ENDBRANCH  26  40
BRANCH  27  51
ATOM     51  C   UNL A   1      42.759  26.159  27.989  1.00  0.00     0.064 A 
ATOM     52  C   UNL A   1      43.551  26.651  26.944  1.00  0.00     0.173 A 
ATOM     53  C   UNL A   1      42.405  24.800  27.948  1.00  0.00     0.173 A 
ATOM     54  F   UNL A   1      43.900  27.946  26.918  1.00  0.00    -0.203 F 
ATOM     55  C   UNL A   1      43.952  25.826  25.892  1.00  0.00     0.198 A 
ATOM     56  C   UNL A   1      42.836  23.968  26.917  1.00  0.00     0.198 A 
ATOM     57  F   UNL A   1      41.642  24.273  28.917  1.00  0.00    -0.203 F 
ATOM     58  F   UNL A   1      44.661  26.335  24.875  1.00  0.00    -0.200 F 
ATOM     59  C   UNL A   1      43.600  24.483  25.883  1.00  0.00     0.200 A 
ATOM     60  F   UNL A   1      42.504  22.670  26.924  1.00  0.00    -0.200 F 
ATOM     61  F   UNL A   1      43.984  23.691  24.873  1.00  0.00    -0.200 F 
ENDBRANCH  27  51
BRANCH  39  62
ATOM     62  C   UNL A   1      45.220  27.895  34.269  1.00  0.00     0.064 A 
ATOM     63  C   UNL A   1      46.399  28.640  34.118  1.00  0.00     0.173 A 
ATOM     64  C   UNL A   1      45.238  26.789  35.129  1.00  0.00     0.173 A 
ATOM     65  F   UNL A   1      46.431  29.696  33.291  1.00  0.00    -0.203 F 
ATOM     66  C   UNL A   1      47.562  28.272  34.786  1.00  0.00     0.198 A 
ATOM     67  C   UNL A   1      46.395  26.441  35.816  1.00  0.00     0.198 A 
ATOM     68  F   UNL A   1      44.130  26.052  35.305  1.00  0.00    -0.203 F 
ATOM     69  F   UNL A   1      48.691  28.966  34.591  1.00  0.00    -0.200 F 
ATOM     70  C   UNL A   1      47.557  27.178  35.638  1.00  0.00     0.200 A 
ATOM     71  F   UNL A   1      46.388  25.389  36.647  1.00  0.00    -0.200 F 
ATOM     72  F   UNL A   1      48.678  26.826  36.282  1.00  0.00    -0.200 F 
ENDBRANCH  39  62
ENDBRANCH  13  14
ENDBRANCH   6   8
ENDBRANCH   5   6
ENDBRANCH   4   5
ENDBRANCH   3   4
ENDBRANCH   2   3
ENDBRANCH   1   2
BRANCH   1  73
ATOM     73  C   UNL A   1      32.587  25.752  23.537  1.00  0.00     0.261 C 
BRANCH  73  74
ATOM     74  O   UNL A   1      31.856  24.591  23.111  1.00  0.00    -0.459 OA
BRANCH  74  75
ATOM     75  C   UNL A   1      32.584  23.470  22.886  1.00  0.00     0.365 C 
ATOM     76  O   UNL A   1      33.618  23.430  22.226  1.00  0.00    -0.245 OA
BRANCH  75  77
ATOM     77  C   UNL A   1      32.012  22.238  23.608  1.00  0.00     0.298 C 
ATOM     78  C   UNL A   1      32.576  20.874  23.119  1.00  0.00     0.115 C 
ATOM     79  N   UNL A   1      31.909  22.490  25.070  1.00  0.00    -0.323 N 
ATOM     80  C   UNL A   1      32.771  19.916  24.218  1.00  0.00    -0.006 A 
ATOM     81  C   UNL A   1      32.865  21.790  25.935  1.00  0.00     0.262 C 
ATOM     82  H   UNL A   1      30.971  22.216  25.364  1.00  0.00     0.347 HD
ATOM     83  H   UNL A   1      32.123  23.480  25.184  1.00  0.00     0.347 HD
ATOM     84  C   UNL A   1      32.877  20.354  25.513  1.00  0.00     0.083 A 
ATOM     85  C   UNL A   1      32.887  18.508  24.199  1.00  0.00     0.003 A 
ATOM     86  N   UNL A   1      32.987  19.249  26.313  1.00  0.00    -0.353 N 
ATOM     87  C   UNL A   1      33.023  18.108  25.530  1.00  0.00     0.046 A 
ATOM     88  C   UNL A   1      32.885  17.536  23.180  1.00  0.00     0.010 A 
ATOM     89  H   UNL A   1      33.033  19.263  27.297  1.00  0.00     0.166 HD
ATOM     90  C   UNL A   1      33.163  16.763  25.888  1.00  0.00     0.026 A 
ATOM     91  C   UNL A   1      33.023  16.189  23.524  1.00  0.00     0.001 A 
ATOM     92  C   UNL A   1      33.159  15.812  24.859  1.00  0.00     0.002 A 
BRANCH  81  93
ATOM     93  C   UNL A   1      34.252  22.440  26.007  1.00  0.00     0.016 A 
ATOM     94  C   UNL A   1      34.419  23.835  25.983  1.00  0.00     0.014 A 
ATOM     95  C   UNL A   1      35.418  21.654  25.948  1.00  0.00     0.014 A 
ATOM     96  C   UNL A   1      35.684  24.413  25.848  1.00  0.00     0.047 A 
ATOM     97  C   UNL A   1      36.689  22.237  25.827  1.00  0.00     0.047 A 
ATOM     98  C   UNL A   1      36.824  23.620  25.739  1.00  0.00     0.129 A 
BRANCH  98  99
ATOM     99  O   UNL A   1      37.978  24.319  25.538  1.00  0.00    -0.406 OA
BRANCH  99 100
ATOM    100  C   UNL A   1      38.962  24.275  26.556  1.00  0.00     0.573 C 
ATOM    101  F   UNL A   1      38.450  24.690  27.734  1.00  0.00    -0.132 F 
ATOM    102  F   UNL A   1      39.476  23.034  26.700  1.00  0.00    -0.132 F 
ATOM    103  F   UNL A   1      39.972  25.106  26.218  1.00  0.00    -0.132 F 
ENDBRANCH  99 100
ENDBRANCH  98  99
ENDBRANCH  81  93
ENDBRANCH  75  77
ENDBRANCH  74  75
ENDBRANCH  73  74
ENDBRANCH   1  73
TORSDOF 17
ENDMDL
MODEL 2
REMARK VINA RESULT:     -12.2      0.551      7.114
REMARK SMILES O=C(OCCOCCOC(=O)[C@H]1Cc2c([nH]c3ccccc23)[C@@H](c2ccc(OC(F)(F)F)cc2)[NH2+]1)c1ccc(-c2c3nc(c(-c4c(F)c(F)c(F)c(F)c4F)c4ccc([nH]4)c(-c4c(F)c(F)c(F)c(F)c4F)c4nc(c(-c5c(F)c(F)c(F)c(F)c5F)c5ccc2[nH]5)C=C4)C=C3)cc1
REMARK SMILES IDX 7 1 6 2 5 3 4 4 3 5 2 6 1 7 36 8 37 9 98 10 38 11 97 12
REMARK SMILES IDX 39 13 40 14 41 15 91 16 42 17 96 18 90 19 92 20 43 21 95 22
REMARK SMILES IDX 89 23 88 24 44 26 76 27 56 28 75 29 57 30 60 31 74 32 93 33
REMARK SMILES IDX 58 34 59 35 73 37 94 38 61 39 45 40 46 41 54 42 47 43 48 44
REMARK SMILES IDX 52 45 55 46 49 47 50 48 53 49 51 50 77 51 78 52 86 53 79 54
REMARK SMILES IDX 80 55 84 56 87 57 81 58 82 59 85 60 83 61 62 62 63 63 71 64
REMARK SMILES IDX 64 65 65 66 69 67 72 68 66 69 67 70 70 71 68 72 8 73 9 74
REMARK SMILES IDX 10 75 11 76 12 77 13 78 35 79 14 80 23 81 15 84 22 85 16 86
REMARK SMILES IDX 17 87 21 88 18 90 20 91 19 92 24 93 25 94 34 95 26 96 33 97
REMARK SMILES IDX 27 98 28 99 29 100 30 101 31 102 32 103
REMARK H PARENT 92 25 60 36 35 82 35 83 16 89
REMARK Flexibility Score: inf
ROOT
ATOM      1  C   UNL A   1      32.692  26.757  24.328  1.00  0.00     0.202 C 
ENDROOT
BRANCH   1   2
ATOM      2  O   UNL A   1      32.651  28.166  24.049  1.00  0.00    -0.374 OA
BRANCH   2   3
ATOM      3  C   UNL A   1      31.474  28.838  24.506  1.00  0.00     0.202 C 
BRANCH   3   4
ATOM      4  C   UNL A   1      31.669  30.077  25.391  1.00  0.00     0.261 C 
BRANCH   4   5
ATOM      5  O   UNL A   1      33.016  30.151  25.890  1.00  0.00    -0.460 OA
BRANCH   5   6
ATOM      6  C   UNL A   1      33.501  30.965  26.859  1.00  0.00     0.338 C 
ATOM      7  O   UNL A   1      32.936  32.029  27.092  1.00  0.00    -0.246 OA
BRANCH   6   8
ATOM      8  C   UNL A   1      34.695  30.605  27.677  1.00  0.00     0.060 A 
ATOM      9  C   UNL A   1      34.986  29.306  28.080  1.00  0.00     0.016 A 
ATOM     10  C   UNL A   1      35.609  31.616  28.012  1.00  0.00     0.016 A 
ATOM     11  C   UNL A   1      36.062  29.016  28.884  1.00  0.00     0.010 A 
ATOM     12  C   UNL A   1      36.758  31.321  28.758  1.00  0.00     0.010 A 
ATOM     13  C   UNL A   1      36.971  30.015  29.206  1.00  0.00    -0.014 A 
BRANCH  13  14
ATOM     14  C   UNL A   1      38.072  29.596  30.085  1.00  0.00     0.031 A 
ATOM     15  C   UNL A   1      39.202  28.825  29.489  1.00  0.00     0.074 A 
ATOM     16  C   UNL A   1      38.154  30.160  31.306  1.00  0.00     0.049 A 
ATOM     17  N   UNL A   1      40.317  28.436  30.045  1.00  0.00    -0.248 NA
ATOM     18  C   UNL A   1      39.082  28.473  28.063  1.00  0.00     0.031 C 
ATOM     19  C   UNL A   1      37.154  31.072  31.877  1.00  0.00     0.029 A 
ATOM     20  N   UNL A   1      39.147  30.132  32.243  1.00  0.00    -0.354 N 
ATOM     21  C   UNL A   1      41.016  27.773  29.049  1.00  0.00     0.074 A 
ATOM     22  C   UNL A   1      40.211  27.816  27.849  1.00  0.00     0.031 C 
ATOM     23  C   UNL A   1      37.617  31.561  33.036  1.00  0.00     0.029 A 
ATOM     24  C   UNL A   1      38.896  30.931  33.332  1.00  0.00     0.049 A 
ATOM     25  H   UNL A   1      39.965  29.590  32.148  1.00  0.00     0.167 HD
ATOM     26  C   UNL A   1      42.224  27.175  29.147  1.00  0.00     0.037 A 
ATOM     27  C   UNL A   1      39.613  31.099  34.459  1.00  0.00     0.037 A 
ATOM     28  C   UNL A   1      42.991  27.150  30.362  1.00  0.00     0.049 A 
ATOM     29  C   UNL A   1      40.902  30.334  34.575  1.00  0.00     0.074 A 
ATOM     30  C   UNL A   1      44.156  26.464  30.644  1.00  0.00     0.029 A 
ATOM     31  N   UNL A   1      42.656  27.867  31.506  1.00  0.00    -0.354 N 
ATOM     32  N   UNL A   1      41.501  29.587  33.678  1.00  0.00    -0.248 NA
ATOM     33  C   UNL A   1      41.601  30.409  35.862  1.00  0.00     0.031 C 
ATOM     34  C   UNL A   1      44.510  26.743  31.969  1.00  0.00     0.029 A 
ATOM     35  C   UNL A   1      43.589  27.634  32.500  1.00  0.00     0.049 A 
ATOM     36  H   UNL A   1      41.870  28.453  31.594  1.00  0.00     0.167 HD
ATOM     37  C   UNL A   1      42.641  29.094  34.291  1.00  0.00     0.074 A 
ATOM     38  C   UNL A   1      42.672  29.666  35.624  1.00  0.00     0.031 C 
ATOM     39  C   UNL A   1      43.570  28.230  33.812  1.00  0.00     0.037 A 
BRANCH  26  40
ATOM     40  C   UNL A   1      42.718  26.440  27.939  1.00  0.00     0.064 A 
ATOM     41  C   UNL A   1      42.485  25.070  27.757  1.00  0.00     0.173 A 
ATOM     42  C   UNL A   1      43.477  27.113  26.969  1.00  0.00     0.173 A 
ATOM     43  F   UNL A   1      41.798  24.374  28.676  1.00  0.00    -0.203 F 
ATOM     44  C   UNL A   1      43.011  24.395  26.658  1.00  0.00     0.198 A 
ATOM     45  C   UNL A   1      43.983  26.441  25.861  1.00  0.00     0.198 A 
ATOM     46  F   UNL A   1      43.742  28.421  27.108  1.00  0.00    -0.203 F 
ATOM     47  F   UNL A   1      42.821  23.074  26.529  1.00  0.00    -0.200 F 
ATOM     48  C   UNL A   1      43.756  25.081  25.710  1.00  0.00     0.200 A 
ATOM     49  F   UNL A   1      44.706  27.104  24.949  1.00  0.00    -0.200 F 
ATOM     50  F   UNL A   1      44.270  24.428  24.658  1.00  0.00    -0.200 F 
ENDBRANCH  26  40
BRANCH  27  51
ATOM     51  C   UNL A   1      39.091  31.937  35.572  1.00  0.00     0.064 A 
ATOM     52  C   UNL A   1      39.393  33.302  35.673  1.00  0.00     0.173 A 
ATOM     53  C   UNL A   1      38.295  31.375  36.585  1.00  0.00     0.173 A 
ATOM     54  F   UNL A   1      40.168  33.887  34.747  1.00  0.00    -0.203 F 
ATOM     55  C   UNL A   1      38.940  34.064  36.750  1.00  0.00     0.198 A 
ATOM     56  C   UNL A   1      37.812  32.146  37.641  1.00  0.00     0.198 A 
ATOM     57  F   UNL A   1      37.979  30.073  36.548  1.00  0.00    -0.203 F 
ATOM     58  F   UNL A   1      39.291  35.354  36.851  1.00  0.00    -0.200 F 
ATOM     59  C   UNL A   1      38.144  33.487  37.729  1.00  0.00     0.200 A 
ATOM     60  F   UNL A   1      37.032  31.584  38.574  1.00  0.00    -0.200 F 
ATOM     61  F   UNL A   1      37.710  34.219  38.764  1.00  0.00    -0.200 F 
ENDBRANCH  27  51
BRANCH  39  62
ATOM     62  C   UNL A   1      44.684  27.870  34.745  1.00  0.00     0.064 A 
ATOM     63  C   UNL A   1      44.595  26.751  35.585  1.00  0.00     0.173 A 
ATOM     64  C   UNL A   1      45.857  28.637  34.778  1.00  0.00     0.173 A 
ATOM     65  F   UNL A   1      43.483  26.001  35.597  1.00  0.00    -0.203 F 
ATOM     66  C   UNL A   1      45.635  26.428  36.450  1.00  0.00     0.198 A 
ATOM     67  C   UNL A   1      46.905  28.294  35.624  1.00  0.00     0.198 A 
ATOM     68  F   UNL A   1      45.985  29.712  33.986  1.00  0.00    -0.203 F 
ATOM     69  F   UNL A   1      45.512  25.385  37.281  1.00  0.00    -0.200 F 
ATOM     70  C   UNL A   1      46.791  27.195  36.464  1.00  0.00     0.200 A 
ATOM     71  F   UNL A   1      48.026  29.029  35.631  1.00  0.00    -0.200 F 
ATOM     72  F   UNL A   1      47.792  26.881  37.296  1.00  0.00    -0.200 F 
ENDBRANCH  39  62
ENDBRANCH  13  14
ENDBRANCH   6   8
ENDBRANCH   5   6
ENDBRANCH   4   5
ENDBRANCH   3   4
ENDBRANCH   2   3
ENDBRANCH   1   2
BRANCH   1  73
ATOM     73  C   UNL A   1      32.595  25.963  23.027  1.00  0.00     0.261 C 
BRANCH  73  74
ATOM     74  O   UNL A   1      31.914  24.737  23.339  1.00  0.00    -0.459 OA
BRANCH  74  75
ATOM     75  C   UNL A   1      32.490  23.597  22.888  1.00  0.00     0.365 C 
ATOM     76  O   UNL A   1      33.397  23.552  22.062  1.00  0.00    -0.245 OA
BRANCH  75  77
ATOM     77  C   UNL A   1      31.929  22.338  23.573  1.00  0.00     0.298 C 
ATOM     78  C   UNL A   1      32.527  20.996  23.065  1.00  0.00     0.115 C 
ATOM     79  N   UNL A   1      31.796  22.556  25.038  1.00  0.00    -0.323 N 
ATOM     80  C   UNL A   1      32.721  20.018  24.147  1.00  0.00    -0.006 A 
ATOM     81  C   UNL A   1      32.750  21.856  25.905  1.00  0.00     0.262 C 
ATOM     82  H   UNL A   1      30.858  22.259  25.309  1.00  0.00     0.347 HD
ATOM     83  H   UNL A   1      31.989  23.548  25.177  1.00  0.00     0.347 HD
ATOM     84  C   UNL A   1      32.796  20.429  25.453  1.00  0.00     0.083 A 
ATOM     85  C   UNL A   1      32.864  18.613  24.100  1.00  0.00     0.003 A 
ATOM     86  N   UNL A   1      32.913  19.310  26.231  1.00  0.00    -0.353 N 
ATOM     87  C   UNL A   1      32.985  18.188  25.424  1.00  0.00     0.046 A 
ATOM     88  C   UNL A   1      32.899  17.664  23.060  1.00  0.00     0.010 A 
ATOM     89  H   UNL A   1      32.942  19.303  27.215  1.00  0.00     0.166 HD
ATOM     90  C   UNL A   1      33.144  16.837  25.756  1.00  0.00     0.026 A 
ATOM     91  C   UNL A   1      33.056  16.312  23.378  1.00  0.00     0.001 A 
ATOM     92  C   UNL A   1      33.176  15.909  24.707  1.00  0.00     0.002 A 
BRANCH  81  93
ATOM     93  C   UNL A   1      34.123  22.530  26.016  1.00  0.00     0.016 A 
ATOM     94  C   UNL A   1      34.281  23.919  25.871  1.00  0.00     0.014 A 
ATOM     95  C   UNL A   1      35.295  21.759  26.116  1.00  0.00     0.014 A 
ATOM     96  C   UNL A   1      35.548  24.500  25.775  1.00  0.00     0.047 A 
ATOM     97  C   UNL A   1      36.568  22.346  26.032  1.00  0.00     0.047 A 
ATOM     98  C   UNL A   1      36.698  23.717  25.824  1.00  0.00     0.129 A 
BRANCH  98  99
ATOM     99  O   UNL A   1      37.859  24.410  25.641  1.00  0.00    -0.406 OA
BRANCH  99 100
ATOM    100  C   UNL A   1      38.912  24.187  26.563  1.00  0.00     0.573 C 
ATOM    101  F   UNL A   1      38.535  24.532  27.812  1.00  0.00    -0.132 F 
ATOM    102  F   UNL A   1      39.319  22.900  26.553  1.00  0.00    -0.132 F 
ATOM    103  F   UNL A   1      39.965  24.958  26.211  1.00  0.00    -0.132 F 
ENDBRANCH  99 100
ENDBRANCH  98  99
ENDBRANCH  81  93
ENDBRANCH  75  77
ENDBRANCH  74  75
ENDBRANCH  73  74
ENDBRANCH   1  73
TORSDOF 17
ENDMDL
MODEL 3
REMARK VINA RESULT:     -12.0      3.100      8.510
REMARK SMILES O=C(OCCOCCOC(=O)[C@H]1Cc2c([nH]c3ccccc23)[C@@H](c2ccc(OC(F)(F)F)cc2)[NH2+]1)c1ccc(-c2c3nc(c(-c4c(F)c(F)c(F)c(F)c4F)c4ccc([nH]4)c(-c4c(F)c(F)c(F)c(F)c4F)c4nc(c(-c5c(F)c(F)c(F)c(F)c5F)c5ccc2[nH]5)C=C4)C=C3)cc1
REMARK SMILES IDX 7 1 6 2 5 3 4 4 3 5 2 6 1 7 36 8 37 9 98 10 38 11 97 12
REMARK SMILES IDX 39 13 40 14 41 15 91 16 42 17 96 18 90 19 92 20 43 21 95 22
REMARK SMILES IDX 89 23 88 24 44 26 76 27 56 28 75 29 57 30 60 31 74 32 93 33
REMARK SMILES IDX 58 34 59 35 73 37 94 38 61 39 45 40 46 41 54 42 47 43 48 44
REMARK SMILES IDX 52 45 55 46 49 47 50 48 53 49 51 50 77 51 78 52 86 53 79 54
REMARK SMILES IDX 80 55 84 56 87 57 81 58 82 59 85 60 83 61 62 62 63 63 71 64
REMARK SMILES IDX 64 65 65 66 69 67 72 68 66 69 67 70 70 71 68 72 8 73 9 74
REMARK SMILES IDX 10 75 11 76 12 77 13 78 35 79 14 80 23 81 15 84 22 85 16 86
REMARK SMILES IDX 17 87 21 88 18 90 20 91 19 92 24 93 25 94 34 95 26 96 33 97
REMARK SMILES IDX 27 98 28 99 29 100 30 101 31 102 32 103
REMARK H PARENT 92 25 60 36 35 82 35 83 16 89
REMARK Flexibility Score: inf
ROOT
ATOM      1  C   UNL A   1      39.868  20.542  26.220  1.00  0.00     0.202 C 
ENDROOT
BRANCH   1   2
ATOM      2  O   UNL A   1      41.173  20.844  26.740  1.00  0.00    -0.374 OA
BRANCH   2   3
ATOM      3  C   UNL A   1      42.264  20.392  25.933  1.00  0.00     0.202 C 
BRANCH   3   4
ATOM      4  C   UNL A   1      43.419  21.376  25.694  1.00  0.00     0.261 C 
BRANCH   4   5
ATOM      5  O   UNL A   1      42.964  22.548  24.996  1.00  0.00    -0.460 OA
BRANCH   5   6
ATOM      6  C   UNL A   1      43.396  23.825  25.144  1.00  0.00     0.338 C 
ATOM      7  O   UNL A   1      44.128  24.317  24.291  1.00  0.00    -0.246 OA
BRANCH   6   8
ATOM      8  C   UNL A   1      42.996  24.670  26.305  1.00  0.00     0.060 A 
ATOM      9  C   UNL A   1      42.302  24.182  27.407  1.00  0.00     0.016 A 
ATOM     10  C   UNL A   1      43.387  26.018  26.321  1.00  0.00     0.016 A 
ATOM     11  C   UNL A   1      41.895  25.000  28.433  1.00  0.00     0.010 A 
ATOM     12  C   UNL A   1      43.056  26.845  27.402  1.00  0.00     0.010 A 
ATOM     13  C   UNL A   1      42.292  26.331  28.453  1.00  0.00    -0.014 A 
BRANCH  13  14
ATOM     14  C   UNL A   1      41.784  27.116  29.588  1.00  0.00     0.031 A 
ATOM     15  C   UNL A   1      42.652  27.265  30.792  1.00  0.00     0.074 A 
ATOM     16  C   UNL A   1      40.701  27.890  29.383  1.00  0.00     0.049 A 
ATOM     17  N   UNL A   1      42.456  27.984  31.863  1.00  0.00    -0.248 NA
ATOM     18  C   UNL A   1      43.932  26.536  30.778  1.00  0.00     0.031 C 
ATOM     19  C   UNL A   1      39.909  27.917  28.146  1.00  0.00     0.029 A 
ATOM     20  N   UNL A   1      40.133  28.862  30.158  1.00  0.00    -0.354 N 
ATOM     21  C   UNL A   1      43.571  27.774  32.660  1.00  0.00     0.074 A 
ATOM     22  C   UNL A   1      44.448  26.869  31.951  1.00  0.00     0.031 C 
ATOM     23  C   UNL A   1      39.001  28.899  28.226  1.00  0.00     0.029 A 
ATOM     24  C   UNL A   1      39.085  29.507  29.548  1.00  0.00     0.049 A 
ATOM     25  H   UNL A   1      40.445  29.079  31.067  1.00  0.00     0.167 HD
ATOM     26  C   UNL A   1      43.821  28.292  33.883  1.00  0.00     0.037 A 
ATOM     27  C   UNL A   1      38.265  30.460  30.028  1.00  0.00     0.037 A 
ATOM     28  C   UNL A   1      42.919  29.185  34.556  1.00  0.00     0.049 A 
ATOM     29  C   UNL A   1      38.511  30.937  31.432  1.00  0.00     0.074 A 
ATOM     30  C   UNL A   1      42.976  29.672  35.847  1.00  0.00     0.029 A 
ATOM     31  N   UNL A   1      41.786  29.734  33.965  1.00  0.00    -0.354 N 
ATOM     32  N   UNL A   1      39.495  30.631  32.246  1.00  0.00    -0.248 NA
ATOM     33  C   UNL A   1      37.527  31.865  31.997  1.00  0.00     0.031 C 
ATOM     34  C   UNL A   1      41.859  30.493  36.048  1.00  0.00     0.029 A 
ATOM     35  C   UNL A   1      41.130  30.551  34.869  1.00  0.00     0.049 A 
ATOM     36  H   UNL A   1      41.494  29.566  33.040  1.00  0.00     0.167 HD
ATOM     37  C   UNL A   1      39.245  31.318  33.422  1.00  0.00     0.074 A 
ATOM     38  C   UNL A   1      38.040  32.095  33.198  1.00  0.00     0.031 C 
ATOM     39  C   UNL A   1      39.931  31.299  34.592  1.00  0.00     0.037 A 
BRANCH  26  40
ATOM     40  C   UNL A   1      45.065  27.827  34.576  1.00  0.00     0.064 A 
ATOM     41  C   UNL A   1      45.090  26.659  35.351  1.00  0.00     0.173 A 
ATOM     42  C   UNL A   1      46.240  28.590  34.497  1.00  0.00     0.173 A 
ATOM     43  F   UNL A   1      43.981  25.916  35.488  1.00  0.00    -0.203 F 
ATOM     44  C   UNL A   1      46.241  26.283  36.039  1.00  0.00     0.198 A 
ATOM     45  C   UNL A   1      47.394  28.200  35.169  1.00  0.00     0.198 A 
ATOM     46  F   UNL A   1      46.261  29.725  33.783  1.00  0.00    -0.203 F 
ATOM     47  F   UNL A   1      46.229  25.191  36.817  1.00  0.00    -0.200 F 
ATOM     48  C   UNL A   1      47.392  27.050  35.945  1.00  0.00     0.200 A 
ATOM     49  F   UNL A   1      48.504  28.946  35.081  1.00  0.00    -0.200 F 
ATOM     50  F   UNL A   1      48.496  26.693  36.617  1.00  0.00    -0.200 F 
ENDBRANCH  26  40
BRANCH  27  51
ATOM     51  C   UNL A   1      37.109  30.942  29.224  1.00  0.00     0.064 A 
ATOM     52  C   UNL A   1      37.059  32.246  28.714  1.00  0.00     0.173 A 
ATOM     53  C   UNL A   1      36.007  30.107  28.973  1.00  0.00     0.173 A 
ATOM     54  F   UNL A   1      38.072  33.095  28.941  1.00  0.00    -0.203 F 
ATOM     55  C   UNL A   1      35.946  32.702  28.005  1.00  0.00     0.198 A 
ATOM     56  C   UNL A   1      34.913  30.551  28.233  1.00  0.00     0.198 A 
ATOM     57  F   UNL A   1      35.994  28.851  29.441  1.00  0.00    -0.203 F 
ATOM     58  F   UNL A   1      35.900  33.971  27.577  1.00  0.00    -0.200 F 
ATOM     59  C   UNL A   1      34.877  31.852  27.759  1.00  0.00     0.200 A 
ATOM     60  F   UNL A   1      33.892  29.719  27.988  1.00  0.00    -0.200 F 
ATOM     61  F   UNL A   1      33.809  32.290  27.080  1.00  0.00    -0.200 F 
ENDBRANCH  27  51
BRANCH  39  62
ATOM     62  C   UNL A   1      39.381  32.147  35.696  1.00  0.00     0.064 A 
ATOM     63  C   UNL A   1      38.472  31.626  36.629  1.00  0.00     0.173 A 
ATOM     64  C   UNL A   1      39.786  33.481  35.835  1.00  0.00     0.173 A 
ATOM     65  F   UNL A   1      38.045  30.359  36.521  1.00  0.00    -0.203 F 
ATOM     66  C   UNL A   1      37.966  32.424  37.649  1.00  0.00     0.198 A 
ATOM     67  C   UNL A   1      39.299  34.267  36.874  1.00  0.00     0.198 A 
ATOM     68  F   UNL A   1      40.658  34.018  34.968  1.00  0.00    -0.203 F 
ATOM     69  F   UNL A   1      37.061  31.923  38.501  1.00  0.00    -0.200 F 
ATOM     70  C   UNL A   1      38.384  33.740  37.774  1.00  0.00     0.200 A 
ATOM     71  F   UNL A   1      39.710  35.536  37.000  1.00  0.00    -0.200 F 
ATOM     72  F   UNL A   1      37.896  34.507  38.759  1.00  0.00    -0.200 F 
ENDBRANCH  39  62
ENDBRANCH  13  14
ENDBRANCH   6   8
ENDBRANCH   5   6
ENDBRANCH   4   5
ENDBRANCH   3   4
ENDBRANCH   2   3
ENDBRANCH   1   2
BRANCH   1  73
ATOM     73  C   UNL A   1      39.145  21.833  25.841  1.00  0.00     0.261 C 
BRANCH  73  74
ATOM     74  O   UNL A   1      37.745  21.517  25.764  1.00  0.00    -0.459 OA
BRANCH  74  75
ATOM     75  C   UNL A   1      36.994  22.303  24.956  1.00  0.00     0.365 C 
ATOM     76  O   UNL A   1      36.886  22.155  23.742  1.00  0.00    -0.245 OA
BRANCH  75  77
ATOM     77  C   UNL A   1      36.222  23.385  25.732  1.00  0.00     0.298 C 
ATOM     78  C   UNL A   1      35.517  24.448  24.843  1.00  0.00     0.115 C 
ATOM     79  N   UNL A   1      35.468  22.779  26.862  1.00  0.00    -0.323 N 
ATOM     80  C   UNL A   1      34.207  24.852  25.378  1.00  0.00    -0.006 A 
ATOM     81  C   UNL A   1      34.010  22.704  26.725  1.00  0.00     0.262 C 
ATOM     82  H   UNL A   1      35.671  23.329  27.696  1.00  0.00     0.347 HD
ATOM     83  H   UNL A   1      35.782  21.809  26.899  1.00  0.00     0.347 HD
ATOM     84  C   UNL A   1      33.538  24.048  26.264  1.00  0.00     0.083 A 
ATOM     85  C   UNL A   1      33.431  26.007  25.130  1.00  0.00     0.003 A 
ATOM     86  N   UNL A   1      32.393  24.702  26.630  1.00  0.00    -0.353 N 
ATOM     87  C   UNL A   1      32.292  25.891  25.929  1.00  0.00     0.046 A 
ATOM     88  C   UNL A   1      33.589  27.138  24.307  1.00  0.00     0.010 A 
ATOM     89  H   UNL A   1      31.741  24.377  27.293  1.00  0.00     0.166 HD
ATOM     90  C   UNL A   1      31.291  26.870  25.937  1.00  0.00     0.026 A 
ATOM     91  C   UNL A   1      32.598  28.123  24.307  1.00  0.00     0.001 A 
ATOM     92  C   UNL A   1      31.467  27.987  25.112  1.00  0.00     0.002 A 
BRANCH  81  93
ATOM     93  C   UNL A   1      33.509  21.531  25.875  1.00  0.00     0.016 A 
ATOM     94  C   UNL A   1      33.242  20.269  26.435  1.00  0.00     0.014 A 
ATOM     95  C   UNL A   1      33.444  21.635  24.473  1.00  0.00     0.014 A 
ATOM     96  C   UNL A   1      32.979  19.157  25.631  1.00  0.00     0.047 A 
ATOM     97  C   UNL A   1      33.167  20.520  23.667  1.00  0.00     0.047 A 
ATOM     98  C   UNL A   1      32.970  19.267  24.242  1.00  0.00     0.129 A 
BRANCH  98  99
ATOM     99  O   UNL A   1      32.775  18.087  23.587  1.00  0.00    -0.406 OA
BRANCH  99 100
ATOM    100  C   UNL A   1      33.832  17.143  23.599  1.00  0.00     0.573 C 
ATOM    101  F   UNL A   1      33.582  16.156  24.485  1.00  0.00    -0.132 F 
ATOM    102  F   UNL A   1      34.039  16.610  22.375  1.00  0.00    -0.132 F 
ATOM    103  F   UNL A   1      34.968  17.771  23.976  1.00  0.00    -0.132 F 
ENDBRANCH  99 100
ENDBRANCH  98  99
ENDBRANCH  81  93
ENDBRANCH  75  77
ENDBRANCH  74  75
ENDBRANCH  73  74
ENDBRANCH   1  73
TORSDOF 17
ENDMDL
