MODEL 1
REMARK VINA RESULT:     -10.6      0.000      0.000
REMARK SMILES O=C(N[C@@H](CS)C(=O)N[C@@H](CO)C(=O)OCCOCCOC(=O)c1ccc(-c2c3nc(c(-c4c(F)c(F)c(F)c(F)c4F)c4ccc([nH]4)c(-c4c(F)c(F)c(F)c(F)c4F)c4nc(c(-c5c(F)c(F)c(F)c(F)c5F)c5ccc2[nH]5)C=C4)C=C3)cc1)c1ccc(F)cc1
REMARK SMILES IDX 17 1 16 2 15 3 13 4 14 5 10 6 9 7 7 8 8 9 4 11 3 12 1 13
REMARK SMILES IDX 2 14 87 16 88 17 93 18 89 19 92 20 90 21 91 22 5 23 6 24
REMARK SMILES IDX 11 26 12 27 18 29 19 30 20 31 21 32 22 33 23 34 24 35 25 36
REMARK SMILES IDX 86 37 26 38 85 39 27 40 28 41 29 42 79 43 30 44 84 45 78 46
REMARK SMILES IDX 80 47 31 48 83 49 77 50 76 51 32 53 64 54 44 55 63 56 45 57
REMARK SMILES IDX 48 58 62 59 81 60 46 61 47 62 61 64 82 65 49 66 33 67 34 68
REMARK SMILES IDX 42 69 35 70 36 71 40 72 43 73 37 74 38 75 41 76 39 77 65 78
REMARK SMILES IDX 66 79 74 80 67 81 68 82 72 83 75 84 69 85 70 86 73 87 71 88
REMARK SMILES IDX 50 89 51 90 59 91 52 92 53 93 57 94 60 95 54 96 55 97 58 98
REMARK SMILES IDX 56 99
REMARK H PARENT 9 10 3 15 6 25 12 28 80 52 48 63
REMARK Flexibility Score: inf
ROOT
ATOM      1  C   UNL A   1      37.557  24.028  26.108  1.00  0.00     0.202 C 
ENDROOT
BRANCH   1   2
ATOM      2  C   UNL A   1      36.676  23.346  25.059  1.00  0.00     0.261 C 
BRANCH   2   3
ATOM      3  O   UNL A   1      35.488  24.119  24.815  1.00  0.00    -0.462 OA
BRANCH   3   4
ATOM      4  C   UNL A   1      34.842  23.837  23.649  1.00  0.00     0.331 C 
ATOM      5  O   UNL A   1      35.316  23.184  22.728  1.00  0.00    -0.250 OA
BRANCH   4   6
ATOM      6  C   UNL A   1      33.432  24.451  23.606  1.00  0.00     0.218 C 
BRANCH   6   7
ATOM      7  N   UNL A   1      33.178  25.443  24.666  1.00  0.00    -0.339 N 
ATOM      8  C   UNL A   1      32.076  25.804  25.365  1.00  0.00     0.244 C 
ATOM      9  O   UNL A   1      32.269  26.566  26.321  1.00  0.00    -0.273 OA
ATOM     10  H   UNL A   1      33.982  25.952  24.920  1.00  0.00     0.164 HD
BRANCH   8  11
ATOM     11  C   UNL A   1      30.653  25.251  25.134  1.00  0.00     0.181 C 
BRANCH  11  12
ATOM     12  N   UNL A   1      30.031  24.600  26.287  1.00  0.00    -0.339 N 
ATOM     13  O   UNL A   1      29.553  22.938  27.711  1.00  0.00    -0.269 OA
ATOM     14  C   UNL A   1      30.326  23.395  26.875  1.00  0.00     0.251 C 
ATOM     15  H   UNL A   1      29.293  25.101  26.704  1.00  0.00     0.164 HD
BRANCH  14  16
ATOM     16  C   UNL A   1      31.528  22.620  26.493  1.00  0.00     0.040 A 
ATOM     17  C   UNL A   1      32.700  22.648  27.260  1.00  0.00     0.017 A 
ATOM     18  C   UNL A   1      31.447  21.783  25.372  1.00  0.00     0.017 A 
ATOM     19  C   UNL A   1      33.812  21.906  26.859  1.00  0.00     0.040 A 
ATOM     20  C   UNL A   1      32.556  21.028  24.984  1.00  0.00     0.040 A 
ATOM     21  C   UNL A   1      33.731  21.107  25.723  1.00  0.00     0.123 A 
ATOM     22  F   UNL A   1      34.798  20.393  25.343  1.00  0.00    -0.207 F 
ENDBRANCH  14  16
ENDBRANCH  11  12
BRANCH  11  23
ATOM     23  C   UNL A   1      29.734  26.244  24.398  1.00  0.00     0.101 C 
BRANCH  23  24
ATOM     24  S   UNL A   1      30.535  27.332  23.180  1.00  0.00    -0.177 SA
ATOM     25  H   UNL A   1      29.616  28.200  22.674  1.00  0.00     0.102 HD
ENDBRANCH  23  24
ENDBRANCH  11  23
ENDBRANCH   8  11
ENDBRANCH   6   7
BRANCH   6  26
ATOM     26  C   UNL A   1      33.233  25.079  22.225  1.00  0.00     0.193 C 
BRANCH  26  27
ATOM     27  O   UNL A   1      33.039  24.075  21.228  1.00  0.00    -0.394 OA
ATOM     28  H   UNL A   1      33.798  24.067  20.624  1.00  0.00     0.210 HD
ENDBRANCH  26  27
ENDBRANCH   6  26
ENDBRANCH   4   6
ENDBRANCH   3   4
ENDBRANCH   2   3
ENDBRANCH   1   2
BRANCH   1  29
ATOM     29  O   UNL A   1      38.693  23.283  26.550  1.00  0.00    -0.374 OA
BRANCH  29  30
ATOM     30  C   UNL A   1      38.947  22.029  25.920  1.00  0.00     0.202 C 
BRANCH  30  31
ATOM     31  C   UNL A   1      39.850  21.055  26.683  1.00  0.00     0.261 C 
BRANCH  31  32
ATOM     32  O   UNL A   1      40.275  19.949  25.869  1.00  0.00    -0.460 OA
BRANCH  32  33
ATOM     33  C   UNL A   1      41.556  19.575  26.076  1.00  0.00     0.338 C 
ATOM     34  O   UNL A   1      42.056  18.476  25.865  1.00  0.00    -0.246 OA
BRANCH  33  35
ATOM     35  C   UNL A   1      42.384  20.731  26.454  1.00  0.00     0.060 A 
ATOM     36  C   UNL A   1      42.488  21.010  27.821  1.00  0.00     0.016 A 
ATOM     37  C   UNL A   1      42.919  21.601  25.503  1.00  0.00     0.016 A 
ATOM     38  C   UNL A   1      43.052  22.209  28.242  1.00  0.00     0.010 A 
ATOM     39  C   UNL A   1      43.483  22.810  25.928  1.00  0.00     0.010 A 
ATOM     40  C   UNL A   1      43.495  23.142  27.295  1.00  0.00    -0.014 A 
BRANCH  40  41
ATOM     41  C   UNL A   1      43.754  24.529  27.753  1.00  0.00     0.031 A 
ATOM     42  C   UNL A   1      45.175  25.027  27.771  1.00  0.00     0.074 A 
ATOM     43  C   UNL A   1      42.739  25.361  28.041  1.00  0.00     0.049 A 
ATOM     44  N   UNL A   1      45.634  26.225  28.033  1.00  0.00    -0.248 NA
ATOM     45  C   UNL A   1      46.219  24.043  27.442  1.00  0.00     0.031 C 
ATOM     46  C   UNL A   1      41.324  25.004  28.022  1.00  0.00     0.029 A 
ATOM     47  N   UNL A   1      42.750  26.688  28.390  1.00  0.00    -0.354 N 
ATOM     48  C   UNL A   1      47.013  26.139  27.896  1.00  0.00     0.074 A 
ATOM     49  C   UNL A   1      47.322  24.764  27.567  1.00  0.00     0.031 C 
ATOM     50  C   UNL A   1      40.597  26.089  28.340  1.00  0.00     0.029 A 
ATOM     51  C   UNL A   1      41.497  27.211  28.596  1.00  0.00     0.049 A 
ATOM     52  H   UNL A   1      43.576  27.215  28.484  1.00  0.00     0.167 HD
ATOM     53  C   UNL A   1      47.939  27.119  28.017  1.00  0.00     0.037 A 
ATOM     54  C   UNL A   1      41.126  28.457  28.948  1.00  0.00     0.037 A 
ATOM     55  C   UNL A   1      47.632  28.487  28.341  1.00  0.00     0.049 A 
ATOM     56  C   UNL A   1      42.179  29.522  29.115  1.00  0.00     0.074 A 
ATOM     57  C   UNL A   1      48.497  29.556  28.493  1.00  0.00     0.029 A 
ATOM     58  N   UNL A   1      46.353  28.972  28.568  1.00  0.00    -0.354 N 
ATOM     59  N   UNL A   1      43.478  29.436  28.958  1.00  0.00    -0.248 NA
ATOM     60  C   UNL A   1      41.709  30.863  29.490  1.00  0.00     0.031 C 
ATOM     61  C   UNL A   1      47.744  30.680  28.848  1.00  0.00     0.029 A 
ATOM     62  C   UNL A   1      46.405  30.323  28.870  1.00  0.00     0.049 A 
ATOM     63  H   UNL A   1      45.528  28.435  28.521  1.00  0.00     0.167 HD
ATOM     64  C   UNL A   1      43.976  30.714  29.180  1.00  0.00     0.074 A 
ATOM     65  C   UNL A   1      42.836  31.560  29.472  1.00  0.00     0.031 C 
ATOM     66  C   UNL A   1      45.259  31.150  29.141  1.00  0.00     0.037 A 
BRANCH  53  67
ATOM     67  C   UNL A   1      49.377  26.739  27.817  1.00  0.00     0.064 A 
ATOM     68  C   UNL A   1      49.950  26.673  26.537  1.00  0.00     0.173 A 
ATOM     69  C   UNL A   1      50.196  26.453  28.918  1.00  0.00     0.173 A 
ATOM     70  F   UNL A   1      49.203  26.921  25.450  1.00  0.00    -0.203 F 
ATOM     71  C   UNL A   1      51.284  26.313  26.367  1.00  0.00     0.198 A 
ATOM     72  C   UNL A   1      51.537  26.119  28.746  1.00  0.00     0.198 A 
ATOM     73  F   UNL A   1      49.698  26.502  30.162  1.00  0.00    -0.203 F 
ATOM     74  F   UNL A   1      51.799  26.211  25.134  1.00  0.00    -0.200 F 
ATOM     75  C   UNL A   1      52.078  26.042  27.471  1.00  0.00     0.200 A 
ATOM     76  F   UNL A   1      52.305  25.866  29.816  1.00  0.00    -0.200 F 
ATOM     77  F   UNL A   1      53.362  25.697  27.308  1.00  0.00    -0.200 F 
ENDBRANCH  53  67
BRANCH  54  78
ATOM     78  C   UNL A   1      39.688  28.772  29.150  1.00  0.00     0.064 A 
ATOM     79  C   UNL A   1      38.889  29.230  28.094  1.00  0.00     0.173 A 
ATOM     80  C   UNL A   1      39.090  28.637  30.412  1.00  0.00     0.173 A 
ATOM     81  F   UNL A   1      39.423  29.398  26.875  1.00  0.00    -0.203 F 
ATOM     82  C   UNL A   1      37.551  29.562  28.297  1.00  0.00     0.198 A 
ATOM     83  C   UNL A   1      37.744  28.943  30.606  1.00  0.00     0.198 A 
ATOM     84  F   UNL A   1      39.811  28.204  31.455  1.00  0.00    -0.203 F 
ATOM     85  F   UNL A   1      36.822  30.043  27.280  1.00  0.00    -0.200 F 
ATOM     86  C   UNL A   1      36.978  29.413  29.551  1.00  0.00     0.200 A 
ATOM     87  F   UNL A   1      37.193  28.788  31.818  1.00  0.00    -0.200 F 
ATOM     88  F   UNL A   1      35.690  29.731  29.744  1.00  0.00    -0.200 F 
ENDBRANCH  54  78
BRANCH  66  89
ATOM     89  C   UNL A   1      45.494  32.615  29.372  1.00  0.00     0.064 A 
ATOM     90  C   UNL A   1      45.760  33.130  30.649  1.00  0.00     0.173 A 
ATOM     91  C   UNL A   1      45.484  33.511  28.291  1.00  0.00     0.173 A 
ATOM     92  F   UNL A   1      45.768  32.316  31.716  1.00  0.00    -0.203 F 
ATOM     93  C   UNL A   1      45.972  34.492  30.841  1.00  0.00     0.198 A 
ATOM     94  C   UNL A   1      45.726  34.868  28.483  1.00  0.00     0.198 A 
ATOM     95  F   UNL A   1      45.245  33.068  27.047  1.00  0.00    -0.203 F 
ATOM     96  F   UNL A   1      46.171  34.969  32.077  1.00  0.00    -0.200 F 
ATOM     97  C   UNL A   1      45.961  35.359  29.757  1.00  0.00     0.200 A 
ATOM     98  F   UNL A   1      45.728  35.701  27.433  1.00  0.00    -0.200 F 
ATOM     99  F   UNL A   1      46.166  36.670  29.945  1.00  0.00    -0.200 F 
ENDBRANCH  66  89
ENDBRANCH  40  41
ENDBRANCH  33  35
ENDBRANCH  32  33
ENDBRANCH  31  32
ENDBRANCH  30  31
ENDBRANCH  29  30
ENDBRANCH   1  29
TORSDOF 22
ENDMDL
MODEL 2
REMARK VINA RESULT:     -10.6      5.159     10.376
REMARK SMILES O=C(N[C@@H](CS)C(=O)N[C@@H](CO)C(=O)OCCOCCOC(=O)c1ccc(-c2c3nc(c(-c4c(F)c(F)c(F)c(F)c4F)c4ccc([nH]4)c(-c4c(F)c(F)c(F)c(F)c4F)c4nc(c(-c5c(F)c(F)c(F)c(F)c5F)c5ccc2[nH]5)C=C4)C=C3)cc1)c1ccc(F)cc1
REMARK SMILES IDX 17 1 16 2 15 3 13 4 14 5 10 6 9 7 7 8 8 9 4 11 3 12 1 13
REMARK SMILES IDX 2 14 87 16 88 17 93 18 89 19 92 20 90 21 91 22 5 23 6 24
REMARK SMILES IDX 11 26 12 27 18 29 19 30 20 31 21 32 22 33 23 34 24 35 25 36
REMARK SMILES IDX 86 37 26 38 85 39 27 40 28 41 29 42 79 43 30 44 84 45 78 46
REMARK SMILES IDX 80 47 31 48 83 49 77 50 76 51 32 53 64 54 44 55 63 56 45 57
REMARK SMILES IDX 48 58 62 59 81 60 46 61 47 62 61 64 82 65 49 66 33 67 34 68
REMARK SMILES IDX 42 69 35 70 36 71 40 72 43 73 37 74 38 75 41 76 39 77 65 78
REMARK SMILES IDX 66 79 74 80 67 81 68 82 72 83 75 84 69 85 70 86 73 87 71 88
REMARK SMILES IDX 50 89 51 90 59 91 52 92 53 93 57 94 60 95 54 96 55 97 58 98
REMARK SMILES IDX 56 99
REMARK H PARENT 9 10 3 15 6 25 12 28 80 52 48 63
REMARK Flexibility Score: inf
ROOT
ATOM      1  C   UNL A   1      34.180  28.767  27.164  1.00  0.00     0.202 C 
ENDROOT
BRANCH   1   2
ATOM      2  C   UNL A   1      32.790  28.137  27.058  1.00  0.00     0.261 C 
BRANCH   2   3
ATOM      3  O   UNL A   1      32.864  26.853  26.414  1.00  0.00    -0.462 OA
BRANCH   3   4
ATOM      4  C   UNL A   1      31.702  26.141  26.405  1.00  0.00     0.331 C 
ATOM      5  O   UNL A   1      30.630  26.547  26.837  1.00  0.00    -0.250 OA
BRANCH   4   6
ATOM      6  C   UNL A   1      31.886  24.741  25.795  1.00  0.00     0.218 C 
BRANCH   6   7
ATOM      7  N   UNL A   1      33.214  24.519  25.196  1.00  0.00    -0.339 N 
ATOM      8  C   UNL A   1      33.632  24.081  23.984  1.00  0.00     0.244 C 
ATOM      9  O   UNL A   1      34.845  24.189  23.761  1.00  0.00    -0.273 OA
ATOM     10  H   UNL A   1      33.955  24.735  25.807  1.00  0.00     0.164 HD
BRANCH   8  11
ATOM     11  C   UNL A   1      32.711  23.585  22.848  1.00  0.00     0.181 C 
BRANCH  11  12
ATOM     12  N   UNL A   1      33.001  24.120  21.518  1.00  0.00    -0.339 N 
ATOM     13  O   UNL A   1      32.956  25.591  19.829  1.00  0.00    -0.269 OA
ATOM     14  C   UNL A   1      32.842  25.395  21.035  1.00  0.00     0.251 C 
ATOM     15  H   UNL A   1      33.364  23.470  20.874  1.00  0.00     0.164 HD
BRANCH  14  16
ATOM     16  C   UNL A   1      32.496  26.525  21.927  1.00  0.00     0.040 A 
ATOM     17  C   UNL A   1      33.464  27.430  22.382  1.00  0.00     0.017 A 
ATOM     18  C   UNL A   1      31.148  26.721  22.254  1.00  0.00     0.017 A 
ATOM     19  C   UNL A   1      33.094  28.478  23.228  1.00  0.00     0.040 A 
ATOM     20  C   UNL A   1      30.779  27.780  23.086  1.00  0.00     0.040 A 
ATOM     21  C   UNL A   1      31.756  28.640  23.575  1.00  0.00     0.123 A 
ATOM     22  F   UNL A   1      31.404  29.648  24.383  1.00  0.00    -0.207 F 
ENDBRANCH  14  16
ENDBRANCH  11  12
BRANCH  11  23
ATOM     23  C   UNL A   1      32.483  22.062  22.881  1.00  0.00     0.101 C 
BRANCH  23  24
ATOM     24  S   UNL A   1      33.201  21.170  24.294  1.00  0.00    -0.177 SA
ATOM     25  H   UNL A   1      33.429  19.875  23.944  1.00  0.00     0.102 HD
ENDBRANCH  23  24
ENDBRANCH  11  23
ENDBRANCH   8  11
ENDBRANCH   6   7
BRANCH   6  26
ATOM     26  C   UNL A   1      31.614  23.709  26.892  1.00  0.00     0.193 C 
BRANCH  26  27
ATOM     27  O   UNL A   1      30.232  23.692  27.249  1.00  0.00    -0.394 OA
ATOM     28  H   UNL A   1      29.934  24.596  27.436  1.00  0.00     0.210 HD
ENDBRANCH  26  27
ENDBRANCH   6  26
ENDBRANCH   4   6
ENDBRANCH   3   4
ENDBRANCH   2   3
ENDBRANCH   1   2
BRANCH   1  29
ATOM     29  O   UNL A   1      34.256  30.164  26.877  1.00  0.00    -0.374 OA
BRANCH  29  30
ATOM     30  C   UNL A   1      33.492  31.049  27.695  1.00  0.00     0.202 C 
BRANCH  30  31
ATOM     31  C   UNL A   1      33.603  32.542  27.370  1.00  0.00     0.261 C 
BRANCH  31  32
ATOM     32  O   UNL A   1      32.639  33.332  28.086  1.00  0.00    -0.460 OA
BRANCH  32  33
ATOM     33  C   UNL A   1      33.139  34.478  28.596  1.00  0.00     0.338 C 
ATOM     34  O   UNL A   1      32.677  35.608  28.486  1.00  0.00    -0.246 OA
BRANCH  33  35
ATOM     35  C   UNL A   1      34.276  34.202  29.486  1.00  0.00     0.060 A 
ATOM     36  C   UNL A   1      35.541  34.594  29.032  1.00  0.00     0.016 A 
ATOM     37  C   UNL A   1      34.136  33.454  30.657  1.00  0.00     0.016 A 
ATOM     38  C   UNL A   1      36.681  34.163  29.700  1.00  0.00     0.010 A 
ATOM     39  C   UNL A   1      35.287  33.017  31.327  1.00  0.00     0.010 A 
ATOM     40  C   UNL A   1      36.561  33.321  30.814  1.00  0.00    -0.014 A 
BRANCH  40  41
ATOM     41  C   UNL A   1      37.773  32.603  31.278  1.00  0.00     0.031 A 
ATOM     42  C   UNL A   1      38.325  32.927  32.640  1.00  0.00     0.074 A 
ATOM     43  C   UNL A   1      38.306  31.607  30.549  1.00  0.00     0.049 A 
ATOM     44  N   UNL A   1      39.307  32.362  33.297  1.00  0.00    -0.248 NA
ATOM     45  C   UNL A   1      37.677  34.033  33.364  1.00  0.00     0.031 C 
ATOM     46  C   UNL A   1      37.836  31.179  29.235  1.00  0.00     0.029 A 
ATOM     47  N   UNL A   1      39.353  30.765  30.826  1.00  0.00    -0.354 N 
ATOM     48  C   UNL A   1      39.390  33.040  34.507  1.00  0.00     0.074 A 
ATOM     49  C   UNL A   1      38.387  34.082  34.480  1.00  0.00     0.031 C 
ATOM     50  C   UNL A   1      38.589  30.146  28.819  1.00  0.00     0.029 A 
ATOM     51  C   UNL A   1      39.599  29.851  29.832  1.00  0.00     0.049 A 
ATOM     52  H   UNL A   1      39.877  30.811  31.658  1.00  0.00     0.167 HD
ATOM     53  C   UNL A   1      40.215  32.805  35.554  1.00  0.00     0.037 A 
ATOM     54  C   UNL A   1      40.536  28.885  29.756  1.00  0.00     0.037 A 
ATOM     55  C   UNL A   1      41.211  31.766  35.582  1.00  0.00     0.049 A 
ATOM     56  C   UNL A   1      41.469  28.668  30.919  1.00  0.00     0.074 A 
ATOM     57  C   UNL A   1      42.102  31.448  36.592  1.00  0.00     0.029 A 
ATOM     58  N   UNL A   1      41.448  30.877  34.545  1.00  0.00    -0.354 N 
ATOM     59  N   UNL A   1      41.522  29.297  32.069  1.00  0.00    -0.248 NA
ATOM     60  C   UNL A   1      42.461  27.593  30.779  1.00  0.00     0.031 C 
ATOM     61  C   UNL A   1      42.903  30.389  36.151  1.00  0.00     0.029 A 
ATOM     62  C   UNL A   1      42.479  30.016  34.885  1.00  0.00     0.049 A 
ATOM     63  H   UNL A   1      40.955  30.859  33.692  1.00  0.00     0.167 HD
ATOM     64  C   UNL A   1      42.526  28.673  32.801  1.00  0.00     0.074 A 
ATOM     65  C   UNL A   1      43.048  27.609  31.968  1.00  0.00     0.031 C 
ATOM     66  C   UNL A   1      42.972  28.953  34.050  1.00  0.00     0.037 A 
BRANCH  53  67
ATOM     67  C   UNL A   1      40.088  33.704  36.748  1.00  0.00     0.064 A 
ATOM     68  C   UNL A   1      39.234  33.392  37.818  1.00  0.00     0.173 A 
ATOM     69  C   UNL A   1      40.842  34.883  36.833  1.00  0.00     0.173 A 
ATOM     70  F   UNL A   1      38.478  32.284  37.776  1.00  0.00    -0.203 F 
ATOM     71  C   UNL A   1      39.122  34.240  38.916  1.00  0.00     0.198 A 
ATOM     72  C   UNL A   1      40.748  35.715  37.946  1.00  0.00     0.198 A 
ATOM     73  F   UNL A   1      41.674  35.227  35.839  1.00  0.00    -0.203 F 
ATOM     74  F   UNL A   1      38.266  33.946  39.905  1.00  0.00    -0.200 F 
ATOM     75  C   UNL A   1      39.883  35.397  38.982  1.00  0.00     0.200 A 
ATOM     76  F   UNL A   1      41.492  36.829  38.012  1.00  0.00    -0.200 F 
ATOM     77  F   UNL A   1      39.778  36.212  40.041  1.00  0.00    -0.200 F 
ENDBRANCH  53  67
BRANCH  54  78
ATOM     78  C   UNL A   1      40.627  28.036  28.541  1.00  0.00     0.064 A 
ATOM     79  C   UNL A   1      39.993  26.788  28.477  1.00  0.00     0.173 A 
ATOM     80  C   UNL A   1      41.367  28.450  27.423  1.00  0.00     0.173 A 
ATOM     81  F   UNL A   1      39.293  26.338  29.529  1.00  0.00    -0.203 F 
ATOM     82  C   UNL A   1      40.112  25.977  27.351  1.00  0.00     0.198 A 
ATOM     83  C   UNL A   1      41.463  27.650  26.287  1.00  0.00     0.198 A 
ATOM     84  F   UNL A   1      41.993  29.635  27.434  1.00  0.00    -0.203 F 
ATOM     85  F   UNL A   1      39.535  24.767  27.334  1.00  0.00    -0.200 F 
ATOM     86  C   UNL A   1      40.843  26.411  26.255  1.00  0.00     0.200 A 
ATOM     87  F   UNL A   1      42.161  28.078  25.227  1.00  0.00    -0.200 F 
ATOM     88  F   UNL A   1      40.957  25.630  25.170  1.00  0.00    -0.200 F 
ENDBRANCH  54  78
BRANCH  66  89
ATOM     89  C   UNL A   1      44.044  28.064  34.611  1.00  0.00     0.064 A 
ATOM     90  C   UNL A   1      43.739  26.894  35.321  1.00  0.00     0.173 A 
ATOM     91  C   UNL A   1      45.398  28.376  34.408  1.00  0.00     0.173 A 
ATOM     92  F   UNL A   1      42.460  26.559  35.552  1.00  0.00    -0.203 F 
ATOM     93  C   UNL A   1      44.748  26.086  35.836  1.00  0.00     0.198 A 
ATOM     94  C   UNL A   1      46.405  27.550  34.899  1.00  0.00     0.198 A 
ATOM     95  F   UNL A   1      45.743  29.479  33.728  1.00  0.00    -0.203 F 
ATOM     96  F   UNL A   1      44.434  25.001  36.556  1.00  0.00    -0.200 F 
ATOM     97  C   UNL A   1      46.080  26.411  35.620  1.00  0.00     0.200 A 
ATOM     98  F   UNL A   1      47.690  27.859  34.678  1.00  0.00    -0.200 F 
ATOM     99  F   UNL A   1      47.050  25.631  36.116  1.00  0.00    -0.200 F 
ENDBRANCH  66  89
ENDBRANCH  40  41
ENDBRANCH  33  35
ENDBRANCH  32  33
ENDBRANCH  31  32
ENDBRANCH  30  31
ENDBRANCH  29  30
ENDBRANCH   1  29
TORSDOF 22
ENDMDL
MODEL 3
REMARK VINA RESULT:     -10.5      2.227      7.867
REMARK SMILES O=C(N[C@@H](CS)C(=O)N[C@@H](CO)C(=O)OCCOCCOC(=O)c1ccc(-c2c3nc(c(-c4c(F)c(F)c(F)c(F)c4F)c4ccc([nH]4)c(-c4c(F)c(F)c(F)c(F)c4F)c4nc(c(-c5c(F)c(F)c(F)c(F)c5F)c5ccc2[nH]5)C=C4)C=C3)cc1)c1ccc(F)cc1
REMARK SMILES IDX 17 1 16 2 15 3 13 4 14 5 10 6 9 7 7 8 8 9 4 11 3 12 1 13
REMARK SMILES IDX 2 14 87 16 88 17 93 18 89 19 92 20 90 21 91 22 5 23 6 24
REMARK SMILES IDX 11 26 12 27 18 29 19 30 20 31 21 32 22 33 23 34 24 35 25 36
REMARK SMILES IDX 86 37 26 38 85 39 27 40 28 41 29 42 79 43 30 44 84 45 78 46
REMARK SMILES IDX 80 47 31 48 83 49 77 50 76 51 32 53 64 54 44 55 63 56 45 57
REMARK SMILES IDX 48 58 62 59 81 60 46 61 47 62 61 64 82 65 49 66 33 67 34 68
REMARK SMILES IDX 42 69 35 70 36 71 40 72 43 73 37 74 38 75 41 76 39 77 65 78
REMARK SMILES IDX 66 79 74 80 67 81 68 82 72 83 75 84 69 85 70 86 73 87 71 88
REMARK SMILES IDX 50 89 51 90 59 91 52 92 53 93 57 94 60 95 54 96 55 97 58 98
REMARK SMILES IDX 56 99
REMARK H PARENT 9 10 3 15 6 25 12 28 80 52 48 63
REMARK Flexibility Score: inf
ROOT
ATOM      1  C   UNL A   1      33.466  20.617  25.128  1.00  0.00     0.202 C 
ENDROOT
BRANCH   1   2
ATOM      2  C   UNL A   1      32.264  21.394  25.670  1.00  0.00     0.261 C 
BRANCH   2   3
ATOM      3  O   UNL A   1      32.366  22.787  25.327  1.00  0.00    -0.462 OA
BRANCH   3   4
ATOM      4  C   UNL A   1      32.162  23.654  26.357  1.00  0.00     0.331 C 
ATOM      5  O   UNL A   1      31.793  23.331  27.480  1.00  0.00    -0.250 OA
BRANCH   4   6
ATOM      6  C   UNL A   1      32.436  25.112  25.950  1.00  0.00     0.218 C 
BRANCH   6   7
ATOM      7  N   UNL A   1      31.887  26.108  26.887  1.00  0.00    -0.339 N 
ATOM      8  C   UNL A   1      31.688  27.446  26.819  1.00  0.00     0.244 C 
ATOM      9  O   UNL A   1      31.030  27.941  27.744  1.00  0.00    -0.273 OA
ATOM     10  H   UNL A   1      31.605  25.717  27.746  1.00  0.00     0.164 HD
BRANCH   8  11
ATOM     11  C   UNL A   1      32.107  28.351  25.641  1.00  0.00     0.181 C 
BRANCH  11  12
ATOM     12  N   UNL A   1      31.039  28.713  24.708  1.00  0.00    -0.339 N 
ATOM     13  O   UNL A   1      29.917  28.755  22.770  1.00  0.00    -0.269 OA
ATOM     14  C   UNL A   1      30.729  28.175  23.484  1.00  0.00     0.251 C 
ATOM     15  H   UNL A   1      30.456  29.450  25.003  1.00  0.00     0.164 HD
BRANCH  14  16
ATOM     16  C   UNL A   1      31.380  26.940  22.992  1.00  0.00     0.040 A 
ATOM     17  C   UNL A   1      30.742  25.694  23.055  1.00  0.00     0.017 A 
ATOM     18  C   UNL A   1      32.636  27.052  22.383  1.00  0.00     0.017 A 
ATOM     19  C   UNL A   1      31.397  24.553  22.584  1.00  0.00     0.040 A 
ATOM     20  C   UNL A   1      33.280  25.912  21.897  1.00  0.00     0.040 A 
ATOM     21  C   UNL A   1      32.661  24.672  22.014  1.00  0.00     0.123 A 
ATOM     22  F   UNL A   1      33.284  23.578  21.561  1.00  0.00    -0.207 F 
ENDBRANCH  14  16
ENDBRANCH  11  12
BRANCH  11  23
ATOM     23  C   UNL A   1      32.992  29.534  26.076  1.00  0.00     0.101 C 
BRANCH  23  24
ATOM     24  S   UNL A   1      34.328  29.152  27.251  1.00  0.00    -0.177 SA
ATOM     25  H   UNL A   1      33.862  29.279  28.524  1.00  0.00     0.102 HD
ENDBRANCH  23  24
ENDBRANCH  11  23
ENDBRANCH   8  11
ENDBRANCH   6   7
BRANCH   6  26
ATOM     26  C   UNL A   1      33.950  25.286  25.809  1.00  0.00     0.193 C 
BRANCH  26  27
ATOM     27  O   UNL A   1      34.638  24.078  26.134  1.00  0.00    -0.394 OA
ATOM     28  H   UNL A   1      35.186  24.220  26.922  1.00  0.00     0.210 HD
ENDBRANCH  26  27
ENDBRANCH   6  26
ENDBRANCH   4   6
ENDBRANCH   3   4
ENDBRANCH   2   3
ENDBRANCH   1   2
BRANCH   1  29
ATOM     29  O   UNL A   1      34.659  21.375  24.921  1.00  0.00    -0.374 OA
BRANCH  29  30
ATOM     30  C   UNL A   1      35.790  21.063  25.733  1.00  0.00     0.202 C 
BRANCH  30  31
ATOM     31  C   UNL A   1      37.040  20.570  24.997  1.00  0.00     0.261 C 
BRANCH  31  32
ATOM     32  O   UNL A   1      38.106  21.534  25.022  1.00  0.00    -0.460 OA
BRANCH  32  33
ATOM     33  C   UNL A   1      39.079  21.253  25.916  1.00  0.00     0.338 C 
ATOM     34  O   UNL A   1      39.652  20.182  26.084  1.00  0.00    -0.246 OA
BRANCH  33  35
ATOM     35  C   UNL A   1      39.525  22.474  26.604  1.00  0.00     0.060 A 
ATOM     36  C   UNL A   1      38.906  23.671  26.226  1.00  0.00     0.016 A 
ATOM     37  C   UNL A   1      40.611  22.475  27.480  1.00  0.00     0.016 A 
ATOM     38  C   UNL A   1      39.429  24.886  26.654  1.00  0.00     0.010 A 
ATOM     39  C   UNL A   1      41.140  23.700  27.908  1.00  0.00     0.010 A 
ATOM     40  C   UNL A   1      40.585  24.907  27.446  1.00  0.00    -0.014 A 
BRANCH  40  41
ATOM     41  C   UNL A   1      41.309  26.195  27.585  1.00  0.00     0.031 A 
ATOM     42  C   UNL A   1      40.650  27.313  28.348  1.00  0.00     0.074 A 
ATOM     43  C   UNL A   1      42.570  26.328  27.139  1.00  0.00     0.049 A 
ATOM     44  N   UNL A   1      41.127  28.485  28.686  1.00  0.00    -0.248 NA
ATOM     45  C   UNL A   1      39.269  27.075  28.797  1.00  0.00     0.031 C 
ATOM     46  C   UNL A   1      43.324  25.305  26.421  1.00  0.00     0.029 A 
ATOM     47  N   UNL A   1      43.442  27.383  27.242  1.00  0.00    -0.354 N 
ATOM     48  C   UNL A   1      40.109  29.117  29.387  1.00  0.00     0.074 A 
ATOM     49  C   UNL A   1      38.975  28.219  29.394  1.00  0.00     0.031 C 
ATOM     50  C   UNL A   1      44.553  25.778  26.152  1.00  0.00     0.029 A 
ATOM     51  C   UNL A   1      44.665  27.141  26.668  1.00  0.00     0.049 A 
ATOM     52  H   UNL A   1      43.213  28.231  27.686  1.00  0.00     0.167 HD
ATOM     53  C   UNL A   1      40.121  30.331  29.987  1.00  0.00     0.037 A 
ATOM     54  C   UNL A   1      45.750  27.934  26.575  1.00  0.00     0.037 A 
ATOM     55  C   UNL A   1      41.249  31.225  29.982  1.00  0.00     0.049 A 
ATOM     56  C   UNL A   1      45.726  29.296  27.217  1.00  0.00     0.074 A 
ATOM     57  C   UNL A   1      41.363  32.479  30.555  1.00  0.00     0.029 A 
ATOM     58  N   UNL A   1      42.463  30.954  29.367  1.00  0.00    -0.354 N 
ATOM     59  N   UNL A   1      44.768  29.875  27.901  1.00  0.00    -0.248 NA
ATOM     60  C   UNL A   1      46.945  30.109  27.090  1.00  0.00     0.031 C 
ATOM     61  C   UNL A   1      42.633  32.983  30.255  1.00  0.00     0.029 A 
ATOM     62  C   UNL A   1      43.328  32.023  29.536  1.00  0.00     0.049 A 
ATOM     63  H   UNL A   1      42.678  30.124  28.882  1.00  0.00     0.167 HD
ATOM     64  C   UNL A   1      45.278  31.100  28.314  1.00  0.00     0.074 A 
ATOM     65  C   UNL A   1      46.635  31.177  27.812  1.00  0.00     0.031 C 
ATOM     66  C   UNL A   1      44.679  32.072  29.045  1.00  0.00     0.037 A 
BRANCH  53  67
ATOM     67  C   UNL A   1      38.866  30.771  30.681  1.00  0.00     0.064 A 
ATOM     68  C   UNL A   1      38.714  30.656  32.072  1.00  0.00     0.173 A 
ATOM     69  C   UNL A   1      37.809  31.332  29.949  1.00  0.00     0.173 A 
ATOM     70  F   UNL A   1      39.689  30.110  32.814  1.00  0.00    -0.203 F 
ATOM     71  C   UNL A   1      37.540  31.063  32.700  1.00  0.00     0.198 A 
ATOM     72  C   UNL A   1      36.647  31.763  30.585  1.00  0.00     0.198 A 
ATOM     73  F   UNL A   1      37.903  31.466  28.618  1.00  0.00    -0.203 F 
ATOM     74  F   UNL A   1      37.398  30.901  34.023  1.00  0.00    -0.200 F 
ATOM     75  C   UNL A   1      36.510  31.621  31.958  1.00  0.00     0.200 A 
ATOM     76  F   UNL A   1      35.656  32.310  29.866  1.00  0.00    -0.200 F 
ATOM     77  F   UNL A   1      35.382  32.015  32.563  1.00  0.00    -0.200 F 
ENDBRANCH  53  67
BRANCH  54  78
ATOM     78  C   UNL A   1      46.961  27.452  25.861  1.00  0.00     0.064 A 
ATOM     79  C   UNL A   1      48.014  26.834  26.549  1.00  0.00     0.173 A 
ATOM     80  C   UNL A   1      47.094  27.617  24.473  1.00  0.00     0.173 A 
ATOM     81  F   UNL A   1      47.942  26.676  27.878  1.00  0.00    -0.203 F 
ATOM     82  C   UNL A   1      49.163  26.419  25.880  1.00  0.00     0.198 A 
ATOM     83  C   UNL A   1      48.233  27.177  23.803  1.00  0.00     0.198 A 
ATOM     84  F   UNL A   1      46.115  28.203  23.770  1.00  0.00    -0.203 F 
ATOM     85  F   UNL A   1      50.176  25.875  26.569  1.00  0.00    -0.200 F 
ATOM     86  C   UNL A   1      49.270  26.586  24.508  1.00  0.00     0.200 A 
ATOM     87  F   UNL A   1      48.327  27.330  22.475  1.00  0.00    -0.200 F 
ATOM     88  F   UNL A   1      50.377  26.185  23.866  1.00  0.00    -0.200 F 
ENDBRANCH  54  78
BRANCH  66  89
ATOM     89  C   UNL A   1      45.503  33.279  29.389  1.00  0.00     0.064 A 
ATOM     90  C   UNL A   1      45.522  34.420  28.573  1.00  0.00     0.173 A 
ATOM     91  C   UNL A   1      46.263  33.303  30.570  1.00  0.00     0.173 A 
ATOM     92  F   UNL A   1      44.823  34.442  27.428  1.00  0.00    -0.203 F 
ATOM     93  C   UNL A   1      46.295  35.527  28.909  1.00  0.00     0.198 A 
ATOM     94  C   UNL A   1      47.011  34.423  30.918  1.00  0.00     0.198 A 
ATOM     95  F   UNL A   1      46.272  32.241  31.389  1.00  0.00    -0.203 F 
ATOM     96  F   UNL A   1      46.339  36.586  28.089  1.00  0.00    -0.200 F 
ATOM     97  C   UNL A   1      47.035  35.530  30.084  1.00  0.00     0.200 A 
ATOM     98  F   UNL A   1      47.714  34.429  32.058  1.00  0.00    -0.200 F 
ATOM     99  F   UNL A   1      47.778  36.598  30.405  1.00  0.00    -0.200 F 
ENDBRANCH  66  89
ENDBRANCH  40  41
ENDBRANCH  33  35
ENDBRANCH  32  33
ENDBRANCH  31  32
ENDBRANCH  30  31
ENDBRANCH  29  30
ENDBRANCH   1  29
TORSDOF 22
ENDMDL
