MODEL 1
REMARK VINA RESULT:     -13.4      0.000      0.000
REMARK SMILES Cc1coc2cc3c(cc12)[C@@H](C)[C@H](CCC(=O)N[C@@H](Cc1c[nH]c2ccccc12)C(=O)OCCOCCOC(=O)c1ccc(-c2c4nc(c(-c5c(F)c(F)c(F)c(F)c5F)c5ccc([nH]5)c(-c5c(F)c(F)c(F)c(F)c5F)c5nc(c(-c6c(F)c(F)c(F)c(F)c6F)c6ccc2[nH]6)C=C5)C=C4)cc1)C(=O)O3
REMARK SMILES IDX 34 1 33 2 32 3 30 4 31 5 19 6 18 7 16 8 17 9 15 11 14 12
REMARK SMILES IDX 13 13 1 14 2 15 3 16 10 17 4 18 5 19 9 20 6 21 8 22 7 23
REMARK SMILES IDX 11 24 106 25 12 26 104 27 105 28 20 29 21 30 22 31 29 32
REMARK SMILES IDX 23 33 24 34 28 35 25 37 27 38 26 39 35 40 36 41 37 42 38 43
REMARK SMILES IDX 39 44 40 45 41 46 42 47 103 48 43 49 102 50 44 51 45 52
REMARK SMILES IDX 46 53 96 54 47 55 101 56 95 57 97 58 48 59 100 60 94 61
REMARK SMILES IDX 93 62 49 64 81 65 61 66 80 67 62 68 65 69 79 70 98 71 63 72
REMARK SMILES IDX 64 73 78 75 99 76 66 77 50 78 51 79 59 80 52 81 53 82 57 83
REMARK SMILES IDX 60 84 54 85 55 86 58 87 56 88 82 89 83 90 91 91 84 92 85 93
REMARK SMILES IDX 89 94 92 95 86 96 87 97 90 98 88 99 67 100 68 101 76 102
REMARK SMILES IDX 69 103 70 104 74 105 77 106 71 107 72 108 75 109 73 110
REMARK H PARENT 18 10 23 36 97 63 65 74
REMARK Flexibility Score: inf
ROOT
ATOM      1  C   UNL A   1      32.276  30.880  26.660  1.00  0.00     0.202 C 
ENDROOT
BRANCH   1   2
ATOM      2  C   UNL A   1      31.408  30.589  25.443  1.00  0.00     0.261 C 
BRANCH   2   3
ATOM      3  O   UNL A   1      30.872  29.296  25.540  1.00  0.00    -0.462 OA
BRANCH   3   4
ATOM      4  C   UNL A   1      30.776  28.762  24.313  1.00  0.00     0.329 C 
ATOM      5  O   UNL A   1      29.892  28.970  23.488  1.00  0.00    -0.250 OA
BRANCH   4   6
ATOM      6  C   UNL A   1      31.854  27.761  24.085  1.00  0.00     0.196 C 
BRANCH   6   7
ATOM      7  N   UNL A   1      33.064  28.103  23.269  1.00  0.00    -0.342 N 
ATOM      8  C   UNL A   1      33.528  27.694  22.028  1.00  0.00     0.220 C 
ATOM      9  O   UNL A   1      34.645  28.079  21.667  1.00  0.00    -0.275 OA
ATOM     10  H   UNL A   1      33.656  28.757  23.707  1.00  0.00     0.164 HD
BRANCH   8  11
ATOM     11  C   UNL A   1      32.745  26.745  21.086  1.00  0.00     0.101 C 
BRANCH  11  12
ATOM     12  C   UNL A   1      33.030  25.216  21.091  1.00  0.00     0.026 C 
BRANCH  12  13
ATOM     13  C   UNL A   1      32.702  24.614  22.440  1.00  0.00     0.107 C 
ATOM     14  C   UNL A   1      32.803  17.859  24.045  1.00  0.00     0.048 C 
ATOM     15  C   UNL A   1      33.795  18.881  24.419  1.00  0.00    -0.005 A 
ATOM     16  C   UNL A   1      35.067  18.719  24.926  1.00  0.00     0.199 A 
ATOM     17  C   UNL A   1      33.637  20.261  24.189  1.00  0.00     0.024 A 
ATOM     18  O   UNL A   1      35.693  19.910  25.063  1.00  0.00    -0.464 OA
ATOM     19  C   UNL A   1      34.858  20.827  24.530  1.00  0.00     0.137 A 
ATOM     20  C   UNL A   1      32.611  21.037  23.630  1.00  0.00     0.020 A 
ATOM     21  C   UNL A   1      35.226  22.103  24.231  1.00  0.00     0.095 A 
ATOM     22  C   UNL A   1      32.973  22.284  23.179  1.00  0.00    -0.001 A 
ATOM     23  C   UNL A   1      34.322  22.679  23.356  1.00  0.00     0.138 A 
ATOM     24  C   UNL A   1      31.979  23.252  22.572  1.00  0.00     0.034 C 
ATOM     25  O   UNL A   1      34.846  23.681  22.595  1.00  0.00    -0.426 OA
ATOM     26  C   UNL A   1      30.676  23.351  23.464  1.00  0.00     0.014 C 
ATOM     27  C   UNL A   1      34.061  24.579  23.180  1.00  0.00     0.314 C 
ATOM     28  O   UNL A   1      34.469  25.193  24.174  1.00  0.00    -0.251 OA
ENDBRANCH  12  13
ENDBRANCH  11  12
ENDBRANCH   8  11
ENDBRANCH   6   7
BRANCH   6  29
ATOM     29  C   UNL A   1      32.048  27.195  25.539  1.00  0.00     0.074 C 
BRANCH  29  30
ATOM     30  C   UNL A   1      31.262  26.010  26.000  1.00  0.00    -0.020 A 
ATOM     31  C   UNL A   1      29.893  25.870  26.149  1.00  0.00     0.087 A 
ATOM     32  C   UNL A   1      31.838  24.829  26.522  1.00  0.00     0.003 A 
ATOM     33  N   UNL A   1      29.630  24.574  26.492  1.00  0.00    -0.361 N 
ATOM     34  C   UNL A   1      30.811  23.908  26.699  1.00  0.00     0.046 A 
ATOM     35  C   UNL A   1      33.166  24.460  26.781  1.00  0.00     0.010 A 
ATOM     36  H   UNL A   1      28.732  24.179  26.577  1.00  0.00     0.166 HD
ATOM     37  C   UNL A   1      31.063  22.579  27.013  1.00  0.00     0.026 A 
ATOM     38  C   UNL A   1      33.446  23.132  27.034  1.00  0.00     0.001 A 
ATOM     39  C   UNL A   1      32.408  22.217  27.147  1.00  0.00     0.002 A 
ENDBRANCH  29  30
ENDBRANCH   6  29
ENDBRANCH   4   6
ENDBRANCH   3   4
ENDBRANCH   2   3
ENDBRANCH   1   2
BRANCH   1  40
ATOM     40  O   UNL A   1      33.640  30.490  26.682  1.00  0.00    -0.374 OA
BRANCH  40  41
ATOM     41  C   UNL A   1      34.402  30.796  27.859  1.00  0.00     0.202 C 
BRANCH  41  42
ATOM     42  C   UNL A   1      35.956  30.755  27.921  1.00  0.00     0.261 C 
BRANCH  42  43
ATOM     43  O   UNL A   1      36.504  29.437  28.215  1.00  0.00    -0.460 OA
BRANCH  43  44
ATOM     44  C   UNL A   1      37.457  29.392  29.194  1.00  0.00     0.338 C 
ATOM     45  O   UNL A   1      37.251  29.094  30.362  1.00  0.00    -0.246 OA
BRANCH  44  46
ATOM     46  C   UNL A   1      38.820  29.226  28.576  1.00  0.00     0.060 A 
ATOM     47  C   UNL A   1      39.211  29.459  27.268  1.00  0.00     0.016 A 
ATOM     48  C   UNL A   1      39.771  28.623  29.403  1.00  0.00     0.016 A 
ATOM     49  C   UNL A   1      40.414  28.821  26.788  1.00  0.00     0.010 A 
ATOM     50  C   UNL A   1      40.991  28.132  28.906  1.00  0.00     0.010 A 
ATOM     51  C   UNL A   1      41.210  27.895  27.562  1.00  0.00    -0.014 A 
BRANCH  51  52
ATOM     52  C   UNL A   1      42.583  27.231  27.143  1.00  0.00     0.031 A 
ATOM     53  C   UNL A   1      42.147  25.755  27.039  1.00  0.00     0.074 A 
ATOM     54  C   UNL A   1      43.919  27.718  26.880  1.00  0.00     0.049 A 
ATOM     55  N   UNL A   1      42.379  24.876  27.960  1.00  0.00    -0.248 NA
ATOM     56  C   UNL A   1      41.053  25.266  26.145  1.00  0.00     0.031 C 
ATOM     57  C   UNL A   1      44.568  29.092  26.927  1.00  0.00     0.029 A 
ATOM     58  N   UNL A   1      45.143  27.008  26.538  1.00  0.00    -0.354 N 
ATOM     59  C   UNL A   1      41.829  23.669  27.530  1.00  0.00     0.074 A 
ATOM     60  C   UNL A   1      40.849  24.007  26.557  1.00  0.00     0.031 C 
ATOM     61  C   UNL A   1      45.826  29.134  26.359  1.00  0.00     0.029 A 
ATOM     62  C   UNL A   1      46.264  27.802  25.954  1.00  0.00     0.049 A 
ATOM     63  H   UNL A   1      45.229  26.038  26.685  1.00  0.00     0.167 HD
ATOM     64  C   UNL A   1      42.538  22.532  27.766  1.00  0.00     0.037 A 
ATOM     65  C   UNL A   1      47.583  27.423  25.584  1.00  0.00     0.037 A 
ATOM     66  C   UNL A   1      43.493  22.810  28.812  1.00  0.00     0.049 A 
ATOM     67  C   UNL A   1      47.800  26.095  26.189  1.00  0.00     0.074 A 
ATOM     68  C   UNL A   1      43.411  23.086  30.159  1.00  0.00     0.029 A 
ATOM     69  N   UNL A   1      44.593  23.470  28.333  1.00  0.00    -0.354 N 
ATOM     70  N   UNL A   1      47.931  25.951  27.472  1.00  0.00    -0.248 NA
ATOM     71  C   UNL A   1      47.221  25.000  25.428  1.00  0.00     0.031 C 
ATOM     72  C   UNL A   1      44.423  24.054  30.429  1.00  0.00     0.029 A 
ATOM     73  C   UNL A   1      45.196  24.224  29.289  1.00  0.00     0.049 A 
ATOM     74  H   UNL A   1      44.910  23.405  27.403  1.00  0.00     0.167 HD
ATOM     75  C   UNL A   1      46.968  25.010  27.761  1.00  0.00     0.074 A 
ATOM     76  C   UNL A   1      46.573  24.442  26.454  1.00  0.00     0.031 C 
ATOM     77  C   UNL A   1      46.325  25.043  28.966  1.00  0.00     0.037 A 
BRANCH  64  78
ATOM     78  C   UNL A   1      42.809  21.453  26.735  1.00  0.00     0.064 A 
ATOM     79  C   UNL A   1      42.389  20.138  27.025  1.00  0.00     0.173 A 
ATOM     80  C   UNL A   1      43.704  21.574  25.649  1.00  0.00     0.173 A 
ATOM     81  F   UNL A   1      41.576  19.899  28.065  1.00  0.00    -0.203 F 
ATOM     82  C   UNL A   1      42.850  19.031  26.305  1.00  0.00     0.198 A 
ATOM     83  C   UNL A   1      44.129  20.469  24.904  1.00  0.00     0.198 A 
ATOM     84  F   UNL A   1      44.278  22.740  25.327  1.00  0.00    -0.203 F 
ATOM     85  F   UNL A   1      42.485  17.796  26.677  1.00  0.00    -0.200 F 
ATOM     86  C   UNL A   1      43.715  19.197  25.241  1.00  0.00     0.200 A 
ATOM     87  F   UNL A   1      44.994  20.644  23.893  1.00  0.00    -0.200 F 
ATOM     88  F   UNL A   1      44.175  18.136  24.565  1.00  0.00    -0.200 F 
ENDBRANCH  64  78
BRANCH  65  89
ATOM     89  C   UNL A   1      48.516  27.707  24.361  1.00  0.00     0.064 A 
ATOM     90  C   UNL A   1      49.933  27.439  24.264  1.00  0.00     0.173 A 
ATOM     91  C   UNL A   1      47.900  27.891  23.122  1.00  0.00     0.173 A 
ATOM     92  F   UNL A   1      50.675  27.218  25.362  1.00  0.00    -0.203 F 
ATOM     93  C   UNL A   1      50.620  27.329  23.019  1.00  0.00     0.198 A 
ATOM     94  C   UNL A   1      48.575  27.751  21.892  1.00  0.00     0.198 A 
ATOM     95  F   UNL A   1      46.583  28.112  23.081  1.00  0.00    -0.203 F 
ATOM     96  F   UNL A   1      51.934  27.041  22.965  1.00  0.00    -0.200 F 
ATOM     97  C   UNL A   1      49.924  27.456  21.832  1.00  0.00     0.200 A 
ATOM     98  F   UNL A   1      47.873  27.837  20.753  1.00  0.00    -0.200 F 
ATOM     99  F   UNL A   1      50.527  27.262  20.647  1.00  0.00    -0.200 F 
ENDBRANCH  65  89
BRANCH  77 100
ATOM    100  C   UNL A   1      46.852  25.937  30.055  1.00  0.00     0.064 A 
ATOM    101  C   UNL A   1      48.112  25.863  30.678  1.00  0.00     0.173 A 
ATOM    102  C   UNL A   1      46.054  27.040  30.363  1.00  0.00     0.173 A 
ATOM    103  F   UNL A   1      48.992  24.910  30.348  1.00  0.00    -0.203 F 
ATOM    104  C   UNL A   1      48.517  26.827  31.611  1.00  0.00     0.198 A 
ATOM    105  C   UNL A   1      46.470  28.017  31.257  1.00  0.00     0.198 A 
ATOM    106  F   UNL A   1      44.883  27.206  29.731  1.00  0.00    -0.203 F 
ATOM    107  F   UNL A   1      49.719  26.741  32.202  1.00  0.00    -0.200 F 
ATOM    108  C   UNL A   1      47.689  27.900  31.902  1.00  0.00     0.200 A 
ATOM    109  F   UNL A   1      45.696  29.088  31.465  1.00  0.00    -0.200 F 
ATOM    110  F   UNL A   1      48.070  28.834  32.785  1.00  0.00    -0.200 F 
ENDBRANCH  77 100
ENDBRANCH  51  52
ENDBRANCH  44  46
ENDBRANCH  43  44
ENDBRANCH  42  43
ENDBRANCH  41  42
ENDBRANCH  40  41
ENDBRANCH   1  40
TORSDOF 20
ENDMDL
MODEL 2
REMARK VINA RESULT:     -12.7      4.632      9.538
REMARK SMILES Cc1coc2cc3c(cc12)[C@@H](C)[C@H](CCC(=O)N[C@@H](Cc1c[nH]c2ccccc12)C(=O)OCCOCCOC(=O)c1ccc(-c2c4nc(c(-c5c(F)c(F)c(F)c(F)c5F)c5ccc([nH]5)c(-c5c(F)c(F)c(F)c(F)c5F)c5nc(c(-c6c(F)c(F)c(F)c(F)c6F)c6ccc2[nH]6)C=C5)C=C4)cc1)C(=O)O3
REMARK SMILES IDX 34 1 33 2 32 3 30 4 31 5 19 6 18 7 16 8 17 9 15 11 14 12
REMARK SMILES IDX 13 13 1 14 2 15 3 16 10 17 4 18 5 19 9 20 6 21 8 22 7 23
REMARK SMILES IDX 11 24 106 25 12 26 104 27 105 28 20 29 21 30 22 31 29 32
REMARK SMILES IDX 23 33 24 34 28 35 25 37 27 38 26 39 35 40 36 41 37 42 38 43
REMARK SMILES IDX 39 44 40 45 41 46 42 47 103 48 43 49 102 50 44 51 45 52
REMARK SMILES IDX 46 53 96 54 47 55 101 56 95 57 97 58 48 59 100 60 94 61
REMARK SMILES IDX 93 62 49 64 81 65 61 66 80 67 62 68 65 69 79 70 98 71 63 72
REMARK SMILES IDX 64 73 78 75 99 76 66 77 50 78 51 79 59 80 52 81 53 82 57 83
REMARK SMILES IDX 60 84 54 85 55 86 58 87 56 88 82 89 83 90 91 91 84 92 85 93
REMARK SMILES IDX 89 94 92 95 86 96 87 97 90 98 88 99 67 100 68 101 76 102
REMARK SMILES IDX 69 103 70 104 74 105 77 106 71 107 72 108 75 109 73 110
REMARK H PARENT 18 10 23 36 97 63 65 74
REMARK Flexibility Score: inf
ROOT
ATOM      1  C   UNL A   1      35.552  23.053  23.097  1.00  0.00     0.202 C 
ENDROOT
BRANCH   1   2
ATOM      2  C   UNL A   1      34.611  24.249  23.162  1.00  0.00     0.261 C 
BRANCH   2   3
ATOM      3  O   UNL A   1      33.726  24.217  22.074  1.00  0.00    -0.462 OA
BRANCH   3   4
ATOM      4  C   UNL A   1      33.263  25.453  21.842  1.00  0.00     0.329 C 
ATOM      5  O   UNL A   1      33.335  26.081  20.790  1.00  0.00    -0.250 OA
BRANCH   4   6
ATOM      6  C   UNL A   1      32.714  26.056  23.088  1.00  0.00     0.196 C 
BRANCH   6   7
ATOM      7  N   UNL A   1      33.516  27.036  23.890  1.00  0.00    -0.342 N 
ATOM      8  C   UNL A   1      33.744  27.203  25.247  1.00  0.00     0.220 C 
ATOM      9  O   UNL A   1      34.377  28.198  25.615  1.00  0.00    -0.275 OA
ATOM     10  H   UNL A   1      33.981  27.703  23.335  1.00  0.00     0.164 HD
BRANCH   8  11
ATOM     11  C   UNL A   1      33.212  26.236  26.335  1.00  0.00     0.101 C 
BRANCH  11  12
ATOM     12  C   UNL A   1      33.752  24.781  26.429  1.00  0.00     0.026 C 
BRANCH  12  13
ATOM     13  C   UNL A   1      32.619  23.781  26.330  1.00  0.00     0.107 C 
ATOM     14  C   UNL A   1      32.271  18.407  21.946  1.00  0.00     0.048 C 
ATOM     15  C   UNL A   1      32.566  18.366  23.388  1.00  0.00    -0.005 A 
ATOM     16  C   UNL A   1      33.088  17.337  24.142  1.00  0.00     0.199 A 
ATOM     17  C   UNL A   1      32.473  19.477  24.248  1.00  0.00     0.024 A 
ATOM     18  O   UNL A   1      33.287  17.724  25.424  1.00  0.00    -0.464 OA
ATOM     19  C   UNL A   1      33.000  19.042  25.458  1.00  0.00     0.137 A 
ATOM     20  C   UNL A   1      32.091  20.813  24.065  1.00  0.00     0.020 A 
ATOM     21  C   UNL A   1      33.327  19.862  26.494  1.00  0.00     0.095 A 
ATOM     22  C   UNL A   1      32.527  21.704  25.017  1.00  0.00    -0.001 A 
ATOM     23  C   UNL A   1      33.278  21.188  26.102  1.00  0.00     0.138 A 
ATOM     24  C   UNL A   1      32.180  23.177  24.975  1.00  0.00     0.034 C 
ATOM     25  O   UNL A   1      34.076  22.015  26.834  1.00  0.00    -0.426 OA
ATOM     26  C   UNL A   1      30.635  23.381  24.703  1.00  0.00     0.014 C 
ATOM     27  C   UNL A   1      33.019  22.658  27.318  1.00  0.00     0.314 C 
ATOM     28  O   UNL A   1      32.513  22.288  28.386  1.00  0.00    -0.251 OA
ENDBRANCH  12  13
ENDBRANCH  11  12
ENDBRANCH   8  11
ENDBRANCH   6   7
BRANCH   6  29
ATOM     29  C   UNL A   1      31.269  26.458  22.614  1.00  0.00     0.074 C 
BRANCH  29  30
ATOM     30  C   UNL A   1      30.916  27.895  22.403  1.00  0.00    -0.020 A 
ATOM     31  C   UNL A   1      31.732  28.954  22.045  1.00  0.00     0.087 A 
ATOM     32  C   UNL A   1      29.650  28.453  22.691  1.00  0.00     0.003 A 
ATOM     33  N   UNL A   1      30.946  30.058  21.865  1.00  0.00    -0.361 N 
ATOM     34  C   UNL A   1      29.657  29.764  22.228  1.00  0.00     0.046 A 
ATOM     35  C   UNL A   1      28.481  27.907  23.241  1.00  0.00     0.010 A 
ATOM     36  H   UNL A   1      31.257  30.928  21.525  1.00  0.00     0.166 HD
ATOM     37  C   UNL A   1      28.500  30.532  22.180  1.00  0.00     0.026 A 
ATOM     38  C   UNL A   1      27.307  28.628  23.147  1.00  0.00     0.001 A 
ATOM     39  C   UNL A   1      27.327  29.915  22.626  1.00  0.00     0.002 A 
ENDBRANCH  29  30
ENDBRANCH   6  29
ENDBRANCH   4   6
ENDBRANCH   3   4
ENDBRANCH   2   3
ENDBRANCH   1   2
BRANCH   1  40
ATOM     40  O   UNL A   1      35.988  22.414  24.287  1.00  0.00    -0.374 OA
BRANCH  40  41
ATOM     41  C   UNL A   1      37.290  22.753  24.787  1.00  0.00     0.202 C 
BRANCH  41  42
ATOM     42  C   UNL A   1      38.275  21.723  25.410  1.00  0.00     0.261 C 
BRANCH  42  43
ATOM     43  O   UNL A   1      38.925  22.185  26.630  1.00  0.00    -0.460 OA
BRANCH  43  44
ATOM     44  C   UNL A   1      40.263  22.448  26.530  1.00  0.00     0.338 C 
ATOM     45  O   UNL A   1      41.045  21.849  25.806  1.00  0.00    -0.246 OA
BRANCH  44  46
ATOM     46  C   UNL A   1      40.543  23.856  26.985  1.00  0.00     0.060 A 
ATOM     47  C   UNL A   1      41.722  24.387  27.480  1.00  0.00     0.016 A 
ATOM     48  C   UNL A   1      39.422  24.688  27.044  1.00  0.00     0.016 A 
ATOM     49  C   UNL A   1      41.652  25.599  28.262  1.00  0.00     0.010 A 
ATOM     50  C   UNL A   1      39.443  25.926  27.710  1.00  0.00     0.010 A 
ATOM     51  C   UNL A   1      40.423  26.266  28.624  1.00  0.00    -0.014 A 
BRANCH  51  52
ATOM     52  C   UNL A   1      40.270  27.640  29.395  1.00  0.00     0.031 A 
ATOM     53  C   UNL A   1      41.304  28.492  28.631  1.00  0.00     0.074 A 
ATOM     54  C   UNL A   1      39.448  28.117  30.484  1.00  0.00     0.049 A 
ATOM     55  N   UNL A   1      42.489  28.748  29.082  1.00  0.00    -0.248 NA
ATOM     56  C   UNL A   1      41.268  28.731  27.156  1.00  0.00     0.031 C 
ATOM     57  C   UNL A   1      38.395  27.472  31.371  1.00  0.00     0.029 A 
ATOM     58  N   UNL A   1      39.413  29.408  31.159  1.00  0.00    -0.354 N 
ATOM     59  C   UNL A   1      43.140  29.523  28.123  1.00  0.00     0.074 A 
ATOM     60  C   UNL A   1      42.459  29.288  26.897  1.00  0.00     0.031 C 
ATOM     61  C   UNL A   1      37.682  28.374  32.136  1.00  0.00     0.029 A 
ATOM     62  C   UNL A   1      38.209  29.727  31.981  1.00  0.00     0.049 A 
ATOM     63  H   UNL A   1      40.157  30.047  31.075  1.00  0.00     0.167 HD
ATOM     64  C   UNL A   1      43.916  30.551  28.561  1.00  0.00     0.037 A 
ATOM     65  C   UNL A   1      37.908  30.850  32.798  1.00  0.00     0.037 A 
ATOM     66  C   UNL A   1      44.234  30.311  29.949  1.00  0.00     0.049 A 
ATOM     67  C   UNL A   1      39.183  31.570  32.969  1.00  0.00     0.074 A 
ATOM     68  C   UNL A   1      45.001  29.389  30.628  1.00  0.00     0.029 A 
ATOM     69  N   UNL A   1      43.199  30.659  30.774  1.00  0.00    -0.354 N 
ATOM     70  N   UNL A   1      40.142  31.081  33.694  1.00  0.00    -0.248 NA
ATOM     71  C   UNL A   1      39.535  32.423  31.846  1.00  0.00     0.031 C 
ATOM     72  C   UNL A   1      44.295  29.096  31.833  1.00  0.00     0.029 A 
ATOM     73  C   UNL A   1      43.211  29.955  31.937  1.00  0.00     0.049 A 
ATOM     74  H   UNL A   1      42.524  31.341  30.551  1.00  0.00     0.167 HD
ATOM     75  C   UNL A   1      41.206  31.094  32.819  1.00  0.00     0.074 A 
ATOM     76  C   UNL A   1      40.776  31.955  31.696  1.00  0.00     0.031 C 
ATOM     77  C   UNL A   1      42.168  30.128  32.904  1.00  0.00     0.037 A 
BRANCH  64  78
ATOM     78  C   UNL A   1      43.874  31.963  28.010  1.00  0.00     0.064 A 
ATOM     79  C   UNL A   1      44.755  32.292  26.958  1.00  0.00     0.173 A 
ATOM     80  C   UNL A   1      43.254  33.064  28.642  1.00  0.00     0.173 A 
ATOM     81  F   UNL A   1      45.436  31.329  26.318  1.00  0.00    -0.203 F 
ATOM     82  C   UNL A   1      45.017  33.615  26.588  1.00  0.00     0.198 A 
ATOM     83  C   UNL A   1      43.484  34.384  28.241  1.00  0.00     0.198 A 
ATOM     84  F   UNL A   1      42.483  32.919  29.726  1.00  0.00    -0.203 F 
ATOM     85  F   UNL A   1      45.926  33.873  25.639  1.00  0.00    -0.200 F 
ATOM     86  C   UNL A   1      44.376  34.660  27.226  1.00  0.00     0.200 A 
ATOM     87  F   UNL A   1      42.878  35.390  28.890  1.00  0.00    -0.200 F 
ATOM     88  F   UNL A   1      44.643  35.929  26.888  1.00  0.00    -0.200 F 
ENDBRANCH  64  78
BRANCH  65  89
ATOM     89  C   UNL A   1      36.651  31.754  33.020  1.00  0.00     0.064 A 
ATOM     90  C   UNL A   1      36.412  32.661  34.119  1.00  0.00     0.173 A 
ATOM     91  C   UNL A   1      35.845  32.006  31.907  1.00  0.00     0.173 A 
ATOM     92  F   UNL A   1      37.116  32.572  35.260  1.00  0.00    -0.203 F 
ATOM     93  C   UNL A   1      35.475  33.735  34.050  1.00  0.00     0.198 A 
ATOM     94  C   UNL A   1      34.944  33.087  31.831  1.00  0.00     0.198 A 
ATOM     95  F   UNL A   1      35.998  31.252  30.814  1.00  0.00    -0.203 F 
ATOM     96  F   UNL A   1      35.305  34.585  35.081  1.00  0.00    -0.200 F 
ATOM     97  C   UNL A   1      34.766  33.961  32.887  1.00  0.00     0.200 A 
ATOM     98  F   UNL A   1      34.295  33.311  30.679  1.00  0.00    -0.200 F 
ATOM     99  F   UNL A   1      33.950  35.021  32.764  1.00  0.00    -0.200 F 
ENDBRANCH  65  89
BRANCH  77 100
ATOM    100  C   UNL A   1      42.194  29.221  34.103  1.00  0.00     0.064 A 
ATOM    101  C   UNL A   1      41.641  27.930  34.203  1.00  0.00     0.173 A 
ATOM    102  C   UNL A   1      42.981  29.659  35.170  1.00  0.00     0.173 A 
ATOM    103  F   UNL A   1      40.980  27.380  33.177  1.00  0.00    -0.203 F 
ATOM    104  C   UNL A   1      41.828  27.149  35.351  1.00  0.00     0.198 A 
ATOM    105  C   UNL A   1      43.199  28.871  36.291  1.00  0.00     0.198 A 
ATOM    106  F   UNL A   1      43.603  30.845  35.088  1.00  0.00    -0.203 F 
ATOM    107  F   UNL A   1      41.289  25.922  35.435  1.00  0.00    -0.200 F 
ATOM    108  C   UNL A   1      42.603  27.627  36.396  1.00  0.00     0.200 A 
ATOM    109  F   UNL A   1      44.016  29.313  37.254  1.00  0.00    -0.200 F 
ATOM    110  F   UNL A   1      42.796  26.885  37.495  1.00  0.00    -0.200 F 
ENDBRANCH  77 100
ENDBRANCH  51  52
ENDBRANCH  44  46
ENDBRANCH  43  44
ENDBRANCH  42  43
ENDBRANCH  41  42
ENDBRANCH  40  41
ENDBRANCH   1  40
TORSDOF 20
ENDMDL
MODEL 3
REMARK VINA RESULT:     -12.7      4.642     10.229
REMARK SMILES Cc1coc2cc3c(cc12)[C@@H](C)[C@H](CCC(=O)N[C@@H](Cc1c[nH]c2ccccc12)C(=O)OCCOCCOC(=O)c1ccc(-c2c4nc(c(-c5c(F)c(F)c(F)c(F)c5F)c5ccc([nH]5)c(-c5c(F)c(F)c(F)c(F)c5F)c5nc(c(-c6c(F)c(F)c(F)c(F)c6F)c6ccc2[nH]6)C=C5)C=C4)cc1)C(=O)O3
REMARK SMILES IDX 34 1 33 2 32 3 30 4 31 5 19 6 18 7 16 8 17 9 15 11 14 12
REMARK SMILES IDX 13 13 1 14 2 15 3 16 10 17 4 18 5 19 9 20 6 21 8 22 7 23
REMARK SMILES IDX 11 24 106 25 12 26 104 27 105 28 20 29 21 30 22 31 29 32
REMARK SMILES IDX 23 33 24 34 28 35 25 37 27 38 26 39 35 40 36 41 37 42 38 43
REMARK SMILES IDX 39 44 40 45 41 46 42 47 103 48 43 49 102 50 44 51 45 52
REMARK SMILES IDX 46 53 96 54 47 55 101 56 95 57 97 58 48 59 100 60 94 61
REMARK SMILES IDX 93 62 49 64 81 65 61 66 80 67 62 68 65 69 79 70 98 71 63 72
REMARK SMILES IDX 64 73 78 75 99 76 66 77 50 78 51 79 59 80 52 81 53 82 57 83
REMARK SMILES IDX 60 84 54 85 55 86 58 87 56 88 82 89 83 90 91 91 84 92 85 93
REMARK SMILES IDX 89 94 92 95 86 96 87 97 90 98 88 99 67 100 68 101 76 102
REMARK SMILES IDX 69 103 70 104 74 105 77 106 71 107 72 108 75 109 73 110
REMARK H PARENT 18 10 23 36 97 63 65 74
REMARK Flexibility Score: inf
ROOT
ATOM      1  C   UNL A   1      38.387  21.393  25.388  1.00  0.00     0.202 C 
ENDROOT
BRANCH   1   2
ATOM      2  C   UNL A   1      36.938  20.974  25.180  1.00  0.00     0.261 C 
BRANCH   2   3
ATOM      3  O   UNL A   1      36.241  21.990  24.511  1.00  0.00    -0.462 OA
BRANCH   3   4
ATOM      4  C   UNL A   1      35.201  22.383  25.260  1.00  0.00     0.329 C 
ATOM      5  O   UNL A   1      35.166  22.468  26.484  1.00  0.00    -0.250 OA
BRANCH   4   6
ATOM      6  C   UNL A   1      33.999  22.620  24.415  1.00  0.00     0.196 C 
BRANCH   6   7
ATOM      7  N   UNL A   1      34.132  22.941  22.956  1.00  0.00    -0.342 N 
ATOM      8  C   UNL A   1      33.289  23.526  22.024  1.00  0.00     0.220 C 
ATOM      9  O   UNL A   1      33.652  23.551  20.843  1.00  0.00    -0.275 OA
ATOM     10  H   UNL A   1      35.005  22.682  22.580  1.00  0.00     0.164 HD
BRANCH   8  11
ATOM     11  C   UNL A   1      31.896  24.112  22.371  1.00  0.00     0.101 C 
BRANCH  11  12
ATOM     12  C   UNL A   1      31.713  25.643  22.571  1.00  0.00     0.026 C 
BRANCH  12  13
ATOM     13  C   UNL A   1      31.450  25.965  24.027  1.00  0.00     0.107 C 
ATOM     14  C   UNL A   1      35.639  29.546  28.250  1.00  0.00     0.048 C 
ATOM     15  C   UNL A   1      34.393  30.014  27.622  1.00  0.00    -0.005 A 
ATOM     16  C   UNL A   1      33.905  31.298  27.500  1.00  0.00     0.199 A 
ATOM     17  C   UNL A   1      33.512  29.188  26.897  1.00  0.00     0.024 A 
ATOM     18  O   UNL A   1      32.759  31.318  26.781  1.00  0.00    -0.464 OA
ATOM     19  C   UNL A   1      32.578  30.054  26.343  1.00  0.00     0.137 A 
ATOM     20  C   UNL A   1      33.501  27.820  26.590  1.00  0.00     0.020 A 
ATOM     21  C   UNL A   1      31.689  29.709  25.371  1.00  0.00     0.095 A 
ATOM     22  C   UNL A   1      32.727  27.447  25.517  1.00  0.00    -0.001 A 
ATOM     23  C   UNL A   1      31.990  28.461  24.856  1.00  0.00     0.138 A 
ATOM     24  C   UNL A   1      32.590  26.006  25.073  1.00  0.00     0.034 C 
ATOM     25  O   UNL A   1      31.549  28.263  23.582  1.00  0.00    -0.426 OA
ATOM     26  C   UNL A   1      32.301  25.063  26.309  1.00  0.00     0.014 C 
ATOM     27  C   UNL A   1      30.705  27.321  23.986  1.00  0.00     0.314 C 
ATOM     28  O   UNL A   1      29.543  27.627  24.283  1.00  0.00    -0.251 OA
ENDBRANCH  12  13
ENDBRANCH  11  12
ENDBRANCH   8  11
ENDBRANCH   6   7
BRANCH   6  29
ATOM     29  C   UNL A   1      33.085  21.417  24.851  1.00  0.00     0.074 C 
BRANCH  29  30
ATOM     30  C   UNL A   1      32.809  20.295  23.903  1.00  0.00    -0.020 A 
ATOM     31  C   UNL A   1      32.015  20.281  22.769  1.00  0.00     0.087 A 
ATOM     32  C   UNL A   1      33.225  18.960  24.109  1.00  0.00     0.003 A 
ATOM     33  N   UNL A   1      32.154  19.063  22.163  1.00  0.00    -0.361 N 
ATOM     34  C   UNL A   1      32.918  18.245  22.956  1.00  0.00     0.046 A 
ATOM     35  C   UNL A   1      33.908  18.336  25.162  1.00  0.00     0.010 A 
ATOM     36  H   UNL A   1      31.768  18.813  21.294  1.00  0.00     0.166 HD
ATOM     37  C   UNL A   1      33.372  16.948  22.754  1.00  0.00     0.026 A 
ATOM     38  C   UNL A   1      34.422  17.070  24.960  1.00  0.00     0.001 A 
ATOM     39  C   UNL A   1      34.153  16.397  23.775  1.00  0.00     0.002 A 
ENDBRANCH  29  30
ENDBRANCH   6  29
ENDBRANCH   4   6
ENDBRANCH   3   4
ENDBRANCH   2   3
ENDBRANCH   1   2
BRANCH   1  40
ATOM     40  O   UNL A   1      39.369  20.436  25.754  1.00  0.00    -0.374 OA
BRANCH  40  41
ATOM     41  C   UNL A   1      40.401  20.852  26.661  1.00  0.00     0.202 C 
BRANCH  41  42
ATOM     42  C   UNL A   1      41.869  21.138  26.234  1.00  0.00     0.261 C 
BRANCH  42  43
ATOM     43  O   UNL A   1      42.028  22.338  25.422  1.00  0.00    -0.460 OA
BRANCH  43  44
ATOM     44  C   UNL A   1      42.856  23.298  25.932  1.00  0.00     0.338 C 
ATOM     45  O   UNL A   1      43.981  23.546  25.522  1.00  0.00    -0.246 OA
BRANCH  44  46
ATOM     46  C   UNL A   1      42.048  24.335  26.666  1.00  0.00     0.060 A 
ATOM     47  C   UNL A   1      40.847  24.917  26.298  1.00  0.00     0.016 A 
ATOM     48  C   UNL A   1      42.672  24.875  27.794  1.00  0.00     0.016 A 
ATOM     49  C   UNL A   1      40.485  26.180  26.898  1.00  0.00     0.010 A 
ATOM     50  C   UNL A   1      42.201  26.040  28.424  1.00  0.00     0.010 A 
ATOM     51  C   UNL A   1      41.325  26.918  27.813  1.00  0.00    -0.014 A 
BRANCH  51  52
ATOM     52  C   UNL A   1      40.962  28.254  28.580  1.00  0.00     0.031 A 
ATOM     53  C   UNL A   1      42.068  29.183  28.038  1.00  0.00     0.074 A 
ATOM     54  C   UNL A   1      39.935  28.651  29.517  1.00  0.00     0.049 A 
ATOM     55  N   UNL A   1      43.138  29.480  28.701  1.00  0.00    -0.248 NA
ATOM     56  C   UNL A   1      42.282  29.473  26.587  1.00  0.00     0.031 C 
ATOM     57  C   UNL A   1      38.779  27.923  30.183  1.00  0.00     0.029 A 
ATOM     58  N   UNL A   1      39.711  29.912  30.209  1.00  0.00    -0.354 N 
ATOM     59  C   UNL A   1      43.906  30.321  27.896  1.00  0.00     0.074 A 
ATOM     60  C   UNL A   1      43.468  30.097  26.562  1.00  0.00     0.031 C 
ATOM     61  C   UNL A   1      37.893  28.760  30.832  1.00  0.00     0.029 A 
ATOM     62  C   UNL A   1      38.364  30.142  30.810  1.00  0.00     0.049 A 
ATOM     63  H   UNL A   1      40.422  30.590  30.278  1.00  0.00     0.167 HD
ATOM     64  C   UNL A   1      44.535  31.368  28.494  1.00  0.00     0.037 A 
ATOM     65  C   UNL A   1      37.861  31.218  31.590  1.00  0.00     0.037 A 
ATOM     66  C   UNL A   1      44.613  31.094  29.909  1.00  0.00     0.049 A 
ATOM     67  C   UNL A   1      39.045  31.994  32.007  1.00  0.00     0.074 A 
ATOM     68  C   UNL A   1      45.296  30.186  30.690  1.00  0.00     0.029 A 
ATOM     69  N   UNL A   1      43.431  31.360  30.545  1.00  0.00    -0.354 N 
ATOM     70  N   UNL A   1      39.885  31.525  32.879  1.00  0.00    -0.248 NA
ATOM     71  C   UNL A   1      39.543  32.902  30.989  1.00  0.00     0.031 C 
ATOM     72  C   UNL A   1      44.405  29.815  31.740  1.00  0.00     0.029 A 
ATOM     73  C   UNL A   1      43.274  30.616  31.671  1.00  0.00     0.049 A 
ATOM     74  H   UNL A   1      42.770  32.016  30.223  1.00  0.00     0.167 HD
ATOM     75  C   UNL A   1      41.086  31.622  32.210  1.00  0.00     0.074 A 
ATOM     76  C   UNL A   1      40.816  32.501  31.051  1.00  0.00     0.031 C 
ATOM     77  C   UNL A   1      42.068  30.702  32.439  1.00  0.00     0.037 A 
BRANCH  64  78
ATOM     78  C   UNL A   1      44.514  32.795  27.983  1.00  0.00     0.064 A 
ATOM     79  C   UNL A   1      45.718  33.342  27.490  1.00  0.00     0.173 A 
ATOM     80  C   UNL A   1      43.484  33.731  28.226  1.00  0.00     0.173 A 
ATOM     81  F   UNL A   1      46.780  32.553  27.268  1.00  0.00    -0.203 F 
ATOM     82  C   UNL A   1      45.887  34.715  27.286  1.00  0.00     0.198 A 
ATOM     83  C   UNL A   1      43.641  35.098  27.979  1.00  0.00     0.198 A 
ATOM     84  F   UNL A   1      42.326  33.380  28.799  1.00  0.00    -0.203 F 
ATOM     85  F   UNL A   1      47.079  35.189  26.898  1.00  0.00    -0.200 F 
ATOM     86  C   UNL A   1      44.847  35.593  27.525  1.00  0.00     0.200 A 
ATOM     87  F   UNL A   1      42.632  35.941  28.245  1.00  0.00    -0.200 F 
ATOM     88  F   UNL A   1      45.014  36.910  27.351  1.00  0.00    -0.200 F 
ENDBRANCH  64  78
BRANCH  65  89
ATOM     89  C   UNL A   1      36.538  32.051  31.608  1.00  0.00     0.064 A 
ATOM     90  C   UNL A   1      35.894  32.642  32.758  1.00  0.00     0.173 A 
ATOM     91  C   UNL A   1      36.115  32.598  30.394  1.00  0.00     0.173 A 
ATOM     92  F   UNL A   1      36.199  32.246  34.005  1.00  0.00    -0.203 F 
ATOM     93  C   UNL A   1      34.953  33.710  32.659  1.00  0.00     0.198 A 
ATOM     94  C   UNL A   1      35.210  33.674  30.301  1.00  0.00     0.198 A 
ATOM     95  F   UNL A   1      36.665  32.156  29.259  1.00  0.00    -0.203 F 
ATOM     96  F   UNL A   1      34.400  34.262  33.757  1.00  0.00    -0.200 F 
ATOM     97  C   UNL A   1      34.640  34.244  31.425  1.00  0.00     0.200 A 
ATOM     98  F   UNL A   1      34.951  34.203  29.097  1.00  0.00    -0.200 F 
ATOM     99  F   UNL A   1      33.832  35.311  31.312  1.00  0.00    -0.200 F 
ENDBRANCH  65  89
BRANCH  77 100
ATOM    100  C   UNL A   1      41.930  29.754  33.599  1.00  0.00     0.064 A 
ATOM    101  C   UNL A   1      41.518  28.409  33.551  1.00  0.00     0.173 A 
ATOM    102  C   UNL A   1      42.407  30.229  34.822  1.00  0.00     0.173 A 
ATOM    103  F   UNL A   1      41.166  27.835  32.394  1.00  0.00    -0.203 F 
ATOM    104  C   UNL A   1      41.532  27.605  34.699  1.00  0.00     0.198 A 
ATOM    105  C   UNL A   1      42.458  29.423  35.950  1.00  0.00     0.198 A 
ATOM    106  F   UNL A   1      42.895  31.476  34.901  1.00  0.00    -0.203 F 
ATOM    107  F   UNL A   1      41.129  26.326  34.639  1.00  0.00    -0.200 F 
ATOM    108  C   UNL A   1      41.998  28.119  35.898  1.00  0.00     0.200 A 
ATOM    109  F   UNL A   1      42.988  29.909  37.079  1.00  0.00    -0.200 F 
ATOM    110  F   UNL A   1      42.026  27.357  37.000  1.00  0.00    -0.200 F 
ENDBRANCH  77 100
ENDBRANCH  51  52
ENDBRANCH  44  46
ENDBRANCH  43  44
ENDBRANCH  42  43
ENDBRANCH  41  42
ENDBRANCH  40  41
ENDBRANCH   1  40
TORSDOF 20
ENDMDL
