MODEL 1
REMARK VINA RESULT:      -9.1      0.000      0.000
REMARK SMILES O=C(OCCOCCOC(=O)c1ccc(C[N@H+]2CC[N@H+]3CCCC[C@@H]3C2)c(F)c1)c1ccc(-c2c3nc(c(-c4c(F)c(F)c(F)c(F)c4F)c4ccc([nH]4)c(-c4c(F)c(F)c(F)c(F)c4F)c4nc(c(-c5c(F)c(F)c(F)c(F)c5F)c5ccc2[nH]5)C=C4)C=C3)cc1
REMARK SMILES IDX 6 1 5 2 4 3 3 4 2 5 1 6 30 7 31 8 92 9 32 10 91 11 33 12
REMARK SMILES IDX 34 13 35 14 85 15 36 16 90 17 84 18 86 19 37 20 89 21 83 22
REMARK SMILES IDX 82 23 38 25 70 26 50 27 69 28 51 29 54 30 68 31 87 32 52 33
REMARK SMILES IDX 53 34 67 36 88 37 55 38 39 39 40 40 48 41 41 42 42 43 46 44
REMARK SMILES IDX 49 45 43 46 44 47 47 48 45 49 71 50 72 51 80 52 73 53 74 54
REMARK SMILES IDX 78 55 81 56 75 57 76 58 79 59 77 60 56 61 57 62 65 63 58 64
REMARK SMILES IDX 59 65 63 66 66 67 60 68 61 69 64 70 62 71 7 72 8 73 9 74
REMARK SMILES IDX 10 75 11 76 12 77 13 78 29 79 14 80 27 81 15 82 28 83 16 84
REMARK SMILES IDX 17 85 18 86 26 87 19 89 25 90 20 91 24 92 21 93 23 95 22 96
REMARK H PARENT 86 24 54 35 17 88 20 94
REMARK Flexibility Score: inf
ROOT
ATOM      1  O   UNL A   1      35.961  32.677  30.289  1.00  0.00    -0.374 OA
ENDROOT
BRANCH   1   2
ATOM      2  C   UNL A   1      34.615  32.756  29.821  1.00  0.00     0.202 C 
BRANCH   2   3
ATOM      3  C   UNL A   1      34.435  32.592  28.311  1.00  0.00     0.261 C 
BRANCH   3   4
ATOM      4  O   UNL A   1      33.823  31.327  28.012  1.00  0.00    -0.460 OA
BRANCH   4   5
ATOM      5  C   UNL A   1      34.455  30.155  27.765  1.00  0.00     0.338 C 
ATOM      6  O   UNL A   1      33.855  29.262  27.172  1.00  0.00    -0.246 OA
BRANCH   5   7
ATOM      7  C   UNL A   1      35.862  29.890  28.189  1.00  0.00     0.060 A 
ATOM      8  C   UNL A   1      36.215  29.381  29.438  1.00  0.00     0.016 A 
ATOM      9  C   UNL A   1      36.879  30.074  27.239  1.00  0.00     0.016 A 
ATOM     10  C   UNL A   1      37.534  29.142  29.779  1.00  0.00     0.010 A 
ATOM     11  C   UNL A   1      38.209  29.774  27.551  1.00  0.00     0.010 A 
ATOM     12  C   UNL A   1      38.539  29.321  28.833  1.00  0.00    -0.014 A 
BRANCH  12  13
ATOM     13  C   UNL A   1      39.927  29.085  29.265  1.00  0.00     0.031 A 
ATOM     14  C   UNL A   1      40.623  27.848  28.794  1.00  0.00     0.074 A 
ATOM     15  C   UNL A   1      40.585  30.061  29.917  1.00  0.00     0.049 A 
ATOM     16  N   UNL A   1      41.839  27.441  29.036  1.00  0.00    -0.248 NA
ATOM     17  C   UNL A   1      39.850  26.958  27.913  1.00  0.00     0.031 C 
ATOM     18  C   UNL A   1      40.010  31.358  30.283  1.00  0.00     0.029 A 
ATOM     19  N   UNL A   1      41.884  30.141  30.338  1.00  0.00    -0.354 N 
ATOM     20  C   UNL A   1      41.972  26.241  28.353  1.00  0.00     0.074 A 
ATOM     21  C   UNL A   1      40.713  25.978  27.694  1.00  0.00     0.031 C 
ATOM     22  C   UNL A   1      40.968  32.124  30.827  1.00  0.00     0.029 A 
ATOM     23  C   UNL A   1      42.198  31.346  30.919  1.00  0.00     0.049 A 
ATOM     24  H   UNL A   1      42.533  29.408  30.234  1.00  0.00     0.167 HD
ATOM     25  C   UNL A   1      43.056  25.436  28.293  1.00  0.00     0.037 A 
ATOM     26  C   UNL A   1      43.349  31.757  31.483  1.00  0.00     0.037 A 
ATOM     27  C   UNL A   1      44.291  25.727  28.969  1.00  0.00     0.049 A 
ATOM     28  C   UNL A   1      44.505  30.796  31.500  1.00  0.00     0.074 A 
ATOM     29  C   UNL A   1      45.426  24.948  29.077  1.00  0.00     0.029 A 
ATOM     30  N   UNL A   1      44.547  26.912  29.652  1.00  0.00    -0.354 N 
ATOM     31  N   UNL A   1      44.595  29.607  30.952  1.00  0.00    -0.248 NA
ATOM     32  C   UNL A   1      45.706  31.214  32.232  1.00  0.00     0.031 C 
ATOM     33  C   UNL A   1      46.355  25.644  29.859  1.00  0.00     0.029 A 
ATOM     34  C   UNL A   1      45.818  26.879  30.195  1.00  0.00     0.049 A 
ATOM     35  H   UNL A   1      43.914  27.662  29.737  1.00  0.00     0.167 HD
ATOM     36  C   UNL A   1      45.859  29.134  31.265  1.00  0.00     0.074 A 
ATOM     37  C   UNL A   1      46.510  30.177  32.035  1.00  0.00     0.031 C 
ATOM     38  C   UNL A   1      46.429  27.944  30.953  1.00  0.00     0.037 A 
BRANCH  25  39
ATOM     39  C   UNL A   1      42.911  24.151  27.534  1.00  0.00     0.064 A 
ATOM     40  C   UNL A   1      43.201  24.104  26.163  1.00  0.00     0.173 A 
ATOM     41  C   UNL A   1      42.521  22.959  28.163  1.00  0.00     0.173 A 
ATOM     42  F   UNL A   1      43.588  25.214  25.515  1.00  0.00    -0.203 F 
ATOM     43  C   UNL A   1      43.110  22.913  25.449  1.00  0.00     0.198 A 
ATOM     44  C   UNL A   1      42.456  21.763  27.452  1.00  0.00     0.198 A 
ATOM     45  F   UNL A   1      42.263  22.943  29.479  1.00  0.00    -0.203 F 
ATOM     46  F   UNL A   1      43.392  22.894  24.140  1.00  0.00    -0.200 F 
ATOM     47  C   UNL A   1      42.748  21.741  26.096  1.00  0.00     0.200 A 
ATOM     48  F   UNL A   1      42.140  20.625  28.086  1.00  0.00    -0.200 F 
ATOM     49  F   UNL A   1      42.694  20.587  25.416  1.00  0.00    -0.200 F 
ENDBRANCH  25  39
BRANCH  26  50
ATOM     50  C   UNL A   1      43.436  33.112  32.090  1.00  0.00     0.064 A 
ATOM     51  C   UNL A   1      43.249  33.304  33.469  1.00  0.00     0.173 A 
ATOM     52  C   UNL A   1      43.668  34.249  31.304  1.00  0.00     0.173 A 
ATOM     53  F   UNL A   1      43.028  32.251  34.270  1.00  0.00    -0.203 F 
ATOM     54  C   UNL A   1      43.256  34.580  34.030  1.00  0.00     0.198 A 
ATOM     55  C   UNL A   1      43.704  35.523  31.871  1.00  0.00     0.198 A 
ATOM     56  F   UNL A   1      43.878  34.120  29.986  1.00  0.00    -0.203 F 
ATOM     57  F   UNL A   1      43.030  34.734  35.342  1.00  0.00    -0.200 F 
ATOM     58  C   UNL A   1      43.487  35.689  33.231  1.00  0.00     0.200 A 
ATOM     59  F   UNL A   1      43.953  36.590  31.101  1.00  0.00    -0.200 F 
ATOM     60  F   UNL A   1      43.503  36.914  33.772  1.00  0.00    -0.200 F 
ENDBRANCH  26  50
BRANCH  38  61
ATOM     61  C   UNL A   1      47.829  27.712  31.432  1.00  0.00     0.064 A 
ATOM     62  C   UNL A   1      48.914  27.922  30.569  1.00  0.00     0.173 A 
ATOM     63  C   UNL A   1      48.087  27.195  32.710  1.00  0.00     0.173 A 
ATOM     64  F   UNL A   1      48.713  28.407  29.334  1.00  0.00    -0.203 F 
ATOM     65  C   UNL A   1      50.210  27.603  30.963  1.00  0.00     0.198 A 
ATOM     66  C   UNL A   1      49.387  26.904  33.109  1.00  0.00     0.198 A 
ATOM     67  F   UNL A   1      47.079  26.991  33.571  1.00  0.00    -0.203 F 
ATOM     68  F   UNL A   1      51.229  27.775  30.110  1.00  0.00    -0.200 F 
ATOM     69  C   UNL A   1      50.445  27.097  32.233  1.00  0.00     0.200 A 
ATOM     70  F   UNL A   1      49.617  26.435  34.343  1.00  0.00    -0.200 F 
ATOM     71  F   UNL A   1      51.695  26.795  32.612  1.00  0.00    -0.200 F 
ENDBRANCH  38  61
ENDBRANCH  12  13
ENDBRANCH   5   7
ENDBRANCH   4   5
ENDBRANCH   3   4
ENDBRANCH   2   3
ENDBRANCH   1   2
BRANCH   1  72
ATOM     72  C   UNL A   1      36.571  33.919  30.657  1.00  0.00     0.202 C 
BRANCH  72  73
ATOM     73  C   UNL A   1      37.452  33.704  31.895  1.00  0.00     0.261 C 
BRANCH  73  74
ATOM     74  O   UNL A   1      37.520  32.299  32.197  1.00  0.00    -0.460 OA
BRANCH  74  75
ATOM     75  C   UNL A   1      37.397  31.967  33.511  1.00  0.00     0.338 C 
ATOM     76  O   UNL A   1      36.537  32.310  34.301  1.00  0.00    -0.246 OA
BRANCH  75  77
ATOM     77  C   UNL A   1      38.378  30.894  33.745  1.00  0.00     0.063 A 
ATOM     78  C   UNL A   1      39.620  31.173  34.313  1.00  0.00     0.016 A 
ATOM     79  C   UNL A   1      38.112  29.642  33.194  1.00  0.00     0.055 A 
ATOM     80  C   UNL A   1      40.642  30.224  34.212  1.00  0.00     0.013 A 
ATOM     81  C   UNL A   1      39.158  28.744  33.022  1.00  0.00     0.132 A 
ATOM     82  C   UNL A   1      40.451  29.051  33.457  1.00  0.00     0.042 A 
ATOM     83  F   UNL A   1      38.927  27.614  32.342  1.00  0.00    -0.206 F 
BRANCH  82  84
ATOM     84  C   UNL A   1      41.629  28.200  33.039  1.00  0.00     0.302 C 
BRANCH  84  85
ATOM     85  N   UNL A   1      42.639  27.859  34.058  1.00  0.00    -0.322 N 
ATOM     86  C   UNL A   1      42.133  27.318  35.328  1.00  0.00     0.324 C 
ATOM     87  C   UNL A   1      43.808  27.090  33.611  1.00  0.00     0.328 C 
ATOM     88  H   UNL A   1      42.970  28.805  34.248  1.00  0.00     0.348 HD
ATOM     89  C   UNL A   1      42.014  25.776  35.429  1.00  0.00     0.324 C 
ATOM     90  C   UNL A   1      43.593  25.555  33.605  1.00  0.00     0.239 C 
ATOM     91  N   UNL A   1      43.178  25.015  34.916  1.00  0.00    -0.323 N 
ATOM     92  C   UNL A   1      44.830  24.817  33.081  1.00  0.00     0.071 C 
ATOM     93  C   UNL A   1      42.819  23.593  34.774  1.00  0.00     0.262 C 
ATOM     94  H   UNL A   1      43.951  25.105  35.575  1.00  0.00     0.348 HD
ATOM     95  C   UNL A   1      44.493  23.342  32.882  1.00  0.00     0.012 C 
ATOM     96  C   UNL A   1      43.943  22.743  34.173  1.00  0.00     0.062 C 
ENDBRANCH  84  85
ENDBRANCH  82  84
ENDBRANCH  75  77
ENDBRANCH  74  75
ENDBRANCH  73  74
ENDBRANCH  72  73
ENDBRANCH   1  72
TORSDOF 16
ENDMDL
MODEL 2
REMARK VINA RESULT:      -9.1      5.437     11.206
REMARK SMILES O=C(OCCOCCOC(=O)c1ccc(C[N@H+]2CC[N@H+]3CCCC[C@@H]3C2)c(F)c1)c1ccc(-c2c3nc(c(-c4c(F)c(F)c(F)c(F)c4F)c4ccc([nH]4)c(-c4c(F)c(F)c(F)c(F)c4F)c4nc(c(-c5c(F)c(F)c(F)c(F)c5F)c5ccc2[nH]5)C=C4)C=C3)cc1
REMARK SMILES IDX 6 1 5 2 4 3 3 4 2 5 1 6 30 7 31 8 92 9 32 10 91 11 33 12
REMARK SMILES IDX 34 13 35 14 85 15 36 16 90 17 84 18 86 19 37 20 89 21 83 22
REMARK SMILES IDX 82 23 38 25 70 26 50 27 69 28 51 29 54 30 68 31 87 32 52 33
REMARK SMILES IDX 53 34 67 36 88 37 55 38 39 39 40 40 48 41 41 42 42 43 46 44
REMARK SMILES IDX 49 45 43 46 44 47 47 48 45 49 71 50 72 51 80 52 73 53 74 54
REMARK SMILES IDX 78 55 81 56 75 57 76 58 79 59 77 60 56 61 57 62 65 63 58 64
REMARK SMILES IDX 59 65 63 66 66 67 60 68 61 69 64 70 62 71 7 72 8 73 9 74
REMARK SMILES IDX 10 75 11 76 12 77 13 78 29 79 14 80 27 81 15 82 28 83 16 84
REMARK SMILES IDX 17 85 18 86 26 87 19 89 25 90 20 91 24 92 21 93 23 95 22 96
REMARK H PARENT 86 24 54 35 17 88 20 94
REMARK Flexibility Score: inf
ROOT
ATOM      1  O   UNL A   1      41.551  20.623  25.700  1.00  0.00    -0.374 OA
ENDROOT
BRANCH   1   2
ATOM      2  C   UNL A   1      42.020  19.613  26.592  1.00  0.00     0.202 C 
BRANCH   2   3
ATOM      3  C   UNL A   1      42.984  18.594  25.982  1.00  0.00     0.261 C 
BRANCH   3   4
ATOM      4  O   UNL A   1      43.460  19.050  24.706  1.00  0.00    -0.460 OA
BRANCH   4   5
ATOM      5  C   UNL A   1      44.633  19.677  24.451  1.00  0.00     0.338 C 
ATOM      6  O   UNL A   1      45.526  19.065  23.869  1.00  0.00    -0.246 OA
BRANCH   5   7
ATOM      7  C   UNL A   1      44.899  21.090  24.852  1.00  0.00     0.060 A 
ATOM      8  C   UNL A   1      45.438  21.460  26.083  1.00  0.00     0.016 A 
ATOM      9  C   UNL A   1      44.682  22.095  23.896  1.00  0.00     0.016 A 
ATOM     10  C   UNL A   1      45.676  22.786  26.403  1.00  0.00     0.010 A 
ATOM     11  C   UNL A   1      44.981  23.431  24.184  1.00  0.00     0.010 A 
ATOM     12  C   UNL A   1      45.465  23.778  25.450  1.00  0.00    -0.014 A 
BRANCH  12  13
ATOM     13  C   UNL A   1      45.703  25.172  25.860  1.00  0.00     0.031 A 
ATOM     14  C   UNL A   1      44.590  25.925  26.518  1.00  0.00     0.074 A 
ATOM     15  C   UNL A   1      46.951  25.670  25.796  1.00  0.00     0.049 A 
ATOM     16  N   UNL A   1      44.574  27.149  26.970  1.00  0.00    -0.248 NA
ATOM     17  C   UNL A   1      43.330  25.190  26.713  1.00  0.00     0.031 C 
ATOM     18  C   UNL A   1      48.119  24.940  25.300  1.00  0.00     0.029 A 
ATOM     19  N   UNL A   1      47.458  26.877  26.197  1.00  0.00    -0.354 N 
ATOM     20  C   UNL A   1      43.300  27.339  27.485  1.00  0.00     0.074 A 
ATOM     21  C   UNL A   1      42.567  26.109  27.284  1.00  0.00     0.031 C 
ATOM     22  C   UNL A   1      49.215  25.694  25.473  1.00  0.00     0.029 A 
ATOM     23  C   UNL A   1      48.816  26.986  26.018  1.00  0.00     0.049 A 
ATOM     24  H   UNL A   1      46.905  27.596  26.577  1.00  0.00     0.167 HD
ATOM     25  C   UNL A   1      42.798  28.449  28.069  1.00  0.00     0.037 A 
ATOM     26  C   UNL A   1      49.634  28.029  26.250  1.00  0.00     0.037 A 
ATOM     27  C   UNL A   1      43.556  29.657  28.245  1.00  0.00     0.049 A 
ATOM     28  C   UNL A   1      49.025  29.291  26.796  1.00  0.00     0.074 A 
ATOM     29  C   UNL A   1      43.138  30.883  28.724  1.00  0.00     0.029 A 
ATOM     30  N   UNL A   1      44.910  29.779  27.949  1.00  0.00    -0.354 N 
ATOM     31  N   UNL A   1      47.790  29.510  27.179  1.00  0.00    -0.248 NA
ATOM     32  C   UNL A   1      49.910  30.456  26.921  1.00  0.00     0.031 C 
ATOM     33  C   UNL A   1      44.228  31.760  28.679  1.00  0.00     0.029 A 
ATOM     34  C   UNL A   1      45.339  31.066  28.222  1.00  0.00     0.049 A 
ATOM     35  H   UNL A   1      45.477  29.057  27.595  1.00  0.00     0.167 HD
ATOM     36  C   UNL A   1      47.743  30.831  27.593  1.00  0.00     0.074 A 
ATOM     37  C   UNL A   1      49.086  31.360  27.435  1.00  0.00     0.031 C 
ATOM     38  C   UNL A   1      46.689  31.548  28.053  1.00  0.00     0.037 A 
BRANCH  25  39
ATOM     39  C   UNL A   1      41.356  28.411  28.481  1.00  0.00     0.064 A 
ATOM     40  C   UNL A   1      40.998  27.955  29.758  1.00  0.00     0.173 A 
ATOM     41  C   UNL A   1      40.331  28.856  27.632  1.00  0.00     0.173 A 
ATOM     42  F   UNL A   1      41.941  27.528  30.612  1.00  0.00    -0.203 F 
ATOM     43  C   UNL A   1      39.670  27.950  30.172  1.00  0.00     0.198 A 
ATOM     44  C   UNL A   1      39.006  28.875  28.059  1.00  0.00     0.198 A 
ATOM     45  F   UNL A   1      40.624  29.332  26.412  1.00  0.00    -0.203 F 
ATOM     46  F   UNL A   1      39.353  27.508  31.397  1.00  0.00    -0.200 F 
ATOM     47  C   UNL A   1      38.676  28.419  29.327  1.00  0.00     0.200 A 
ATOM     48  F   UNL A   1      38.051  29.361  27.254  1.00  0.00    -0.200 F 
ATOM     49  F   UNL A   1      37.400  28.445  29.739  1.00  0.00    -0.200 F 
ENDBRANCH  25  39
BRANCH  26  50
ATOM     50  C   UNL A   1      51.084  27.920  25.937  1.00  0.00     0.064 A 
ATOM     51  C   UNL A   1      51.564  28.128  24.634  1.00  0.00     0.173 A 
ATOM     52  C   UNL A   1      52.017  27.567  26.922  1.00  0.00     0.173 A 
ATOM     53  F   UNL A   1      50.716  28.471  23.653  1.00  0.00    -0.203 F 
ATOM     54  C   UNL A   1      52.911  27.954  24.321  1.00  0.00     0.198 A 
ATOM     55  C   UNL A   1      53.370  27.422  26.614  1.00  0.00     0.198 A 
ATOM     56  F   UNL A   1      51.617  27.381  28.188  1.00  0.00    -0.203 F 
ATOM     57  F   UNL A   1      53.330  28.116  23.059  1.00  0.00    -0.200 F 
ATOM     58  C   UNL A   1      53.814  27.604  25.312  1.00  0.00     0.200 A 
ATOM     59  F   UNL A   1      54.245  27.109  27.579  1.00  0.00    -0.200 F 
ATOM     60  F   UNL A   1      55.110  27.446  25.014  1.00  0.00    -0.200 F 
ENDBRANCH  26  50
BRANCH  38  61
ATOM     61  C   UNL A   1      46.945  32.974  28.433  1.00  0.00     0.064 A 
ATOM     62  C   UNL A   1      47.282  33.304  29.754  1.00  0.00     0.173 A 
ATOM     63  C   UNL A   1      46.769  34.017  27.513  1.00  0.00     0.173 A 
ATOM     64  F   UNL A   1      47.453  32.338  30.669  1.00  0.00    -0.203 F 
ATOM     65  C   UNL A   1      47.413  34.632  30.145  1.00  0.00     0.198 A 
ATOM     66  C   UNL A   1      46.928  35.343  27.902  1.00  0.00     0.198 A 
ATOM     67  F   UNL A   1      46.459  33.746  26.236  1.00  0.00    -0.203 F 
ATOM     68  F   UNL A   1      47.697  34.927  31.421  1.00  0.00    -0.200 F 
ATOM     69  C   UNL A   1      47.238  35.650  29.219  1.00  0.00     0.200 A 
ATOM     70  F   UNL A   1      46.779  36.325  27.003  1.00  0.00    -0.200 F 
ATOM     71  F   UNL A   1      47.369  36.929  29.597  1.00  0.00    -0.200 F 
ENDBRANCH  38  61
ENDBRANCH  12  13
ENDBRANCH   5   7
ENDBRANCH   4   5
ENDBRANCH   3   4
ENDBRANCH   2   3
ENDBRANCH   1   2
BRANCH   1  72
ATOM     72  C   UNL A   1      41.370  21.925  26.265  1.00  0.00     0.202 C 
BRANCH  72  73
ATOM     73  C   UNL A   1      40.027  21.975  27.005  1.00  0.00     0.261 C 
BRANCH  73  74
ATOM     74  O   UNL A   1      38.971  22.239  26.064  1.00  0.00    -0.460 OA
BRANCH  74  75
ATOM     75  C   UNL A   1      38.364  23.452  26.177  1.00  0.00     0.338 C 
ATOM     76  O   UNL A   1      38.845  24.508  26.541  1.00  0.00    -0.246 OA
BRANCH  75  77
ATOM     77  C   UNL A   1      37.051  23.302  25.526  1.00  0.00     0.063 A 
ATOM     78  C   UNL A   1      36.955  23.078  24.154  1.00  0.00     0.016 A 
ATOM     79  C   UNL A   1      35.916  23.596  26.280  1.00  0.00     0.055 A 
ATOM     80  C   UNL A   1      35.726  23.277  23.517  1.00  0.00     0.013 A 
ATOM     81  C   UNL A   1      34.724  23.875  25.625  1.00  0.00     0.132 A 
ATOM     82  C   UNL A   1      34.630  23.796  24.233  1.00  0.00     0.042 A 
ATOM     83  F   UNL A   1      33.686  24.319  26.346  1.00  0.00    -0.206 F 
BRANCH  82  84
ATOM     84  C   UNL A   1      33.424  24.350  23.507  1.00  0.00     0.302 C 
BRANCH  84  85
ATOM     85  N   UNL A   1      33.621  25.502  22.608  1.00  0.00    -0.322 N 
ATOM     86  C   UNL A   1      32.769  25.555  21.411  1.00  0.00     0.324 C 
ATOM     87  C   UNL A   1      33.701  26.830  23.231  1.00  0.00     0.328 C 
ATOM     88  H   UNL A   1      34.564  25.273  22.293  1.00  0.00     0.348 HD
ATOM     89  C   UNL A   1      31.431  26.328  21.543  1.00  0.00     0.324 C 
ATOM     90  C   UNL A   1      32.326  27.506  23.462  1.00  0.00     0.239 C 
ATOM     91  N   UNL A   1      31.521  27.638  22.230  1.00  0.00    -0.323 N 
ATOM     92  C   UNL A   1      32.477  28.863  24.159  1.00  0.00     0.071 C 
ATOM     93  C   UNL A   1      30.170  28.116  22.570  1.00  0.00     0.262 C 
ATOM     94  H   UNL A   1      31.970  28.310  21.607  1.00  0.00     0.348 HD
ATOM     95  C   UNL A   1      31.100  29.380  24.565  1.00  0.00     0.012 C 
ATOM     96  C   UNL A   1      30.172  29.431  23.355  1.00  0.00     0.062 C 
ENDBRANCH  84  85
ENDBRANCH  82  84
ENDBRANCH  75  77
ENDBRANCH  74  75
ENDBRANCH  73  74
ENDBRANCH  72  73
ENDBRANCH   1  72
TORSDOF 16
ENDMDL
MODEL 3
REMARK VINA RESULT:      -9.0      4.515     10.146
REMARK SMILES O=C(OCCOCCOC(=O)c1ccc(C[N@H+]2CC[N@H+]3CCCC[C@@H]3C2)c(F)c1)c1ccc(-c2c3nc(c(-c4c(F)c(F)c(F)c(F)c4F)c4ccc([nH]4)c(-c4c(F)c(F)c(F)c(F)c4F)c4nc(c(-c5c(F)c(F)c(F)c(F)c5F)c5ccc2[nH]5)C=C4)C=C3)cc1
REMARK SMILES IDX 6 1 5 2 4 3 3 4 2 5 1 6 30 7 31 8 92 9 32 10 91 11 33 12
REMARK SMILES IDX 34 13 35 14 85 15 36 16 90 17 84 18 86 19 37 20 89 21 83 22
REMARK SMILES IDX 82 23 38 25 70 26 50 27 69 28 51 29 54 30 68 31 87 32 52 33
REMARK SMILES IDX 53 34 67 36 88 37 55 38 39 39 40 40 48 41 41 42 42 43 46 44
REMARK SMILES IDX 49 45 43 46 44 47 47 48 45 49 71 50 72 51 80 52 73 53 74 54
REMARK SMILES IDX 78 55 81 56 75 57 76 58 79 59 77 60 56 61 57 62 65 63 58 64
REMARK SMILES IDX 59 65 63 66 66 67 60 68 61 69 64 70 62 71 7 72 8 73 9 74
REMARK SMILES IDX 10 75 11 76 12 77 13 78 29 79 14 80 27 81 15 82 28 83 16 84
REMARK SMILES IDX 17 85 18 86 26 87 19 89 25 90 20 91 24 92 21 93 23 95 22 96
REMARK H PARENT 86 24 54 35 17 88 20 94
REMARK Flexibility Score: inf
ROOT
ATOM      1  O   UNL A   1      32.097  30.356  25.378  1.00  0.00    -0.374 OA
ENDROOT
BRANCH   1   2
ATOM      2  C   UNL A   1      31.929  30.794  26.725  1.00  0.00     0.202 C 
BRANCH   2   3
ATOM      3  C   UNL A   1      31.458  32.239  26.892  1.00  0.00     0.261 C 
BRANCH   3   4
ATOM      4  O   UNL A   1      32.578  33.139  26.889  1.00  0.00    -0.460 OA
BRANCH   4   5
ATOM      5  C   UNL A   1      33.194  33.677  27.969  1.00  0.00     0.338 C 
ATOM      6  O   UNL A   1      32.757  34.719  28.451  1.00  0.00    -0.246 OA
BRANCH   5   7
ATOM      7  C   UNL A   1      34.395  33.060  28.605  1.00  0.00     0.060 A 
ATOM      8  C   UNL A   1      34.420  31.771  29.135  1.00  0.00     0.016 A 
ATOM      9  C   UNL A   1      35.596  33.788  28.580  1.00  0.00     0.016 A 
ATOM     10  C   UNL A   1      35.564  31.241  29.704  1.00  0.00     0.010 A 
ATOM     11  C   UNL A   1      36.775  33.237  29.093  1.00  0.00     0.010 A 
ATOM     12  C   UNL A   1      36.754  31.963  29.672  1.00  0.00    -0.014 A 
BRANCH  12  13
ATOM     13  C   UNL A   1      37.929  31.362  30.325  1.00  0.00     0.031 A 
ATOM     14  C   UNL A   1      38.142  31.609  31.784  1.00  0.00     0.074 A 
ATOM     15  C   UNL A   1      38.674  30.473  29.642  1.00  0.00     0.049 A 
ATOM     16  N   UNL A   1      39.093  31.176  32.566  1.00  0.00    -0.248 NA
ATOM     17  C   UNL A   1      37.133  32.440  32.461  1.00  0.00     0.031 C 
ATOM     18  C   UNL A   1      38.436  30.072  28.254  1.00  0.00     0.029 A 
ATOM     19  N   UNL A   1      39.739  29.708  30.032  1.00  0.00    -0.354 N 
ATOM     20  C   UNL A   1      38.810  31.695  33.820  1.00  0.00     0.074 A 
ATOM     21  C   UNL A   1      37.604  32.483  33.698  1.00  0.00     0.031 C 
ATOM     22  C   UNL A   1      39.296  29.097  27.925  1.00  0.00     0.029 A 
ATOM     23  C   UNL A   1      40.194  28.862  29.050  1.00  0.00     0.049 A 
ATOM     24  H   UNL A   1      40.141  29.757  30.930  1.00  0.00     0.167 HD
ATOM     25  C   UNL A   1      39.506  31.524  34.966  1.00  0.00     0.037 A 
ATOM     26  C   UNL A   1      41.237  28.012  29.060  1.00  0.00     0.037 A 
ATOM     27  C   UNL A   1      40.706  30.738  35.048  1.00  0.00     0.049 A 
ATOM     28  C   UNL A   1      42.062  27.927  30.314  1.00  0.00     0.074 A 
ATOM     29  C   UNL A   1      41.563  30.571  36.118  1.00  0.00     0.029 A 
ATOM     30  N   UNL A   1      41.214  29.977  34.000  1.00  0.00    -0.354 N 
ATOM     31  N   UNL A   1      41.860  28.510  31.472  1.00  0.00    -0.248 NA
ATOM     32  C   UNL A   1      43.269  27.093  30.262  1.00  0.00     0.031 C 
ATOM     33  C   UNL A   1      42.611  29.740  35.706  1.00  0.00     0.029 A 
ATOM     34  C   UNL A   1      42.380  29.348  34.395  1.00  0.00     0.049 A 
ATOM     35  H   UNL A   1      40.803  29.900  33.109  1.00  0.00     0.167 HD
ATOM     36  C   UNL A   1      42.907  28.114  32.290  1.00  0.00     0.074 A 
ATOM     37  C   UNL A   1      43.732  27.220  31.498  1.00  0.00     0.031 C 
ATOM     38  C   UNL A   1      43.170  28.461  33.574  1.00  0.00     0.037 A 
BRANCH  25  39
ATOM     39  C   UNL A   1      39.016  32.258  36.178  1.00  0.00     0.064 A 
ATOM     40  C   UNL A   1      38.141  31.632  37.078  1.00  0.00     0.173 A 
ATOM     41  C   UNL A   1      39.434  33.565  36.473  1.00  0.00     0.173 A 
ATOM     42  F   UNL A   1      37.718  30.380  36.848  1.00  0.00    -0.203 F 
ATOM     43  C   UNL A   1      37.706  32.283  38.228  1.00  0.00     0.198 A 
ATOM     44  C   UNL A   1      39.019  34.204  37.639  1.00  0.00     0.198 A 
ATOM     45  F   UNL A   1      40.296  34.197  35.662  1.00  0.00    -0.203 F 
ATOM     46  F   UNL A   1      36.869  31.663  39.071  1.00  0.00    -0.200 F 
ATOM     47  C   UNL A   1      38.153  33.564  38.514  1.00  0.00     0.200 A 
ATOM     48  F   UNL A   1      39.479  35.428  37.931  1.00  0.00    -0.200 F 
ATOM     49  F   UNL A   1      37.761  34.177  39.639  1.00  0.00    -0.200 F 
ENDBRANCH  25  39
BRANCH  26  50
ATOM     50  C   UNL A   1      41.561  27.218  27.844  1.00  0.00     0.064 A 
ATOM     51  C   UNL A   1      41.053  25.921  27.666  1.00  0.00     0.173 A 
ATOM     52  C   UNL A   1      42.417  27.720  26.854  1.00  0.00     0.173 A 
ATOM     53  F   UNL A   1      40.226  25.392  28.580  1.00  0.00    -0.203 F 
ATOM     54  C   UNL A   1      41.414  25.147  26.565  1.00  0.00     0.198 A 
ATOM     55  C   UNL A   1      42.755  26.955  25.738  1.00  0.00     0.198 A 
ATOM     56  F   UNL A   1      42.911  28.961  26.962  1.00  0.00    -0.203 F 
ATOM     57  F   UNL A   1      40.947  23.896  26.446  1.00  0.00    -0.200 F 
ATOM     58  C   UNL A   1      42.262  25.665  25.600  1.00  0.00     0.200 A 
ATOM     59  F   UNL A   1      43.555  27.467  24.793  1.00  0.00    -0.200 F 
ATOM     60  F   UNL A   1      42.602  24.924  24.536  1.00  0.00    -0.200 F 
ENDBRANCH  26  50
BRANCH  38  61
ATOM     61  C   UNL A   1      44.388  27.865  34.207  1.00  0.00     0.064 A 
ATOM     62  C   UNL A   1      44.297  26.659  34.917  1.00  0.00     0.173 A 
ATOM     63  C   UNL A   1      45.622  28.532  34.188  1.00  0.00     0.173 A 
ATOM     64  F   UNL A   1      43.135  25.991  34.969  1.00  0.00    -0.203 F 
ATOM     65  C   UNL A   1      45.395  26.152  35.604  1.00  0.00     0.198 A 
ATOM     66  C   UNL A   1      46.724  28.007  34.853  1.00  0.00     0.198 A 
ATOM     67  F   UNL A   1      45.756  29.682  33.510  1.00  0.00    -0.203 F 
ATOM     68  F   UNL A   1      45.277  25.018  36.309  1.00  0.00    -0.200 F 
ATOM     69  C   UNL A   1      46.608  26.825  35.570  1.00  0.00     0.200 A 
ATOM     70  F   UNL A   1      47.901  28.646  34.803  1.00  0.00    -0.200 F 
ATOM     71  F   UNL A   1      47.666  26.332  36.229  1.00  0.00    -0.200 F 
ENDBRANCH  38  61
ENDBRANCH  12  13
ENDBRANCH   5   7
ENDBRANCH   4   5
ENDBRANCH   3   4
ENDBRANCH   2   3
ENDBRANCH   1   2
BRANCH   1  72
ATOM     72  C   UNL A   1      30.993  29.646  24.806  1.00  0.00     0.202 C 
BRANCH  72  73
ATOM     73  C   UNL A   1      31.333  29.257  23.362  1.00  0.00     0.261 C 
BRANCH  73  74
ATOM     74  O   UNL A   1      31.292  27.825  23.229  1.00  0.00    -0.460 OA
BRANCH  74  75
ATOM     75  C   UNL A   1      32.495  27.189  23.271  1.00  0.00     0.338 C 
ATOM     76  O   UNL A   1      33.572  27.630  23.626  1.00  0.00    -0.246 OA
BRANCH  75  77
ATOM     77  C   UNL A   1      32.201  25.765  23.037  1.00  0.00     0.063 A 
ATOM     78  C   UNL A   1      31.084  25.162  23.611  1.00  0.00     0.016 A 
ATOM     79  C   UNL A   1      33.177  24.998  22.402  1.00  0.00     0.055 A 
ATOM     80  C   UNL A   1      31.013  23.766  23.656  1.00  0.00     0.013 A 
ATOM     81  C   UNL A   1      33.138  23.616  22.531  1.00  0.00     0.132 A 
ATOM     82  C   UNL A   1      32.102  22.984  23.224  1.00  0.00     0.042 A 
ATOM     83  F   UNL A   1      34.169  22.900  22.062  1.00  0.00    -0.206 F 
BRANCH  82  84
ATOM     84  C   UNL A   1      32.196  21.520  23.589  1.00  0.00     0.302 C 
BRANCH  84  85
ATOM     85  N   UNL A   1      32.691  21.168  24.933  1.00  0.00    -0.322 N 
ATOM     86  C   UNL A   1      33.281  19.830  25.087  1.00  0.00     0.324 C 
ATOM     87  C   UNL A   1      33.518  22.167  25.624  1.00  0.00     0.328 C 
ATOM     88  H   UNL A   1      31.792  21.155  25.414  1.00  0.00     0.348 HD
ATOM     89  C   UNL A   1      34.811  19.715  24.870  1.00  0.00     0.324 C 
ATOM     90  C   UNL A   1      35.026  22.095  25.272  1.00  0.00     0.239 C 
ATOM     91  N   UNL A   1      35.625  20.767  25.524  1.00  0.00    -0.323 N 
ATOM     92  C   UNL A   1      35.822  23.193  25.985  1.00  0.00     0.071 C 
ATOM     93  C   UNL A   1      36.999  20.736  24.992  1.00  0.00     0.262 C 
ATOM     94  H   UNL A   1      35.647  20.595  26.528  1.00  0.00     0.348 HD
ATOM     95  C   UNL A   1      37.246  23.223  25.438  1.00  0.00     0.012 C 
ATOM     96  C   UNL A   1      37.891  21.845  25.557  1.00  0.00     0.062 C 
ENDBRANCH  84  85
ENDBRANCH  82  84
ENDBRANCH  75  77
ENDBRANCH  74  75
ENDBRANCH  73  74
ENDBRANCH  72  73
ENDBRANCH   1  72
TORSDOF 16
ENDMDL
