MODEL 1
REMARK VINA RESULT:     -11.3      0.000      0.000
REMARK SMILES C[C@H](C(=O)OCCOCCOC(=O)c1ccc(-c2c3nc(c(-c4c(F)c(F)c(F)c(F)c4F)c4ccc([nH]4)c(-c4c(F)c(F)c(F)c(F)c4F)c4nc(c(-c5c(F)c(F)c(F)c(F)c5F)c5ccc2[nH]5)C=C4)C=C3)cc1)[C@H](C)[NH+]1CCN(c2ccccc2Cl)CC1
REMARK SMILES IDX 7 1 6 2 5 3 3 4 4 5 2 6 1 7 77 8 78 9 79 10 80 11 91 12
REMARK SMILES IDX 81 14 90 15 82 16 83 17 84 18 88 19 85 20 87 21 89 22 86 23
REMARK SMILES IDX 8 24 9 25 10 26 11 27 12 28 13 29 14 30 15 31 76 32 16 33
REMARK SMILES IDX 75 34 17 35 18 36 19 37 69 38 20 39 74 40 68 41 70 42 21 43
REMARK SMILES IDX 73 44 67 45 66 46 22 48 54 49 34 50 53 51 35 52 38 53 52 54
REMARK SMILES IDX 71 55 36 56 37 57 51 59 72 60 39 61 23 62 24 63 32 64 25 65
REMARK SMILES IDX 26 66 30 67 33 68 27 69 28 70 31 71 29 72 55 73 56 74 64 75
REMARK SMILES IDX 57 76 58 77 62 78 65 79 59 80 60 81 63 82 61 83 40 84 41 85
REMARK SMILES IDX 49 86 42 87 43 88 47 89 50 90 44 91 45 92 48 93 46 94
REMARK H PARENT 79 13 70 47 38 58
REMARK Flexibility Score: inf
ROOT
ATOM      1  C   UNL A   1      35.088  21.690  26.537  1.00  0.00     0.202 C 
ENDROOT
BRANCH   1   2
ATOM      2  C   UNL A   1      34.745  23.142  26.857  1.00  0.00     0.261 C 
BRANCH   2   3
ATOM      3  O   UNL A   1      33.498  23.484  26.223  1.00  0.00    -0.463 OA
BRANCH   3   4
ATOM      4  C   UNL A   1      32.385  23.005  26.811  1.00  0.00     0.314 C 
ATOM      5  O   UNL A   1      32.280  22.859  28.027  1.00  0.00    -0.252 OA
BRANCH   4   6
ATOM      6  C   UNL A   1      31.210  22.698  25.862  1.00  0.00     0.154 C 
ATOM      7  C   UNL A   1      29.937  22.833  26.716  1.00  0.00     0.026 C 
BRANCH   6   8
ATOM      8  C   UNL A   1      31.228  23.098  24.295  1.00  0.00     0.195 C 
ATOM      9  C   UNL A   1      32.094  22.149  23.439  1.00  0.00     0.076 C 
BRANCH   8  10
ATOM     10  N   UNL A   1      31.082  24.460  23.703  1.00  0.00    -0.329 N 
ATOM     11  C   UNL A   1      30.229  25.482  24.306  1.00  0.00     0.284 C 
ATOM     12  C   UNL A   1      32.244  25.164  23.106  1.00  0.00     0.284 C 
ATOM     13  H   UNL A   1      30.547  23.992  22.972  1.00  0.00     0.348 HD
ATOM     14  C   UNL A   1      30.956  26.238  25.437  1.00  0.00     0.178 C 
ATOM     15  C   UNL A   1      33.044  26.081  24.074  1.00  0.00     0.178 C 
ATOM     16  N   UNL A   1      32.150  26.906  24.910  1.00  0.00    -0.359 N 
BRANCH  16  17
ATOM     17  C   UNL A   1      32.651  28.003  25.608  1.00  0.00     0.056 A 
ATOM     18  C   UNL A   1      33.693  27.839  26.544  1.00  0.00     0.027 A 
ATOM     19  C   UNL A   1      32.112  29.301  25.484  1.00  0.00     0.064 A 
ATOM     20  C   UNL A   1      34.179  28.901  27.313  1.00  0.00     0.002 A 
ATOM     21  C   UNL A   1      32.590  30.365  26.265  1.00  0.00     0.023 A 
ATOM     22  Cl  UNL A   1      30.758  29.637  24.455  1.00  0.00    -0.082 Cl
ATOM     23  C   UNL A   1      33.622  30.165  27.178  1.00  0.00     0.002 A 
ENDBRANCH  16  17
ENDBRANCH   8  10
ENDBRANCH   6   8
ENDBRANCH   4   6
ENDBRANCH   3   4
ENDBRANCH   2   3
ENDBRANCH   1   2
BRANCH   1  24
ATOM     24  O   UNL A   1      35.514  21.480  25.190  1.00  0.00    -0.374 OA
BRANCH  24  25
ATOM     25  C   UNL A   1      35.972  20.167  24.851  1.00  0.00     0.202 C 
BRANCH  25  26
ATOM     26  C   UNL A   1      37.487  19.985  24.951  1.00  0.00     0.261 C 
BRANCH  26  27
ATOM     27  O   UNL A   1      38.121  21.197  25.397  1.00  0.00    -0.460 OA
BRANCH  27  28
ATOM     28  C   UNL A   1      39.266  21.008  26.084  1.00  0.00     0.338 C 
ATOM     29  O   UNL A   1      39.956  19.992  26.118  1.00  0.00    -0.246 OA
BRANCH  28  30
ATOM     30  C   UNL A   1      39.728  22.282  26.655  1.00  0.00     0.060 A 
ATOM     31  C   UNL A   1      39.161  23.448  26.129  1.00  0.00     0.016 A 
ATOM     32  C   UNL A   1      40.738  22.350  27.617  1.00  0.00     0.016 A 
ATOM     33  C   UNL A   1      39.656  24.691  26.505  1.00  0.00     0.010 A 
ATOM     34  C   UNL A   1      41.236  23.605  27.994  1.00  0.00     0.010 A 
ATOM     35  C   UNL A   1      40.729  24.777  27.402  1.00  0.00    -0.014 A 
BRANCH  35  36
ATOM     36  C   UNL A   1      41.402  26.089  27.569  1.00  0.00     0.031 A 
ATOM     37  C   UNL A   1      40.680  27.193  28.294  1.00  0.00     0.074 A 
ATOM     38  C   UNL A   1      42.676  26.260  27.175  1.00  0.00     0.049 A 
ATOM     39  N   UNL A   1      41.108  28.383  28.633  1.00  0.00    -0.248 NA
ATOM     40  C   UNL A   1      39.292  26.918  28.696  1.00  0.00     0.031 C 
ATOM     41  C   UNL A   1      43.491  25.251  26.501  1.00  0.00     0.029 A 
ATOM     42  N   UNL A   1      43.513  27.341  27.302  1.00  0.00    -0.354 N 
ATOM     43  C   UNL A   1      40.045  28.994  29.288  1.00  0.00     0.074 A 
ATOM     44  C   UNL A   1      38.941  28.060  29.267  1.00  0.00     0.031 C 
ATOM     45  C   UNL A   1      44.717  25.756  26.285  1.00  0.00     0.029 A 
ATOM     46  C   UNL A   1      44.765  27.131  26.780  1.00  0.00     0.049 A 
ATOM     47  H   UNL A   1      43.241  28.186  27.728  1.00  0.00     0.167 HD
ATOM     48  C   UNL A   1      40.000  30.216  29.869  1.00  0.00     0.037 A 
ATOM     49  C   UNL A   1      45.826  27.958  26.706  1.00  0.00     0.037 A 
ATOM     50  C   UNL A   1      41.104  31.141  29.898  1.00  0.00     0.049 A 
ATOM     51  C   UNL A   1      45.726  29.340  27.300  1.00  0.00     0.074 A 
ATOM     52  C   UNL A   1      41.165  32.393  30.483  1.00  0.00     0.029 A 
ATOM     53  N   UNL A   1      42.338  30.915  29.306  1.00  0.00    -0.354 N 
ATOM     54  N   UNL A   1      44.731  29.893  27.952  1.00  0.00    -0.248 NA
ATOM     55  C   UNL A   1      46.901  30.211  27.154  1.00  0.00     0.031 C 
ATOM     56  C   UNL A   1      42.416  32.949  30.195  1.00  0.00     0.029 A 
ATOM     57  C   UNL A   1      43.156  32.020  29.483  1.00  0.00     0.049 A 
ATOM     58  H   UNL A   1      42.594  30.092  28.830  1.00  0.00     0.167 HD
ATOM     59  C   UNL A   1      45.168  31.160  28.316  1.00  0.00     0.074 A 
ATOM     60  C   UNL A   1      46.525  31.289  27.828  1.00  0.00     0.031 C 
ATOM     61  C   UNL A   1      44.508  32.129  28.996  1.00  0.00     0.037 A 
BRANCH  48  62
ATOM     62  C   UNL A   1      38.706  30.639  30.500  1.00  0.00     0.064 A 
ATOM     63  C   UNL A   1      38.497  30.563  31.885  1.00  0.00     0.173 A 
ATOM     64  C   UNL A   1      37.673  31.167  29.710  1.00  0.00     0.173 A 
ATOM     65  F   UNL A   1      39.447  30.055  32.685  1.00  0.00    -0.203 F 
ATOM     66  C   UNL A   1      37.293  30.976  32.452  1.00  0.00     0.198 A 
ATOM     67  C   UNL A   1      36.483  31.606  30.284  1.00  0.00     0.198 A 
ATOM     68  F   UNL A   1      37.822  31.266  28.380  1.00  0.00    -0.203 F 
ATOM     69  F   UNL A   1      37.099  30.851  33.773  1.00  0.00    -0.200 F 
ATOM     70  C   UNL A   1      36.291  31.503  31.652  1.00  0.00     0.200 A 
ATOM     71  F   UNL A   1      35.521  32.129  29.510  1.00  0.00    -0.200 F 
ATOM     72  F   UNL A   1      35.137  31.909  32.201  1.00  0.00    -0.200 F 
ENDBRANCH  48  62
BRANCH  49  73
ATOM     73  C   UNL A   1      47.078  27.507  26.042  1.00  0.00     0.064 A 
ATOM     74  C   UNL A   1      48.118  26.920  26.773  1.00  0.00     0.173 A 
ATOM     75  C   UNL A   1      47.267  27.679  24.663  1.00  0.00     0.173 A 
ATOM     76  F   UNL A   1      47.997  26.757  28.100  1.00  0.00    -0.203 F 
ATOM     77  C   UNL A   1      49.307  26.539  26.155  1.00  0.00     0.198 A 
ATOM     78  C   UNL A   1      48.444  27.270  24.040  1.00  0.00     0.198 A 
ATOM     79  F   UNL A   1      46.303  28.238  23.916  1.00  0.00    -0.203 F 
ATOM     80  F   UNL A   1      50.306  26.025  26.886  1.00  0.00    -0.200 F 
ATOM     81  C   UNL A   1      49.467  26.708  24.788  1.00  0.00     0.200 A 
ATOM     82  F   UNL A   1      48.588  27.424  22.717  1.00  0.00    -0.200 F 
ATOM     83  F   UNL A   1      50.610  26.340  24.193  1.00  0.00    -0.200 F 
ENDBRANCH  49  73
BRANCH  61  84
ATOM     84  C   UNL A   1      45.251  33.403  29.284  1.00  0.00     0.064 A 
ATOM     85  C   UNL A   1      46.042  33.554  30.432  1.00  0.00     0.173 A 
ATOM     86  C   UNL A   1      45.202  34.473  28.376  1.00  0.00     0.173 A 
ATOM     87  F   UNL A   1      46.112  32.566  31.337  1.00  0.00    -0.203 F 
ATOM     88  C   UNL A   1      46.736  34.737  30.673  1.00  0.00     0.198 A 
ATOM     89  C   UNL A   1      45.923  35.641  28.604  1.00  0.00     0.198 A 
ATOM     90  F   UNL A   1      44.467  34.379  27.258  1.00  0.00    -0.203 F 
ATOM     91  F   UNL A   1      47.446  34.876  31.802  1.00  0.00    -0.200 F 
ATOM     92  C   UNL A   1      46.683  35.776  29.756  1.00  0.00     0.200 A 
ATOM     93  F   UNL A   1      45.883  36.638  27.710  1.00  0.00    -0.200 F 
ATOM     94  F   UNL A   1      47.357  36.911  29.987  1.00  0.00    -0.200 F 
ENDBRANCH  61  84
ENDBRANCH  35  36
ENDBRANCH  28  30
ENDBRANCH  27  28
ENDBRANCH  26  27
ENDBRANCH  25  26
ENDBRANCH  24  25
ENDBRANCH   1  24
TORSDOF 17
ENDMDL
MODEL 2
REMARK VINA RESULT:     -11.2      1.632      7.595
REMARK SMILES C[C@H](C(=O)OCCOCCOC(=O)c1ccc(-c2c3nc(c(-c4c(F)c(F)c(F)c(F)c4F)c4ccc([nH]4)c(-c4c(F)c(F)c(F)c(F)c4F)c4nc(c(-c5c(F)c(F)c(F)c(F)c5F)c5ccc2[nH]5)C=C4)C=C3)cc1)[C@H](C)[NH+]1CCN(c2ccccc2Cl)CC1
REMARK SMILES IDX 7 1 6 2 5 3 3 4 4 5 2 6 1 7 77 8 78 9 79 10 80 11 91 12
REMARK SMILES IDX 81 14 90 15 82 16 83 17 84 18 88 19 85 20 87 21 89 22 86 23
REMARK SMILES IDX 8 24 9 25 10 26 11 27 12 28 13 29 14 30 15 31 76 32 16 33
REMARK SMILES IDX 75 34 17 35 18 36 19 37 69 38 20 39 74 40 68 41 70 42 21 43
REMARK SMILES IDX 73 44 67 45 66 46 22 48 54 49 34 50 53 51 35 52 38 53 52 54
REMARK SMILES IDX 71 55 36 56 37 57 51 59 72 60 39 61 23 62 24 63 32 64 25 65
REMARK SMILES IDX 26 66 30 67 33 68 27 69 28 70 31 71 29 72 55 73 56 74 64 75
REMARK SMILES IDX 57 76 58 77 62 78 65 79 59 80 60 81 63 82 61 83 40 84 41 85
REMARK SMILES IDX 49 86 42 87 43 88 47 89 50 90 44 91 45 92 48 93 46 94
REMARK H PARENT 79 13 70 47 38 58
REMARK Flexibility Score: inf
ROOT
ATOM      1  C   UNL A   1      36.610  22.762  23.721  1.00  0.00     0.202 C 
ENDROOT
BRANCH   1   2
ATOM      2  C   UNL A   1      35.138  22.568  23.372  1.00  0.00     0.261 C 
BRANCH   2   3
ATOM      3  O   UNL A   1      34.652  23.747  22.702  1.00  0.00    -0.463 OA
BRANCH   3   4
ATOM      4  C   UNL A   1      33.315  23.909  22.687  1.00  0.00     0.314 C 
ATOM      5  O   UNL A   1      32.541  23.051  22.269  1.00  0.00    -0.252 OA
BRANCH   4   6
ATOM      6  C   UNL A   1      32.799  25.232  23.288  1.00  0.00     0.154 C 
ATOM      7  C   UNL A   1      31.287  25.032  23.500  1.00  0.00     0.026 C 
BRANCH   6   8
ATOM      8  C   UNL A   1      33.685  26.138  24.291  1.00  0.00     0.195 C 
ATOM      9  C   UNL A   1      34.171  25.364  25.535  1.00  0.00     0.076 C 
BRANCH   8  10
ATOM     10  N   UNL A   1      33.586  27.611  24.513  1.00  0.00    -0.329 N 
ATOM     11  C   UNL A   1      33.456  28.556  23.407  1.00  0.00     0.284 C 
ATOM     12  C   UNL A   1      32.805  28.163  25.648  1.00  0.00     0.284 C 
ATOM     13  H   UNL A   1      34.572  27.553  24.766  1.00  0.00     0.348 HD
ATOM     14  C   UNL A   1      31.990  28.699  22.947  1.00  0.00     0.178 C 
ATOM     15  C   UNL A   1      31.315  28.489  25.344  1.00  0.00     0.178 C 
ATOM     16  N   UNL A   1      31.161  29.188  24.054  1.00  0.00    -0.359 N 
BRANCH  16  17
ATOM     17  C   UNL A   1      29.969  29.839  23.743  1.00  0.00     0.056 A 
ATOM     18  C   UNL A   1      29.852  31.234  23.910  1.00  0.00     0.027 A 
ATOM     19  C   UNL A   1      28.808  29.153  23.325  1.00  0.00     0.064 A 
ATOM     20  C   UNL A   1      28.654  31.916  23.673  1.00  0.00     0.002 A 
ATOM     21  C   UNL A   1      27.602  29.835  23.099  1.00  0.00     0.023 A 
ATOM     22  Cl  UNL A   1      28.766  27.427  23.179  1.00  0.00    -0.082 Cl
ATOM     23  C   UNL A   1      27.525  31.214  23.273  1.00  0.00     0.002 A 
ENDBRANCH  16  17
ENDBRANCH   8  10
ENDBRANCH   6   8
ENDBRANCH   4   6
ENDBRANCH   3   4
ENDBRANCH   2   3
ENDBRANCH   1   2
BRANCH   1  24
ATOM     24  O   UNL A   1      36.923  22.474  25.085  1.00  0.00    -0.374 OA
BRANCH  24  25
ATOM     25  C   UNL A   1      36.831  21.107  25.498  1.00  0.00     0.202 C 
BRANCH  25  26
ATOM     26  C   UNL A   1      38.118  20.304  25.306  1.00  0.00     0.261 C 
BRANCH  26  27
ATOM     27  O   UNL A   1      39.273  21.159  25.389  1.00  0.00    -0.460 OA
BRANCH  27  28
ATOM     28  C   UNL A   1      40.062  20.929  26.457  1.00  0.00     0.338 C 
ATOM     29  O   UNL A   1      40.592  19.868  26.778  1.00  0.00    -0.246 OA
BRANCH  28  30
ATOM     30  C   UNL A   1      40.400  22.198  27.118  1.00  0.00     0.060 A 
ATOM     31  C   UNL A   1      39.717  23.337  26.678  1.00  0.00     0.016 A 
ATOM     32  C   UNL A   1      41.407  22.297  28.082  1.00  0.00     0.016 A 
ATOM     33  C   UNL A   1      40.089  24.592  27.142  1.00  0.00     0.010 A 
ATOM     34  C   UNL A   1      41.782  23.565  28.547  1.00  0.00     0.010 A 
ATOM     35  C   UNL A   1      41.156  24.720  28.042  1.00  0.00    -0.014 A 
BRANCH  35  36
ATOM     36  C   UNL A   1      41.697  26.077  28.302  1.00  0.00     0.031 A 
ATOM     37  C   UNL A   1      43.052  26.441  27.758  1.00  0.00     0.074 A 
ATOM     38  C   UNL A   1      40.946  27.006  28.921  1.00  0.00     0.049 A 
ATOM     39  N   UNL A   1      43.678  27.590  27.784  1.00  0.00    -0.248 NA
ATOM     40  C   UNL A   1      43.801  25.366  27.088  1.00  0.00     0.031 C 
ATOM     41  C   UNL A   1      39.603  26.785  29.453  1.00  0.00     0.029 A 
ATOM     42  N   UNL A   1      41.203  28.328  29.189  1.00  0.00    -0.354 N 
ATOM     43  C   UNL A   1      44.888  27.377  27.135  1.00  0.00     0.074 A 
ATOM     44  C   UNL A   1      44.927  25.981  26.759  1.00  0.00     0.031 C 
ATOM     45  C   UNL A   1      39.147  27.937  29.974  1.00  0.00     0.029 A 
ATOM     46  C   UNL A   1      40.174  28.967  29.836  1.00  0.00     0.049 A 
ATOM     47  H   UNL A   1      42.044  28.775  28.940  1.00  0.00     0.167 HD
ATOM     48  C   UNL A   1      45.870  28.268  26.864  1.00  0.00     0.037 A 
ATOM     49  C   UNL A   1      40.078  30.239  30.271  1.00  0.00     0.037 A 
ATOM     50  C   UNL A   1      45.826  29.660  27.231  1.00  0.00     0.049 A 
ATOM     51  C   UNL A   1      41.217  31.193  30.017  1.00  0.00     0.074 A 
ATOM     52  C   UNL A   1      46.760  30.648  26.979  1.00  0.00     0.029 A 
ATOM     53  N   UNL A   1      44.793  30.257  27.939  1.00  0.00    -0.354 N 
ATOM     54  N   UNL A   1      42.339  30.992  29.368  1.00  0.00    -0.248 NA
ATOM     55  C   UNL A   1      41.072  32.555  30.550  1.00  0.00     0.031 C 
ATOM     56  C   UNL A   1      46.320  31.830  27.585  1.00  0.00     0.029 A 
ATOM     57  C   UNL A   1      45.083  31.593  28.162  1.00  0.00     0.049 A 
ATOM     58  H   UNL A   1      43.975  29.798  28.238  1.00  0.00     0.167 HD
ATOM     59  C   UNL A   1      43.018  32.204  29.390  1.00  0.00     0.074 A 
ATOM     60  C   UNL A   1      42.174  33.141  30.103  1.00  0.00     0.031 C 
ATOM     61  C   UNL A   1      44.229  32.515  28.867  1.00  0.00     0.037 A 
BRANCH  48  62
ATOM     62  C   UNL A   1      47.094  27.761  26.157  1.00  0.00     0.064 A 
ATOM     63  C   UNL A   1      48.205  27.270  26.858  1.00  0.00     0.173 A 
ATOM     64  C   UNL A   1      47.137  27.729  24.755  1.00  0.00     0.173 A 
ATOM     65  F   UNL A   1      48.220  27.290  28.200  1.00  0.00    -0.203 F 
ATOM     66  C   UNL A   1      49.324  26.790  26.182  1.00  0.00     0.198 A 
ATOM     67  C   UNL A   1      48.245  27.220  24.082  1.00  0.00     0.198 A 
ATOM     68  F   UNL A   1      46.100  28.182  24.035  1.00  0.00    -0.203 F 
ATOM     69  F   UNL A   1      50.393  26.368  26.873  1.00  0.00    -0.200 F 
ATOM     70  C   UNL A   1      49.340  26.758  24.795  1.00  0.00     0.200 A 
ATOM     71  F   UNL A   1      48.253  27.178  22.743  1.00  0.00    -0.200 F 
ATOM     72  F   UNL A   1      50.414  26.286  24.146  1.00  0.00    -0.200 F 
ENDBRANCH  48  62
BRANCH  49  73
ATOM     73  C   UNL A   1      38.860  30.688  30.997  1.00  0.00     0.064 A 
ATOM     74  C   UNL A   1      37.752  31.202  30.310  1.00  0.00     0.173 A 
ATOM     75  C   UNL A   1      38.792  30.634  32.396  1.00  0.00     0.173 A 
ATOM     76  F   UNL A   1      37.779  31.298  28.972  1.00  0.00    -0.203 F 
ATOM     77  C   UNL A   1      36.630  31.662  30.995  1.00  0.00     0.198 A 
ATOM     78  C   UNL A   1      37.657  31.066  33.080  1.00  0.00     0.198 A 
ATOM     79  F   UNL A   1      39.825  30.153  33.103  1.00  0.00    -0.203 F 
ATOM     80  F   UNL A   1      35.605  32.195  30.317  1.00  0.00    -0.200 F 
ATOM     81  C   UNL A   1      36.580  31.589  32.379  1.00  0.00     0.200 A 
ATOM     82  F   UNL A   1      37.609  30.982  34.416  1.00  0.00    -0.200 F 
ATOM     83  F   UNL A   1      35.501  32.030  33.038  1.00  0.00    -0.200 F 
ENDBRANCH  49  73
BRANCH  61  84
ATOM     84  C   UNL A   1      44.704  33.933  29.013  1.00  0.00     0.064 A 
ATOM     85  C   UNL A   1      45.500  34.338  30.094  1.00  0.00     0.173 A 
ATOM     86  C   UNL A   1      44.390  34.889  28.035  1.00  0.00     0.173 A 
ATOM     87  F   UNL A   1      45.816  33.465  31.062  1.00  0.00    -0.203 F 
ATOM     88  C   UNL A   1      45.943  35.654  30.204  1.00  0.00     0.198 A 
ATOM     89  C   UNL A   1      44.862  36.196  28.131  1.00  0.00     0.198 A 
ATOM     90  F   UNL A   1      43.638  34.554  26.976  1.00  0.00    -0.203 F 
ATOM     91  F   UNL A   1      46.661  36.028  31.272  1.00  0.00    -0.200 F 
ATOM     92  C   UNL A   1      45.631  36.579  29.220  1.00  0.00     0.200 A 
ATOM     93  F   UNL A   1      44.572  37.084  27.171  1.00  0.00    -0.200 F 
ATOM     94  F   UNL A   1      46.064  37.842  29.324  1.00  0.00    -0.200 F 
ENDBRANCH  61  84
ENDBRANCH  35  36
ENDBRANCH  28  30
ENDBRANCH  27  28
ENDBRANCH  26  27
ENDBRANCH  25  26
ENDBRANCH  24  25
ENDBRANCH   1  24
TORSDOF 17
ENDMDL
MODEL 3
REMARK VINA RESULT:     -10.9      5.041      8.699
REMARK SMILES C[C@H](C(=O)OCCOCCOC(=O)c1ccc(-c2c3nc(c(-c4c(F)c(F)c(F)c(F)c4F)c4ccc([nH]4)c(-c4c(F)c(F)c(F)c(F)c4F)c4nc(c(-c5c(F)c(F)c(F)c(F)c5F)c5ccc2[nH]5)C=C4)C=C3)cc1)[C@H](C)[NH+]1CCN(c2ccccc2Cl)CC1
REMARK SMILES IDX 7 1 6 2 5 3 3 4 4 5 2 6 1 7 77 8 78 9 79 10 80 11 91 12
REMARK SMILES IDX 81 14 90 15 82 16 83 17 84 18 88 19 85 20 87 21 89 22 86 23
REMARK SMILES IDX 8 24 9 25 10 26 11 27 12 28 13 29 14 30 15 31 76 32 16 33
REMARK SMILES IDX 75 34 17 35 18 36 19 37 69 38 20 39 74 40 68 41 70 42 21 43
REMARK SMILES IDX 73 44 67 45 66 46 22 48 54 49 34 50 53 51 35 52 38 53 52 54
REMARK SMILES IDX 71 55 36 56 37 57 51 59 72 60 39 61 23 62 24 63 32 64 25 65
REMARK SMILES IDX 26 66 30 67 33 68 27 69 28 70 31 71 29 72 55 73 56 74 64 75
REMARK SMILES IDX 57 76 58 77 62 78 65 79 59 80 60 81 63 82 61 83 40 84 41 85
REMARK SMILES IDX 49 86 42 87 43 88 47 89 50 90 44 91 45 92 48 93 46 94
REMARK H PARENT 79 13 70 47 38 58
REMARK Flexibility Score: inf
ROOT
ATOM      1  C   UNL A   1      33.236  29.568  26.657  1.00  0.00     0.202 C 
ENDROOT
BRANCH   1   2
ATOM      2  C   UNL A   1      32.291  28.455  26.217  1.00  0.00     0.261 C 
BRANCH   2   3
ATOM      3  O   UNL A   1      32.147  28.496  24.784  1.00  0.00    -0.463 OA
BRANCH   3   4
ATOM      4  C   UNL A   1      32.544  27.395  24.118  1.00  0.00     0.314 C 
ATOM      5  O   UNL A   1      33.672  26.919  24.224  1.00  0.00    -0.252 OA
BRANCH   4   6
ATOM      6  C   UNL A   1      31.468  26.722  23.244  1.00  0.00     0.154 C 
ATOM      7  C   UNL A   1      32.103  26.559  21.851  1.00  0.00     0.026 C 
BRANCH   6   8
ATOM      8  C   UNL A   1      30.420  25.640  23.831  1.00  0.00     0.195 C 
ATOM      9  C   UNL A   1      29.168  26.289  24.459  1.00  0.00     0.076 C 
BRANCH   8  10
ATOM     10  N   UNL A   1      30.724  24.287  24.383  1.00  0.00    -0.329 N 
ATOM     11  C   UNL A   1      31.332  23.235  23.573  1.00  0.00     0.284 C 
ATOM     12  C   UNL A   1      31.244  24.123  25.764  1.00  0.00     0.284 C 
ATOM     13  H   UNL A   1      29.713  24.150  24.375  1.00  0.00     0.348 HD
ATOM     14  C   UNL A   1      32.867  23.371  23.518  1.00  0.00     0.178 C 
ATOM     15  C   UNL A   1      32.793  24.114  25.903  1.00  0.00     0.178 C 
ATOM     16  N   UNL A   1      33.429  23.274  24.870  1.00  0.00    -0.359 N 
BRANCH  16  17
ATOM     17  C   UNL A   1      34.760  22.882  25.001  1.00  0.00     0.056 A 
ATOM     18  C   UNL A   1      35.784  23.848  25.091  1.00  0.00     0.027 A 
ATOM     19  C   UNL A   1      35.167  21.531  24.975  1.00  0.00     0.064 A 
ATOM     20  C   UNL A   1      37.136  23.498  25.158  1.00  0.00     0.002 A 
ATOM     21  C   UNL A   1      36.525  21.179  25.029  1.00  0.00     0.023 A 
ATOM     22  Cl  UNL A   1      34.034  20.237  24.759  1.00  0.00    -0.082 Cl
ATOM     23  C   UNL A   1      37.508  22.161  25.120  1.00  0.00     0.002 A 
ENDBRANCH  16  17
ENDBRANCH   8  10
ENDBRANCH   6   8
ENDBRANCH   4   6
ENDBRANCH   3   4
ENDBRANCH   2   3
ENDBRANCH   1   2
BRANCH   1  24
ATOM     24  O   UNL A   1      32.571  30.714  27.192  1.00  0.00    -0.374 OA
BRANCH  24  25
ATOM     25  C   UNL A   1      33.394  31.812  27.595  1.00  0.00     0.202 C 
BRANCH  25  26
ATOM     26  C   UNL A   1      32.795  33.188  27.298  1.00  0.00     0.261 C 
BRANCH  26  27
ATOM     27  O   UNL A   1      32.324  33.814  28.505  1.00  0.00    -0.460 OA
BRANCH  27  28
ATOM     28  C   UNL A   1      33.009  34.917  28.866  1.00  0.00     0.338 C 
ATOM     29  O   UNL A   1      32.659  36.087  28.736  1.00  0.00    -0.246 OA
BRANCH  28  30
ATOM     30  C   UNL A   1      34.191  34.542  29.656  1.00  0.00     0.060 A 
ATOM     31  C   UNL A   1      35.431  34.634  29.014  1.00  0.00     0.016 A 
ATOM     32  C   UNL A   1      34.096  34.039  30.956  1.00  0.00     0.016 A 
ATOM     33  C   UNL A   1      36.574  34.152  29.639  1.00  0.00     0.010 A 
ATOM     34  C   UNL A   1      35.251  33.552  31.584  1.00  0.00     0.010 A 
ATOM     35  C   UNL A   1      36.485  33.563  30.908  1.00  0.00    -0.014 A 
BRANCH  35  36
ATOM     36  C   UNL A   1      37.663  32.823  31.422  1.00  0.00     0.031 A 
ATOM     37  C   UNL A   1      38.219  33.181  32.774  1.00  0.00     0.074 A 
ATOM     38  C   UNL A   1      38.164  31.775  30.743  1.00  0.00     0.049 A 
ATOM     39  N   UNL A   1      39.178  32.610  33.458  1.00  0.00    -0.248 NA
ATOM     40  C   UNL A   1      37.606  34.335  33.451  1.00  0.00     0.031 C 
ATOM     41  C   UNL A   1      37.683  31.307  29.445  1.00  0.00     0.029 A 
ATOM     42  N   UNL A   1      39.177  30.906  31.062  1.00  0.00    -0.354 N 
ATOM     43  C   UNL A   1      39.282  33.333  34.640  1.00  0.00     0.074 A 
ATOM     44  C   UNL A   1      38.315  34.405  34.568  1.00  0.00     0.031 C 
ATOM     45  C   UNL A   1      38.393  30.225  29.083  1.00  0.00     0.029 A 
ATOM     46  C   UNL A   1      39.395  29.943  30.109  1.00  0.00     0.049 A 
ATOM     47  H   UNL A   1      39.698  30.968  31.895  1.00  0.00     0.167 HD
ATOM     48  C   UNL A   1      40.098  33.110  35.697  1.00  0.00     0.037 A 
ATOM     49  C   UNL A   1      40.305  28.949  30.069  1.00  0.00     0.037 A 
ATOM     50  C   UNL A   1      41.054  32.036  35.771  1.00  0.00     0.049 A 
ATOM     51  C   UNL A   1      41.249  28.767  31.230  1.00  0.00     0.074 A 
ATOM     52  C   UNL A   1      41.909  31.713  36.810  1.00  0.00     0.029 A 
ATOM     53  N   UNL A   1      41.286  31.115  34.760  1.00  0.00    -0.354 N 
ATOM     54  N   UNL A   1      41.312  29.430  32.360  1.00  0.00    -0.248 NA
ATOM     55  C   UNL A   1      42.245  27.693  31.112  1.00  0.00     0.031 C 
ATOM     56  C   UNL A   1      42.700  30.633  36.404  1.00  0.00     0.029 A 
ATOM     57  C   UNL A   1      42.296  30.245  35.137  1.00  0.00     0.049 A 
ATOM     58  H   UNL A   1      40.805  31.086  33.902  1.00  0.00     0.167 HD
ATOM     59  C   UNL A   1      42.330  28.837  33.096  1.00  0.00     0.074 A 
ATOM     60  C   UNL A   1      42.847  27.750  32.291  1.00  0.00     0.031 C 
ATOM     61  C   UNL A   1      42.794  29.162  34.327  1.00  0.00     0.037 A 
BRANCH  48  62
ATOM     62  C   UNL A   1      40.015  34.065  36.853  1.00  0.00     0.064 A 
ATOM     63  C   UNL A   1      39.183  33.822  37.956  1.00  0.00     0.173 A 
ATOM     64  C   UNL A   1      40.811  35.220  36.875  1.00  0.00     0.173 A 
ATOM     65  F   UNL A   1      38.392  32.738  37.980  1.00  0.00    -0.203 F 
ATOM     66  C   UNL A   1      39.132  34.713  39.025  1.00  0.00     0.198 A 
ATOM     67  C   UNL A   1      40.780  36.093  37.959  1.00  0.00     0.198 A 
ATOM     68  F   UNL A   1      41.628  35.498  35.848  1.00  0.00    -0.203 F 
ATOM     69  F   UNL A   1      38.296  34.484  40.048  1.00  0.00    -0.200 F 
ATOM     70  C   UNL A   1      39.936  35.844  39.029  1.00  0.00     0.200 A 
ATOM     71  F   UNL A   1      41.568  37.177  37.966  1.00  0.00    -0.200 F 
ATOM     72  F   UNL A   1      39.893  36.695  40.064  1.00  0.00    -0.200 F 
ENDBRANCH  48  62
BRANCH  49  73
ATOM     73  C   UNL A   1      40.372  28.048  28.888  1.00  0.00     0.064 A 
ATOM     74  C   UNL A   1      41.109  28.396  27.748  1.00  0.00     0.173 A 
ATOM     75  C   UNL A   1      39.678  26.830  28.867  1.00  0.00     0.173 A 
ATOM     76  F   UNL A   1      41.770  29.564  27.708  1.00  0.00    -0.203 F 
ATOM     77  C   UNL A   1      41.135  27.570  26.627  1.00  0.00     0.198 A 
ATOM     78  C   UNL A   1      39.728  25.989  27.757  1.00  0.00     0.198 A 
ATOM     79  F   UNL A   1      38.955  26.449  29.931  1.00  0.00    -0.203 F 
ATOM     80  F   UNL A   1      41.807  27.951  25.531  1.00  0.00    -0.200 F 
ATOM     81  C   UNL A   1      40.449  26.365  26.633  1.00  0.00     0.200 A 
ATOM     82  F   UNL A   1      39.074  24.820  27.774  1.00  0.00    -0.200 F 
ATOM     83  F   UNL A   1      40.475  25.570  25.556  1.00  0.00    -0.200 F 
ENDBRANCH  49  73
BRANCH  61  84
ATOM     84  C   UNL A   1      43.895  28.313  34.899  1.00  0.00     0.064 A 
ATOM     85  C   UNL A   1      43.624  27.145  35.627  1.00  0.00     0.173 A 
ATOM     86  C   UNL A   1      45.239  28.651  34.678  1.00  0.00     0.173 A 
ATOM     87  F   UNL A   1      42.356  26.784  35.877  1.00  0.00    -0.203 F 
ATOM     88  C   UNL A   1      44.658  26.362  36.136  1.00  0.00     0.198 A 
ATOM     89  C   UNL A   1      46.270  27.850  35.160  1.00  0.00     0.198 A 
ATOM     90  F   UNL A   1      45.554  29.754  33.981  1.00  0.00    -0.203 F 
ATOM     91  F   UNL A   1      44.374  25.278  36.871  1.00  0.00    -0.200 F 
ATOM     92  C   UNL A   1      45.979  26.711  35.895  1.00  0.00     0.200 A 
ATOM     93  F   UNL A   1      47.545  28.179  34.913  1.00  0.00    -0.200 F 
ATOM     94  F   UNL A   1      46.972  25.952  36.379  1.00  0.00    -0.200 F 
ENDBRANCH  61  84
ENDBRANCH  35  36
ENDBRANCH  28  30
ENDBRANCH  27  28
ENDBRANCH  26  27
ENDBRANCH  25  26
ENDBRANCH  24  25
ENDBRANCH   1  24
TORSDOF 17
ENDMDL
