MODEL 1
REMARK VINA RESULT:     -10.6      0.000      0.000
REMARK SMILES CCCc1ccccc1N[C@H](C)[C@@H](C)C(=O)OCCOCCOC(=O)c1ccc(-c2c3nc(c(-c4c(F)c(F)c(F)c(F)c4F)c4ccc([nH]4)c(-c4c(F)c(F)c(F)c(F)c4F)c4nc(c(-c5c(F)c(F)c(F)c(F)c5F)c5ccc2[nH]5)C=C4)C=C3)cc1
REMARK SMILES IDX 18 1 17 2 15 3 16 4 13 5 14 6 11 7 12 8 10 9 9 11 4 12 5 13
REMARK SMILES IDX 6 14 8 15 7 16 3 17 2 18 1 19 19 20 20 21 21 22 22 23 23 24
REMARK SMILES IDX 24 25 25 26 26 27 27 28 88 29 28 30 87 31 29 32 30 33 31 34
REMARK SMILES IDX 81 35 32 36 86 37 80 38 82 39 33 40 85 41 79 42 78 43 34 45
REMARK SMILES IDX 66 46 46 47 65 48 47 49 50 50 64 51 83 52 48 53 49 54 63 56
REMARK SMILES IDX 84 57 51 58 35 59 36 60 44 61 37 62 38 63 42 64 45 65 39 66
REMARK SMILES IDX 40 67 43 68 41 69 67 70 68 71 76 72 69 73 70 74 74 75 77 76
REMARK SMILES IDX 71 77 72 78 75 79 73 80 52 81 53 82 61 83 54 84 55 85 59 86
REMARK SMILES IDX 62 87 56 88 57 89 60 90 58 91
REMARK H PARENT 10 10 82 44 50 55
REMARK Flexibility Score: inf
ROOT
ATOM      1  C   UNL A   1      33.185  27.496  26.323  1.00  0.00     0.261 C 
ENDROOT
BRANCH   1   2
ATOM      2  O   UNL A   1      33.097  26.076  26.102  1.00  0.00    -0.463 OA
BRANCH   2   3
ATOM      3  C   UNL A   1      31.891  25.540  26.431  1.00  0.00     0.310 C 
ATOM      4  O   UNL A   1      30.853  26.187  26.542  1.00  0.00    -0.252 OA
BRANCH   3   5
ATOM      5  C   UNL A   1      31.935  24.074  26.804  1.00  0.00     0.118 C 
ATOM      6  C   UNL A   1      33.408  23.658  26.676  1.00  0.00     0.022 C 
BRANCH   5   7
ATOM      7  C   UNL A   1      30.978  23.092  26.079  1.00  0.00     0.090 C 
ATOM      8  C   UNL A   1      29.770  22.840  27.014  1.00  0.00     0.031 C 
BRANCH   7   9
ATOM      9  N   UNL A   1      30.490  23.632  24.801  1.00  0.00    -0.382 N 
ATOM     10  H   UNL A   1      29.525  23.815  24.723  1.00  0.00     0.160 HD
BRANCH   9  11
ATOM     11  C   UNL A   1      31.287  23.901  23.690  1.00  0.00     0.037 A 
ATOM     12  C   UNL A   1      32.189  22.940  23.172  1.00  0.00    -0.025 A 
ATOM     13  C   UNL A   1      33.038  23.289  22.093  1.00  0.00     0.006 A 
ATOM     14  C   UNL A   1      32.996  24.555  21.513  1.00  0.00     0.000 A 
ATOM     15  C   UNL A   1      31.246  25.156  23.049  1.00  0.00     0.026 A 
ATOM     16  C   UNL A   1      32.093  25.489  21.988  1.00  0.00     0.002 A 
BRANCH  12  17
ATOM     17  C   UNL A   1      32.284  21.508  23.664  1.00  0.00     0.037 C 
BRANCH  17  18
ATOM     18  C   UNL A   1      33.642  21.030  24.180  1.00  0.00     0.001 C 
ATOM     19  C   UNL A   1      33.552  19.824  25.101  1.00  0.00     0.004 C 
ENDBRANCH  17  18
ENDBRANCH  12  17
ENDBRANCH   9  11
ENDBRANCH   7   9
ENDBRANCH   5   7
ENDBRANCH   3   5
ENDBRANCH   2   3
ENDBRANCH   1   2
BRANCH   1  20
ATOM     20  C   UNL A   1      33.746  28.326  25.161  1.00  0.00     0.202 C 
BRANCH  20  21
ATOM     21  O   UNL A   1      32.966  29.419  24.692  1.00  0.00    -0.374 OA
BRANCH  21  22
ATOM     22  C   UNL A   1      31.744  29.699  25.374  1.00  0.00     0.202 C 
BRANCH  22  23
ATOM     23  C   UNL A   1      31.728  30.963  26.232  1.00  0.00     0.261 C 
BRANCH  23  24
ATOM     24  O   UNL A   1      32.636  30.843  27.335  1.00  0.00    -0.460 OA
BRANCH  24  25
ATOM     25  C   UNL A   1      33.416  31.923  27.521  1.00  0.00     0.338 C 
ATOM     26  O   UNL A   1      33.089  33.106  27.509  1.00  0.00    -0.246 OA
BRANCH  25  27
ATOM     27  C   UNL A   1      34.754  31.483  27.914  1.00  0.00     0.060 A 
ATOM     28  C   UNL A   1      34.924  30.134  28.246  1.00  0.00     0.016 A 
ATOM     29  C   UNL A   1      35.791  32.406  28.059  1.00  0.00     0.016 A 
ATOM     30  C   UNL A   1      36.125  29.712  28.799  1.00  0.00     0.010 A 
ATOM     31  C   UNL A   1      36.994  31.982  28.620  1.00  0.00     0.010 A 
ATOM     32  C   UNL A   1      37.143  30.646  29.032  1.00  0.00    -0.014 A 
BRANCH  32  33
ATOM     33  C   UNL A   1      38.300  30.260  29.864  1.00  0.00     0.031 A 
ATOM     34  C   UNL A   1      39.289  29.278  29.307  1.00  0.00     0.074 A 
ATOM     35  C   UNL A   1      38.463  30.798  31.084  1.00  0.00     0.049 A 
ATOM     36  N   UNL A   1      40.349  28.757  29.868  1.00  0.00    -0.248 NA
ATOM     37  C   UNL A   1      39.049  28.816  27.929  1.00  0.00     0.031 C 
ATOM     38  C   UNL A   1      37.574  31.785  31.692  1.00  0.00     0.029 A 
ATOM     39  N   UNL A   1      39.428  30.580  32.031  1.00  0.00    -0.354 N 
ATOM     40  C   UNL A   1      40.894  27.903  28.918  1.00  0.00     0.074 A 
ATOM     41  C   UNL A   1      40.037  27.951  27.755  1.00  0.00     0.031 C 
ATOM     42  C   UNL A   1      38.029  32.081  32.921  1.00  0.00     0.029 A 
ATOM     43  C   UNL A   1      39.221  31.279  33.192  1.00  0.00     0.049 A 
ATOM     44  H   UNL A   1      40.196  29.980  31.890  1.00  0.00     0.167 HD
ATOM     45  C   UNL A   1      42.017  27.154  29.013  1.00  0.00     0.037 A 
ATOM     46  C   UNL A   1      39.908  31.251  34.348  1.00  0.00     0.037 A 
ATOM     47  C   UNL A   1      42.859  27.120  30.178  1.00  0.00     0.049 A 
ATOM     48  C   UNL A   1      41.121  30.365  34.448  1.00  0.00     0.074 A 
ATOM     49  C   UNL A   1      44.029  26.412  30.381  1.00  0.00     0.029 A 
ATOM     50  N   UNL A   1      42.609  27.830  31.345  1.00  0.00    -0.354 N 
ATOM     51  N   UNL A   1      41.647  29.577  33.540  1.00  0.00    -0.248 NA
ATOM     52  C   UNL A   1      41.839  30.365  35.730  1.00  0.00     0.031 C 
ATOM     53  C   UNL A   1      44.463  26.657  31.688  1.00  0.00     0.029 A 
ATOM     54  C   UNL A   1      43.591  27.558  32.282  1.00  0.00     0.049 A 
ATOM     55  H   UNL A   1      41.847  28.437  31.485  1.00  0.00     0.167 HD
ATOM     56  C   UNL A   1      42.769  29.009  34.128  1.00  0.00     0.074 A 
ATOM     57  C   UNL A   1      42.852  29.550  35.470  1.00  0.00     0.031 C 
ATOM     58  C   UNL A   1      43.652  28.122  33.607  1.00  0.00     0.037 A 
BRANCH  45  59
ATOM     59  C   UNL A   1      42.380  26.294  27.837  1.00  0.00     0.064 A 
ATOM     60  C   UNL A   1      43.314  26.712  26.876  1.00  0.00     0.173 A 
ATOM     61  C   UNL A   1      41.802  25.025  27.681  1.00  0.00     0.173 A 
ATOM     62  F   UNL A   1      43.883  27.923  26.972  1.00  0.00    -0.203 F 
ATOM     63  C   UNL A   1      43.637  25.902  25.791  1.00  0.00     0.198 A 
ATOM     64  C   UNL A   1      42.147  24.207  26.609  1.00  0.00     0.198 A 
ATOM     65  F   UNL A   1      40.903  24.577  28.570  1.00  0.00    -0.203 F 
ATOM     66  F   UNL A   1      44.497  26.340  24.862  1.00  0.00    -0.200 F 
ATOM     67  C   UNL A   1      43.058  24.648  25.660  1.00  0.00     0.200 A 
ATOM     68  F   UNL A   1      41.594  22.992  26.490  1.00  0.00    -0.200 F 
ATOM     69  F   UNL A   1      43.374  23.867  24.618  1.00  0.00    -0.200 F 
ENDBRANCH  45  59
BRANCH  46  70
ATOM     70  C   UNL A   1      39.459  32.080  35.496  1.00  0.00     0.064 A 
ATOM     71  C   UNL A   1      38.597  31.559  36.471  1.00  0.00     0.173 A 
ATOM     72  C   UNL A   1      39.892  33.406  35.648  1.00  0.00     0.173 A 
ATOM     73  F   UNL A   1      38.141  30.303  36.358  1.00  0.00    -0.203 F 
ATOM     74  C   UNL A   1      38.174  32.337  37.547  1.00  0.00     0.198 A 
ATOM     75  C   UNL A   1      39.491  34.174  36.739  1.00  0.00     0.198 A 
ATOM     76  F   UNL A   1      40.720  33.949  34.744  1.00  0.00    -0.203 F 
ATOM     77  F   UNL A   1      37.322  31.827  38.445  1.00  0.00    -0.200 F 
ATOM     78  C   UNL A   1      38.627  33.641  37.683  1.00  0.00     0.200 A 
ATOM     79  F   UNL A   1      39.942  35.428  36.874  1.00  0.00    -0.200 F 
ATOM     80  F   UNL A   1      38.228  34.386  38.723  1.00  0.00    -0.200 F 
ENDBRANCH  46  70
BRANCH  58  81
ATOM     81  C   UNL A   1      44.802  27.710  34.475  1.00  0.00     0.064 A 
ATOM     82  C   UNL A   1      45.991  28.450  34.518  1.00  0.00     0.173 A 
ATOM     83  C   UNL A   1      44.685  26.595  35.320  1.00  0.00     0.173 A 
ATOM     84  F   UNL A   1      46.154  29.514  33.718  1.00  0.00    -0.203 F 
ATOM     85  C   UNL A   1      47.031  28.079  35.366  1.00  0.00     0.198 A 
ATOM     86  C   UNL A   1      45.715  26.244  36.186  1.00  0.00     0.198 A 
ATOM     87  F   UNL A   1      43.563  25.860  35.318  1.00  0.00    -0.203 F 
ATOM     88  F   UNL A   1      48.174  28.779  35.368  1.00  0.00    -0.200 F 
ATOM     89  C   UNL A   1      46.889  26.982  36.205  1.00  0.00     0.200 A 
ATOM     90  F   UNL A   1      45.572  25.193  37.004  1.00  0.00    -0.200 F 
ATOM     91  F   UNL A   1      47.886  26.635  37.030  1.00  0.00    -0.200 F 
ENDBRANCH  58  81
ENDBRANCH  32  33
ENDBRANCH  25  27
ENDBRANCH  24  25
ENDBRANCH  23  24
ENDBRANCH  22  23
ENDBRANCH  21  22
ENDBRANCH  20  21
ENDBRANCH   1  20
TORSDOF 19
ENDMDL
MODEL 2
REMARK VINA RESULT:     -10.5      0.748      2.324
REMARK SMILES CCCc1ccccc1N[C@H](C)[C@@H](C)C(=O)OCCOCCOC(=O)c1ccc(-c2c3nc(c(-c4c(F)c(F)c(F)c(F)c4F)c4ccc([nH]4)c(-c4c(F)c(F)c(F)c(F)c4F)c4nc(c(-c5c(F)c(F)c(F)c(F)c5F)c5ccc2[nH]5)C=C4)C=C3)cc1
REMARK SMILES IDX 18 1 17 2 15 3 16 4 13 5 14 6 11 7 12 8 10 9 9 11 4 12 5 13
REMARK SMILES IDX 6 14 8 15 7 16 3 17 2 18 1 19 19 20 20 21 21 22 22 23 23 24
REMARK SMILES IDX 24 25 25 26 26 27 27 28 88 29 28 30 87 31 29 32 30 33 31 34
REMARK SMILES IDX 81 35 32 36 86 37 80 38 82 39 33 40 85 41 79 42 78 43 34 45
REMARK SMILES IDX 66 46 46 47 65 48 47 49 50 50 64 51 83 52 48 53 49 54 63 56
REMARK SMILES IDX 84 57 51 58 35 59 36 60 44 61 37 62 38 63 42 64 45 65 39 66
REMARK SMILES IDX 40 67 43 68 41 69 67 70 68 71 76 72 69 73 70 74 74 75 77 76
REMARK SMILES IDX 71 77 72 78 75 79 73 80 52 81 53 82 61 83 54 84 55 85 59 86
REMARK SMILES IDX 62 87 56 88 57 89 60 90 58 91
REMARK H PARENT 10 10 82 44 50 55
REMARK Flexibility Score: inf
ROOT
ATOM      1  C   UNL A   1      32.921  27.746  26.343  1.00  0.00     0.261 C 
ENDROOT
BRANCH   1   2
ATOM      2  O   UNL A   1      33.030  26.325  26.140  1.00  0.00    -0.463 OA
BRANCH   2   3
ATOM      3  C   UNL A   1      31.948  25.622  26.566  1.00  0.00     0.310 C 
ATOM      4  O   UNL A   1      30.943  26.128  27.059  1.00  0.00    -0.252 OA
BRANCH   3   5
ATOM      5  C   UNL A   1      32.120  24.119  26.530  1.00  0.00     0.118 C 
ATOM      6  C   UNL A   1      33.613  23.880  26.257  1.00  0.00     0.022 C 
BRANCH   5   7
ATOM      7  C   UNL A   1      31.207  23.288  25.590  1.00  0.00     0.090 C 
ATOM      8  C   UNL A   1      30.121  22.616  26.466  1.00  0.00     0.031 C 
BRANCH   7   9
ATOM      9  N   UNL A   1      30.552  24.121  24.569  1.00  0.00    -0.382 N 
ATOM     10  H   UNL A   1      29.578  24.243  24.640  1.00  0.00     0.160 HD
BRANCH   9  11
ATOM     11  C   UNL A   1      31.205  24.748  23.511  1.00  0.00     0.037 A 
ATOM     12  C   UNL A   1      30.905  26.081  23.138  1.00  0.00    -0.025 A 
ATOM     13  C   UNL A   1      31.536  26.647  22.003  1.00  0.00     0.006 A 
ATOM     14  C   UNL A   1      32.462  25.930  21.249  1.00  0.00     0.000 A 
ATOM     15  C   UNL A   1      32.177  24.070  22.748  1.00  0.00     0.026 A 
ATOM     16  C   UNL A   1      32.788  24.639  21.627  1.00  0.00     0.002 A 
BRANCH  12  17
ATOM     17  C   UNL A   1      29.972  26.994  23.912  1.00  0.00     0.037 C 
BRANCH  17  18
ATOM     18  C   UNL A   1      29.457  28.242  23.197  1.00  0.00     0.001 C 
ATOM     19  C   UNL A   1      27.953  28.234  22.968  1.00  0.00     0.004 C 
ENDBRANCH  17  18
ENDBRANCH  12  17
ENDBRANCH   9  11
ENDBRANCH   7   9
ENDBRANCH   5   7
ENDBRANCH   3   5
ENDBRANCH   2   3
ENDBRANCH   1   2
BRANCH   1  20
ATOM     20  C   UNL A   1      33.539  28.633  25.254  1.00  0.00     0.202 C 
BRANCH  20  21
ATOM     21  O   UNL A   1      32.725  29.654  24.690  1.00  0.00    -0.374 OA
BRANCH  21  22
ATOM     22  C   UNL A   1      31.574  30.064  25.430  1.00  0.00     0.202 C 
BRANCH  22  23
ATOM     23  C   UNL A   1      31.765  31.265  26.355  1.00  0.00     0.261 C 
BRANCH  23  24
ATOM     24  O   UNL A   1      32.801  31.013  27.312  1.00  0.00    -0.460 OA
BRANCH  24  25
ATOM     25  C   UNL A   1      33.574  32.082  27.575  1.00  0.00     0.338 C 
ATOM     26  O   UNL A   1      33.245  33.264  27.616  1.00  0.00    -0.246 OA
BRANCH  25  27
ATOM     27  C   UNL A   1      34.902  31.623  27.979  1.00  0.00     0.060 A 
ATOM     28  C   UNL A   1      35.053  30.268  28.293  1.00  0.00     0.016 A 
ATOM     29  C   UNL A   1      35.946  32.533  28.152  1.00  0.00     0.016 A 
ATOM     30  C   UNL A   1      36.243  29.825  28.856  1.00  0.00     0.010 A 
ATOM     31  C   UNL A   1      37.137  32.088  28.722  1.00  0.00     0.010 A 
ATOM     32  C   UNL A   1      37.267  30.745  29.116  1.00  0.00    -0.014 A 
BRANCH  32  33
ATOM     33  C   UNL A   1      38.409  30.335  29.958  1.00  0.00     0.031 A 
ATOM     34  C   UNL A   1      39.405  29.365  29.393  1.00  0.00     0.074 A 
ATOM     35  C   UNL A   1      38.552  30.841  31.194  1.00  0.00     0.049 A 
ATOM     36  N   UNL A   1      40.454  28.827  29.958  1.00  0.00    -0.248 NA
ATOM     37  C   UNL A   1      39.188  28.939  28.000  1.00  0.00     0.031 C 
ATOM     38  C   UNL A   1      37.654  31.814  31.811  1.00  0.00     0.029 A 
ATOM     39  N   UNL A   1      39.500  30.597  32.151  1.00  0.00    -0.354 N 
ATOM     40  C   UNL A   1      41.014  27.997  28.996  1.00  0.00     0.074 A 
ATOM     41  C   UNL A   1      40.177  28.076  27.820  1.00  0.00     0.031 C 
ATOM     42  C   UNL A   1      38.090  32.078  33.055  1.00  0.00     0.029 A 
ATOM     43  C   UNL A   1      39.275  31.267  33.326  1.00  0.00     0.049 A 
ATOM     44  H   UNL A   1      40.270  29.998  32.008  1.00  0.00     0.167 HD
ATOM     45  C   UNL A   1      42.133  27.242  29.091  1.00  0.00     0.037 A 
ATOM     46  C   UNL A   1      39.942  31.207  34.493  1.00  0.00     0.037 A 
ATOM     47  C   UNL A   1      42.956  27.177  30.269  1.00  0.00     0.049 A 
ATOM     48  C   UNL A   1      41.151  30.316  34.591  1.00  0.00     0.074 A 
ATOM     49  C   UNL A   1      44.120  26.460  30.474  1.00  0.00     0.029 A 
ATOM     50  N   UNL A   1      42.687  27.857  31.450  1.00  0.00    -0.354 N 
ATOM     51  N   UNL A   1      41.691  29.550  33.672  1.00  0.00    -0.248 NA
ATOM     52  C   UNL A   1      41.847  30.281  35.884  1.00  0.00     0.031 C 
ATOM     53  C   UNL A   1      44.532  26.671  31.794  1.00  0.00     0.029 A 
ATOM     54  C   UNL A   1      43.652  27.559  32.396  1.00  0.00     0.049 A 
ATOM     55  H   UNL A   1      41.924  28.463  31.592  1.00  0.00     0.167 HD
ATOM     56  C   UNL A   1      42.801  28.964  34.264  1.00  0.00     0.074 A 
ATOM     57  C   UNL A   1      42.862  29.470  35.621  1.00  0.00     0.031 C 
ATOM     58  C   UNL A   1      43.692  28.089  33.735  1.00  0.00     0.037 A 
BRANCH  45  59
ATOM     59  C   UNL A   1      42.515  26.412  27.900  1.00  0.00     0.064 A 
ATOM     60  C   UNL A   1      41.999  25.122  27.702  1.00  0.00     0.173 A 
ATOM     61  C   UNL A   1      43.393  26.922  26.932  1.00  0.00     0.173 A 
ATOM     62  F   UNL A   1      41.168  24.582  28.607  1.00  0.00    -0.203 F 
ATOM     63  C   UNL A   1      42.366  24.365  26.593  1.00  0.00     0.198 A 
ATOM     64  C   UNL A   1      43.738  26.173  25.810  1.00  0.00     0.198 A 
ATOM     65  F   UNL A   1      43.916  28.150  27.073  1.00  0.00    -0.203 F 
ATOM     66  F   UNL A   1      41.895  23.119  26.448  1.00  0.00    -0.200 F 
ATOM     67  C   UNL A   1      43.230  24.893  25.645  1.00  0.00     0.200 A 
ATOM     68  F   UNL A   1      44.565  26.688  24.891  1.00  0.00    -0.200 F 
ATOM     69  F   UNL A   1      43.579  24.166  24.574  1.00  0.00    -0.200 F 
ENDBRANCH  45  59
BRANCH  46  70
ATOM     70  C   UNL A   1      39.475  32.007  35.653  1.00  0.00     0.064 A 
ATOM     71  C   UNL A   1      38.519  31.500  36.544  1.00  0.00     0.173 A 
ATOM     72  C   UNL A   1      39.984  33.291  35.902  1.00  0.00     0.173 A 
ATOM     73  F   UNL A   1      37.989  30.286  36.337  1.00  0.00    -0.203 F 
ATOM     74  C   UNL A   1      38.080  32.252  37.632  1.00  0.00     0.198 A 
ATOM     75  C   UNL A   1      39.564  34.030  37.006  1.00  0.00     0.198 A 
ATOM     76  F   UNL A   1      40.903  33.820  35.082  1.00  0.00    -0.203 F 
ATOM     77  F   UNL A   1      37.139  31.758  38.448  1.00  0.00    -0.200 F 
ATOM     78  C   UNL A   1      38.608  33.513  37.866  1.00  0.00     0.200 A 
ATOM     79  F   UNL A   1      40.088  35.243  37.236  1.00  0.00    -0.200 F 
ATOM     80  F   UNL A   1      38.191  34.232  38.917  1.00  0.00    -0.200 F 
ENDBRANCH  46  70
BRANCH  58  81
ATOM     81  C   UNL A   1      44.826  27.651  34.612  1.00  0.00     0.064 A 
ATOM     82  C   UNL A   1      44.758  26.471  35.364  1.00  0.00     0.173 A 
ATOM     83  C   UNL A   1      46.017  28.392  34.648  1.00  0.00     0.173 A 
ATOM     84  F   UNL A   1      43.634  25.738  35.372  1.00  0.00    -0.203 F 
ATOM     85  C   UNL A   1      45.839  26.054  36.136  1.00  0.00     0.198 A 
ATOM     86  C   UNL A   1      47.105  27.959  35.399  1.00  0.00     0.198 A 
ATOM     87  F   UNL A   1      46.131  29.525  33.939  1.00  0.00    -0.203 F 
ATOM     88  F   UNL A   1      45.742  24.942  36.877  1.00  0.00    -0.200 F 
ATOM     89  C   UNL A   1      47.014  26.793  36.146  1.00  0.00     0.200 A 
ATOM     90  F   UNL A   1      48.244  28.666  35.397  1.00  0.00    -0.200 F 
ATOM     91  F   UNL A   1      48.058  26.384  36.879  1.00  0.00    -0.200 F 
ENDBRANCH  58  81
ENDBRANCH  32  33
ENDBRANCH  25  27
ENDBRANCH  24  25
ENDBRANCH  23  24
ENDBRANCH  22  23
ENDBRANCH  21  22
ENDBRANCH  20  21
ENDBRANCH   1  20
TORSDOF 19
ENDMDL
MODEL 3
REMARK VINA RESULT:     -10.0      5.263      8.862
REMARK SMILES CCCc1ccccc1N[C@H](C)[C@@H](C)C(=O)OCCOCCOC(=O)c1ccc(-c2c3nc(c(-c4c(F)c(F)c(F)c(F)c4F)c4ccc([nH]4)c(-c4c(F)c(F)c(F)c(F)c4F)c4nc(c(-c5c(F)c(F)c(F)c(F)c5F)c5ccc2[nH]5)C=C4)C=C3)cc1
REMARK SMILES IDX 18 1 17 2 15 3 16 4 13 5 14 6 11 7 12 8 10 9 9 11 4 12 5 13
REMARK SMILES IDX 6 14 8 15 7 16 3 17 2 18 1 19 19 20 20 21 21 22 22 23 23 24
REMARK SMILES IDX 24 25 25 26 26 27 27 28 88 29 28 30 87 31 29 32 30 33 31 34
REMARK SMILES IDX 81 35 32 36 86 37 80 38 82 39 33 40 85 41 79 42 78 43 34 45
REMARK SMILES IDX 66 46 46 47 65 48 47 49 50 50 64 51 83 52 48 53 49 54 63 56
REMARK SMILES IDX 84 57 51 58 35 59 36 60 44 61 37 62 38 63 42 64 45 65 39 66
REMARK SMILES IDX 40 67 43 68 41 69 67 70 68 71 76 72 69 73 70 74 74 75 77 76
REMARK SMILES IDX 71 77 72 78 75 79 73 80 52 81 53 82 61 83 54 84 55 85 59 86
REMARK SMILES IDX 62 87 56 88 57 89 60 90 58 91
REMARK H PARENT 10 10 82 44 50 55
REMARK Flexibility Score: inf
ROOT
ATOM      1  C   UNL A   1      40.525  21.526  26.312  1.00  0.00     0.261 C 
ENDROOT
BRANCH   1   2
ATOM      2  O   UNL A   1      39.178  21.872  26.681  1.00  0.00    -0.463 OA
BRANCH   2   3
ATOM      3  C   UNL A   1      38.282  21.766  25.663  1.00  0.00     0.310 C 
ATOM      4  O   UNL A   1      38.029  20.721  25.070  1.00  0.00    -0.252 OA
BRANCH   3   5
ATOM      5  C   UNL A   1      37.704  23.084  25.194  1.00  0.00     0.118 C 
ATOM      6  C   UNL A   1      37.880  24.055  26.371  1.00  0.00     0.022 C 
BRANCH   5   7
ATOM      7  C   UNL A   1      36.262  23.102  24.622  1.00  0.00     0.090 C 
ATOM      8  C   UNL A   1      36.358  22.841  23.099  1.00  0.00     0.031 C 
BRANCH   7   9
ATOM      9  N   UNL A   1      35.407  22.072  25.232  1.00  0.00    -0.382 N 
ATOM     10  H   UNL A   1      35.782  21.165  25.323  1.00  0.00     0.160 HD
BRANCH   9  11
ATOM     11  C   UNL A   1      34.108  22.279  25.689  1.00  0.00     0.037 A 
ATOM     12  C   UNL A   1      32.987  21.733  25.018  1.00  0.00    -0.025 A 
ATOM     13  C   UNL A   1      31.682  22.040  25.474  1.00  0.00     0.006 A 
ATOM     14  C   UNL A   1      31.469  22.856  26.582  1.00  0.00     0.000 A 
ATOM     15  C   UNL A   1      33.852  23.066  26.831  1.00  0.00     0.026 A 
ATOM     16  C   UNL A   1      32.559  23.366  27.266  1.00  0.00     0.002 A 
BRANCH  12  17
ATOM     17  C   UNL A   1      33.080  20.774  23.845  1.00  0.00     0.037 C 
BRANCH  17  18
ATOM     18  C   UNL A   1      32.500  19.372  24.036  1.00  0.00     0.001 C 
ATOM     19  C   UNL A   1      32.949  18.699  25.324  1.00  0.00     0.004 C 
ENDBRANCH  17  18
ENDBRANCH  12  17
ENDBRANCH   9  11
ENDBRANCH   7   9
ENDBRANCH   5   7
ENDBRANCH   3   5
ENDBRANCH   2   3
ENDBRANCH   1   2
BRANCH   1  20
ATOM     20  C   UNL A   1      41.024  20.155  26.787  1.00  0.00     0.202 C 
BRANCH  20  21
ATOM     21  O   UNL A   1      41.550  19.266  25.808  1.00  0.00    -0.374 OA
BRANCH  21  22
ATOM     22  C   UNL A   1      42.664  18.455  26.184  1.00  0.00     0.202 C 
BRANCH  22  23
ATOM     23  C   UNL A   1      43.818  18.397  25.184  1.00  0.00     0.261 C 
BRANCH  23  24
ATOM     24  O   UNL A   1      44.724  19.488  25.385  1.00  0.00    -0.460 OA
BRANCH  24  25
ATOM     25  C   UNL A   1      44.618  20.464  24.465  1.00  0.00     0.338 C 
ATOM     26  O   UNL A   1      44.650  20.359  23.242  1.00  0.00    -0.246 OA
BRANCH  25  27
ATOM     27  C   UNL A   1      44.286  21.719  25.136  1.00  0.00     0.060 A 
ATOM     28  C   UNL A   1      44.096  22.853  24.339  1.00  0.00     0.016 A 
ATOM     29  C   UNL A   1      44.274  21.797  26.530  1.00  0.00     0.016 A 
ATOM     30  C   UNL A   1      43.963  24.097  24.940  1.00  0.00     0.010 A 
ATOM     31  C   UNL A   1      44.146  23.047  27.132  1.00  0.00     0.010 A 
ATOM     32  C   UNL A   1      44.037  24.201  26.335  1.00  0.00    -0.014 A 
BRANCH  32  33
ATOM     33  C   UNL A   1      44.174  25.534  26.954  1.00  0.00     0.031 A 
ATOM     34  C   UNL A   1      45.553  26.083  27.180  1.00  0.00     0.074 A 
ATOM     35  C   UNL A   1      43.080  26.241  27.284  1.00  0.00     0.049 A 
ATOM     36  N   UNL A   1      45.920  27.202  27.746  1.00  0.00    -0.248 NA
ATOM     37  C   UNL A   1      46.674  25.252  26.706  1.00  0.00     0.031 C 
ATOM     38  C   UNL A   1      41.703  25.804  27.068  1.00  0.00     0.029 A 
ATOM     39  N   UNL A   1      42.960  27.468  27.878  1.00  0.00    -0.354 N 
ATOM     40  C   UNL A   1      47.308  27.206  27.705  1.00  0.00     0.074 A 
ATOM     41  C   UNL A   1      47.723  25.968  27.084  1.00  0.00     0.031 C 
ATOM     42  C   UNL A   1      40.870  26.749  27.537  1.00  0.00     0.029 A 
ATOM     43  C   UNL A   1      41.660  27.836  28.112  1.00  0.00     0.049 A 
ATOM     44  H   UNL A   1      43.732  28.032  28.115  1.00  0.00     0.167 HD
ATOM     45  C   UNL A   1      48.156  28.167  28.141  1.00  0.00     0.037 A 
ATOM     46  C   UNL A   1      41.172  28.919  28.743  1.00  0.00     0.037 A 
ATOM     47  C   UNL A   1      47.724  29.394  28.754  1.00  0.00     0.049 A 
ATOM     48  C   UNL A   1      42.138  29.947  29.271  1.00  0.00     0.074 A 
ATOM     49  C   UNL A   1      48.492  30.446  29.220  1.00  0.00     0.029 A 
ATOM     50  N   UNL A   1      46.397  29.726  28.992  1.00  0.00    -0.354 N 
ATOM     51  N   UNL A   1      43.448  29.958  29.208  1.00  0.00    -0.248 NA
ATOM     52  C   UNL A   1      41.559  31.112  29.954  1.00  0.00     0.031 C 
ATOM     53  C   UNL A   1      47.631  31.396  29.780  1.00  0.00     0.029 A 
ATOM     54  C   UNL A   1      46.324  30.958  29.618  1.00  0.00     0.049 A 
ATOM     55  H   UNL A   1      45.623  29.169  28.749  1.00  0.00     0.167 HD
ATOM     56  C   UNL A   1      43.851  31.139  29.817  1.00  0.00     0.074 A 
ATOM     57  C   UNL A   1      42.643  31.822  30.236  1.00  0.00     0.031 C 
ATOM     58  C   UNL A   1      45.104  31.617  30.012  1.00  0.00     0.037 A 
BRANCH  45  59
ATOM     59  C   UNL A   1      49.628  27.915  27.993  1.00  0.00     0.064 A 
ATOM     60  C   UNL A   1      50.379  27.305  29.009  1.00  0.00     0.173 A 
ATOM     61  C   UNL A   1      50.292  28.268  26.809  1.00  0.00     0.173 A 
ATOM     62  F   UNL A   1      49.794  26.963  30.167  1.00  0.00    -0.203 F 
ATOM     63  C   UNL A   1      51.745  27.081  28.856  1.00  0.00     0.198 A 
ATOM     64  C   UNL A   1      51.652  28.019  26.648  1.00  0.00     0.198 A 
ATOM     65  F   UNL A   1      49.621  28.854  25.806  1.00  0.00    -0.203 F 
ATOM     66  F   UNL A   1      52.450  26.539  29.857  1.00  0.00    -0.200 F 
ATOM     67  C   UNL A   1      52.380  27.433  27.674  1.00  0.00     0.200 A 
ATOM     68  F   UNL A   1      52.262  28.350  25.501  1.00  0.00    -0.200 F 
ATOM     69  F   UNL A   1      53.693  27.212  27.524  1.00  0.00    -0.200 F 
ENDBRANCH  45  59
BRANCH  46  70
ATOM     70  C   UNL A   1      39.705  29.079  28.912  1.00  0.00     0.064 A 
ATOM     71  C   UNL A   1      39.096  28.895  30.160  1.00  0.00     0.173 A 
ATOM     72  C   UNL A   1      38.883  29.430  27.830  1.00  0.00     0.173 A 
ATOM     73  F   UNL A   1      39.837  28.539  31.220  1.00  0.00    -0.203 F 
ATOM     74  C   UNL A   1      37.719  29.042  30.318  1.00  0.00     0.198 A 
ATOM     75  C   UNL A   1      37.511  29.605  27.994  1.00  0.00     0.198 A 
ATOM     76  F   UNL A   1      39.418  29.621  26.615  1.00  0.00    -0.203 F 
ATOM     77  F   UNL A   1      37.157  28.825  31.514  1.00  0.00    -0.200 F 
ATOM     78  C   UNL A   1      36.929  29.404  29.237  1.00  0.00     0.200 A 
ATOM     79  F   UNL A   1      36.754  29.968  26.950  1.00  0.00    -0.200 F 
ATOM     80  F   UNL A   1      35.607  29.554  29.391  1.00  0.00    -0.200 F 
ENDBRANCH  46  70
BRANCH  58  81
ATOM     81  C   UNL A   1      45.232  32.956  30.674  1.00  0.00     0.064 A 
ATOM     82  C   UNL A   1      45.441  33.075  32.054  1.00  0.00     0.173 A 
ATOM     83  C   UNL A   1      45.207  34.129  29.905  1.00  0.00     0.173 A 
ATOM     84  F   UNL A   1      45.458  31.981  32.832  1.00  0.00    -0.203 F 
ATOM     85  C   UNL A   1      45.606  34.324  32.646  1.00  0.00     0.198 A 
ATOM     86  C   UNL A   1      45.399  35.375  30.495  1.00  0.00     0.198 A 
ATOM     87  F   UNL A   1      45.016  34.065  28.579  1.00  0.00    -0.203 F 
ATOM     88  F   UNL A   1      45.769  34.419  33.972  1.00  0.00    -0.200 F 
ATOM     89  C   UNL A   1      45.593  35.472  31.865  1.00  0.00     0.200 A 
ATOM     90  F   UNL A   1      45.400  36.481  29.738  1.00  0.00    -0.200 F 
ATOM     91  F   UNL A   1      45.764  36.672  32.435  1.00  0.00    -0.200 F 
ENDBRANCH  58  81
ENDBRANCH  32  33
ENDBRANCH  25  27
ENDBRANCH  24  25
ENDBRANCH  23  24
ENDBRANCH  22  23
ENDBRANCH  21  22
ENDBRANCH  20  21
ENDBRANCH   1  20
TORSDOF 19
ENDMDL
