MODEL 1
REMARK VINA RESULT:     -12.8      0.000      0.000
REMARK SMILES O=C(OCCOCCOC(=O)c1cc(Cl)ccc1N1C(=O)CC2(CCCC2)C1=O)c1ccc(-c2c3nc(c(-c4c(F)c(F)c(F)c(F)c4F)c4ccc([nH]4)c(-c4c(F)c(F)c(F)c(F)c4F)c4nc(c(-c5c(F)c(F)c(F)c(F)c5F)c5ccc2[nH]5)C=C4)C=C3)cc1
REMARK SMILES IDX 5 1 4 2 3 3 2 4 1 5 30 6 31 7 92 8 32 9 91 10 33 11 34 12
REMARK SMILES IDX 35 13 85 14 36 15 90 16 84 17 86 18 37 19 89 20 83 21 82 22
REMARK SMILES IDX 38 24 70 25 50 26 69 27 51 28 54 29 68 30 87 31 52 32 53 33
REMARK SMILES IDX 67 35 88 36 55 37 39 38 40 39 48 40 41 41 42 42 46 43 49 44
REMARK SMILES IDX 43 45 44 46 47 47 45 48 71 49 72 50 80 51 73 52 74 53 78 54
REMARK SMILES IDX 81 55 75 56 76 57 79 58 77 59 56 60 57 61 65 62 58 63 59 64
REMARK SMILES IDX 63 65 66 66 60 67 61 68 64 69 62 70 6 71 7 72 8 73 9 74
REMARK SMILES IDX 10 75 11 76 12 77 13 78 18 79 14 80 17 81 15 82 16 83 19 84
REMARK SMILES IDX 20 85 28 86 21 87 22 88 23 89 29 90 24 91 27 92 25 93 26 94
REMARK H PARENT 86 23 54 34
REMARK Flexibility Score: inf
ROOT
ATOM      1  C   UNL A   1      34.472  33.318  28.489  1.00  0.00     0.202 C 
ENDROOT
BRANCH   1   2
ATOM      2  C   UNL A   1      34.390  33.593  29.991  1.00  0.00     0.261 C 
BRANCH   2   3
ATOM      3  O   UNL A   1      34.374  32.373  30.751  1.00  0.00    -0.460 OA
BRANCH   3   4
ATOM      4  C   UNL A   1      35.408  31.999  31.550  1.00  0.00     0.338 C 
ATOM      5  O   UNL A   1      35.465  32.381  32.716  1.00  0.00    -0.246 OA
BRANCH   4   6
ATOM      6  C   UNL A   1      36.524  31.167  31.011  1.00  0.00     0.060 A 
ATOM      7  C   UNL A   1      36.961  31.275  29.697  1.00  0.00     0.016 A 
ATOM      8  C   UNL A   1      37.266  30.357  31.875  1.00  0.00     0.016 A 
ATOM      9  C   UNL A   1      38.031  30.553  29.201  1.00  0.00     0.010 A 
ATOM     10  C   UNL A   1      38.448  29.746  31.425  1.00  0.00     0.010 A 
ATOM     11  C   UNL A   1      38.855  29.873  30.087  1.00  0.00    -0.014 A 
BRANCH  11  12
ATOM     12  C   UNL A   1      40.180  29.418  29.602  1.00  0.00     0.031 A 
ATOM     13  C   UNL A   1      41.336  30.365  29.593  1.00  0.00     0.074 A 
ATOM     14  C   UNL A   1      40.331  28.137  29.196  1.00  0.00     0.049 A 
ATOM     15  N   UNL A   1      42.515  30.218  29.051  1.00  0.00    -0.248 NA
ATOM     16  C   UNL A   1      41.142  31.650  30.281  1.00  0.00     0.031 C 
ATOM     17  C   UNL A   1      39.287  27.105  29.228  1.00  0.00     0.029 A 
ATOM     18  N   UNL A   1      41.418  27.471  28.687  1.00  0.00    -0.354 N 
ATOM     19  C   UNL A   1      43.182  31.412  29.281  1.00  0.00     0.074 A 
ATOM     20  C   UNL A   1      42.288  32.266  30.030  1.00  0.00     0.031 C 
ATOM     21  C   UNL A   1      39.795  25.936  28.813  1.00  0.00     0.029 A 
ATOM     22  C   UNL A   1      41.158  26.159  28.359  1.00  0.00     0.049 A 
ATOM     23  H   UNL A   1      42.302  27.891  28.568  1.00  0.00     0.167 HD
ATOM     24  C   UNL A   1      44.424  31.758  28.871  1.00  0.00     0.037 A 
ATOM     25  C   UNL A   1      41.907  25.257  27.698  1.00  0.00     0.037 A 
ATOM     26  C   UNL A   1      45.296  30.880  28.136  1.00  0.00     0.049 A 
ATOM     27  C   UNL A   1      43.252  25.699  27.196  1.00  0.00     0.074 A 
ATOM     28  C   UNL A   1      46.566  31.130  27.653  1.00  0.00     0.029 A 
ATOM     29  N   UNL A   1      44.978  29.575  27.782  1.00  0.00    -0.354 N 
ATOM     30  N   UNL A   1      43.863  26.846  27.372  1.00  0.00    -0.248 NA
ATOM     31  C   UNL A   1      43.999  24.740  26.372  1.00  0.00     0.031 C 
ATOM     32  C   UNL A   1      46.997  29.993  26.961  1.00  0.00     0.029 A 
ATOM     33  C   UNL A   1      46.016  29.017  27.056  1.00  0.00     0.049 A 
ATOM     34  H   UNL A   1      44.139  29.115  28.012  1.00  0.00     0.167 HD
ATOM     35  C   UNL A   1      45.061  26.750  26.683  1.00  0.00     0.074 A 
ATOM     36  C   UNL A   1      45.109  25.417  26.118  1.00  0.00     0.031 C 
ATOM     37  C   UNL A   1      46.028  27.683  26.513  1.00  0.00     0.037 A 
BRANCH  24  38
ATOM     38  C   UNL A   1      44.874  33.161  29.139  1.00  0.00     0.064 A 
ATOM     39  C   UNL A   1      45.601  33.505  30.287  1.00  0.00     0.173 A 
ATOM     40  C   UNL A   1      44.579  34.177  28.217  1.00  0.00     0.173 A 
ATOM     41  F   UNL A   1      45.885  32.576  31.212  1.00  0.00    -0.203 F 
ATOM     42  C   UNL A   1      46.003  34.821  30.509  1.00  0.00     0.198 A 
ATOM     43  C   UNL A   1      45.003  35.485  28.431  1.00  0.00     0.198 A 
ATOM     44  F   UNL A   1      43.879  33.899  27.107  1.00  0.00    -0.203 F 
ATOM     45  F   UNL A   1      46.660  35.137  31.634  1.00  0.00    -0.200 F 
ATOM     46  C   UNL A   1      45.710  35.807  29.579  1.00  0.00     0.200 A 
ATOM     47  F   UNL A   1      44.720  36.436  27.529  1.00  0.00    -0.200 F 
ATOM     48  F   UNL A   1      46.100  37.071  29.794  1.00  0.00    -0.200 F 
ENDBRANCH  24  38
BRANCH  25  49
ATOM     49  C   UNL A   1      41.372  23.901  27.384  1.00  0.00     0.064 A 
ATOM     50  C   UNL A   1      40.290  23.730  26.510  1.00  0.00     0.173 A 
ATOM     51  C   UNL A   1      41.908  22.747  27.980  1.00  0.00     0.173 A 
ATOM     52  F   UNL A   1      39.719  24.798  25.932  1.00  0.00    -0.203 F 
ATOM     53  C   UNL A   1      39.750  22.466  26.266  1.00  0.00     0.198 A 
ATOM     54  C   UNL A   1      41.394  21.481  27.703  1.00  0.00     0.198 A 
ATOM     55  F   UNL A   1      42.940  22.845  28.830  1.00  0.00    -0.203 F 
ATOM     56  F   UNL A   1      38.674  22.341  25.477  1.00  0.00    -0.200 F 
ATOM     57  C   UNL A   1      40.306  21.343  26.858  1.00  0.00     0.200 A 
ATOM     58  F   UNL A   1      41.948  20.398  28.266  1.00  0.00    -0.200 F 
ATOM     59  F   UNL A   1      39.787  20.130  26.624  1.00  0.00    -0.200 F 
ENDBRANCH  25  49
BRANCH  37  60
ATOM     60  C   UNL A   1      47.217  27.280  25.696  1.00  0.00     0.064 A 
ATOM     61  C   UNL A   1      47.305  27.597  24.333  1.00  0.00     0.173 A 
ATOM     62  C   UNL A   1      48.292  26.608  26.294  1.00  0.00     0.173 A 
ATOM     63  F   UNL A   1      46.290  28.220  23.717  1.00  0.00    -0.203 F 
ATOM     64  C   UNL A   1      48.426  27.237  23.592  1.00  0.00     0.198 A 
ATOM     65  C   UNL A   1      49.424  26.278  25.556  1.00  0.00     0.198 A 
ATOM     66  F   UNL A   1      48.251  26.288  27.596  1.00  0.00    -0.203 F 
ATOM     67  F   UNL A   1      48.474  27.510  22.280  1.00  0.00    -0.200 F 
ATOM     68  C   UNL A   1      49.487  26.588  24.205  1.00  0.00     0.200 A 
ATOM     69  F   UNL A   1      50.453  25.661  26.152  1.00  0.00    -0.200 F 
ATOM     70  F   UNL A   1      50.570  26.252  23.491  1.00  0.00    -0.200 F 
ENDBRANCH  37  60
ENDBRANCH  11  12
ENDBRANCH   4   6
ENDBRANCH   3   4
ENDBRANCH   2   3
ENDBRANCH   1   2
BRANCH   1  71
ATOM     71  O   UNL A   1      33.461  32.441  28.029  1.00  0.00    -0.374 OA
BRANCH  71  72
ATOM     72  C   UNL A   1      33.889  31.179  27.557  1.00  0.00     0.202 C 
BRANCH  72  73
ATOM     73  C   UNL A   1      32.664  30.410  27.070  1.00  0.00     0.261 C 
BRANCH  73  74
ATOM     74  O   UNL A   1      33.073  29.139  26.534  1.00  0.00    -0.460 OA
BRANCH  74  75
ATOM     75  C   UNL A   1      32.292  28.044  26.780  1.00  0.00     0.340 C 
ATOM     76  O   UNL A   1      31.407  27.938  27.594  1.00  0.00    -0.246 OA
BRANCH  75  77
ATOM     77  C   UNL A   1      32.637  27.028  25.745  1.00  0.00     0.085 A 
ATOM     78  C   UNL A   1      33.738  26.184  26.003  1.00  0.00     0.038 A 
ATOM     79  C   UNL A   1      31.975  26.944  24.502  1.00  0.00     0.066 A 
ATOM     80  C   UNL A   1      34.204  25.309  25.030  1.00  0.00     0.042 A 
ATOM     81  C   UNL A   1      32.457  26.037  23.540  1.00  0.00     0.029 A 
ATOM     82  Cl  UNL A   1      35.594  24.348  25.343  1.00  0.00    -0.084 Cl
ATOM     83  C   UNL A   1      33.569  25.232  23.798  1.00  0.00     0.023 A 
BRANCH  79  84
ATOM     84  N   UNL A   1      30.895  27.777  24.108  1.00  0.00    -0.249 N 
ATOM     85  C   UNL A   1      29.613  27.295  23.995  1.00  0.00     0.234 C 
ATOM     86  C   UNL A   1      31.082  28.855  23.274  1.00  0.00     0.240 C 
ATOM     87  O   UNL A   1      29.184  26.226  24.406  1.00  0.00    -0.274 OA
ATOM     88  C   UNL A   1      28.823  28.211  23.083  1.00  0.00     0.118 C 
ATOM     89  C   UNL A   1      29.728  29.427  22.910  1.00  0.00     0.059 C 
ATOM     90  O   UNL A   1      32.152  29.297  22.874  1.00  0.00    -0.273 OA
ATOM     91  C   UNL A   1      29.725  30.069  21.521  1.00  0.00     0.017 C 
ATOM     92  C   UNL A   1      29.314  30.586  23.818  1.00  0.00     0.017 C 
ATOM     93  C   UNL A   1      28.614  31.111  21.539  1.00  0.00     0.001 C 
ATOM     94  C   UNL A   1      28.309  31.395  23.004  1.00  0.00     0.001 C 
ENDBRANCH  79  84
ENDBRANCH  75  77
ENDBRANCH  74  75
ENDBRANCH  73  74
ENDBRANCH  72  73
ENDBRANCH  71  72
ENDBRANCH   1  71
TORSDOF 15
ENDMDL
MODEL 2
REMARK VINA RESULT:     -12.8      5.544     10.403
REMARK SMILES O=C(OCCOCCOC(=O)c1cc(Cl)ccc1N1C(=O)CC2(CCCC2)C1=O)c1ccc(-c2c3nc(c(-c4c(F)c(F)c(F)c(F)c4F)c4ccc([nH]4)c(-c4c(F)c(F)c(F)c(F)c4F)c4nc(c(-c5c(F)c(F)c(F)c(F)c5F)c5ccc2[nH]5)C=C4)C=C3)cc1
REMARK SMILES IDX 5 1 4 2 3 3 2 4 1 5 30 6 31 7 92 8 32 9 91 10 33 11 34 12
REMARK SMILES IDX 35 13 85 14 36 15 90 16 84 17 86 18 37 19 89 20 83 21 82 22
REMARK SMILES IDX 38 24 70 25 50 26 69 27 51 28 54 29 68 30 87 31 52 32 53 33
REMARK SMILES IDX 67 35 88 36 55 37 39 38 40 39 48 40 41 41 42 42 46 43 49 44
REMARK SMILES IDX 43 45 44 46 47 47 45 48 71 49 72 50 80 51 73 52 74 53 78 54
REMARK SMILES IDX 81 55 75 56 76 57 79 58 77 59 56 60 57 61 65 62 58 63 59 64
REMARK SMILES IDX 63 65 66 66 60 67 61 68 64 69 62 70 6 71 7 72 8 73 9 74
REMARK SMILES IDX 10 75 11 76 12 77 13 78 18 79 14 80 17 81 15 82 16 83 19 84
REMARK SMILES IDX 20 85 28 86 21 87 22 88 23 89 29 90 24 91 27 92 25 93 26 94
REMARK H PARENT 86 23 54 34
REMARK Flexibility Score: inf
ROOT
ATOM      1  C   UNL A   1      40.623  20.752  26.805  1.00  0.00     0.202 C 
ENDROOT
BRANCH   1   2
ATOM      2  C   UNL A   1      42.015  21.239  26.403  1.00  0.00     0.261 C 
BRANCH   2   3
ATOM      3  O   UNL A   1      41.947  22.243  25.376  1.00  0.00    -0.460 OA
BRANCH   3   4
ATOM      4  C   UNL A   1      42.633  23.413  25.455  1.00  0.00     0.338 C 
ATOM      5  O   UNL A   1      43.721  23.537  24.900  1.00  0.00    -0.246 OA
BRANCH   4   6
ATOM      6  C   UNL A   1      42.107  24.551  26.267  1.00  0.00     0.060 A 
ATOM      7  C   UNL A   1      41.210  24.363  27.311  1.00  0.00     0.016 A 
ATOM      8  C   UNL A   1      42.634  25.833  26.090  1.00  0.00     0.016 A 
ATOM      9  C   UNL A   1      40.760  25.399  28.109  1.00  0.00     0.010 A 
ATOM     10  C   UNL A   1      42.309  26.858  26.993  1.00  0.00     0.010 A 
ATOM     11  C   UNL A   1      41.392  26.632  28.033  1.00  0.00    -0.014 A 
BRANCH  11  12
ATOM     12  C   UNL A   1      41.157  27.608  29.125  1.00  0.00     0.031 A 
ATOM     13  C   UNL A   1      42.039  27.603  30.330  1.00  0.00     0.074 A 
ATOM     14  C   UNL A   1      40.157  28.510  29.001  1.00  0.00     0.049 A 
ATOM     15  N   UNL A   1      41.894  28.246  31.458  1.00  0.00    -0.248 NA
ATOM     16  C   UNL A   1      43.244  26.761  30.265  1.00  0.00     0.031 C 
ATOM     17  C   UNL A   1      39.277  28.651  27.834  1.00  0.00     0.029 A 
ATOM     18  N   UNL A   1      39.712  29.489  29.853  1.00  0.00    -0.354 N 
ATOM     19  C   UNL A   1      42.954  27.844  32.256  1.00  0.00     0.074 A 
ATOM     20  C   UNL A   1      43.748  26.918  31.481  1.00  0.00     0.031 C 
ATOM     21  C   UNL A   1      38.442  29.682  28.021  1.00  0.00     0.029 A 
ATOM     22  C   UNL A   1      38.631  30.192  29.370  1.00  0.00     0.049 A 
ATOM     23  H   UNL A   1      40.126  29.673  30.728  1.00  0.00     0.167 HD
ATOM     24  C   UNL A   1      43.211  28.204  33.535  1.00  0.00     0.037 A 
ATOM     25  C   UNL A   1      37.833  31.094  29.970  1.00  0.00     0.037 A 
ATOM     26  C   UNL A   1      42.407  29.139  34.277  1.00  0.00     0.049 A 
ATOM     27  C   UNL A   1      38.106  31.417  31.412  1.00  0.00     0.074 A 
ATOM     28  C   UNL A   1      42.562  29.564  35.582  1.00  0.00     0.029 A 
ATOM     29  N   UNL A   1      41.293  29.793  33.768  1.00  0.00    -0.354 N 
ATOM     30  N   UNL A   1      39.081  30.997  32.182  1.00  0.00    -0.248 NA
ATOM     31  C   UNL A   1      37.150  32.307  32.083  1.00  0.00     0.031 C 
ATOM     32  C   UNL A   1      41.510  30.437  35.880  1.00  0.00     0.029 A 
ATOM     33  C   UNL A   1      40.730  30.595  34.745  1.00  0.00     0.049 A 
ATOM     34  H   UNL A   1      40.953  29.701  32.849  1.00  0.00     0.167 HD
ATOM     35  C   UNL A   1      38.858  31.568  33.425  1.00  0.00     0.074 A 
ATOM     36  C   UNL A   1      37.676  32.396  33.296  1.00  0.00     0.031 C 
ATOM     37  C   UNL A   1      39.554  31.409  34.576  1.00  0.00     0.037 A 
BRANCH  24  38
ATOM     38  C   UNL A   1      44.355  27.529  34.226  1.00  0.00     0.064 A 
ATOM     39  C   UNL A   1      45.644  28.080  34.247  1.00  0.00     0.173 A 
ATOM     40  C   UNL A   1      44.149  26.311  34.891  1.00  0.00     0.173 A 
ATOM     41  F   UNL A   1      45.899  29.229  33.604  1.00  0.00    -0.203 F 
ATOM     42  C   UNL A   1      46.689  27.426  34.897  1.00  0.00     0.198 A 
ATOM     43  C   UNL A   1      45.189  25.673  35.559  1.00  0.00     0.198 A 
ATOM     44  F   UNL A   1      42.935  25.740  34.893  1.00  0.00    -0.203 F 
ATOM     45  F   UNL A   1      47.923  27.948  34.870  1.00  0.00    -0.200 F 
ATOM     46  C   UNL A   1      46.459  26.228  35.558  1.00  0.00     0.200 A 
ATOM     47  F   UNL A   1      44.963  24.516  36.199  1.00  0.00    -0.200 F 
ATOM     48  F   UNL A   1      47.465  25.602  36.184  1.00  0.00    -0.200 F 
ENDBRANCH  24  38
BRANCH  25  49
ATOM     49  C   UNL A   1      36.655  31.669  29.259  1.00  0.00     0.064 A 
ATOM     50  C   UNL A   1      36.603  33.027  28.916  1.00  0.00     0.173 A 
ATOM     51  C   UNL A   1      35.536  30.881  28.940  1.00  0.00     0.173 A 
ATOM     52  F   UNL A   1      37.631  33.834  29.220  1.00  0.00    -0.203 F 
ATOM     53  C   UNL A   1      35.474  33.577  28.308  1.00  0.00     0.198 A 
ATOM     54  C   UNL A   1      34.426  31.422  28.296  1.00  0.00     0.198 A 
ATOM     55  F   UNL A   1      35.522  29.576  29.249  1.00  0.00    -0.203 F 
ATOM     56  F   UNL A   1      35.428  34.891  28.051  1.00  0.00    -0.200 F 
ATOM     57  C   UNL A   1      34.390  32.773  27.993  1.00  0.00     0.200 A 
ATOM     58  F   UNL A   1      33.387  30.635  27.979  1.00  0.00    -0.200 F 
ATOM     59  F   UNL A   1      33.305  33.302  27.410  1.00  0.00    -0.200 F 
ENDBRANCH  25  49
BRANCH  37  60
ATOM     60  C   UNL A   1      39.055  32.159  35.773  1.00  0.00     0.064 A 
ATOM     61  C   UNL A   1      38.213  31.551  36.715  1.00  0.00     0.173 A 
ATOM     62  C   UNL A   1      39.456  33.483  35.998  1.00  0.00     0.173 A 
ATOM     63  F   UNL A   1      37.787  30.293  36.528  1.00  0.00    -0.203 F 
ATOM     64  C   UNL A   1      37.775  32.251  37.834  1.00  0.00     0.198 A 
ATOM     65  C   UNL A   1      39.041  34.170  37.134  1.00  0.00     0.198 A 
ATOM     66  F   UNL A   1      40.263  34.103  35.123  1.00  0.00    -0.203 F 
ATOM     67  F   UNL A   1      36.936  31.668  38.701  1.00  0.00    -0.200 F 
ATOM     68  C   UNL A   1      38.198  33.555  38.047  1.00  0.00     0.200 A 
ATOM     69  F   UNL A   1      39.460  35.425  37.345  1.00  0.00    -0.200 F 
ATOM     70  F   UNL A   1      37.784  34.225  39.132  1.00  0.00    -0.200 F 
ENDBRANCH  37  60
ENDBRANCH  11  12
ENDBRANCH   4   6
ENDBRANCH   3   4
ENDBRANCH   2   3
ENDBRANCH   1   2
BRANCH   1  71
ATOM     71  O   UNL A   1      39.748  20.598  25.701  1.00  0.00    -0.374 OA
BRANCH  71  72
ATOM     72  C   UNL A   1      38.531  21.315  25.757  1.00  0.00     0.202 C 
BRANCH  72  73
ATOM     73  C   UNL A   1      37.512  20.595  24.879  1.00  0.00     0.261 C 
BRANCH  73  74
ATOM     74  O   UNL A   1      36.398  21.469  24.617  1.00  0.00    -0.460 OA
BRANCH  74  75
ATOM     75  C   UNL A   1      35.330  21.440  25.472  1.00  0.00     0.340 C 
ATOM     76  O   UNL A   1      35.253  21.930  26.571  1.00  0.00    -0.246 OA
BRANCH  75  77
ATOM     77  C   UNL A   1      34.204  20.804  24.730  1.00  0.00     0.085 A 
ATOM     78  C   UNL A   1      34.204  19.396  24.630  1.00  0.00     0.038 A 
ATOM     79  C   UNL A   1      33.211  21.547  24.059  1.00  0.00     0.066 A 
ATOM     80  C   UNL A   1      33.265  18.742  23.841  1.00  0.00     0.042 A 
ATOM     81  C   UNL A   1      32.263  20.858  23.280  1.00  0.00     0.029 A 
ATOM     82  Cl  UNL A   1      33.335  17.033  23.676  1.00  0.00    -0.084 Cl
ATOM     83  C   UNL A   1      32.295  19.467  23.164  1.00  0.00     0.023 A 
BRANCH  79  84
ATOM     84  N   UNL A   1      33.144  22.966  24.039  1.00  0.00    -0.249 N 
ATOM     85  C   UNL A   1      34.015  23.720  23.290  1.00  0.00     0.234 C 
ATOM     86  C   UNL A   1      32.690  23.683  25.121  1.00  0.00     0.240 C 
ATOM     87  O   UNL A   1      34.771  23.327  22.413  1.00  0.00    -0.274 OA
ATOM     88  C   UNL A   1      34.061  25.124  23.858  1.00  0.00     0.118 C 
ATOM     89  C   UNL A   1      32.903  25.157  24.849  1.00  0.00     0.059 C 
ATOM     90  O   UNL A   1      32.195  23.231  26.146  1.00  0.00    -0.273 OA
ATOM     91  C   UNL A   1      33.145  25.953  26.133  1.00  0.00     0.017 C 
ATOM     92  C   UNL A   1      31.663  25.834  24.263  1.00  0.00     0.017 C 
ATOM     93  C   UNL A   1      32.708  27.382  25.835  1.00  0.00     0.001 C 
ATOM     94  C   UNL A   1      31.812  27.313  24.604  1.00  0.00     0.001 C 
ENDBRANCH  79  84
ENDBRANCH  75  77
ENDBRANCH  74  75
ENDBRANCH  73  74
ENDBRANCH  72  73
ENDBRANCH  71  72
ENDBRANCH   1  71
TORSDOF 15
ENDMDL
MODEL 3
REMARK VINA RESULT:     -12.7      5.853     10.756
REMARK SMILES O=C(OCCOCCOC(=O)c1cc(Cl)ccc1N1C(=O)CC2(CCCC2)C1=O)c1ccc(-c2c3nc(c(-c4c(F)c(F)c(F)c(F)c4F)c4ccc([nH]4)c(-c4c(F)c(F)c(F)c(F)c4F)c4nc(c(-c5c(F)c(F)c(F)c(F)c5F)c5ccc2[nH]5)C=C4)C=C3)cc1
REMARK SMILES IDX 5 1 4 2 3 3 2 4 1 5 30 6 31 7 92 8 32 9 91 10 33 11 34 12
REMARK SMILES IDX 35 13 85 14 36 15 90 16 84 17 86 18 37 19 89 20 83 21 82 22
REMARK SMILES IDX 38 24 70 25 50 26 69 27 51 28 54 29 68 30 87 31 52 32 53 33
REMARK SMILES IDX 67 35 88 36 55 37 39 38 40 39 48 40 41 41 42 42 46 43 49 44
REMARK SMILES IDX 43 45 44 46 47 47 45 48 71 49 72 50 80 51 73 52 74 53 78 54
REMARK SMILES IDX 81 55 75 56 76 57 79 58 77 59 56 60 57 61 65 62 58 63 59 64
REMARK SMILES IDX 63 65 66 66 60 67 61 68 64 69 62 70 6 71 7 72 8 73 9 74
REMARK SMILES IDX 10 75 11 76 12 77 13 78 18 79 14 80 17 81 15 82 16 83 19 84
REMARK SMILES IDX 20 85 28 86 21 87 22 88 23 89 29 90 24 91 27 92 25 93 26 94
REMARK H PARENT 86 23 54 34
REMARK Flexibility Score: inf
ROOT
ATOM      1  C   UNL A   1      40.263  21.180  26.840  1.00  0.00     0.202 C 
ENDROOT
BRANCH   1   2
ATOM      2  C   UNL A   1      41.620  21.076  26.143  1.00  0.00     0.261 C 
BRANCH   2   3
ATOM      3  O   UNL A   1      41.891  22.237  25.340  1.00  0.00    -0.460 OA
BRANCH   3   4
ATOM      4  C   UNL A   1      42.727  23.228  25.752  1.00  0.00     0.338 C 
ATOM      5  O   UNL A   1      43.933  23.157  25.535  1.00  0.00    -0.246 OA
BRANCH   4   6
ATOM      6  C   UNL A   1      42.203  24.391  26.528  1.00  0.00     0.060 A 
ATOM      7  C   UNL A   1      41.277  24.241  27.553  1.00  0.00     0.016 A 
ATOM      8  C   UNL A   1      42.759  25.659  26.338  1.00  0.00     0.016 A 
ATOM      9  C   UNL A   1      40.828  25.302  28.318  1.00  0.00     0.010 A 
ATOM     10  C   UNL A   1      42.432  26.708  27.213  1.00  0.00     0.010 A 
ATOM     11  C   UNL A   1      41.486  26.521  28.234  1.00  0.00    -0.014 A 
BRANCH  11  12
ATOM     12  C   UNL A   1      41.243  27.523  29.300  1.00  0.00     0.031 A 
ATOM     13  C   UNL A   1      42.115  27.546  30.512  1.00  0.00     0.074 A 
ATOM     14  C   UNL A   1      40.246  28.423  29.146  1.00  0.00     0.049 A 
ATOM     15  N   UNL A   1      41.961  28.217  31.623  1.00  0.00    -0.248 NA
ATOM     16  C   UNL A   1      43.319  26.702  30.477  1.00  0.00     0.031 C 
ATOM     17  C   UNL A   1      39.376  28.538  27.968  1.00  0.00     0.029 A 
ATOM     18  N   UNL A   1      39.795  29.424  29.970  1.00  0.00    -0.354 N 
ATOM     19  C   UNL A   1      43.013  27.832  32.440  1.00  0.00     0.074 A 
ATOM     20  C   UNL A   1      43.813  26.886  31.694  1.00  0.00     0.031 C 
ATOM     21  C   UNL A   1      38.541  29.574  28.123  1.00  0.00     0.029 A 
ATOM     22  C   UNL A   1      38.719  30.117  29.461  1.00  0.00     0.049 A 
ATOM     23  H   UNL A   1      40.202  29.628  30.844  1.00  0.00     0.167 HD
ATOM     24  C   UNL A   1      43.260  28.223  33.711  1.00  0.00     0.037 A 
ATOM     25  C   UNL A   1      37.918  31.033  30.032  1.00  0.00     0.037 A 
ATOM     26  C   UNL A   1      42.452  29.176  34.424  1.00  0.00     0.049 A 
ATOM     27  C   UNL A   1      38.179  31.391  31.468  1.00  0.00     0.074 A 
ATOM     28  C   UNL A   1      42.596  29.632  35.720  1.00  0.00     0.029 A 
ATOM     29  N   UNL A   1      41.343  29.820  33.890  1.00  0.00    -0.354 N 
ATOM     30  N   UNL A   1      39.147  30.989  32.257  1.00  0.00    -0.248 NA
ATOM     31  C   UNL A   1      37.219  32.298  32.109  1.00  0.00     0.031 C 
ATOM     32  C   UNL A   1      41.543  30.514  35.988  1.00  0.00     0.029 A 
ATOM     33  C   UNL A   1      40.773  30.646  34.843  1.00  0.00     0.049 A 
ATOM     34  H   UNL A   1      41.011  29.706  32.970  1.00  0.00     0.167 HD
ATOM     35  C   UNL A   1      38.914  31.589  33.483  1.00  0.00     0.074 A 
ATOM     36  C   UNL A   1      37.735  32.416  33.324  1.00  0.00     0.031 C 
ATOM     37  C   UNL A   1      39.600  31.457  34.644  1.00  0.00     0.037 A 
BRANCH  24  38
ATOM     38  C   UNL A   1      44.397  27.563  34.428  1.00  0.00     0.064 A 
ATOM     39  C   UNL A   1      44.246  26.345  35.106  1.00  0.00     0.173 A 
ATOM     40  C   UNL A   1      45.667  28.160  34.423  1.00  0.00     0.173 A 
ATOM     41  F   UNL A   1      43.047  25.747  35.163  1.00  0.00    -0.203 F 
ATOM     42  C   UNL A   1      45.323  25.757  35.766  1.00  0.00     0.198 A 
ATOM     43  C   UNL A   1      46.746  27.558  35.064  1.00  0.00     0.198 A 
ATOM     44  F   UNL A   1      45.860  29.330  33.795  1.00  0.00    -0.203 F 
ATOM     45  F   UNL A   1      45.148  24.614  36.444  1.00  0.00    -0.200 F 
ATOM     46  C   UNL A   1      46.572  26.360  35.738  1.00  0.00     0.200 A 
ATOM     47  F   UNL A   1      47.952  28.143  35.034  1.00  0.00    -0.200 F 
ATOM     48  F   UNL A   1      47.607  25.792  36.373  1.00  0.00    -0.200 F 
ENDBRANCH  24  38
BRANCH  25  49
ATOM     49  C   UNL A   1      36.747  31.593  29.297  1.00  0.00     0.064 A 
ATOM     50  C   UNL A   1      36.697  32.944  28.929  1.00  0.00     0.173 A 
ATOM     51  C   UNL A   1      35.633  30.797  28.981  1.00  0.00     0.173 A 
ATOM     52  F   UNL A   1      37.719  33.759  29.229  1.00  0.00    -0.203 F 
ATOM     53  C   UNL A   1      35.573  33.481  28.298  1.00  0.00     0.198 A 
ATOM     54  C   UNL A   1      34.529  31.325  28.314  1.00  0.00     0.198 A 
ATOM     55  F   UNL A   1      35.617  29.498  29.314  1.00  0.00    -0.203 F 
ATOM     56  F   UNL A   1      35.528  34.790  28.016  1.00  0.00    -0.200 F 
ATOM     57  C   UNL A   1      34.494  32.669  27.986  1.00  0.00     0.200 A 
ATOM     58  F   UNL A   1      33.495  30.530  28.001  1.00  0.00    -0.200 F 
ATOM     59  F   UNL A   1      33.415  33.186  27.381  1.00  0.00    -0.200 F 
ENDBRANCH  25  49
BRANCH  37  60
ATOM     60  C   UNL A   1      39.092  32.236  35.818  1.00  0.00     0.064 A 
ATOM     61  C   UNL A   1      38.222  31.659  36.754  1.00  0.00     0.173 A 
ATOM     62  C   UNL A   1      39.511  33.558  36.027  1.00  0.00     0.173 A 
ATOM     63  F   UNL A   1      37.779  30.405  36.582  1.00  0.00    -0.203 F 
ATOM     64  C   UNL A   1      37.777  32.387  37.853  1.00  0.00     0.198 A 
ATOM     65  C   UNL A   1      39.088  34.271  37.143  1.00  0.00     0.198 A 
ATOM     66  F   UNL A   1      40.344  34.148  35.157  1.00  0.00    -0.203 F 
ATOM     67  F   UNL A   1      36.912  31.833  38.715  1.00  0.00    -0.200 F 
ATOM     68  C   UNL A   1      38.217  33.687  38.051  1.00  0.00     0.200 A 
ATOM     69  F   UNL A   1      39.523  35.522  37.340  1.00  0.00    -0.200 F 
ATOM     70  F   UNL A   1      37.796  34.382  39.117  1.00  0.00    -0.200 F 
ENDBRANCH  37  60
ENDBRANCH  11  12
ENDBRANCH   4   6
ENDBRANCH   3   4
ENDBRANCH   2   3
ENDBRANCH   1   2
BRANCH   1  71
ATOM     71  O   UNL A   1      39.170  21.092  25.943  1.00  0.00    -0.374 OA
BRANCH  71  72
ATOM     72  C   UNL A   1      38.531  22.308  25.608  1.00  0.00     0.202 C 
BRANCH  72  73
ATOM     73  C   UNL A   1      37.040  22.160  25.898  1.00  0.00     0.261 C 
BRANCH  73  74
ATOM     74  O   UNL A   1      36.357  21.733  24.705  1.00  0.00    -0.460 OA
BRANCH  74  75
ATOM     75  C   UNL A   1      35.905  22.687  23.835  1.00  0.00     0.340 C 
ATOM     76  O   UNL A   1      36.349  22.962  22.747  1.00  0.00    -0.246 OA
BRANCH  75  77
ATOM     77  C   UNL A   1      34.652  23.244  24.420  1.00  0.00     0.085 A 
ATOM     78  C   UNL A   1      34.668  24.595  24.826  1.00  0.00     0.038 A 
ATOM     79  C   UNL A   1      33.505  22.459  24.663  1.00  0.00     0.066 A 
ATOM     80  C   UNL A   1      33.586  25.144  25.503  1.00  0.00     0.042 A 
ATOM     81  C   UNL A   1      32.417  23.045  25.337  1.00  0.00     0.029 A 
ATOM     82  Cl  UNL A   1      33.662  26.770  26.055  1.00  0.00    -0.084 Cl
ATOM     83  C   UNL A   1      32.460  24.374  25.763  1.00  0.00     0.023 A 
BRANCH  79  84
ATOM     84  N   UNL A   1      33.395  21.078  24.353  1.00  0.00    -0.249 N 
ATOM     85  C   UNL A   1      32.631  20.632  23.300  1.00  0.00     0.234 C 
ATOM     86  C   UNL A   1      33.491  20.109  25.325  1.00  0.00     0.240 C 
ATOM     87  O   UNL A   1      32.155  21.301  22.394  1.00  0.00    -0.274 OA
ATOM     88  C   UNL A   1      32.277  19.178  23.533  1.00  0.00     0.118 C 
ATOM     89  C   UNL A   1      33.161  18.768  24.706  1.00  0.00     0.059 C 
ATOM     90  O   UNL A   1      33.789  20.277  26.501  1.00  0.00    -0.273 OA
ATOM     91  C   UNL A   1      32.529  17.805  25.714  1.00  0.00     0.017 C 
ATOM     92  C   UNL A   1      34.407  18.006  24.250  1.00  0.00     0.017 C 
ATOM     93  C   UNL A   1      32.838  16.401  25.210  1.00  0.00     0.001 C 
ATOM     94  C   UNL A   1      33.996  16.538  24.229  1.00  0.00     0.001 C 
ENDBRANCH  79  84
ENDBRANCH  75  77
ENDBRANCH  74  75
ENDBRANCH  73  74
ENDBRANCH  72  73
ENDBRANCH  71  72
ENDBRANCH   1  71
TORSDOF 15
ENDMDL
