MODEL 1
REMARK VINA RESULT:     -10.9      0.000      0.000
REMARK SMILES N#C[C@@H]1CN(C(=O)N[C@@H](Cc2cnc[nH]2)C(=O)OCCOCCOC(=O)c2ccc(-c3c4nc(c(-c5c(F)c(F)c(F)c(F)c5F)c5ccc([nH]5)c(-c5c(F)c(F)c(F)c(F)c5F)c5nc(c(-c6c(F)c(F)c(F)c(F)c6F)c6ccc3[nH]6)C=C5)C=C4)cc2)CCO1
REMARK SMILES IDX 20 1 19 2 18 3 16 4 17 5 9 6 8 7 6 8 7 9 5 11 3 12 4 13
REMARK SMILES IDX 92 14 91 15 90 16 2 17 1 18 10 19 11 20 12 21 15 22 13 23
REMARK SMILES IDX 14 24 21 26 22 27 23 28 24 29 25 30 26 31 27 32 28 33 89 34
REMARK SMILES IDX 29 35 88 36 30 37 31 38 32 39 82 40 33 41 87 42 81 43 83 44
REMARK SMILES IDX 34 45 86 46 80 47 79 48 35 50 67 51 47 52 66 53 48 54 51 55
REMARK SMILES IDX 65 56 84 57 49 58 50 59 64 61 85 62 52 63 36 64 37 65 45 66
REMARK SMILES IDX 38 67 39 68 43 69 46 70 40 71 41 72 44 73 42 74 68 75 69 76
REMARK SMILES IDX 77 77 70 78 71 79 75 80 78 81 72 82 73 83 76 84 74 85 53 86
REMARK SMILES IDX 54 87 62 88 55 89 56 90 60 91 63 92 57 93 58 94 61 95 59 96
REMARK H PARENT 8 10 15 25 83 49 51 60
REMARK Flexibility Score: inf
ROOT
ATOM      1  C   UNL A   1      33.223  20.535  25.296  1.00  0.00     0.202 C 
ENDROOT
BRANCH   1   2
ATOM      2  C   UNL A   1      32.761  21.754  26.105  1.00  0.00     0.261 C 
BRANCH   2   3
ATOM      3  O   UNL A   1      31.420  22.149  25.744  1.00  0.00    -0.462 OA
BRANCH   3   4
ATOM      4  C   UNL A   1      30.846  23.159  26.453  1.00  0.00     0.329 C 
ATOM      5  O   UNL A   1      30.250  23.023  27.516  1.00  0.00    -0.250 OA
BRANCH   4   6
ATOM      6  C   UNL A   1      31.017  24.533  25.772  1.00  0.00     0.199 C 
BRANCH   6   7
ATOM      7  N   UNL A   1      32.306  25.178  26.062  1.00  0.00    -0.324 N 
ATOM      8  C   UNL A   1      32.760  26.445  26.090  1.00  0.00     0.318 C 
ATOM      9  O   UNL A   1      33.985  26.576  26.099  1.00  0.00    -0.249 OA
ATOM     10  H   UNL A   1      33.007  24.524  26.288  1.00  0.00     0.166 HD
BRANCH   8  11
ATOM     11  N   UNL A   1      31.923  27.518  26.127  1.00  0.00    -0.319 N 
ATOM     12  C   UNL A   1      32.197  29.692  27.218  1.00  0.00     0.240 C 
ATOM     13  C   UNL A   1      31.578  28.315  27.303  1.00  0.00     0.169 C 
ATOM     14  O   UNL A   1      31.718  30.365  26.023  1.00  0.00    -0.360 OA
ATOM     15  C   UNL A   1      32.082  29.648  24.827  1.00  0.00     0.183 C 
ATOM     16  C   UNL A   1      31.571  28.196  24.859  1.00  0.00     0.150 C 
BRANCH  12  17
ATOM     17  C   UNL A   1      33.717  29.663  27.235  1.00  0.00     0.096 C 
ATOM     18  N   UNL A   1      34.978  29.638  27.250  1.00  0.00    -0.195 NA
ENDBRANCH  12  17
ENDBRANCH   8  11
ENDBRANCH   6   7
BRANCH   6  19
ATOM     19  C   UNL A   1      30.690  24.516  24.278  1.00  0.00     0.092 C 
BRANCH  19  20
ATOM     20  C   UNL A   1      31.804  24.189  23.349  1.00  0.00     0.037 A 
ATOM     21  C   UNL A   1      32.805  24.926  22.751  1.00  0.00     0.134 A 
ATOM     22  N   UNL A   1      31.973  22.919  22.853  1.00  0.00    -0.348 N 
ATOM     23  N   UNL A   1      33.586  24.133  21.954  1.00  0.00    -0.245 NA
ATOM     24  C   UNL A   1      33.050  22.938  22.019  1.00  0.00     0.196 A 
ATOM     25  H   UNL A   1      31.416  22.135  23.064  1.00  0.00     0.167 HD
ENDBRANCH  19  20
ENDBRANCH   6  19
ENDBRANCH   4   6
ENDBRANCH   3   4
ENDBRANCH   2   3
ENDBRANCH   1   2
BRANCH   1  26
ATOM     26  O   UNL A   1      34.469  20.705  24.627  1.00  0.00    -0.374 OA
BRANCH  26  27
ATOM     27  C   UNL A   1      35.533  21.121  25.486  1.00  0.00     0.202 C 
BRANCH  27  28
ATOM     28  C   UNL A   1      36.912  20.708  24.975  1.00  0.00     0.261 C 
BRANCH  28  29
ATOM     29  O   UNL A   1      37.815  21.780  25.297  1.00  0.00    -0.460 OA
BRANCH  29  30
ATOM     30  C   UNL A   1      38.876  21.397  26.039  1.00  0.00     0.338 C 
ATOM     31  O   UNL A   1      39.344  20.276  26.143  1.00  0.00    -0.246 OA
BRANCH  30  32
ATOM     32  C   UNL A   1      39.556  22.609  26.539  1.00  0.00     0.060 A 
ATOM     33  C   UNL A   1      39.073  23.840  26.078  1.00  0.00     0.016 A 
ATOM     34  C   UNL A   1      40.599  22.560  27.472  1.00  0.00     0.016 A 
ATOM     35  C   UNL A   1      39.652  25.024  26.516  1.00  0.00     0.010 A 
ATOM     36  C   UNL A   1      41.184  23.750  27.907  1.00  0.00     0.010 A 
ATOM     37  C   UNL A   1      40.730  24.982  27.408  1.00  0.00    -0.014 A 
BRANCH  37  38
ATOM     38  C   UNL A   1      41.460  26.229  27.715  1.00  0.00     0.031 A 
ATOM     39  C   UNL A   1      40.737  27.328  28.435  1.00  0.00     0.074 A 
ATOM     40  C   UNL A   1      42.755  26.358  27.381  1.00  0.00     0.049 A 
ATOM     41  N   UNL A   1      41.161  28.517  28.775  1.00  0.00    -0.248 NA
ATOM     42  C   UNL A   1      39.345  27.049  28.824  1.00  0.00     0.031 C 
ATOM     43  C   UNL A   1      43.557  25.337  26.709  1.00  0.00     0.029 A 
ATOM     44  N   UNL A   1      43.619  27.409  27.553  1.00  0.00    -0.354 N 
ATOM     45  C   UNL A   1      40.088  29.130  29.408  1.00  0.00     0.074 A 
ATOM     46  C   UNL A   1      38.986  28.194  29.385  1.00  0.00     0.031 C 
ATOM     47  C   UNL A   1      44.796  25.819  26.514  1.00  0.00     0.029 A 
ATOM     48  C   UNL A   1      44.858  27.193  27.006  1.00  0.00     0.049 A 
ATOM     49  H   UNL A   1      43.372  28.239  28.023  1.00  0.00     0.167 HD
ATOM     50  C   UNL A   1      40.037  30.364  29.961  1.00  0.00     0.037 A 
ATOM     51  C   UNL A   1      45.908  28.030  26.887  1.00  0.00     0.037 A 
ATOM     52  C   UNL A   1      41.143  31.285  29.975  1.00  0.00     0.049 A 
ATOM     53  C   UNL A   1      45.795  29.426  27.441  1.00  0.00     0.074 A 
ATOM     54  C   UNL A   1      41.209  32.543  30.545  1.00  0.00     0.029 A 
ATOM     55  N   UNL A   1      42.373  31.049  29.377  1.00  0.00    -0.354 N 
ATOM     56  N   UNL A   1      44.797  29.987  28.080  1.00  0.00    -0.248 NA
ATOM     57  C   UNL A   1      46.954  30.309  27.253  1.00  0.00     0.031 C 
ATOM     58  C   UNL A   1      42.456  33.096  30.235  1.00  0.00     0.029 A 
ATOM     59  C   UNL A   1      43.190  32.158  29.524  1.00  0.00     0.049 A 
ATOM     60  H   UNL A   1      42.627  30.217  28.917  1.00  0.00     0.167 HD
ATOM     61  C   UNL A   1      45.210  31.278  28.381  1.00  0.00     0.074 A 
ATOM     62  C   UNL A   1      46.562  31.409  27.879  1.00  0.00     0.031 C 
ATOM     63  C   UNL A   1      44.531  32.269  29.010  1.00  0.00     0.037 A 
BRANCH  50  64
ATOM     64  C   UNL A   1      38.735  30.806  30.562  1.00  0.00     0.064 A 
ATOM     65  C   UNL A   1      37.675  31.275  29.773  1.00  0.00     0.173 A 
ATOM     66  C   UNL A   1      38.531  30.717  31.948  1.00  0.00     0.173 A 
ATOM     67  F   UNL A   1      37.822  31.393  28.444  1.00  0.00    -0.203 F 
ATOM     68  C   UNL A   1      36.465  31.656  30.350  1.00  0.00     0.198 A 
ATOM     69  C   UNL A   1      37.312  31.069  32.519  1.00  0.00     0.198 A 
ATOM     70  F   UNL A   1      39.513  30.273  32.748  1.00  0.00    -0.203 F 
ATOM     71  F   UNL A   1      35.480  32.139  29.582  1.00  0.00    -0.200 F 
ATOM     72  C   UNL A   1      36.283  31.544  31.720  1.00  0.00     0.200 A 
ATOM     73  F   UNL A   1      37.133  30.947  33.841  1.00  0.00    -0.200 F 
ATOM     74  F   UNL A   1      35.114  31.898  32.273  1.00  0.00    -0.200 F 
ENDBRANCH  50  64
BRANCH  51  75
ATOM     75  C   UNL A   1      47.138  27.582  26.182  1.00  0.00     0.064 A 
ATOM     76  C   UNL A   1      48.235  27.071  26.889  1.00  0.00     0.173 A 
ATOM     77  C   UNL A   1      47.248  27.672  24.786  1.00  0.00     0.173 A 
ATOM     78  F   UNL A   1      48.190  26.988  28.227  1.00  0.00    -0.203 F 
ATOM     79  C   UNL A   1      49.400  26.685  26.229  1.00  0.00     0.198 A 
ATOM     80  C   UNL A   1      48.399  27.254  24.124  1.00  0.00     0.198 A 
ATOM     81  F   UNL A   1      46.229  28.158  24.061  1.00  0.00    -0.203 F 
ATOM     82  F   UNL A   1      50.453  26.248  26.933  1.00  0.00    -0.200 F 
ATOM     83  C   UNL A   1      49.478  26.771  24.846  1.00  0.00     0.200 A 
ATOM     84  F   UNL A   1      48.464  27.320  22.787  1.00  0.00    -0.200 F 
ATOM     85  F   UNL A   1      50.596  26.392  24.211  1.00  0.00    -0.200 F 
ENDBRANCH  51  75
BRANCH  63  86
ATOM     86  C   UNL A   1      45.241  33.580  29.197  1.00  0.00     0.064 A 
ATOM     87  C   UNL A   1      45.946  33.869  30.374  1.00  0.00     0.173 A 
ATOM     88  C   UNL A   1      45.258  34.535  28.169  1.00  0.00     0.173 A 
ATOM     89  F   UNL A   1      45.948  32.997  31.393  1.00  0.00    -0.203 F 
ATOM     90  C   UNL A   1      46.622  35.077  30.524  1.00  0.00     0.198 A 
ATOM     91  C   UNL A   1      45.964  35.726  28.309  1.00  0.00     0.198 A 
ATOM     92  F   UNL A   1      44.606  34.305  27.019  1.00  0.00    -0.203 F 
ATOM     93  F   UNL A   1      47.248  35.353  31.676  1.00  0.00    -0.200 F 
ATOM     94  C   UNL A   1      46.638  36.000  29.489  1.00  0.00     0.200 A 
ATOM     95  F   UNL A   1      45.992  36.610  27.302  1.00  0.00    -0.200 F 
ATOM     96  F   UNL A   1      47.300  37.157  29.632  1.00  0.00    -0.200 F 
ENDBRANCH  63  86
ENDBRANCH  37  38
ENDBRANCH  30  32
ENDBRANCH  29  30
ENDBRANCH  28  29
ENDBRANCH  27  28
ENDBRANCH  26  27
ENDBRANCH   1  26
TORSDOF 19
ENDMDL
MODEL 2
REMARK VINA RESULT:     -10.8      1.491      7.713
REMARK SMILES N#C[C@@H]1CN(C(=O)N[C@@H](Cc2cnc[nH]2)C(=O)OCCOCCOC(=O)c2ccc(-c3c4nc(c(-c5c(F)c(F)c(F)c(F)c5F)c5ccc([nH]5)c(-c5c(F)c(F)c(F)c(F)c5F)c5nc(c(-c6c(F)c(F)c(F)c(F)c6F)c6ccc3[nH]6)C=C5)C=C4)cc2)CCO1
REMARK SMILES IDX 20 1 19 2 18 3 16 4 17 5 9 6 8 7 6 8 7 9 5 11 3 12 4 13
REMARK SMILES IDX 92 14 91 15 90 16 2 17 1 18 10 19 11 20 12 21 15 22 13 23
REMARK SMILES IDX 14 24 21 26 22 27 23 28 24 29 25 30 26 31 27 32 28 33 89 34
REMARK SMILES IDX 29 35 88 36 30 37 31 38 32 39 82 40 33 41 87 42 81 43 83 44
REMARK SMILES IDX 34 45 86 46 80 47 79 48 35 50 67 51 47 52 66 53 48 54 51 55
REMARK SMILES IDX 65 56 84 57 49 58 50 59 64 61 85 62 52 63 36 64 37 65 45 66
REMARK SMILES IDX 38 67 39 68 43 69 46 70 40 71 41 72 44 73 42 74 68 75 69 76
REMARK SMILES IDX 77 77 70 78 71 79 75 80 78 81 72 82 73 83 76 84 74 85 53 86
REMARK SMILES IDX 54 87 62 88 55 89 56 90 60 91 63 92 57 93 58 94 61 95 59 96
REMARK H PARENT 8 10 15 25 83 49 51 60
REMARK Flexibility Score: inf
ROOT
ATOM      1  C   UNL A   1      37.332  22.467  25.032  1.00  0.00     0.202 C 
ENDROOT
BRANCH   1   2
ATOM      2  C   UNL A   1      36.051  23.231  25.393  1.00  0.00     0.261 C 
BRANCH   2   3
ATOM      3  O   UNL A   1      34.897  22.362  25.380  1.00  0.00    -0.462 OA
BRANCH   3   4
ATOM      4  C   UNL A   1      34.077  22.387  26.466  1.00  0.00     0.329 C 
ATOM      5  O   UNL A   1      34.356  22.890  27.549  1.00  0.00    -0.250 OA
BRANCH   4   6
ATOM      6  C   UNL A   1      32.722  21.697  26.202  1.00  0.00     0.199 C 
BRANCH   6   7
ATOM      7  N   UNL A   1      31.562  22.570  26.435  1.00  0.00    -0.324 N 
ATOM      8  C   UNL A   1      31.287  23.873  26.238  1.00  0.00     0.318 C 
ATOM      9  O   UNL A   1      30.294  24.306  26.825  1.00  0.00    -0.249 OA
ATOM     10  H   UNL A   1      30.803  22.083  26.831  1.00  0.00     0.166 HD
BRANCH   8  11
ATOM     11  N   UNL A   1      32.042  24.663  25.427  1.00  0.00    -0.319 N 
ATOM     12  C   UNL A   1      31.398  25.981  23.468  1.00  0.00     0.240 C 
ATOM     13  C   UNL A   1      32.013  24.693  23.965  1.00  0.00     0.169 C 
ATOM     14  O   UNL A   1      32.173  27.108  23.956  1.00  0.00    -0.360 OA
ATOM     15  C   UNL A   1      32.188  27.158  25.397  1.00  0.00     0.183 C 
ATOM     16  C   UNL A   1      32.717  25.846  26.004  1.00  0.00     0.150 C 
BRANCH  12  17
ATOM     17  C   UNL A   1      29.937  26.134  23.861  1.00  0.00     0.096 C 
ATOM     18  N   UNL A   1      28.726  26.260  24.188  1.00  0.00    -0.195 NA
ENDBRANCH  12  17
ENDBRANCH   8  11
ENDBRANCH   6   7
BRANCH   6  19
ATOM     19  C   UNL A   1      32.658  20.981  24.851  1.00  0.00     0.092 C 
BRANCH  19  20
ATOM     20  C   UNL A   1      32.645  19.495  24.878  1.00  0.00     0.037 A 
ATOM     21  C   UNL A   1      32.454  18.517  23.923  1.00  0.00     0.134 A 
ATOM     22  N   UNL A   1      32.797  18.799  26.053  1.00  0.00    -0.348 N 
ATOM     23  N   UNL A   1      32.531  17.269  24.480  1.00  0.00    -0.245 NA
ATOM     24  C   UNL A   1      32.716  17.470  25.763  1.00  0.00     0.196 A 
ATOM     25  H   UNL A   1      32.938  19.190  26.945  1.00  0.00     0.167 HD
ENDBRANCH  19  20
ENDBRANCH   6  19
ENDBRANCH   4   6
ENDBRANCH   3   4
ENDBRANCH   2   3
ENDBRANCH   1   2
BRANCH   1  26
ATOM     26  O   UNL A   1      37.495  21.228  25.716  1.00  0.00    -0.374 OA
BRANCH  26  27
ATOM     27  C   UNL A   1      38.108  20.209  24.923  1.00  0.00     0.202 C 
BRANCH  27  28
ATOM     28  C   UNL A   1      39.215  19.460  25.662  1.00  0.00     0.261 C 
BRANCH  28  29
ATOM     29  O   UNL A   1      40.295  20.392  25.853  1.00  0.00    -0.460 OA
BRANCH  29  30
ATOM     30  C   UNL A   1      40.743  20.456  27.124  1.00  0.00     0.338 C 
ATOM     31  O   UNL A   1      41.018  19.526  27.863  1.00  0.00    -0.246 OA
BRANCH  30  32
ATOM     32  C   UNL A   1      41.091  21.860  27.425  1.00  0.00     0.060 A 
ATOM     33  C   UNL A   1      40.535  22.840  26.593  1.00  0.00     0.016 A 
ATOM     34  C   UNL A   1      41.889  22.224  28.515  1.00  0.00     0.016 A 
ATOM     35  C   UNL A   1      40.804  24.183  26.823  1.00  0.00     0.010 A 
ATOM     36  C   UNL A   1      42.164  23.573  28.742  1.00  0.00     0.010 A 
ATOM     37  C   UNL A   1      41.644  24.553  27.879  1.00  0.00    -0.014 A 
BRANCH  37  38
ATOM     38  C   UNL A   1      42.078  25.960  27.997  1.00  0.00     0.031 A 
ATOM     39  C   UNL A   1      43.400  26.357  27.412  1.00  0.00     0.074 A 
ATOM     40  C   UNL A   1      41.284  26.868  28.590  1.00  0.00     0.049 A 
ATOM     41  N   UNL A   1      44.000  27.520  27.427  1.00  0.00    -0.248 NA
ATOM     42  C   UNL A   1      44.151  25.299  26.716  1.00  0.00     0.031 C 
ATOM     43  C   UNL A   1      39.968  26.591  29.161  1.00  0.00     0.029 A 
ATOM     44  N   UNL A   1      41.479  28.206  28.819  1.00  0.00    -0.354 N 
ATOM     45  C   UNL A   1      45.198  27.331  26.753  1.00  0.00     0.074 A 
ATOM     46  C   UNL A   1      45.255  25.940  26.362  1.00  0.00     0.031 C 
ATOM     47  C   UNL A   1      39.477  27.726  29.688  1.00  0.00     0.029 A 
ATOM     48  C   UNL A   1      40.462  28.792  29.529  1.00  0.00     0.049 A 
ATOM     49  H   UNL A   1      42.272  28.698  28.504  1.00  0.00     0.167 HD
ATOM     50  C   UNL A   1      46.159  28.245  26.485  1.00  0.00     0.037 A 
ATOM     51  C   UNL A   1      40.363  30.041  30.025  1.00  0.00     0.037 A 
ATOM     52  C   UNL A   1      46.088  29.626  26.882  1.00  0.00     0.049 A 
ATOM     53  C   UNL A   1      41.485  31.016  29.779  1.00  0.00     0.074 A 
ATOM     54  C   UNL A   1      46.988  30.644  26.625  1.00  0.00     0.029 A 
ATOM     55  N   UNL A   1      45.062  30.178  27.635  1.00  0.00    -0.354 N 
ATOM     56  N   UNL A   1      42.596  30.849  29.102  1.00  0.00    -0.248 NA
ATOM     57  C   UNL A   1      41.343  32.353  30.372  1.00  0.00     0.031 C 
ATOM     58  C   UNL A   1      46.541  31.796  27.278  1.00  0.00     0.029 A 
ATOM     59  C   UNL A   1      45.330  31.513  27.892  1.00  0.00     0.049 A 
ATOM     60  H   UNL A   1      44.262  29.693  27.941  1.00  0.00     0.167 HD
ATOM     61  C   UNL A   1      43.276  32.057  29.174  1.00  0.00     0.074 A 
ATOM     62  C   UNL A   1      42.439  32.959  29.939  1.00  0.00     0.031 C 
ATOM     63  C   UNL A   1      44.486  32.391  28.662  1.00  0.00     0.037 A 
BRANCH  50  64
ATOM     64  C   UNL A   1      47.387  27.775  25.760  1.00  0.00     0.064 A 
ATOM     65  C   UNL A   1      47.446  27.719  24.360  1.00  0.00     0.173 A 
ATOM     66  C   UNL A   1      48.537  27.417  26.480  1.00  0.00     0.173 A 
ATOM     67  F   UNL A   1      46.370  28.037  23.625  1.00  0.00    -0.203 F 
ATOM     68  C   UNL A   1      48.605  27.304  23.708  1.00  0.00     0.198 A 
ATOM     69  C   UNL A   1      49.703  27.032  25.825  1.00  0.00     0.198 A 
ATOM     70  F   UNL A   1      48.534  27.454  27.821  1.00  0.00    -0.203 F 
ATOM     71  F   UNL A   1      48.627  27.219  22.371  1.00  0.00    -0.200 F 
ATOM     72  C   UNL A   1      49.734  26.970  24.441  1.00  0.00     0.200 A 
ATOM     73  F   UNL A   1      50.798  26.723  26.534  1.00  0.00    -0.200 F 
ATOM     74  F   UNL A   1      50.853  26.584  23.812  1.00  0.00    -0.200 F 
ENDBRANCH  50  64
BRANCH  51  75
ATOM     75  C   UNL A   1      39.176  30.427  30.834  1.00  0.00     0.064 A 
ATOM     76  C   UNL A   1      38.064  31.042  30.244  1.00  0.00     0.173 A 
ATOM     77  C   UNL A   1      39.139  30.203  32.219  1.00  0.00     0.173 A 
ATOM     78  F   UNL A   1      38.060  31.301  28.928  1.00  0.00    -0.203 F 
ATOM     79  C   UNL A   1      36.968  31.435  31.011  1.00  0.00     0.198 A 
ATOM     80  C   UNL A   1      38.029  30.564  32.979  1.00  0.00     0.198 A 
ATOM     81  F   UNL A   1      40.179  29.622  32.835  1.00  0.00    -0.203 F 
ATOM     82  F   UNL A   1      35.938  32.066  30.430  1.00  0.00    -0.200 F 
ATOM     83  C   UNL A   1      36.949  31.189  32.376  1.00  0.00     0.200 A 
ATOM     84  F   UNL A   1      38.006  30.308  34.294  1.00  0.00    -0.200 F 
ATOM     85  F   UNL A   1      35.892  31.559  33.112  1.00  0.00    -0.200 F 
ENDBRANCH  51  75
BRANCH  63  86
ATOM     86  C   UNL A   1      44.975  33.790  28.905  1.00  0.00     0.064 A 
ATOM     87  C   UNL A   1      44.633  34.845  28.045  1.00  0.00     0.173 A 
ATOM     88  C   UNL A   1      45.753  34.088  30.034  1.00  0.00     0.173 A 
ATOM     89  F   UNL A   1      43.905  34.610  26.943  1.00  0.00    -0.203 F 
ATOM     90  C   UNL A   1      45.072  36.142  28.296  1.00  0.00     0.198 A 
ATOM     91  C   UNL A   1      46.160  35.392  30.299  1.00  0.00     0.198 A 
ATOM     92  F   UNL A   1      46.101  33.117  30.892  1.00  0.00    -0.203 F 
ATOM     93  F   UNL A   1      44.774  37.125  27.436  1.00  0.00    -0.200 F 
ATOM     94  C   UNL A   1      45.826  36.416  29.427  1.00  0.00     0.200 A 
ATOM     95  F   UNL A   1      46.875  35.658  31.401  1.00  0.00    -0.200 F 
ATOM     96  F   UNL A   1      46.237  37.668  29.672  1.00  0.00    -0.200 F 
ENDBRANCH  63  86
ENDBRANCH  37  38
ENDBRANCH  30  32
ENDBRANCH  29  30
ENDBRANCH  28  29
ENDBRANCH  27  28
ENDBRANCH  26  27
ENDBRANCH   1  26
TORSDOF 19
ENDMDL
MODEL 3
REMARK VINA RESULT:     -10.8      4.814     10.356
REMARK SMILES N#C[C@@H]1CN(C(=O)N[C@@H](Cc2cnc[nH]2)C(=O)OCCOCCOC(=O)c2ccc(-c3c4nc(c(-c5c(F)c(F)c(F)c(F)c5F)c5ccc([nH]5)c(-c5c(F)c(F)c(F)c(F)c5F)c5nc(c(-c6c(F)c(F)c(F)c(F)c6F)c6ccc3[nH]6)C=C5)C=C4)cc2)CCO1
REMARK SMILES IDX 20 1 19 2 18 3 16 4 17 5 9 6 8 7 6 8 7 9 5 11 3 12 4 13
REMARK SMILES IDX 92 14 91 15 90 16 2 17 1 18 10 19 11 20 12 21 15 22 13 23
REMARK SMILES IDX 14 24 21 26 22 27 23 28 24 29 25 30 26 31 27 32 28 33 89 34
REMARK SMILES IDX 29 35 88 36 30 37 31 38 32 39 82 40 33 41 87 42 81 43 83 44
REMARK SMILES IDX 34 45 86 46 80 47 79 48 35 50 67 51 47 52 66 53 48 54 51 55
REMARK SMILES IDX 65 56 84 57 49 58 50 59 64 61 85 62 52 63 36 64 37 65 45 66
REMARK SMILES IDX 38 67 39 68 43 69 46 70 40 71 41 72 44 73 42 74 68 75 69 76
REMARK SMILES IDX 77 77 70 78 71 79 75 80 78 81 72 82 73 83 76 84 74 85 53 86
REMARK SMILES IDX 54 87 62 88 55 89 56 90 60 91 63 92 57 93 58 94 61 95 59 96
REMARK H PARENT 8 10 15 25 83 49 51 60
REMARK Flexibility Score: inf
ROOT
ATOM      1  C   UNL A   1      32.506  30.256  26.872  1.00  0.00     0.202 C 
ENDROOT
BRANCH   1   2
ATOM      2  C   UNL A   1      33.176  29.459  25.745  1.00  0.00     0.261 C 
BRANCH   2   3
ATOM      3  O   UNL A   1      32.222  29.079  24.729  1.00  0.00    -0.462 OA
BRANCH   3   4
ATOM      4  C   UNL A   1      32.678  28.947  23.453  1.00  0.00     0.329 C 
ATOM      5  O   UNL A   1      33.796  29.272  23.068  1.00  0.00    -0.250 OA
BRANCH   4   6
ATOM      6  C   UNL A   1      31.623  28.338  22.506  1.00  0.00     0.199 C 
BRANCH   6   7
ATOM      7  N   UNL A   1      32.049  27.076  21.884  1.00  0.00    -0.324 N 
ATOM      8  C   UNL A   1      32.629  25.940  22.318  1.00  0.00     0.318 C 
ATOM      9  O   UNL A   1      33.096  25.209  21.443  1.00  0.00    -0.249 OA
ATOM     10  H   UNL A   1      31.868  27.058  20.916  1.00  0.00     0.166 HD
BRANCH   8  11
ATOM     11  N   UNL A   1      32.681  25.607  23.636  1.00  0.00    -0.319 N 
ATOM     12  C   UNL A   1      32.006  23.543  24.766  1.00  0.00     0.240 C 
ATOM     13  C   UNL A   1      31.625  24.964  24.416  1.00  0.00     0.169 C 
ATOM     14  O   UNL A   1      33.237  23.549  25.537  1.00  0.00    -0.360 OA
ATOM     15  C   UNL A   1      34.328  24.123  24.792  1.00  0.00     0.183 C 
ATOM     16  C   UNL A   1      33.998  25.547  24.309  1.00  0.00     0.150 C 
BRANCH  12  17
ATOM     17  C   UNL A   1      32.150  22.648  23.546  1.00  0.00     0.096 C 
ATOM     18  N   UNL A   1      32.270  21.905  22.534  1.00  0.00    -0.195 NA
ENDBRANCH  12  17
ENDBRANCH   8  11
ENDBRANCH   6   7
BRANCH   6  19
ATOM     19  C   UNL A   1      30.229  28.245  23.129  1.00  0.00     0.092 C 
BRANCH  19  20
ATOM     20  C   UNL A   1      29.383  29.467  23.072  1.00  0.00     0.037 A 
ATOM     21  C   UNL A   1      28.262  29.829  22.354  1.00  0.00     0.134 A 
ATOM     22  N   UNL A   1      29.691  30.584  23.810  1.00  0.00    -0.348 N 
ATOM     23  N   UNL A   1      27.870  31.102  22.671  1.00  0.00    -0.245 NA
ATOM     24  C   UNL A   1      28.758  31.537  23.532  1.00  0.00     0.196 A 
ATOM     25  H   UNL A   1      30.450  30.679  24.430  1.00  0.00     0.167 HD
ENDBRANCH  19  20
ENDBRANCH   6  19
ENDBRANCH   4   6
ENDBRANCH   3   4
ENDBRANCH   2   3
ENDBRANCH   1   2
BRANCH   1  26
ATOM     26  O   UNL A   1      31.383  31.031  26.463  1.00  0.00    -0.374 OA
BRANCH  26  27
ATOM     27  C   UNL A   1      31.583  32.441  26.579  1.00  0.00     0.202 C 
BRANCH  27  28
ATOM     28  C   UNL A   1      32.498  32.823  27.741  1.00  0.00     0.261 C 
BRANCH  28  29
ATOM     29  O   UNL A   1      32.997  34.144  27.463  1.00  0.00    -0.460 OA
BRANCH  29  30
ATOM     30  C   UNL A   1      33.121  34.923  28.558  1.00  0.00     0.338 C 
ATOM     31  O   UNL A   1      32.362  35.798  28.938  1.00  0.00    -0.246 OA
BRANCH  30  32
ATOM     32  C   UNL A   1      34.220  34.387  29.388  1.00  0.00     0.060 A 
ATOM     33  C   UNL A   1      35.512  34.469  28.854  1.00  0.00     0.016 A 
ATOM     34  C   UNL A   1      34.015  33.870  30.672  1.00  0.00     0.016 A 
ATOM     35  C   UNL A   1      36.598  34.001  29.582  1.00  0.00     0.010 A 
ATOM     36  C   UNL A   1      35.105  33.394  31.401  1.00  0.00     0.010 A 
ATOM     37  C   UNL A   1      36.395  33.433  30.846  1.00  0.00    -0.014 A 
BRANCH  37  38
ATOM     38  C   UNL A   1      37.523  32.766  31.526  1.00  0.00     0.031 A 
ATOM     39  C   UNL A   1      38.172  31.589  30.859  1.00  0.00     0.074 A 
ATOM     40  C   UNL A   1      37.976  33.227  32.704  1.00  0.00     0.049 A 
ATOM     41  N   UNL A   1      39.148  30.828  31.282  1.00  0.00    -0.248 NA
ATOM     42  C   UNL A   1      37.648  31.219  29.534  1.00  0.00     0.031 C 
ATOM     43  C   UNL A   1      37.436  34.382  33.419  1.00  0.00     0.029 A 
ATOM     44  N   UNL A   1      38.987  32.770  33.510  1.00  0.00    -0.354 N 
ATOM     45  C   UNL A   1      39.348  29.886  30.282  1.00  0.00     0.074 A 
ATOM     46  C   UNL A   1      38.379  30.153  29.243  1.00  0.00     0.031 C 
ATOM     47  C   UNL A   1      38.116  34.536  34.568  1.00  0.00     0.029 A 
ATOM     48  C   UNL A   1      39.104  33.466  34.686  1.00  0.00     0.049 A 
ATOM     49  H   UNL A   1      39.570  32.015  33.269  1.00  0.00     0.167 HD
ATOM     50  C   UNL A   1      40.264  28.892  30.242  1.00  0.00     0.037 A 
ATOM     51  C   UNL A   1      39.896  33.236  35.752  1.00  0.00     0.037 A 
ATOM     52  C   UNL A   1      41.222  28.639  31.286  1.00  0.00     0.049 A 
ATOM     53  C   UNL A   1      40.853  32.072  35.712  1.00  0.00     0.074 A 
ATOM     54  C   UNL A   1      42.220  27.683  31.326  1.00  0.00     0.029 A 
ATOM     55  N   UNL A   1      41.287  29.339  32.482  1.00  0.00    -0.354 N 
ATOM     56  N   UNL A   1      41.073  31.212  34.747  1.00  0.00    -0.248 NA
ATOM     57  C   UNL A   1      41.668  31.844  36.913  1.00  0.00     0.031 C 
ATOM     58  C   UNL A   1      42.847  27.760  32.574  1.00  0.00     0.029 A 
ATOM     59  C   UNL A   1      42.280  28.805  33.288  1.00  0.00     0.049 A 
ATOM     60  H   UNL A   1      40.713  30.101  32.723  1.00  0.00     0.167 HD
ATOM     61  C   UNL A   1      42.057  30.352  35.216  1.00  0.00     0.074 A 
ATOM     62  C   UNL A   1      42.412  30.812  36.543  1.00  0.00     0.031 C 
ATOM     63  C   UNL A   1      42.613  29.275  34.609  1.00  0.00     0.037 A 
BRANCH  50  64
ATOM     64  C   UNL A   1      40.253  27.980  29.050  1.00  0.00     0.064 A 
ATOM     65  C   UNL A   1      40.974  28.274  27.884  1.00  0.00     0.173 A 
ATOM     66  C   UNL A   1      39.543  26.770  29.095  1.00  0.00     0.173 A 
ATOM     67  F   UNL A   1      41.658  29.424  27.785  1.00  0.00    -0.203 F 
ATOM     68  C   UNL A   1      40.970  27.400  26.799  1.00  0.00     0.198 A 
ATOM     69  C   UNL A   1      39.566  25.884  28.021  1.00  0.00     0.198 A 
ATOM     70  F   UNL A   1      38.838  26.440  30.188  1.00  0.00    -0.203 F 
ATOM     71  F   UNL A   1      41.633  27.720  25.680  1.00  0.00    -0.200 F 
ATOM     72  C   UNL A   1      40.274  26.203  26.873  1.00  0.00     0.200 A 
ATOM     73  F   UNL A   1      38.903  24.722  28.100  1.00  0.00    -0.200 F 
ATOM     74  F   UNL A   1      40.281  25.356  25.834  1.00  0.00    -0.200 F 
ENDBRANCH  50  64
BRANCH  51  75
ATOM     75  C   UNL A   1      39.791  34.101  36.956  1.00  0.00     0.064 A 
ATOM     76  C   UNL A   1      38.988  33.736  38.045  1.00  0.00     0.173 A 
ATOM     77  C   UNL A   1      40.479  35.322  37.036  1.00  0.00     0.173 A 
ATOM     78  F   UNL A   1      38.289  32.592  38.008  1.00  0.00    -0.203 F 
ATOM     79  C   UNL A   1      38.862  34.566  39.158  1.00  0.00     0.198 A 
ATOM     80  C   UNL A   1      40.382  36.134  38.162  1.00  0.00     0.198 A 
ATOM     81  F   UNL A   1      41.258  35.722  36.020  1.00  0.00    -0.203 F 
ATOM     82  F   UNL A   1      38.048  34.217  40.163  1.00  0.00    -0.200 F 
ATOM     83  C   UNL A   1      39.565  35.761  39.218  1.00  0.00     0.200 A 
ATOM     84  F   UNL A   1      41.076  37.278  38.225  1.00  0.00    -0.200 F 
ATOM     85  F   UNL A   1      39.451  36.555  40.292  1.00  0.00    -0.200 F 
ENDBRANCH  51  75
BRANCH  63  86
ATOM     86  C   UNL A   1      43.668  28.523  35.370  1.00  0.00     0.064 A 
ATOM     87  C   UNL A   1      45.031  28.815  35.214  1.00  0.00     0.173 A 
ATOM     88  C   UNL A   1      43.310  27.535  36.299  1.00  0.00     0.173 A 
ATOM     89  F   UNL A   1      45.427  29.740  34.326  1.00  0.00    -0.203 F 
ATOM     90  C   UNL A   1      45.997  28.129  35.944  1.00  0.00     0.198 A 
ATOM     91  C   UNL A   1      44.277  26.876  37.052  1.00  0.00     0.198 A 
ATOM     92  F   UNL A   1      42.019  27.222  36.492  1.00  0.00    -0.203 F 
ATOM     93  F   UNL A   1      47.296  28.391  35.743  1.00  0.00    -0.200 F 
ATOM     94  C   UNL A   1      45.620  27.168  36.869  1.00  0.00     0.200 A 
ATOM     95  F   UNL A   1      43.909  25.958  37.957  1.00  0.00    -0.200 F 
ATOM     96  F   UNL A   1      46.551  26.517  37.579  1.00  0.00    -0.200 F 
ENDBRANCH  63  86
ENDBRANCH  37  38
ENDBRANCH  30  32
ENDBRANCH  29  30
ENDBRANCH  28  29
ENDBRANCH  27  28
ENDBRANCH  26  27
ENDBRANCH   1  26
TORSDOF 19
ENDMDL
