MODEL 1
REMARK VINA RESULT:     -11.4      0.000      0.000
REMARK SMILES CN(CC(=O)OCCOCCOC(=O)c1ccc(-c2c3nc(c(-c4c(F)c(F)c(F)c(F)c4F)c4ccc([nH]4)c(-c4c(F)c(F)c(F)c(F)c4F)c4nc(c(-c5c(F)c(F)c(F)c(F)c5F)c5ccc2[nH]5)C=C4)C=C3)cc1)C(=O)N[C@@H]1C[C@H]1c1ccccc1
REMARK SMILES IDX 8 1 7 2 6 3 4 4 5 5 3 6 2 7 1 8 78 9 79 10 80 11 81 13 82 14
REMARK SMILES IDX 83 15 84 16 85 17 89 18 86 19 88 20 87 21 9 22 10 23 11 24
REMARK SMILES IDX 12 25 13 26 14 27 15 28 16 29 77 30 17 31 76 32 18 33 19 34
REMARK SMILES IDX 20 35 70 36 21 37 75 38 69 39 71 40 22 41 74 42 68 43 67 44
REMARK SMILES IDX 23 46 55 47 35 48 54 49 36 50 39 51 53 52 72 53 37 54 38 55
REMARK SMILES IDX 52 57 73 58 40 59 24 60 25 61 33 62 26 63 27 64 31 65 34 66
REMARK SMILES IDX 28 67 29 68 32 69 30 70 56 71 57 72 65 73 58 74 59 75 63 76
REMARK SMILES IDX 66 77 60 78 61 79 64 80 62 81 41 82 42 83 50 84 43 85 44 86
REMARK SMILES IDX 48 87 51 88 45 89 46 90 49 91 47 92
REMARK H PARENT 80 12 71 45 39 56
REMARK Flexibility Score: inf
ROOT
ATOM      1  C   UNL A   1      30.629  28.968  22.951  1.00  0.00     0.202 C 
ENDROOT
BRANCH   1   2
ATOM      2  C   UNL A   1      31.040  27.493  22.874  1.00  0.00     0.261 C 
BRANCH   2   3
ATOM      3  O   UNL A   1      32.349  27.325  22.299  1.00  0.00    -0.462 OA
BRANCH   3   4
ATOM      4  C   UNL A   1      32.569  26.074  21.820  1.00  0.00     0.325 C 
ATOM      5  O   UNL A   1      33.206  25.852  20.793  1.00  0.00    -0.250 OA
BRANCH   4   6
ATOM      6  C   UNL A   1      32.092  24.952  22.751  1.00  0.00     0.243 C 
BRANCH   6   7
ATOM      7  N   UNL A   1      32.970  24.291  23.718  1.00  0.00    -0.317 N 
ATOM      8  C   UNL A   1      32.627  24.563  25.109  1.00  0.00     0.149 C 
BRANCH   7   9
ATOM      9  C   UNL A   1      34.088  23.531  23.507  1.00  0.00     0.317 C 
ATOM     10  O   UNL A   1      35.174  24.062  23.235  1.00  0.00    -0.249 OA
ATOM     11  N   UNL A   1      34.127  22.175  23.540  1.00  0.00    -0.335 N 
ATOM     12  H   UNL A   1      34.894  21.807  23.045  1.00  0.00     0.165 HD
BRANCH  11  13
ATOM     13  C   UNL A   1      33.316  21.157  24.121  1.00  0.00     0.092 C 
ATOM     14  C   UNL A   1      32.991  21.134  25.600  1.00  0.00     0.036 C 
ATOM     15  C   UNL A   1      33.843  20.058  25.023  1.00  0.00     0.044 C 
BRANCH  15  16
ATOM     16  C   UNL A   1      33.428  18.629  24.727  1.00  0.00    -0.043 A 
ATOM     17  C   UNL A   1      32.640  17.939  25.662  1.00  0.00     0.004 A 
ATOM     18  C   UNL A   1      34.027  17.860  23.707  1.00  0.00     0.004 A 
ATOM     19  C   UNL A   1      32.587  16.543  25.670  1.00  0.00     0.000 A 
ATOM     20  C   UNL A   1      34.003  16.466  23.729  1.00  0.00     0.000 A 
ATOM     21  C   UNL A   1      33.305  15.808  24.731  1.00  0.00     0.000 A 
ENDBRANCH  15  16
ENDBRANCH  11  13
ENDBRANCH   7   9
ENDBRANCH   6   7
ENDBRANCH   4   6
ENDBRANCH   3   4
ENDBRANCH   2   3
ENDBRANCH   1   2
BRANCH   1  22
ATOM     22  O   UNL A   1      30.541  29.593  24.231  1.00  0.00    -0.374 OA
BRANCH  22  23
ATOM     23  C   UNL A   1      31.738  29.708  24.993  1.00  0.00     0.202 C 
BRANCH  23  24
ATOM     24  C   UNL A   1      31.821  30.717  26.140  1.00  0.00     0.261 C 
BRANCH  24  25
ATOM     25  O   UNL A   1      32.972  30.532  26.958  1.00  0.00    -0.460 OA
BRANCH  25  26
ATOM     26  C   UNL A   1      33.540  31.687  27.377  1.00  0.00     0.338 C 
ATOM     27  O   UNL A   1      33.041  32.788  27.461  1.00  0.00    -0.246 OA
BRANCH  26  28
ATOM     28  C   UNL A   1      34.843  31.328  27.955  1.00  0.00     0.060 A 
ATOM     29  C   UNL A   1      35.036  29.991  28.328  1.00  0.00     0.016 A 
ATOM     30  C   UNL A   1      35.866  32.272  28.059  1.00  0.00     0.016 A 
ATOM     31  C   UNL A   1      36.262  29.594  28.837  1.00  0.00     0.010 A 
ATOM     32  C   UNL A   1      37.087  31.881  28.591  1.00  0.00     0.010 A 
ATOM     33  C   UNL A   1      37.268  30.551  29.009  1.00  0.00    -0.014 A 
BRANCH  33  34
ATOM     34  C   UNL A   1      38.427  30.221  29.849  1.00  0.00     0.031 A 
ATOM     35  C   UNL A   1      39.407  29.230  29.297  1.00  0.00     0.074 A 
ATOM     36  C   UNL A   1      38.583  30.799  31.049  1.00  0.00     0.049 A 
ATOM     37  N   UNL A   1      40.452  28.692  29.864  1.00  0.00    -0.248 NA
ATOM     38  C   UNL A   1      39.168  28.773  27.915  1.00  0.00     0.031 C 
ATOM     39  C   UNL A   1      37.687  31.799  31.626  1.00  0.00     0.029 A 
ATOM     40  N   UNL A   1      39.544  30.610  32.003  1.00  0.00    -0.354 N 
ATOM     41  C   UNL A   1      40.991  27.840  28.910  1.00  0.00     0.074 A 
ATOM     42  C   UNL A   1      40.138  27.891  27.746  1.00  0.00     0.031 C 
ATOM     43  C   UNL A   1      38.127  32.116  32.856  1.00  0.00     0.029 A 
ATOM     44  C   UNL A   1      39.309  31.314  33.158  1.00  0.00     0.049 A 
ATOM     45  H   UNL A   1      40.327  30.027  31.876  1.00  0.00     0.167 HD
ATOM     46  C   UNL A   1      42.116  27.096  29.003  1.00  0.00     0.037 A 
ATOM     47  C   UNL A   1      39.965  31.270  34.331  1.00  0.00     0.037 A 
ATOM     48  C   UNL A   1      42.933  27.058  30.183  1.00  0.00     0.049 A 
ATOM     49  C   UNL A   1      41.164  30.360  34.440  1.00  0.00     0.074 A 
ATOM     50  C   UNL A   1      44.090  26.339  30.412  1.00  0.00     0.029 A 
ATOM     51  N   UNL A   1      42.663  27.774  31.343  1.00  0.00    -0.354 N 
ATOM     52  N   UNL A   1      41.691  29.572  33.531  1.00  0.00    -0.248 NA
ATOM     53  C   UNL A   1      41.861  30.332  35.731  1.00  0.00     0.031 C 
ATOM     54  C   UNL A   1      44.492  26.582  31.729  1.00  0.00     0.029 A 
ATOM     55  C   UNL A   1      43.620  27.497  32.301  1.00  0.00     0.049 A 
ATOM     56  H   UNL A   1      41.904  28.389  31.464  1.00  0.00     0.167 HD
ATOM     57  C   UNL A   1      42.792  28.975  34.130  1.00  0.00     0.074 A 
ATOM     58  C   UNL A   1      42.868  29.510  35.475  1.00  0.00     0.031 C 
ATOM     59  C   UNL A   1      43.661  28.065  33.626  1.00  0.00     0.037 A 
BRANCH  46  60
ATOM     60  C   UNL A   1      42.504  26.270  27.814  1.00  0.00     0.064 A 
ATOM     61  C   UNL A   1      43.436  26.730  26.870  1.00  0.00     0.173 A 
ATOM     62  C   UNL A   1      41.957  24.992  27.624  1.00  0.00     0.173 A 
ATOM     63  F   UNL A   1      43.971  27.954  26.992  1.00  0.00    -0.203 F 
ATOM     64  C   UNL A   1      43.790  25.952  25.772  1.00  0.00     0.198 A 
ATOM     65  C   UNL A   1      42.337  24.204  26.540  1.00  0.00     0.198 A 
ATOM     66  F   UNL A   1      41.057  24.505  28.491  1.00  0.00    -0.203 F 
ATOM     67  F   UNL A   1      44.645  26.433  24.859  1.00  0.00    -0.200 F 
ATOM     68  C   UNL A   1      43.247  24.685  25.612  1.00  0.00     0.200 A 
ATOM     69  F   UNL A   1      41.818  22.976  26.393  1.00  0.00    -0.200 F 
ATOM     70  F   UNL A   1      43.597  23.932  24.561  1.00  0.00    -0.200 F 
ENDBRANCH  46  60
BRANCH  47  71
ATOM     71  C   UNL A   1      39.489  32.069  35.491  1.00  0.00     0.064 A 
ATOM     72  C   UNL A   1      39.974  33.360  35.735  1.00  0.00     0.173 A 
ATOM     73  C   UNL A   1      38.552  31.547  36.398  1.00  0.00     0.173 A 
ATOM     74  F   UNL A   1      40.882  33.900  34.910  1.00  0.00    -0.203 F 
ATOM     75  C   UNL A   1      39.570  34.084  36.856  1.00  0.00     0.198 A 
ATOM     76  C   UNL A   1      38.121  32.285  37.499  1.00  0.00     0.198 A 
ATOM     77  F   UNL A   1      38.049  30.317  36.213  1.00  0.00    -0.203 F 
ATOM     78  F   UNL A   1      40.097  35.293  37.096  1.00  0.00    -0.200 F 
ATOM     79  C   UNL A   1      38.640  33.548  37.733  1.00  0.00     0.200 A 
ATOM     80  F   UNL A   1      37.210  31.768  38.334  1.00  0.00    -0.200 F 
ATOM     81  F   UNL A   1      38.253  34.243  38.812  1.00  0.00    -0.200 F 
ENDBRANCH  47  71
BRANCH  59  82
ATOM     82  C   UNL A   1      44.777  27.616  34.520  1.00  0.00     0.064 A 
ATOM     83  C   UNL A   1      44.657  26.474  35.325  1.00  0.00     0.173 A 
ATOM     84  C   UNL A   1      46.004  28.296  34.517  1.00  0.00     0.173 A 
ATOM     85  F   UNL A   1      43.498  25.799  35.371  1.00  0.00    -0.203 F 
ATOM     86  C   UNL A   1      45.720  26.043  36.111  1.00  0.00     0.198 A 
ATOM     87  C   UNL A   1      47.076  27.840  35.275  1.00  0.00     0.198 A 
ATOM     88  F   UNL A   1      46.170  29.388  33.754  1.00  0.00    -0.203 F 
ATOM     89  F   UNL A   1      45.571  24.974  36.907  1.00  0.00    -0.200 F 
ATOM     90  C   UNL A   1      46.931  26.718  36.077  1.00  0.00     0.200 A 
ATOM     91  F   UNL A   1      48.251  28.482  35.226  1.00  0.00    -0.200 F 
ATOM     92  F   UNL A   1      47.960  26.288  36.820  1.00  0.00    -0.200 F 
ENDBRANCH  59  82
ENDBRANCH  33  34
ENDBRANCH  26  28
ENDBRANCH  25  26
ENDBRANCH  24  25
ENDBRANCH  23  24
ENDBRANCH  22  23
ENDBRANCH   1  22
TORSDOF 18
ENDMDL
MODEL 2
REMARK VINA RESULT:     -11.3      4.734      9.983
REMARK SMILES CN(CC(=O)OCCOCCOC(=O)c1ccc(-c2c3nc(c(-c4c(F)c(F)c(F)c(F)c4F)c4ccc([nH]4)c(-c4c(F)c(F)c(F)c(F)c4F)c4nc(c(-c5c(F)c(F)c(F)c(F)c5F)c5ccc2[nH]5)C=C4)C=C3)cc1)C(=O)N[C@@H]1C[C@H]1c1ccccc1
REMARK SMILES IDX 8 1 7 2 6 3 4 4 5 5 3 6 2 7 1 8 78 9 79 10 80 11 81 13 82 14
REMARK SMILES IDX 83 15 84 16 85 17 89 18 86 19 88 20 87 21 9 22 10 23 11 24
REMARK SMILES IDX 12 25 13 26 14 27 15 28 16 29 77 30 17 31 76 32 18 33 19 34
REMARK SMILES IDX 20 35 70 36 21 37 75 38 69 39 71 40 22 41 74 42 68 43 67 44
REMARK SMILES IDX 23 46 55 47 35 48 54 49 36 50 39 51 53 52 72 53 37 54 38 55
REMARK SMILES IDX 52 57 73 58 40 59 24 60 25 61 33 62 26 63 27 64 31 65 34 66
REMARK SMILES IDX 28 67 29 68 32 69 30 70 56 71 57 72 65 73 58 74 59 75 63 76
REMARK SMILES IDX 66 77 60 78 61 79 64 80 62 81 41 82 42 83 50 84 43 85 44 86
REMARK SMILES IDX 48 87 51 88 45 89 46 90 49 91 47 92
REMARK H PARENT 80 12 71 45 39 56
REMARK Flexibility Score: inf
ROOT
ATOM      1  C   UNL A   1      37.830  21.687  25.509  1.00  0.00     0.202 C 
ENDROOT
BRANCH   1   2
ATOM      2  C   UNL A   1      36.525  22.326  25.996  1.00  0.00     0.261 C 
BRANCH   2   3
ATOM      3  O   UNL A   1      36.423  23.710  25.614  1.00  0.00    -0.462 OA
BRANCH   3   4
ATOM      4  C   UNL A   1      35.297  23.994  24.911  1.00  0.00     0.325 C 
ATOM      5  O   UNL A   1      35.142  23.672  23.735  1.00  0.00    -0.250 OA
BRANCH   4   6
ATOM      6  C   UNL A   1      34.171  24.611  25.750  1.00  0.00     0.243 C 
BRANCH   6   7
ATOM      7  N   UNL A   1      32.831  24.030  25.837  1.00  0.00    -0.317 N 
ATOM      8  C   UNL A   1      31.855  24.659  24.955  1.00  0.00     0.149 C 
BRANCH   7   9
ATOM      9  C   UNL A   1      32.355  23.049  26.665  1.00  0.00     0.317 C 
ATOM     10  O   UNL A   1      31.623  23.330  27.624  1.00  0.00    -0.249 OA
ATOM     11  N   UNL A   1      32.642  21.727  26.553  1.00  0.00    -0.335 N 
ATOM     12  H   UNL A   1      32.506  21.239  27.397  1.00  0.00     0.165 HD
BRANCH  11  13
ATOM     13  C   UNL A   1      33.095  20.880  25.501  1.00  0.00     0.092 C 
ATOM     14  C   UNL A   1      32.790  21.169  24.046  1.00  0.00     0.036 C 
ATOM     15  C   UNL A   1      32.194  19.967  24.692  1.00  0.00     0.044 C 
BRANCH  15  16
ATOM     16  C   UNL A   1      32.623  18.524  24.500  1.00  0.00    -0.043 A 
ATOM     17  C   UNL A   1      32.711  17.683  25.621  1.00  0.00     0.004 A 
ATOM     18  C   UNL A   1      33.216  18.060  23.307  1.00  0.00     0.004 A 
ATOM     19  C   UNL A   1      33.486  16.521  25.592  1.00  0.00     0.000 A 
ATOM     20  C   UNL A   1      34.015  16.918  23.281  1.00  0.00     0.000 A 
ATOM     21  C   UNL A   1      34.172  16.164  24.435  1.00  0.00     0.000 A 
ENDBRANCH  15  16
ENDBRANCH  11  13
ENDBRANCH   7   9
ENDBRANCH   6   7
ENDBRANCH   4   6
ENDBRANCH   3   4
ENDBRANCH   2   3
ENDBRANCH   1   2
BRANCH   1  22
ATOM     22  O   UNL A   1      37.769  20.455  24.793  1.00  0.00    -0.374 OA
BRANCH  22  23
ATOM     23  C   UNL A   1      38.537  19.363  25.291  1.00  0.00     0.202 C 
BRANCH  23  24
ATOM     24  C   UNL A   1      39.830  19.627  26.064  1.00  0.00     0.261 C 
BRANCH  24  25
ATOM     25  O   UNL A   1      40.995  19.237  25.344  1.00  0.00    -0.460 OA
BRANCH  25  26
ATOM     26  C   UNL A   1      42.128  19.243  26.085  1.00  0.00     0.338 C 
ATOM     27  O   UNL A   1      42.917  18.342  26.267  1.00  0.00    -0.246 OA
BRANCH  26  28
ATOM     28  C   UNL A   1      42.377  20.642  26.460  1.00  0.00     0.060 A 
ATOM     29  C   UNL A   1      42.542  21.568  25.421  1.00  0.00     0.016 A 
ATOM     30  C   UNL A   1      42.378  21.036  27.799  1.00  0.00     0.016 A 
ATOM     31  C   UNL A   1      42.735  22.906  25.724  1.00  0.00     0.010 A 
ATOM     32  C   UNL A   1      42.595  22.373  28.103  1.00  0.00     0.010 A 
ATOM     33  C   UNL A   1      42.807  23.296  27.065  1.00  0.00    -0.014 A 
BRANCH  33  34
ATOM     34  C   UNL A   1      43.343  24.624  27.392  1.00  0.00     0.031 A 
ATOM     35  C   UNL A   1      42.381  25.629  27.947  1.00  0.00     0.074 A 
ATOM     36  C   UNL A   1      44.642  24.898  27.199  1.00  0.00     0.049 A 
ATOM     37  N   UNL A   1      42.566  26.891  28.223  1.00  0.00    -0.248 NA
ATOM     38  C   UNL A   1      41.014  25.146  28.219  1.00  0.00     0.031 C 
ATOM     39  C   UNL A   1      45.638  23.953  26.697  1.00  0.00     0.029 A 
ATOM     40  N   UNL A   1      45.337  26.061  27.385  1.00  0.00    -0.354 N 
ATOM     41  C   UNL A   1      41.345  27.346  28.702  1.00  0.00     0.074 A 
ATOM     42  C   UNL A   1      40.411  26.247  28.634  1.00  0.00     0.031 C 
ATOM     43  C   UNL A   1      46.819  24.586  26.587  1.00  0.00     0.029 A 
ATOM     44  C   UNL A   1      46.646  25.983  26.974  1.00  0.00     0.049 A 
ATOM     45  H   UNL A   1      44.941  26.873  27.774  1.00  0.00     0.167 HD
ATOM     46  C   UNL A   1      41.044  28.578  29.171  1.00  0.00     0.037 A 
ATOM     47  C   UNL A   1      47.571  26.955  26.891  1.00  0.00     0.037 A 
ATOM     48  C   UNL A   1      41.995  29.653  29.209  1.00  0.00     0.049 A 
ATOM     49  C   UNL A   1      47.183  28.345  27.335  1.00  0.00     0.074 A 
ATOM     50  C   UNL A   1      41.817  30.950  29.649  1.00  0.00     0.029 A 
ATOM     51  N   UNL A   1      43.311  29.548  28.776  1.00  0.00    -0.354 N 
ATOM     52  N   UNL A   1      46.037  28.772  27.810  1.00  0.00    -0.248 NA
ATOM     53  C   UNL A   1      48.214  29.385  27.234  1.00  0.00     0.031 C 
ATOM     54  C   UNL A   1      43.012  31.643  29.436  1.00  0.00     0.029 A 
ATOM     55  C   UNL A   1      43.952  30.764  28.916  1.00  0.00     0.049 A 
ATOM     56  H   UNL A   1      43.725  28.728  28.421  1.00  0.00     0.167 HD
ATOM     57  C   UNL A   1      46.213  30.120  28.087  1.00  0.00     0.074 A 
ATOM     58  C   UNL A   1      47.586  30.434  27.745  1.00  0.00     0.031 C 
ATOM     59  C   UNL A   1      45.327  31.025  28.573  1.00  0.00     0.037 A 
BRANCH  46  60
ATOM     60  C   UNL A   1      39.646  28.815  29.657  1.00  0.00     0.064 A 
ATOM     61  C   UNL A   1      39.273  28.547  30.985  1.00  0.00     0.173 A 
ATOM     62  C   UNL A   1      38.670  29.338  28.796  1.00  0.00     0.173 A 
ATOM     63  F   UNL A   1      40.162  28.025  31.843  1.00  0.00    -0.203 F 
ATOM     64  C   UNL A   1      37.973  28.774  31.425  1.00  0.00     0.198 A 
ATOM     65  C   UNL A   1      37.377  29.593  29.249  1.00  0.00     0.198 A 
ATOM     66  F   UNL A   1      38.969  29.605  27.517  1.00  0.00    -0.203 F 
ATOM     67  F   UNL A   1      37.628  28.466  32.683  1.00  0.00    -0.200 F 
ATOM     68  C   UNL A   1      37.028  29.306  30.559  1.00  0.00     0.200 A 
ATOM     69  F   UNL A   1      36.469  30.115  28.413  1.00  0.00    -0.200 F 
ATOM     70  F   UNL A   1      35.779  29.536  30.987  1.00  0.00    -0.200 F 
ENDBRANCH  46  60
BRANCH  47  71
ATOM     71  C   UNL A   1      48.921  26.664  26.339  1.00  0.00     0.064 A 
ATOM     72  C   UNL A   1      49.246  26.971  25.011  1.00  0.00     0.173 A 
ATOM     73  C   UNL A   1      49.910  26.049  27.122  1.00  0.00     0.173 A 
ATOM     74  F   UNL A   1      48.333  27.545  24.214  1.00  0.00    -0.203 F 
ATOM     75  C   UNL A   1      50.492  26.645  24.478  1.00  0.00     0.198 A 
ATOM     76  C   UNL A   1      51.168  25.754  26.600  1.00  0.00     0.198 A 
ATOM     77  F   UNL A   1      49.657  25.736  28.402  1.00  0.00    -0.203 F 
ATOM     78  F   UNL A   1      50.753  26.895  23.188  1.00  0.00    -0.200 F 
ATOM     79  C   UNL A   1      51.454  26.041  25.275  1.00  0.00     0.200 A 
ATOM     80  F   UNL A   1      52.098  25.187  27.379  1.00  0.00    -0.200 F 
ATOM     81  F   UNL A   1      52.651  25.725  24.761  1.00  0.00    -0.200 F 
ENDBRANCH  47  71
BRANCH  59  82
ATOM     82  C   UNL A   1      45.825  32.423  28.788  1.00  0.00     0.064 A 
ATOM     83  C   UNL A   1      46.429  32.808  29.993  1.00  0.00     0.173 A 
ATOM     84  C   UNL A   1      45.761  33.364  27.750  1.00  0.00     0.173 A 
ATOM     85  F   UNL A   1      46.501  31.946  31.018  1.00  0.00    -0.203 F 
ATOM     86  C   UNL A   1      46.931  34.094  30.158  1.00  0.00     0.198 A 
ATOM     87  C   UNL A   1      46.297  34.637  27.906  1.00  0.00     0.198 A 
ATOM     88  F   UNL A   1      45.202  33.038  26.574  1.00  0.00    -0.203 F 
ATOM     89  F   UNL A   1      47.465  34.457  31.333  1.00  0.00    -0.200 F 
ATOM     90  C   UNL A   1      46.876  35.004  29.112  1.00  0.00     0.200 A 
ATOM     91  F   UNL A   1      46.260  35.508  26.888  1.00  0.00    -0.200 F 
ATOM     92  F   UNL A   1      47.378  36.236  29.267  1.00  0.00    -0.200 F 
ENDBRANCH  59  82
ENDBRANCH  33  34
ENDBRANCH  26  28
ENDBRANCH  25  26
ENDBRANCH  24  25
ENDBRANCH  23  24
ENDBRANCH  22  23
ENDBRANCH   1  22
TORSDOF 18
ENDMDL
MODEL 3
REMARK VINA RESULT:     -11.3      3.202      8.414
REMARK SMILES CN(CC(=O)OCCOCCOC(=O)c1ccc(-c2c3nc(c(-c4c(F)c(F)c(F)c(F)c4F)c4ccc([nH]4)c(-c4c(F)c(F)c(F)c(F)c4F)c4nc(c(-c5c(F)c(F)c(F)c(F)c5F)c5ccc2[nH]5)C=C4)C=C3)cc1)C(=O)N[C@@H]1C[C@H]1c1ccccc1
REMARK SMILES IDX 8 1 7 2 6 3 4 4 5 5 3 6 2 7 1 8 78 9 79 10 80 11 81 13 82 14
REMARK SMILES IDX 83 15 84 16 85 17 89 18 86 19 88 20 87 21 9 22 10 23 11 24
REMARK SMILES IDX 12 25 13 26 14 27 15 28 16 29 77 30 17 31 76 32 18 33 19 34
REMARK SMILES IDX 20 35 70 36 21 37 75 38 69 39 71 40 22 41 74 42 68 43 67 44
REMARK SMILES IDX 23 46 55 47 35 48 54 49 36 50 39 51 53 52 72 53 37 54 38 55
REMARK SMILES IDX 52 57 73 58 40 59 24 60 25 61 33 62 26 63 27 64 31 65 34 66
REMARK SMILES IDX 28 67 29 68 32 69 30 70 56 71 57 72 65 73 58 74 59 75 63 76
REMARK SMILES IDX 66 77 60 78 61 79 64 80 62 81 41 82 42 83 50 84 43 85 44 86
REMARK SMILES IDX 48 87 51 88 45 89 46 90 49 91 47 92
REMARK H PARENT 80 12 71 45 39 56
REMARK Flexibility Score: inf
ROOT
ATOM      1  C   UNL A   1      39.826  20.960  26.135  1.00  0.00     0.202 C 
ENDROOT
BRANCH   1   2
ATOM      2  C   UNL A   1      38.904  22.181  26.048  1.00  0.00     0.261 C 
BRANCH   2   3
ATOM      3  O   UNL A   1      37.804  21.966  25.145  1.00  0.00    -0.462 OA
BRANCH   3   4
ATOM      4  C   UNL A   1      36.774  22.829  25.337  1.00  0.00     0.325 C 
ATOM      5  O   UNL A   1      36.867  23.843  26.025  1.00  0.00    -0.250 OA
BRANCH   4   6
ATOM      6  C   UNL A   1      35.529  22.518  24.496  1.00  0.00     0.243 C 
BRANCH   6   7
ATOM      7  N   UNL A   1      34.292  21.985  25.070  1.00  0.00    -0.317 N 
ATOM      8  C   UNL A   1      34.447  21.452  26.418  1.00  0.00     0.149 C 
BRANCH   7   9
ATOM      9  C   UNL A   1      33.053  21.852  24.505  1.00  0.00     0.317 C 
ATOM     10  O   UNL A   1      32.763  20.846  23.842  1.00  0.00    -0.249 OA
ATOM     11  N   UNL A   1      32.060  22.775  24.576  1.00  0.00    -0.335 N 
ATOM     12  H   UNL A   1      31.398  22.673  23.855  1.00  0.00     0.165 HD
BRANCH  11  13
ATOM     13  C   UNL A   1      31.751  23.858  25.448  1.00  0.00     0.092 C 
ATOM     14  C   UNL A   1      30.694  23.746  26.527  1.00  0.00     0.036 C 
ATOM     15  C   UNL A   1      30.473  24.671  25.381  1.00  0.00     0.044 C 
BRANCH  15  16
ATOM     16  C   UNL A   1      30.585  26.184  25.398  1.00  0.00    -0.043 A 
ATOM     17  C   UNL A   1      30.283  26.904  24.231  1.00  0.00     0.004 A 
ATOM     18  C   UNL A   1      31.253  26.885  26.424  1.00  0.00     0.004 A 
ATOM     19  C   UNL A   1      30.763  28.202  24.039  1.00  0.00     0.000 A 
ATOM     20  C   UNL A   1      31.760  28.168  26.226  1.00  0.00     0.000 A 
ATOM     21  C   UNL A   1      31.538  28.815  25.019  1.00  0.00     0.000 A 
ENDBRANCH  15  16
ENDBRANCH  11  13
ENDBRANCH   7   9
ENDBRANCH   6   7
ENDBRANCH   4   6
ENDBRANCH   3   4
ENDBRANCH   2   3
ENDBRANCH   1   2
BRANCH   1  22
ATOM     22  O   UNL A   1      41.022  21.053  26.908  1.00  0.00    -0.374 OA
BRANCH  22  23
ATOM     23  C   UNL A   1      42.234  20.610  26.307  1.00  0.00     0.202 C 
BRANCH  23  24
ATOM     24  C   UNL A   1      43.162  21.616  25.625  1.00  0.00     0.261 C 
BRANCH  24  25
ATOM     25  O   UNL A   1      42.517  22.849  25.326  1.00  0.00    -0.460 OA
BRANCH  25  26
ATOM     26  C   UNL A   1      43.343  23.922  25.344  1.00  0.00     0.338 C 
ATOM     27  O   UNL A   1      44.289  24.159  24.626  1.00  0.00    -0.246 OA
BRANCH  26  28
ATOM     28  C   UNL A   1      42.742  24.899  26.263  1.00  0.00     0.060 A 
ATOM     29  C   UNL A   1      43.274  26.196  26.263  1.00  0.00     0.016 A 
ATOM     30  C   UNL A   1      41.641  24.559  27.051  1.00  0.00     0.016 A 
ATOM     31  C   UNL A   1      42.713  27.164  27.080  1.00  0.00     0.010 A 
ATOM     32  C   UNL A   1      41.094  25.522  27.887  1.00  0.00     0.010 A 
ATOM     33  C   UNL A   1      41.654  26.811  27.923  1.00  0.00    -0.014 A 
BRANCH  33  34
ATOM     34  C   UNL A   1      41.286  27.717  29.019  1.00  0.00     0.031 A 
ATOM     35  C   UNL A   1      42.079  27.612  30.285  1.00  0.00     0.074 A 
ATOM     36  C   UNL A   1      40.284  28.595  28.866  1.00  0.00     0.049 A 
ATOM     37  N   UNL A   1      41.902  28.215  31.429  1.00  0.00    -0.248 NA
ATOM     38  C   UNL A   1      43.228  26.687  30.264  1.00  0.00     0.031 C 
ATOM     39  C   UNL A   1      39.498  28.774  27.645  1.00  0.00     0.029 A 
ATOM     40  N   UNL A   1      39.746  29.487  29.752  1.00  0.00    -0.354 N 
ATOM     41  C   UNL A   1      42.914  27.746  32.254  1.00  0.00     0.074 A 
ATOM     42  C   UNL A   1      43.674  26.773  31.505  1.00  0.00     0.031 C 
ATOM     43  C   UNL A   1      38.553  29.704  27.872  1.00  0.00     0.029 A 
ATOM     44  C   UNL A   1      38.650  30.151  29.258  1.00  0.00     0.049 A 
ATOM     45  H   UNL A   1      40.109  29.640  30.654  1.00  0.00     0.167 HD
ATOM     46  C   UNL A   1      43.187  28.117  33.525  1.00  0.00     0.037 A 
ATOM     47  C   UNL A   1      37.808  30.991  29.886  1.00  0.00     0.037 A 
ATOM     48  C   UNL A   1      42.400  29.078  34.246  1.00  0.00     0.049 A 
ATOM     49  C   UNL A   1      38.081  31.318  31.334  1.00  0.00     0.074 A 
ATOM     50  C   UNL A   1      42.562  29.533  35.539  1.00  0.00     0.029 A 
ATOM     51  N   UNL A   1      41.288  29.725  33.723  1.00  0.00    -0.354 N 
ATOM     52  N   UNL A   1      39.053  30.894  32.110  1.00  0.00    -0.248 NA
ATOM     53  C   UNL A   1      37.148  32.238  31.994  1.00  0.00     0.031 C 
ATOM     54  C   UNL A   1      41.517  30.420  35.816  1.00  0.00     0.029 A 
ATOM     55  C   UNL A   1      40.738  30.561  34.676  1.00  0.00     0.049 A 
ATOM     56  H   UNL A   1      40.943  29.607  32.809  1.00  0.00     0.167 HD
ATOM     57  C   UNL A   1      38.862  31.512  33.338  1.00  0.00     0.074 A 
ATOM     58  C   UNL A   1      37.692  32.357  33.196  1.00  0.00     0.031 C 
ATOM     59  C   UNL A   1      39.577  31.394  34.484  1.00  0.00     0.037 A 
BRANCH  46  60
ATOM     60  C   UNL A   1      44.361  27.475  34.200  1.00  0.00     0.064 A 
ATOM     61  C   UNL A   1      45.629  28.080  34.205  1.00  0.00     0.173 A 
ATOM     62  C   UNL A   1      44.219  26.251  34.871  1.00  0.00     0.173 A 
ATOM     63  F   UNL A   1      45.826  29.239  33.559  1.00  0.00    -0.203 F 
ATOM     64  C   UNL A   1      46.711  27.475  34.837  1.00  0.00     0.198 A 
ATOM     65  C   UNL A   1      45.297  25.664  35.529  1.00  0.00     0.198 A 
ATOM     66  F   UNL A   1      43.032  25.625  34.892  1.00  0.00    -0.203 F 
ATOM     67  F   UNL A   1      47.922  28.048  34.788  1.00  0.00    -0.200 F 
ATOM     68  C   UNL A   1      46.542  26.272  35.507  1.00  0.00     0.200 A 
ATOM     69  F   UNL A   1      45.129  24.506  36.183  1.00  0.00    -0.200 F 
ATOM     70  F   UNL A   1      47.582  25.696  36.126  1.00  0.00    -0.200 F 
ENDBRANCH  46  60
BRANCH  47  71
ATOM     71  C   UNL A   1      36.625  31.543  29.175  1.00  0.00     0.064 A 
ATOM     72  C   UNL A   1      36.557  32.895  28.816  1.00  0.00     0.173 A 
ATOM     73  C   UNL A   1      35.523  30.732  28.860  1.00  0.00     0.173 A 
ATOM     74  F   UNL A   1      37.576  33.717  29.107  1.00  0.00    -0.203 F 
ATOM     75  C   UNL A   1      35.422  33.423  28.201  1.00  0.00     0.198 A 
ATOM     76  C   UNL A   1      34.403  31.253  28.214  1.00  0.00     0.198 A 
ATOM     77  F   UNL A   1      35.533  29.429  29.177  1.00  0.00    -0.203 F 
ATOM     78  F   UNL A   1      35.361  34.733  27.924  1.00  0.00    -0.200 F 
ATOM     79  C   UNL A   1      34.348  32.600  27.896  1.00  0.00     0.200 A 
ATOM     80  F   UNL A   1      33.375  30.449  27.908  1.00  0.00    -0.200 F 
ATOM     81  F   UNL A   1      33.257  33.109  27.308  1.00  0.00    -0.200 F 
ENDBRANCH  47  71
BRANCH  59  82
ATOM     82  C   UNL A   1      39.132  32.216  35.656  1.00  0.00     0.064 A 
ATOM     83  C   UNL A   1      38.281  31.689  36.638  1.00  0.00     0.173 A 
ATOM     84  C   UNL A   1      39.619  33.519  35.833  1.00  0.00     0.173 A 
ATOM     85  F   UNL A   1      37.778  30.453  36.505  1.00  0.00    -0.203 F 
ATOM     86  C   UNL A   1      37.918  32.448  37.746  1.00  0.00     0.198 A 
ATOM     87  C   UNL A   1      39.283  34.261  36.960  1.00  0.00     0.198 A 
ATOM     88  F   UNL A   1      40.446  34.061  34.925  1.00  0.00    -0.203 F 
ATOM     89  F   UNL A   1      37.068  31.943  38.651  1.00  0.00    -0.200 F 
ATOM     90  C   UNL A   1      38.428  33.728  37.912  1.00  0.00     0.200 A 
ATOM     91  F   UNL A   1      39.793  35.488  37.129  1.00  0.00    -0.200 F 
ATOM     92  F   UNL A   1      38.091  34.449  38.990  1.00  0.00    -0.200 F 
ENDBRANCH  59  82
ENDBRANCH  33  34
ENDBRANCH  26  28
ENDBRANCH  25  26
ENDBRANCH  24  25
ENDBRANCH  23  24
ENDBRANCH  22  23
ENDBRANCH   1  22
TORSDOF 18
ENDMDL
