MODEL 1
REMARK VINA RESULT:     -11.9      0.000      0.000
REMARK SMILES C[NH2+][C@H]1CC[C@@H](Nc2ccc(C(=O)OCCOCCOC(=O)c3ccc(-c4c5nc(c(-c6c(F)c(F)c(F)c(F)c6F)c6ccc([nH]6)c(-c6c(F)c(F)c(F)c(F)c6F)c6nc(c(-c7c(F)c(F)c(F)c(F)c7F)c7ccc4[nH]7)C=C6)C=C5)cc3)c(F)c2F)CC1
REMARK SMILES IDX 16 1 15 2 14 3 12 4 13 5 11 6 8 7 9 8 88 9 10 10 86 11 89 12
REMARK SMILES IDX 87 13 7 14 6 16 3 17 91 18 4 19 90 20 5 21 2 22 1 23 17 26
REMARK SMILES IDX 18 27 19 28 20 29 21 30 22 31 23 32 24 33 85 34 25 35 84 36
REMARK SMILES IDX 26 37 27 38 28 39 78 40 29 41 83 42 77 43 79 44 30 45 82 46
REMARK SMILES IDX 76 47 75 48 31 50 63 51 43 52 62 53 44 54 47 55 61 56 80 57
REMARK SMILES IDX 45 58 46 59 60 61 81 62 48 63 32 64 33 65 41 66 34 67 35 68
REMARK SMILES IDX 39 69 42 70 36 71 37 72 40 73 38 74 64 75 65 76 73 77 66 78
REMARK SMILES IDX 67 79 71 80 74 81 68 82 69 83 72 84 70 85 49 86 50 87 58 88
REMARK SMILES IDX 51 89 52 90 56 91 59 92 53 93 54 94 57 95 55 96
REMARK H PARENT 7 15 2 24 2 25 79 49 47 60
REMARK Flexibility Score: inf
ROOT
ATOM      1  C   UNL A   1      43.597  19.779  25.774  1.00  0.00     0.202 C 
ENDROOT
BRANCH   1   2
ATOM      2  C   UNL A   1      42.094  19.809  26.069  1.00  0.00     0.261 C 
BRANCH   2   3
ATOM      3  O   UNL A   1      41.594  21.155  26.030  1.00  0.00    -0.460 OA
BRANCH   3   4
ATOM      4  C   UNL A   1      40.659  21.458  26.956  1.00  0.00     0.341 C 
ATOM      5  O   UNL A   1      40.796  21.452  28.173  1.00  0.00    -0.246 OA
BRANCH   4   6
ATOM      6  C   UNL A   1      39.456  22.000  26.310  1.00  0.00     0.099 A 
ATOM      7  C   UNL A   1      37.110  23.117  25.220  1.00  0.00     0.074 A 
ATOM      8  C   UNL A   1      37.996  23.912  25.945  1.00  0.00     0.030 A 
ATOM      9  C   UNL A   1      37.457  21.766  25.011  1.00  0.00     0.182 A 
ATOM     10  C   UNL A   1      39.149  23.354  26.511  1.00  0.00     0.021 A 
ATOM     11  C   UNL A   1      38.619  21.212  25.534  1.00  0.00     0.175 A 
ATOM     12  F   UNL A   1      36.635  20.994  24.278  1.00  0.00    -0.201 F 
ATOM     13  F   UNL A   1      38.892  19.919  25.304  1.00  0.00    -0.203 F 
BRANCH   7  14
ATOM     14  N   UNL A   1      35.923  23.590  24.691  1.00  0.00    -0.380 N 
ATOM     15  H   UNL A   1      35.947  23.920  23.764  1.00  0.00     0.160 HD
BRANCH  14  16
ATOM     16  C   UNL A   1      34.637  23.645  25.379  1.00  0.00     0.079 C 
ATOM     17  C   UNL A   1      32.804  24.502  23.176  1.00  0.00     0.182 C 
ATOM     18  C   UNL A   1      33.269  23.042  23.318  1.00  0.00     0.067 C 
ATOM     19  C   UNL A   1      33.758  25.501  23.852  1.00  0.00     0.067 C 
ATOM     20  C   UNL A   1      33.620  22.682  24.762  1.00  0.00     0.031 C 
ATOM     21  C   UNL A   1      34.110  25.087  25.287  1.00  0.00     0.031 C 
BRANCH  17  22
ATOM     22  N   UNL A   1      32.503  24.896  21.792  1.00  0.00    -0.346 N 
ATOM     23  C   UNL A   1      31.699  26.104  21.647  1.00  0.00     0.331 C 
ATOM     24  H   UNL A   1      33.388  25.048  21.308  1.00  0.00     0.346 HD
ATOM     25  H   UNL A   1      31.945  24.139  21.398  1.00  0.00     0.346 HD
ENDBRANCH  17  22
ENDBRANCH  14  16
ENDBRANCH   7  14
ENDBRANCH   4   6
ENDBRANCH   3   4
ENDBRANCH   2   3
ENDBRANCH   1   2
BRANCH   1  26
ATOM     26  O   UNL A   1      44.001  20.419  24.562  1.00  0.00    -0.374 OA
BRANCH  26  27
ATOM     27  C   UNL A   1      44.907  21.518  24.681  1.00  0.00     0.202 C 
BRANCH  27  28
ATOM     28  C   UNL A   1      44.513  22.796  23.933  1.00  0.00     0.261 C 
BRANCH  28  29
ATOM     29  O   UNL A   1      43.697  23.660  24.742  1.00  0.00    -0.460 OA
BRANCH  29  30
ATOM     30  C   UNL A   1      44.277  24.836  25.070  1.00  0.00     0.338 C 
ATOM     31  O   UNL A   1      45.309  25.308  24.610  1.00  0.00    -0.246 OA
BRANCH  30  32
ATOM     32  C   UNL A   1      43.410  25.604  25.981  1.00  0.00     0.060 A 
ATOM     33  C   UNL A   1      43.734  26.951  26.187  1.00  0.00     0.016 A 
ATOM     34  C   UNL A   1      42.362  25.011  26.690  1.00  0.00     0.016 A 
ATOM     35  C   UNL A   1      43.058  27.691  27.151  1.00  0.00     0.010 A 
ATOM     36  C   UNL A   1      41.685  25.757  27.663  1.00  0.00     0.010 A 
ATOM     37  C   UNL A   1      42.061  27.086  27.928  1.00  0.00    -0.014 A 
BRANCH  37  38
ATOM     38  C   UNL A   1      41.535  27.809  29.110  1.00  0.00     0.031 A 
ATOM     39  C   UNL A   1      42.271  27.706  30.417  1.00  0.00     0.074 A 
ATOM     40  C   UNL A   1      40.457  28.605  29.005  1.00  0.00     0.049 A 
ATOM     41  N   UNL A   1      42.017  28.286  31.562  1.00  0.00    -0.248 NA
ATOM     42  C   UNL A   1      43.456  26.833  30.437  1.00  0.00     0.031 C 
ATOM     43  C   UNL A   1      39.685  28.815  27.783  1.00  0.00     0.029 A 
ATOM     44  N   UNL A   1      39.833  29.391  29.940  1.00  0.00    -0.354 N 
ATOM     45  C   UNL A   1      43.007  27.854  32.433  1.00  0.00     0.074 A 
ATOM     46  C   UNL A   1      43.847  26.934  31.699  1.00  0.00     0.031 C 
ATOM     47  C   UNL A   1      38.690  29.681  28.042  1.00  0.00     0.029 A 
ATOM     48  C   UNL A   1      38.742  30.066  29.453  1.00  0.00     0.049 A 
ATOM     49  H   UNL A   1      40.139  29.465  30.873  1.00  0.00     0.167 HD
ATOM     50  C   UNL A   1      43.206  28.205  33.725  1.00  0.00     0.037 A 
ATOM     51  C   UNL A   1      37.881  30.895  30.075  1.00  0.00     0.037 A 
ATOM     52  C   UNL A   1      42.375  29.127  34.452  1.00  0.00     0.049 A 
ATOM     53  C   UNL A   1      38.086  31.222  31.530  1.00  0.00     0.074 A 
ATOM     54  C   UNL A   1      42.513  29.566  35.757  1.00  0.00     0.029 A 
ATOM     55  N   UNL A   1      41.247  29.750  33.937  1.00  0.00    -0.354 N 
ATOM     56  N   UNL A   1      39.039  30.829  32.339  1.00  0.00    -0.248 NA
ATOM     57  C   UNL A   1      37.096  32.109  32.159  1.00  0.00     0.031 C 
ATOM     58  C   UNL A   1      41.441  30.414  36.048  1.00  0.00     0.029 A 
ATOM     59  C   UNL A   1      40.663  30.545  34.909  1.00  0.00     0.049 A 
ATOM     60  H   UNL A   1      40.913  29.642  33.017  1.00  0.00     0.167 HD
ATOM     61  C   UNL A   1      38.779  31.432  33.562  1.00  0.00     0.074 A 
ATOM     62  C   UNL A   1      37.582  32.229  33.389  1.00  0.00     0.031 C 
ATOM     63  C   UNL A   1      39.471  31.333  34.723  1.00  0.00     0.037 A 
BRANCH  50  64
ATOM     64  C   UNL A   1      44.363  27.582  34.448  1.00  0.00     0.064 A 
ATOM     65  C   UNL A   1      45.581  28.267  34.560  1.00  0.00     0.173 A 
ATOM     66  C   UNL A   1      44.286  26.285  34.975  1.00  0.00     0.173 A 
ATOM     67  F   UNL A   1      45.707  29.508  34.069  1.00  0.00    -0.203 F 
ATOM     68  C   UNL A   1      46.685  27.671  35.166  1.00  0.00     0.198 A 
ATOM     69  C   UNL A   1      45.384  25.701  35.603  1.00  0.00     0.198 A 
ATOM     70  F   UNL A   1      43.138  25.593  34.903  1.00  0.00    -0.203 F 
ATOM     71  F   UNL A   1      47.848  28.334  35.237  1.00  0.00    -0.200 F 
ATOM     72  C   UNL A   1      46.584  26.391  35.689  1.00  0.00     0.200 A 
ATOM     73  F   UNL A   1      45.279  24.473  36.129  1.00  0.00    -0.200 F 
ATOM     74  F   UNL A   1      47.644  25.823  36.281  1.00  0.00    -0.200 F 
ENDBRANCH  50  64
BRANCH  51  75
ATOM     75  C   UNL A   1      36.753  31.480  29.308  1.00  0.00     0.064 A 
ATOM     76  C   UNL A   1      36.744  32.838  28.953  1.00  0.00     0.173 A 
ATOM     77  C   UNL A   1      35.645  30.703  28.945  1.00  0.00     0.173 A 
ATOM     78  F   UNL A   1      37.782  33.623  29.276  1.00  0.00    -0.203 F 
ATOM     79  C   UNL A   1      35.657  33.400  28.287  1.00  0.00     0.198 A 
ATOM     80  C   UNL A   1      34.569  31.262  28.257  1.00  0.00     0.198 A 
ATOM     81  F   UNL A   1      35.619  29.395  29.241  1.00  0.00    -0.203 F 
ATOM     82  F   UNL A   1      35.659  34.707  27.991  1.00  0.00    -0.200 F 
ATOM     83  C   UNL A   1      34.572  32.611  27.938  1.00  0.00     0.200 A 
ATOM     84  F   UNL A   1      33.532  30.492  27.902  1.00  0.00    -0.200 F 
ATOM     85  F   UNL A   1      33.529  33.152  27.292  1.00  0.00    -0.200 F 
ENDBRANCH  51  75
BRANCH  63  86
ATOM     86  C   UNL A   1      38.972  32.110  35.906  1.00  0.00     0.064 A 
ATOM     87  C   UNL A   1      39.375  33.439  36.108  1.00  0.00     0.173 A 
ATOM     88  C   UNL A   1      38.174  31.509  36.890  1.00  0.00     0.173 A 
ATOM     89  F   UNL A   1      40.147  34.056  35.200  1.00  0.00    -0.203 F 
ATOM     90  C   UNL A   1      39.015  34.131  37.260  1.00  0.00     0.198 A 
ATOM     91  C   UNL A   1      37.794  32.212  38.029  1.00  0.00     0.198 A 
ATOM     92  F   UNL A   1      37.754  30.243  36.739  1.00  0.00    -0.203 F 
ATOM     93  F   UNL A   1      39.445  35.385  37.450  1.00  0.00    -0.200 F 
ATOM     94  C   UNL A   1      38.223  33.517  38.219  1.00  0.00     0.200 A 
ATOM     95  F   UNL A   1      37.012  31.625  38.947  1.00  0.00    -0.200 F 
ATOM     96  F   UNL A   1      37.874  34.185  39.328  1.00  0.00    -0.200 F 
ENDBRANCH  63  86
ENDBRANCH  37  38
ENDBRANCH  30  32
ENDBRANCH  29  30
ENDBRANCH  28  29
ENDBRANCH  27  28
ENDBRANCH  26  27
ENDBRANCH   1  26
TORSDOF 17
ENDMDL
MODEL 2
REMARK VINA RESULT:     -11.2      3.807      9.064
REMARK SMILES C[NH2+][C@H]1CC[C@@H](Nc2ccc(C(=O)OCCOCCOC(=O)c3ccc(-c4c5nc(c(-c6c(F)c(F)c(F)c(F)c6F)c6ccc([nH]6)c(-c6c(F)c(F)c(F)c(F)c6F)c6nc(c(-c7c(F)c(F)c(F)c(F)c7F)c7ccc4[nH]7)C=C6)C=C5)cc3)c(F)c2F)CC1
REMARK SMILES IDX 16 1 15 2 14 3 12 4 13 5 11 6 8 7 9 8 88 9 10 10 86 11 89 12
REMARK SMILES IDX 87 13 7 14 6 16 3 17 91 18 4 19 90 20 5 21 2 22 1 23 17 26
REMARK SMILES IDX 18 27 19 28 20 29 21 30 22 31 23 32 24 33 85 34 25 35 84 36
REMARK SMILES IDX 26 37 27 38 28 39 78 40 29 41 83 42 77 43 79 44 30 45 82 46
REMARK SMILES IDX 76 47 75 48 31 50 63 51 43 52 62 53 44 54 47 55 61 56 80 57
REMARK SMILES IDX 45 58 46 59 60 61 81 62 48 63 32 64 33 65 41 66 34 67 35 68
REMARK SMILES IDX 39 69 42 70 36 71 37 72 40 73 38 74 64 75 65 76 73 77 66 78
REMARK SMILES IDX 67 79 71 80 74 81 68 82 69 83 72 84 70 85 49 86 50 87 58 88
REMARK SMILES IDX 51 89 52 90 56 91 59 92 53 93 54 94 57 95 55 96
REMARK H PARENT 7 15 2 24 2 25 79 49 47 60
REMARK Flexibility Score: inf
ROOT
ATOM      1  C   UNL A   1      32.833  29.588  25.448  1.00  0.00     0.202 C 
ENDROOT
BRANCH   1   2
ATOM      2  C   UNL A   1      31.803  29.246  24.367  1.00  0.00     0.261 C 
BRANCH   2   3
ATOM      3  O   UNL A   1      32.327  28.267  23.456  1.00  0.00    -0.460 OA
BRANCH   3   4
ATOM      4  C   UNL A   1      31.407  27.544  22.782  1.00  0.00     0.341 C 
ATOM      5  O   UNL A   1      30.563  27.966  22.001  1.00  0.00    -0.246 OA
BRANCH   4   6
ATOM      6  C   UNL A   1      31.658  26.107  22.955  1.00  0.00     0.099 A 
ATOM      7  C   UNL A   1      32.063  23.361  23.440  1.00  0.00     0.074 A 
ATOM      8  C   UNL A   1      30.811  23.936  23.654  1.00  0.00     0.030 A 
ATOM      9  C   UNL A   1      33.087  24.184  22.927  1.00  0.00     0.182 A 
ATOM     10  C   UNL A   1      30.614  25.305  23.439  1.00  0.00     0.021 A 
ATOM     11  C   UNL A   1      32.890  25.536  22.673  1.00  0.00     0.175 A 
ATOM     12  F   UNL A   1      34.290  23.639  22.675  1.00  0.00    -0.201 F 
ATOM     13  F   UNL A   1      33.905  26.268  22.189  1.00  0.00    -0.203 F 
BRANCH   7  14
ATOM     14  N   UNL A   1      32.342  22.030  23.694  1.00  0.00    -0.380 N 
ATOM     15  H   UNL A   1      32.702  21.499  22.947  1.00  0.00     0.160 HD
BRANCH  14  16
ATOM     16  C   UNL A   1      32.153  21.340  24.965  1.00  0.00     0.079 C 
ATOM     17  C   UNL A   1      34.902  21.457  26.138  1.00  0.00     0.182 C 
ATOM     18  C   UNL A   1      33.948  22.663  26.194  1.00  0.00     0.067 C 
ATOM     19  C   UNL A   1      34.562  20.479  25.001  1.00  0.00     0.067 C 
ATOM     20  C   UNL A   1      32.478  22.244  26.157  1.00  0.00     0.031 C 
ATOM     21  C   UNL A   1      33.073  20.108  24.980  1.00  0.00     0.031 C 
BRANCH  17  22
ATOM     22  N   UNL A   1      36.325  21.827  26.124  1.00  0.00    -0.346 N 
ATOM     23  C   UNL A   1      36.824  22.338  24.853  1.00  0.00     0.331 C 
ATOM     24  H   UNL A   1      36.470  22.547  26.831  1.00  0.00     0.346 HD
ATOM     25  H   UNL A   1      36.842  20.967  26.303  1.00  0.00     0.346 HD
ENDBRANCH  17  22
ENDBRANCH  14  16
ENDBRANCH   7  14
ENDBRANCH   4   6
ENDBRANCH   3   4
ENDBRANCH   2   3
ENDBRANCH   1   2
BRANCH   1  26
ATOM     26  O   UNL A   1      32.334  30.329  26.564  1.00  0.00    -0.374 OA
BRANCH  26  27
ATOM     27  C   UNL A   1      31.353  31.330  26.290  1.00  0.00     0.202 C 
BRANCH  27  28
ATOM     28  C   UNL A   1      31.626  32.718  26.881  1.00  0.00     0.261 C 
BRANCH  28  29
ATOM     29  O   UNL A   1      33.023  33.054  26.833  1.00  0.00    -0.460 OA
BRANCH  29  30
ATOM     30  C   UNL A   1      33.532  33.508  28.000  1.00  0.00     0.338 C 
ATOM     31  O   UNL A   1      33.000  34.274  28.793  1.00  0.00    -0.246 OA
BRANCH  30  32
ATOM     32  C   UNL A   1      34.803  32.829  28.309  1.00  0.00     0.060 A 
ATOM     33  C   UNL A   1      34.729  31.491  28.716  1.00  0.00     0.016 A 
ATOM     34  C   UNL A   1      36.030  33.498  28.293  1.00  0.00     0.016 A 
ATOM     35  C   UNL A   1      35.868  30.837  29.174  1.00  0.00     0.010 A 
ATOM     36  C   UNL A   1      37.175  32.840  28.757  1.00  0.00     0.010 A 
ATOM     37  C   UNL A   1      37.089  31.522  29.241  1.00  0.00    -0.014 A 
BRANCH  37  38
ATOM     38  C   UNL A   1      38.223  30.896  29.963  1.00  0.00     0.031 A 
ATOM     39  C   UNL A   1      38.444  31.236  31.410  1.00  0.00     0.074 A 
ATOM     40  C   UNL A   1      39.002  29.983  29.358  1.00  0.00     0.049 A 
ATOM     41  N   UNL A   1      39.343  30.776  32.244  1.00  0.00    -0.248 NA
ATOM     42  C   UNL A   1      37.529  32.226  32.001  1.00  0.00     0.031 C 
ATOM     43  C   UNL A   1      38.861  29.545  27.972  1.00  0.00     0.029 A 
ATOM     44  N   UNL A   1      40.061  29.255  29.838  1.00  0.00    -0.354 N 
ATOM     45  C   UNL A   1      39.099  31.414  33.452  1.00  0.00     0.074 A 
ATOM     46  C   UNL A   1      37.994  32.322  33.239  1.00  0.00     0.031 C 
ATOM     47  C   UNL A   1      39.797  28.615  27.713  1.00  0.00     0.029 A 
ATOM     48  C   UNL A   1      40.617  28.413  28.907  1.00  0.00     0.049 A 
ATOM     49  H   UNL A   1      40.392  29.328  30.762  1.00  0.00     0.167 HD
ATOM     50  C   UNL A   1      39.732  31.246  34.637  1.00  0.00     0.037 A 
ATOM     51  C   UNL A   1      41.671  27.579  29.006  1.00  0.00     0.037 A 
ATOM     52  C   UNL A   1      40.825  30.336  34.852  1.00  0.00     0.049 A 
ATOM     53  C   UNL A   1      42.399  27.456  30.319  1.00  0.00     0.074 A 
ATOM     54  C   UNL A   1      41.513  30.077  36.024  1.00  0.00     0.029 A 
ATOM     55  N   UNL A   1      41.394  29.539  33.869  1.00  0.00    -0.354 N 
ATOM     56  N   UNL A   1      42.146  28.044  31.462  1.00  0.00    -0.248 NA
ATOM     57  C   UNL A   1      43.558  26.551  30.355  1.00  0.00     0.031 C 
ATOM     58  C   UNL A   1      42.529  29.162  35.740  1.00  0.00     0.029 A 
ATOM     59  C   UNL A   1      42.443  28.811  34.403  1.00  0.00     0.049 A 
ATOM     60  H   UNL A   1      41.094  29.498  32.931  1.00  0.00     0.167 HD
ATOM     61  C   UNL A   1      43.097  27.570  32.357  1.00  0.00     0.074 A 
ATOM     62  C   UNL A   1      43.928  26.635  31.627  1.00  0.00     0.031 C 
ATOM     63  C   UNL A   1      43.263  27.883  33.664  1.00  0.00     0.037 A 
BRANCH  50  64
ATOM     64  C   UNL A   1      39.267  32.072  35.800  1.00  0.00     0.064 A 
ATOM     65  C   UNL A   1      39.808  33.346  36.025  1.00  0.00     0.173 A 
ATOM     66  C   UNL A   1      38.334  31.580  36.724  1.00  0.00     0.173 A 
ATOM     67  F   UNL A   1      40.706  33.861  35.174  1.00  0.00    -0.203 F 
ATOM     68  C   UNL A   1      39.438  34.094  37.141  1.00  0.00     0.198 A 
ATOM     69  C   UNL A   1      37.947  32.341  37.824  1.00  0.00     0.198 A 
ATOM     70  F   UNL A   1      37.779  30.371  36.545  1.00  0.00    -0.203 F 
ATOM     71  F   UNL A   1      39.989  35.298  37.351  1.00  0.00    -0.200 F 
ATOM     72  C   UNL A   1      38.506  33.592  38.037  1.00  0.00     0.200 A 
ATOM     73  F   UNL A   1      37.030  31.864  38.677  1.00  0.00    -0.200 F 
ATOM     74  F   UNL A   1      38.144  34.317  39.104  1.00  0.00    -0.200 F 
ENDBRANCH  50  64
BRANCH  51  75
ATOM     75  C   UNL A   1      42.086  26.788  27.821  1.00  0.00     0.064 A 
ATOM     76  C   UNL A   1      41.540  25.521  27.567  1.00  0.00     0.173 A 
ATOM     77  C   UNL A   1      43.062  27.267  26.937  1.00  0.00     0.173 A 
ATOM     78  F   UNL A   1      40.600  25.019  28.382  1.00  0.00    -0.203 F 
ATOM     79  C   UNL A   1      41.973  24.753  26.488  1.00  0.00     0.198 A 
ATOM     80  C   UNL A   1      43.478  26.508  25.845  1.00  0.00     0.198 A 
ATOM     81  F   UNL A   1      43.595  28.483  27.125  1.00  0.00    -0.203 F 
ATOM     82  F   UNL A   1      41.460  23.531  26.290  1.00  0.00    -0.200 F 
ATOM     83  C   UNL A   1      42.941  25.248  25.628  1.00  0.00     0.200 A 
ATOM     84  F   UNL A   1      44.397  26.998  25.002  1.00  0.00    -0.200 F 
ATOM     85  F   UNL A   1      43.354  24.511  24.587  1.00  0.00    -0.200 F 
ENDBRANCH  51  75
BRANCH  63  86
ATOM     86  C   UNL A   1      44.376  27.208  34.411  1.00  0.00     0.064 A 
ATOM     87  C   UNL A   1      44.156  25.986  35.066  1.00  0.00     0.173 A 
ATOM     88  C   UNL A   1      45.630  27.817  34.560  1.00  0.00     0.173 A 
ATOM     89  F   UNL A   1      42.970  25.368  34.963  1.00  0.00    -0.203 F 
ATOM     90  C   UNL A   1      45.144  25.409  35.859  1.00  0.00     0.198 A 
ATOM     91  C   UNL A   1      46.625  27.224  35.333  1.00  0.00     0.198 A 
ATOM     92  F   UNL A   1      45.893  28.980  33.946  1.00  0.00    -0.203 F 
ATOM     93  F   UNL A   1      44.897  24.262  36.507  1.00  0.00    -0.200 F 
ATOM     94  C   UNL A   1      46.378  26.028  35.990  1.00  0.00     0.200 A 
ATOM     95  F   UNL A   1      47.824  27.813  35.444  1.00  0.00    -0.200 F 
ATOM     96  F   UNL A   1      47.329  25.470  36.752  1.00  0.00    -0.200 F 
ENDBRANCH  63  86
ENDBRANCH  37  38
ENDBRANCH  30  32
ENDBRANCH  29  30
ENDBRANCH  28  29
ENDBRANCH  27  28
ENDBRANCH  26  27
ENDBRANCH   1  26
TORSDOF 17
ENDMDL
MODEL 3
REMARK VINA RESULT:     -11.0      1.322      7.438
REMARK SMILES C[NH2+][C@H]1CC[C@@H](Nc2ccc(C(=O)OCCOCCOC(=O)c3ccc(-c4c5nc(c(-c6c(F)c(F)c(F)c(F)c6F)c6ccc([nH]6)c(-c6c(F)c(F)c(F)c(F)c6F)c6nc(c(-c7c(F)c(F)c(F)c(F)c7F)c7ccc4[nH]7)C=C6)C=C5)cc3)c(F)c2F)CC1
REMARK SMILES IDX 16 1 15 2 14 3 12 4 13 5 11 6 8 7 9 8 88 9 10 10 86 11 89 12
REMARK SMILES IDX 87 13 7 14 6 16 3 17 91 18 4 19 90 20 5 21 2 22 1 23 17 26
REMARK SMILES IDX 18 27 19 28 20 29 21 30 22 31 23 32 24 33 85 34 25 35 84 36
REMARK SMILES IDX 26 37 27 38 28 39 78 40 29 41 83 42 77 43 79 44 30 45 82 46
REMARK SMILES IDX 76 47 75 48 31 50 63 51 43 52 62 53 44 54 47 55 61 56 80 57
REMARK SMILES IDX 45 58 46 59 60 61 81 62 48 63 32 64 33 65 41 66 34 67 35 68
REMARK SMILES IDX 39 69 42 70 36 71 37 72 40 73 38 74 64 75 65 76 73 77 66 78
REMARK SMILES IDX 67 79 71 80 74 81 68 82 69 83 72 84 70 85 49 86 50 87 58 88
REMARK SMILES IDX 51 89 52 90 56 91 59 92 53 93 54 94 57 95 55 96
REMARK H PARENT 7 15 2 24 2 25 79 49 47 60
REMARK Flexibility Score: inf
ROOT
ATOM      1  C   UNL A   1      40.427  20.813  26.408  1.00  0.00     0.202 C 
ENDROOT
BRANCH   1   2
ATOM      2  C   UNL A   1      39.203  20.188  25.733  1.00  0.00     0.261 C 
BRANCH   2   3
ATOM      3  O   UNL A   1      38.252  21.200  25.364  1.00  0.00    -0.460 OA
BRANCH   3   4
ATOM      4  C   UNL A   1      37.010  20.757  25.073  1.00  0.00     0.341 C 
ATOM      5  O   UNL A   1      36.654  19.592  24.938  1.00  0.00    -0.246 OA
BRANCH   4   6
ATOM      6  C   UNL A   1      36.047  21.865  25.120  1.00  0.00     0.099 A 
ATOM      7  C   UNL A   1      34.086  23.882  25.278  1.00  0.00     0.074 A 
ATOM      8  C   UNL A   1      34.338  23.059  26.374  1.00  0.00     0.030 A 
ATOM      9  C   UNL A   1      34.878  23.704  24.125  1.00  0.00     0.182 A 
ATOM     10  C   UNL A   1      35.292  22.039  26.290  1.00  0.00     0.021 A 
ATOM     11  C   UNL A   1      35.856  22.720  24.045  1.00  0.00     0.175 A 
ATOM     12  F   UNL A   1      34.679  24.516  23.071  1.00  0.00    -0.201 F 
ATOM     13  F   UNL A   1      36.575  22.597  22.918  1.00  0.00    -0.203 F 
BRANCH   7  14
ATOM     14  N   UNL A   1      33.113  24.865  25.272  1.00  0.00    -0.380 N 
ATOM     15  H   UNL A   1      33.422  25.800  25.270  1.00  0.00     0.160 HD
BRANCH  14  16
ATOM     16  C   UNL A   1      31.671  24.646  25.271  1.00  0.00     0.079 C 
ATOM     17  C   UNL A   1      30.777  26.483  23.085  1.00  0.00     0.182 C 
ATOM     18  C   UNL A   1      31.390  25.105  22.782  1.00  0.00     0.067 C 
ATOM     19  C   UNL A   1      31.184  27.026  24.466  1.00  0.00     0.067 C 
ATOM     20  C   UNL A   1      31.178  24.110  23.924  1.00  0.00     0.031 C 
ATOM     21  C   UNL A   1      30.985  25.988  25.579  1.00  0.00     0.031 C 
BRANCH  17  22
ATOM     22  N   UNL A   1      31.004  27.478  22.027  1.00  0.00    -0.346 N 
ATOM     23  C   UNL A   1      30.682  28.854  22.384  1.00  0.00     0.331 C 
ATOM     24  H   UNL A   1      31.990  27.444  21.768  1.00  0.00     0.346 HD
ATOM     25  H   UNL A   1      30.372  27.231  21.267  1.00  0.00     0.346 HD
ENDBRANCH  17  22
ENDBRANCH  14  16
ENDBRANCH   7  14
ENDBRANCH   4   6
ENDBRANCH   3   4
ENDBRANCH   2   3
ENDBRANCH   1   2
BRANCH   1  26
ATOM     26  O   UNL A   1      41.678  20.579  25.757  1.00  0.00    -0.374 OA
BRANCH  26  27
ATOM     27  C   UNL A   1      42.828  21.214  26.318  1.00  0.00     0.202 C 
BRANCH  27  28
ATOM     28  C   UNL A   1      43.683  22.034  25.346  1.00  0.00     0.261 C 
BRANCH  28  29
ATOM     29  O   UNL A   1      43.020  23.243  24.939  1.00  0.00    -0.460 OA
BRANCH  29  30
ATOM     30  C   UNL A   1      43.725  24.374  25.166  1.00  0.00     0.338 C 
ATOM     31  O   UNL A   1      44.763  24.724  24.619  1.00  0.00    -0.246 OA
BRANCH  30  32
ATOM     32  C   UNL A   1      42.993  25.264  26.085  1.00  0.00     0.060 A 
ATOM     33  C   UNL A   1      43.488  26.564  26.244  1.00  0.00     0.016 A 
ATOM     34  C   UNL A   1      41.906  24.821  26.844  1.00  0.00     0.016 A 
ATOM     35  C   UNL A   1      42.943  27.403  27.211  1.00  0.00     0.010 A 
ATOM     36  C   UNL A   1      41.362  25.666  27.819  1.00  0.00     0.010 A 
ATOM     37  C   UNL A   1      41.908  26.944  28.036  1.00  0.00    -0.014 A 
BRANCH  37  38
ATOM     38  C   UNL A   1      41.519  27.752  29.216  1.00  0.00     0.031 A 
ATOM     39  C   UNL A   1      40.285  28.607  29.140  1.00  0.00     0.074 A 
ATOM     40  C   UNL A   1      42.214  27.671  30.363  1.00  0.00     0.049 A 
ATOM     41  N   UNL A   1      39.736  29.358  30.062  1.00  0.00    -0.248 NA
ATOM     42  C   UNL A   1      39.570  28.617  27.854  1.00  0.00     0.031 C 
ATOM     43  C   UNL A   1      43.403  26.848  30.569  1.00  0.00     0.029 A 
ATOM     44  N   UNL A   1      42.012  28.284  31.575  1.00  0.00    -0.354 N 
ATOM     45  C   UNL A   1      38.616  29.923  29.471  1.00  0.00     0.074 A 
ATOM     46  C   UNL A   1      38.578  29.462  28.100  1.00  0.00     0.031 C 
ATOM     47  C   UNL A   1      43.823  27.002  31.836  1.00  0.00     0.029 A 
ATOM     48  C   UNL A   1      42.948  27.952  32.522  1.00  0.00     0.049 A 
ATOM     49  H   UNL A   1      41.266  28.902  31.748  1.00  0.00     0.167 HD
ATOM     50  C   UNL A   1      37.691  30.742  30.026  1.00  0.00     0.037 A 
ATOM     51  C   UNL A   1      43.086  28.372  33.795  1.00  0.00     0.037 A 
ATOM     52  C   UNL A   1      37.724  31.193  31.391  1.00  0.00     0.049 A 
ATOM     53  C   UNL A   1      42.080  29.333  34.372  1.00  0.00     0.074 A 
ATOM     54  C   UNL A   1      36.818  32.004  32.052  1.00  0.00     0.029 A 
ATOM     55  N   UNL A   1      38.719  30.877  32.305  1.00  0.00    -0.354 N 
ATOM     56  N   UNL A   1      41.010  29.842  33.814  1.00  0.00    -0.248 NA
ATOM     57  C   UNL A   1      42.302  29.777  35.757  1.00  0.00     0.031 C 
ATOM     58  C   UNL A   1      37.289  32.219  33.350  1.00  0.00     0.029 A 
ATOM     59  C   UNL A   1      38.464  31.501  33.514  1.00  0.00     0.049 A 
ATOM     60  H   UNL A   1      39.492  30.295  32.120  1.00  0.00     0.167 HD
ATOM     61  C   UNL A   1      40.419  30.648  34.779  1.00  0.00     0.074 A 
ATOM     62  C   UNL A   1      41.245  30.553  35.965  1.00  0.00     0.031 C 
ATOM     63  C   UNL A   1      39.294  31.398  34.688  1.00  0.00     0.037 A 
BRANCH  50  64
ATOM     64  C   UNL A   1      36.567  31.218  29.156  1.00  0.00     0.064 A 
ATOM     65  C   UNL A   1      36.508  32.555  28.740  1.00  0.00     0.173 A 
ATOM     66  C   UNL A   1      35.516  30.366  28.784  1.00  0.00     0.173 A 
ATOM     67  F   UNL A   1      37.486  33.410  29.071  1.00  0.00    -0.203 F 
ATOM     68  C   UNL A   1      35.432  33.027  27.991  1.00  0.00     0.198 A 
ATOM     69  C   UNL A   1      34.454  30.834  28.014  1.00  0.00     0.198 A 
ATOM     70  F   UNL A   1      35.532  29.074  29.148  1.00  0.00    -0.203 F 
ATOM     71  F   UNL A   1      35.383  34.316  27.628  1.00  0.00    -0.200 F 
ATOM     72  C   UNL A   1      34.408  32.165  27.627  1.00  0.00     0.200 A 
ATOM     73  F   UNL A   1      33.477  29.996  27.643  1.00  0.00    -0.200 F 
ATOM     74  F   UNL A   1      33.379  32.617  26.897  1.00  0.00    -0.200 F 
ENDBRANCH  50  64
BRANCH  51  75
ATOM     75  C   UNL A   1      44.221  27.868  34.608  1.00  0.00     0.064 A 
ATOM     76  C   UNL A   1      44.057  26.793  35.494  1.00  0.00     0.173 A 
ATOM     77  C   UNL A   1      45.482  28.475  34.542  1.00  0.00     0.173 A 
ATOM     78  F   UNL A   1      42.870  26.178  35.591  1.00  0.00    -0.203 F 
ATOM     79  C   UNL A   1      45.107  26.359  36.301  1.00  0.00     0.198 A 
ATOM     80  C   UNL A   1      46.538  28.025  35.333  1.00  0.00     0.198 A 
ATOM     81  F   UNL A   1      45.693  29.490  33.692  1.00  0.00    -0.203 F 
ATOM     82  F   UNL A   1      44.914  25.353  37.164  1.00  0.00    -0.200 F 
ATOM     83  C   UNL A   1      46.346  26.975  36.219  1.00  0.00     0.200 A 
ATOM     84  F   UNL A   1      47.741  28.606  35.235  1.00  0.00    -0.200 F 
ATOM     85  F   UNL A   1      47.357  26.554  36.992  1.00  0.00    -0.200 F 
ENDBRANCH  51  75
BRANCH  63  86
ATOM     86  C   UNL A   1      38.868  32.173  35.900  1.00  0.00     0.064 A 
ATOM     87  C   UNL A   1      39.264  33.509  36.066  1.00  0.00     0.173 A 
ATOM     88  C   UNL A   1      38.151  31.565  36.940  1.00  0.00     0.173 A 
ATOM     89  F   UNL A   1      39.960  34.133  35.104  1.00  0.00    -0.203 F 
ATOM     90  C   UNL A   1      38.975  34.202  37.239  1.00  0.00     0.198 A 
ATOM     91  C   UNL A   1      37.842  32.269  38.101  1.00  0.00     0.198 A 
ATOM     92  F   UNL A   1      37.741  30.293  36.825  1.00  0.00    -0.203 F 
ATOM     93  F   UNL A   1      39.398  35.464  37.392  1.00  0.00    -0.200 F 
ATOM     94  C   UNL A   1      38.263  33.582  38.254  1.00  0.00     0.200 A 
ATOM     95  F   UNL A   1      37.136  31.675  39.074  1.00  0.00    -0.200 F 
ATOM     96  F   UNL A   1      37.983  34.250  39.382  1.00  0.00    -0.200 F 
ENDBRANCH  63  86
ENDBRANCH  37  38
ENDBRANCH  30  32
ENDBRANCH  29  30
ENDBRANCH  28  29
ENDBRANCH  27  28
ENDBRANCH  26  27
ENDBRANCH   1  26
TORSDOF 17
ENDMDL
