MODEL 1
REMARK VINA RESULT:     -12.0      0.000      0.000
REMARK SMILES Cc1cc(-c2ccc(/C=C/C(=O)OCCOCCOC(=O)c3ccc(-c4c5nc(c(-c6c(F)c(F)c(F)c(F)c6F)c6ccc([nH]6)c(-c6c(F)c(F)c(F)c(F)c6F)c6nc(c(-c7c(F)c(F)c(F)c(F)c7F)c7ccc4[nH]7)C=C6)C=C5)cc3)o2)c(C)cc1Br
REMARK SMILES IDX 16 1 15 2 14 3 13 4 11 5 12 6 10 7 9 8 8 9 5 10 6 11 85 12
REMARK SMILES IDX 7 13 4 14 1 15 2 16 3 17 89 18 88 19 90 20 86 21 87 22 17 23
REMARK SMILES IDX 18 24 19 25 20 26 21 27 22 28 23 29 84 30 24 31 83 32 25 33
REMARK SMILES IDX 26 34 27 35 77 36 28 37 82 38 76 39 78 40 29 41 81 42 75 43
REMARK SMILES IDX 74 44 30 46 62 47 42 48 61 49 43 50 46 51 60 52 79 53 44 54
REMARK SMILES IDX 45 55 59 57 80 58 47 59 31 60 32 61 40 62 33 63 34 64 38 65
REMARK SMILES IDX 41 66 35 67 36 68 39 69 37 70 63 71 64 72 72 73 65 74 66 75
REMARK SMILES IDX 70 76 73 77 67 78 68 79 71 80 69 81 48 82 49 83 57 84 50 85
REMARK SMILES IDX 51 86 55 87 58 88 52 89 53 90 56 91 54 92
REMARK H PARENT 78 45 46 56
REMARK Flexibility Score: inf
ROOT
ATOM      1  O   UNL A   1      46.052  21.053  25.622  1.00  0.00    -0.374 OA
ENDROOT
BRANCH   1   2
ATOM      2  C   UNL A   1      45.851  20.066  24.614  1.00  0.00     0.202 C 
BRANCH   2   3
ATOM      3  C   UNL A   1      44.958  18.871  24.962  1.00  0.00     0.261 C 
BRANCH   3   4
ATOM      4  O   UNL A   1      43.562  19.146  24.761  1.00  0.00    -0.460 OA
BRANCH   4   5
ATOM      5  C   UNL A   1      42.758  18.795  25.795  1.00  0.00     0.330 C 
ATOM      6  O   UNL A   1      42.922  17.850  26.552  1.00  0.00    -0.247 OA
BRANCH   5   7
ATOM      7  C   UNL A   1      41.652  19.749  25.993  1.00  0.00     0.097 C 
ATOM      8  C   UNL A   1      41.784  21.009  26.431  1.00  0.00     0.054 C 
BRANCH   8   9
ATOM      9  C   UNL A   1      40.640  21.853  26.514  1.00  0.00     0.127 A 
ATOM     10  C   UNL A   1      38.568  22.592  26.174  1.00  0.00     0.135 A 
ATOM     11  C   UNL A   1      39.223  23.593  26.852  1.00  0.00     0.051 A 
ATOM     12  O   UNL A   1      39.408  21.541  25.975  1.00  0.00    -0.457 OA
ATOM     13  C   UNL A   1      40.532  23.112  27.092  1.00  0.00     0.051 A 
BRANCH  10  14
ATOM     14  C   UNL A   1      37.234  22.469  25.610  1.00  0.00     0.020 A 
ATOM     15  C   UNL A   1      34.235  24.792  25.239  1.00  0.00     0.045 C 
ATOM     16  C   UNL A   1      35.060  23.536  25.182  1.00  0.00    -0.036 A 
ATOM     17  C   UNL A   1      36.377  23.583  25.674  1.00  0.00     0.016 A 
ATOM     18  C   UNL A   1      34.614  22.345  24.599  1.00  0.00     0.021 A 
ATOM     19  C   UNL A   1      35.456  21.228  24.531  1.00  0.00     0.020 A 
ATOM     20  Br  UNL A   1      32.871  22.162  23.866  1.00  0.00    -0.051 Br
ATOM     21  C   UNL A   1      36.768  21.275  25.031  1.00  0.00    -0.039 A 
ATOM     22  C   UNL A   1      37.639  20.053  24.923  1.00  0.00     0.045 C 
ENDBRANCH  10  14
ENDBRANCH   8   9
ENDBRANCH   5   7
ENDBRANCH   4   5
ENDBRANCH   3   4
ENDBRANCH   2   3
ENDBRANCH   1   2
BRANCH   1  23
ATOM     23  C   UNL A   1      45.118  22.128  25.701  1.00  0.00     0.202 C 
BRANCH  23  24
ATOM     24  C   UNL A   1      44.774  22.861  24.396  1.00  0.00     0.261 C 
BRANCH  24  25
ATOM     25  O   UNL A   1      44.078  24.100  24.620  1.00  0.00    -0.460 OA
BRANCH  25  26
ATOM     26  C   UNL A   1      44.842  25.114  25.096  1.00  0.00     0.338 C 
ATOM     27  O   UNL A   1      45.885  25.542  24.631  1.00  0.00    -0.246 OA
BRANCH  26  28
ATOM     28  C   UNL A   1      44.119  25.787  26.193  1.00  0.00     0.060 A 
ATOM     29  C   UNL A   1      43.240  25.084  27.018  1.00  0.00     0.016 A 
ATOM     30  C   UNL A   1      44.352  27.152  26.403  1.00  0.00     0.016 A 
ATOM     31  C   UNL A   1      42.604  25.754  28.067  1.00  0.00     0.010 A 
ATOM     32  C   UNL A   1      43.719  27.818  27.454  1.00  0.00     0.010 A 
ATOM     33  C   UNL A   1      42.848  27.120  28.303  1.00  0.00    -0.014 A 
BRANCH  33  34
ATOM     34  C   UNL A   1      42.266  27.778  29.499  1.00  0.00     0.031 A 
ATOM     35  C   UNL A   1      42.937  27.703  30.839  1.00  0.00     0.074 A 
ATOM     36  C   UNL A   1      41.113  28.460  29.362  1.00  0.00     0.049 A 
ATOM     37  N   UNL A   1      42.614  28.310  31.955  1.00  0.00    -0.248 NA
ATOM     38  C   UNL A   1      44.117  26.836  30.947  1.00  0.00     0.031 C 
ATOM     39  C   UNL A   1      40.347  28.564  28.120  1.00  0.00     0.029 A 
ATOM     40  N   UNL A   1      40.393  29.204  30.262  1.00  0.00    -0.354 N 
ATOM     41  C   UNL A   1      43.562  27.918  32.889  1.00  0.00     0.074 A 
ATOM     42  C   UNL A   1      44.439  26.976  32.226  1.00  0.00     0.031 C 
ATOM     43  C   UNL A   1      39.289  29.363  28.324  1.00  0.00     0.029 A 
ATOM     44  C   UNL A   1      39.284  29.802  29.717  1.00  0.00     0.049 A 
ATOM     45  H   UNL A   1      40.647  29.301  31.209  1.00  0.00     0.167 HD
ATOM     46  C   UNL A   1      43.699  28.331  34.172  1.00  0.00     0.037 A 
ATOM     47  C   UNL A   1      38.369  30.619  30.272  1.00  0.00     0.037 A 
ATOM     48  C   UNL A   1      42.814  29.260  34.828  1.00  0.00     0.049 A 
ATOM     49  C   UNL A   1      38.516  31.019  31.715  1.00  0.00     0.074 A 
ATOM     50  C   UNL A   1      42.900  29.770  36.112  1.00  0.00     0.029 A 
ATOM     51  N   UNL A   1      41.673  29.807  34.259  1.00  0.00    -0.354 N 
ATOM     52  N   UNL A   1      39.470  30.719  32.561  1.00  0.00    -0.248 NA
ATOM     53  C   UNL A   1      37.462  31.873  32.279  1.00  0.00     0.031 C 
ATOM     54  C   UNL A   1      41.781  30.575  36.341  1.00  0.00     0.029 A 
ATOM     55  C   UNL A   1      41.027  30.618  35.180  1.00  0.00     0.049 A 
ATOM     56  H   UNL A   1      41.368  29.644  33.337  1.00  0.00     0.167 HD
ATOM     57  C   UNL A   1      39.143  31.357  33.750  1.00  0.00     0.074 A 
ATOM     58  C   UNL A   1      37.913  32.083  33.510  1.00  0.00     0.031 C 
ATOM     59  C   UNL A   1      39.801  31.337  34.933  1.00  0.00     0.037 A 
BRANCH  46  60
ATOM     60  C   UNL A   1      44.861  27.800  34.962  1.00  0.00     0.064 A 
ATOM     61  C   UNL A   1      46.086  28.482  35.002  1.00  0.00     0.173 A 
ATOM     62  C   UNL A   1      44.723  26.653  35.759  1.00  0.00     0.173 A 
ATOM     63  F   UNL A   1      46.272  29.581  34.256  1.00  0.00    -0.203 F 
ATOM     64  C   UNL A   1      47.135  28.029  35.799  1.00  0.00     0.198 A 
ATOM     65  C   UNL A   1      45.764  26.219  36.578  1.00  0.00     0.198 A 
ATOM     66  F   UNL A   1      43.569  25.969  35.768  1.00  0.00    -0.203 F 
ATOM     67  F   UNL A   1      48.306  28.681  35.796  1.00  0.00    -0.200 F 
ATOM     68  C   UNL A   1      46.969  26.906  36.594  1.00  0.00     0.200 A 
ATOM     69  F   UNL A   1      45.596  25.145  37.360  1.00  0.00    -0.200 F 
ATOM     70  F   UNL A   1      47.972  26.482  37.375  1.00  0.00    -0.200 F 
ENDBRANCH  46  60
BRANCH  47  71
ATOM     71  C   UNL A   1      37.252  31.143  29.442  1.00  0.00     0.064 A 
ATOM     72  C   UNL A   1      36.173  30.322  29.087  1.00  0.00     0.173 A 
ATOM     73  C   UNL A   1      37.227  32.477  29.009  1.00  0.00     0.173 A 
ATOM     74  F   UNL A   1      36.161  29.034  29.460  1.00  0.00    -0.203 F 
ATOM     75  C   UNL A   1      35.117  30.813  28.323  1.00  0.00     0.198 A 
ATOM     76  C   UNL A   1      36.155  32.975  28.271  1.00  0.00     0.198 A 
ATOM     77  F   UNL A   1      38.234  33.305  29.325  1.00  0.00    -0.203 F 
ATOM     78  F   UNL A   1      34.115  29.997  27.967  1.00  0.00    -0.200 F 
ATOM     79  C   UNL A   1      35.104  32.141  27.923  1.00  0.00     0.200 A 
ATOM     80  F   UNL A   1      36.139  34.263  27.903  1.00  0.00    -0.200 F 
ATOM     81  F   UNL A   1      34.081  32.615  27.201  1.00  0.00    -0.200 F 
ENDBRANCH  47  71
BRANCH  59  82
ATOM     82  C   UNL A   1      39.216  32.118  36.075  1.00  0.00     0.064 A 
ATOM     83  C   UNL A   1      38.293  31.539  36.959  1.00  0.00     0.173 A 
ATOM     84  C   UNL A   1      39.651  33.425  36.345  1.00  0.00     0.173 A 
ATOM     85  F   UNL A   1      37.834  30.299  36.739  1.00  0.00    -0.203 F 
ATOM     86  C   UNL A   1      37.822  32.242  38.065  1.00  0.00     0.198 A 
ATOM     87  C   UNL A   1      39.203  34.113  37.470  1.00  0.00     0.198 A 
ATOM     88  F   UNL A   1      40.539  34.023  35.536  1.00  0.00    -0.203 F 
ATOM     89  F   UNL A   1      36.918  31.680  38.880  1.00  0.00    -0.200 F 
ATOM     90  C   UNL A   1      38.288  33.522  38.328  1.00  0.00     0.200 A 
ATOM     91  F   UNL A   1      39.667  35.343  37.731  1.00  0.00    -0.200 F 
ATOM     92  F   UNL A   1      37.853  34.186  39.407  1.00  0.00    -0.200 F 
ENDBRANCH  59  82
ENDBRANCH  33  34
ENDBRANCH  26  28
ENDBRANCH  25  26
ENDBRANCH  24  25
ENDBRANCH  23  24
ENDBRANCH   1  23
TORSDOF 16
ENDMDL
MODEL 2
REMARK VINA RESULT:     -11.8      6.212     11.928
REMARK SMILES Cc1cc(-c2ccc(/C=C/C(=O)OCCOCCOC(=O)c3ccc(-c4c5nc(c(-c6c(F)c(F)c(F)c(F)c6F)c6ccc([nH]6)c(-c6c(F)c(F)c(F)c(F)c6F)c6nc(c(-c7c(F)c(F)c(F)c(F)c7F)c7ccc4[nH]7)C=C6)C=C5)cc3)o2)c(C)cc1Br
REMARK SMILES IDX 16 1 15 2 14 3 13 4 11 5 12 6 10 7 9 8 8 9 5 10 6 11 85 12
REMARK SMILES IDX 7 13 4 14 1 15 2 16 3 17 89 18 88 19 90 20 86 21 87 22 17 23
REMARK SMILES IDX 18 24 19 25 20 26 21 27 22 28 23 29 84 30 24 31 83 32 25 33
REMARK SMILES IDX 26 34 27 35 77 36 28 37 82 38 76 39 78 40 29 41 81 42 75 43
REMARK SMILES IDX 74 44 30 46 62 47 42 48 61 49 43 50 46 51 60 52 79 53 44 54
REMARK SMILES IDX 45 55 59 57 80 58 47 59 31 60 32 61 40 62 33 63 34 64 38 65
REMARK SMILES IDX 41 66 35 67 36 68 39 69 37 70 63 71 64 72 72 73 65 74 66 75
REMARK SMILES IDX 70 76 73 77 67 78 68 79 71 80 69 81 48 82 49 83 57 84 50 85
REMARK SMILES IDX 51 86 55 87 58 88 52 89 53 90 56 91 54 92
REMARK H PARENT 78 45 46 56
REMARK Flexibility Score: inf
ROOT
ATOM      1  O   UNL A   1      34.730  36.006  33.059  1.00  0.00    -0.374 OA
ENDROOT
BRANCH   1   2
ATOM      2  C   UNL A   1      33.382  36.106  32.609  1.00  0.00     0.202 C 
BRANCH   2   3
ATOM      3  C   UNL A   1      33.130  36.008  31.102  1.00  0.00     0.261 C 
BRANCH   3   4
ATOM      4  O   UNL A   1      33.271  34.667  30.604  1.00  0.00    -0.460 OA
BRANCH   4   5
ATOM      5  C   UNL A   1      34.017  34.554  29.477  1.00  0.00     0.330 C 
ATOM      6  O   UNL A   1      34.558  35.467  28.872  1.00  0.00    -0.247 OA
BRANCH   5   7
ATOM      7  C   UNL A   1      34.198  33.151  29.064  1.00  0.00     0.097 C 
ATOM      8  C   UNL A   1      33.934  32.662  27.844  1.00  0.00     0.054 C 
BRANCH   8   9
ATOM      9  C   UNL A   1      34.218  31.297  27.552  1.00  0.00     0.127 A 
ATOM     10  C   UNL A   1      33.944  29.240  26.748  1.00  0.00     0.135 A 
ATOM     11  C   UNL A   1      35.086  29.201  27.513  1.00  0.00     0.051 A 
ATOM     12  O   UNL A   1      33.422  30.496  26.758  1.00  0.00    -0.457 OA
ATOM     13  C   UNL A   1      35.275  30.516  28.001  1.00  0.00     0.051 A 
BRANCH  10  14
ATOM     14  C   UNL A   1      33.195  28.235  26.011  1.00  0.00     0.020 A 
ATOM     15  C   UNL A   1      33.649  26.431  22.683  1.00  0.00     0.045 C 
ATOM     16  C   UNL A   1      33.013  26.869  23.974  1.00  0.00    -0.036 A 
ATOM     17  C   UNL A   1      33.693  27.812  24.765  1.00  0.00     0.016 A 
ATOM     18  C   UNL A   1      31.818  26.334  24.465  1.00  0.00     0.021 A 
ATOM     19  C   UNL A   1      31.309  26.748  25.702  1.00  0.00     0.020 A 
ATOM     20  Br  UNL A   1      30.820  25.028  23.512  1.00  0.00    -0.051 Br
ATOM     21  C   UNL A   1      31.987  27.697  26.486  1.00  0.00    -0.039 A 
ATOM     22  C   UNL A   1      31.407  28.100  27.815  1.00  0.00     0.045 C 
ENDBRANCH  10  14
ENDBRANCH   8   9
ENDBRANCH   5   7
ENDBRANCH   4   5
ENDBRANCH   3   4
ENDBRANCH   2   3
ENDBRANCH   1   2
BRANCH   1  23
ATOM     23  C   UNL A   1      35.069  34.921  33.920  1.00  0.00     0.202 C 
BRANCH  23  24
ATOM     24  C   UNL A   1      34.713  33.505  33.445  1.00  0.00     0.261 C 
BRANCH  24  25
ATOM     25  O   UNL A   1      35.760  32.900  32.665  1.00  0.00    -0.460 OA
BRANCH  25  26
ATOM     26  C   UNL A   1      36.705  32.241  33.380  1.00  0.00     0.338 C 
ATOM     27  O   UNL A   1      36.683  31.967  34.569  1.00  0.00    -0.246 OA
BRANCH  26  28
ATOM     28  C   UNL A   1      37.724  31.707  32.455  1.00  0.00     0.060 A 
ATOM     29  C   UNL A   1      37.612  31.886  31.075  1.00  0.00     0.016 A 
ATOM     30  C   UNL A   1      38.825  31.030  32.997  1.00  0.00     0.016 A 
ATOM     31  C   UNL A   1      38.618  31.395  30.239  1.00  0.00     0.010 A 
ATOM     32  C   UNL A   1      39.830  30.545  32.160  1.00  0.00     0.010 A 
ATOM     33  C   UNL A   1      39.741  30.734  30.773  1.00  0.00    -0.014 A 
BRANCH  33  34
ATOM     34  C   UNL A   1      40.859  30.339  29.880  1.00  0.00     0.031 A 
ATOM     35  C   UNL A   1      41.973  31.288  29.553  1.00  0.00     0.074 A 
ATOM     36  C   UNL A   1      40.863  29.094  29.366  1.00  0.00     0.049 A 
ATOM     37  N   UNL A   1      43.074  31.062  28.877  1.00  0.00    -0.248 NA
ATOM     38  C   UNL A   1      41.839  32.667  30.038  1.00  0.00     0.031 C 
ATOM     39  C   UNL A   1      39.811  28.100  29.579  1.00  0.00     0.029 A 
ATOM     40  N   UNL A   1      41.782  28.447  28.579  1.00  0.00    -0.354 N 
ATOM     41  C   UNL A   1      43.772  32.260  28.877  1.00  0.00     0.074 A 
ATOM     42  C   UNL A   1      42.947  33.228  29.568  1.00  0.00     0.031 C 
ATOM     43  C   UNL A   1      40.164  26.954  28.974  1.00  0.00     0.029 A 
ATOM     44  C   UNL A   1      41.449  27.143  28.307  1.00  0.00     0.049 A 
ATOM     45  H   UNL A   1      42.601  28.876  28.241  1.00  0.00     0.167 HD
ATOM     46  C   UNL A   1      45.001  32.517  28.368  1.00  0.00     0.037 A 
ATOM     47  C   UNL A   1      42.108  26.200  27.606  1.00  0.00     0.037 A 
ATOM     48  C   UNL A   1      45.813  31.551  27.670  1.00  0.00     0.049 A 
ATOM     49  C   UNL A   1      43.448  26.528  27.006  1.00  0.00     0.074 A 
ATOM     50  C   UNL A   1      47.089  31.709  27.158  1.00  0.00     0.029 A 
ATOM     51  N   UNL A   1      45.422  30.254  27.371  1.00  0.00    -0.354 N 
ATOM     52  N   UNL A   1      44.142  27.636  27.095  1.00  0.00    -0.248 NA
ATOM     53  C   UNL A   1      44.097  25.476  26.213  1.00  0.00     0.031 C 
ATOM     54  C   UNL A   1      47.446  30.531  26.497  1.00  0.00     0.029 A 
ATOM     55  C   UNL A   1      46.417  29.614  26.648  1.00  0.00     0.049 A 
ATOM     56  H   UNL A   1      44.564  29.847  27.633  1.00  0.00     0.167 HD
ATOM     57  C   UNL A   1      45.314  27.411  26.384  1.00  0.00     0.074 A 
ATOM     58  C   UNL A   1      45.249  26.051  25.890  1.00  0.00     0.031 C 
ATOM     59  C   UNL A   1      46.345  28.259  26.158  1.00  0.00     0.037 A 
BRANCH  46  60
ATOM     60  C   UNL A   1      45.569  33.894  28.558  1.00  0.00     0.064 A 
ATOM     61  C   UNL A   1      46.447  34.181  29.614  1.00  0.00     0.173 A 
ATOM     62  C   UNL A   1      45.310  34.912  27.627  1.00  0.00     0.173 A 
ATOM     63  F   UNL A   1      46.725  33.245  30.534  1.00  0.00    -0.203 F 
ATOM     64  C   UNL A   1      47.033  35.438  29.741  1.00  0.00     0.198 A 
ATOM     65  C   UNL A   1      45.921  36.160  27.740  1.00  0.00     0.198 A 
ATOM     66  F   UNL A   1      44.487  34.689  26.591  1.00  0.00    -0.203 F 
ATOM     67  F   UNL A   1      47.843  35.696  30.775  1.00  0.00    -0.200 F 
ATOM     68  C   UNL A   1      46.778  36.422  28.798  1.00  0.00     0.200 A 
ATOM     69  F   UNL A   1      45.688  37.103  26.817  1.00  0.00    -0.200 F 
ATOM     70  F   UNL A   1      47.358  37.625  28.909  1.00  0.00    -0.200 F 
ENDBRANCH  46  60
BRANCH  47  71
ATOM     71  C   UNL A   1      41.519  24.841  27.471  1.00  0.00     0.064 A 
ATOM     72  C   UNL A   1      42.039  23.757  28.190  1.00  0.00     0.173 A 
ATOM     73  C   UNL A   1      40.413  24.604  26.642  1.00  0.00     0.173 A 
ATOM     74  F   UNL A   1      43.109  23.929  28.981  1.00  0.00    -0.203 F 
ATOM     75  C   UNL A   1      41.481  22.485  28.079  1.00  0.00     0.198 A 
ATOM     76  C   UNL A   1      39.836  23.339  26.555  1.00  0.00     0.198 A 
ATOM     77  F   UNL A   1      39.874  25.609  25.935  1.00  0.00    -0.203 F 
ATOM     78  F   UNL A   1      42.020  21.459  28.750  1.00  0.00    -0.200 F 
ATOM     79  C   UNL A   1      40.374  22.279  27.269  1.00  0.00     0.200 A 
ATOM     80  F   UNL A   1      38.756  23.149  25.786  1.00  0.00    -0.200 F 
ATOM     81  F   UNL A   1      39.829  21.059  27.174  1.00  0.00    -0.200 F 
ENDBRANCH  47  71
BRANCH  59  82
ATOM     82  C   UNL A   1      47.500  27.757  25.339  1.00  0.00     0.064 A 
ATOM     83  C   UNL A   1      47.493  27.841  23.939  1.00  0.00     0.173 A 
ATOM     84  C   UNL A   1      48.662  27.274  25.961  1.00  0.00     0.173 A 
ATOM     85  F   UNL A   1      46.403  28.281  23.294  1.00  0.00    -0.203 F 
ATOM     86  C   UNL A   1      48.604  27.454  23.193  1.00  0.00     0.198 A 
ATOM     87  C   UNL A   1      49.782  26.919  25.214  1.00  0.00     0.198 A 
ATOM     88  F   UNL A   1      48.724  27.181  27.299  1.00  0.00    -0.203 F 
ATOM     89  F   UNL A   1      48.564  27.515  21.854  1.00  0.00    -0.200 F 
ATOM     90  C   UNL A   1      49.751  27.007  23.831  1.00  0.00     0.200 A 
ATOM     91  F   UNL A   1      50.895  26.503  25.834  1.00  0.00    -0.200 F 
ATOM     92  F   UNL A   1      50.827  26.659  23.111  1.00  0.00    -0.200 F 
ENDBRANCH  59  82
ENDBRANCH  33  34
ENDBRANCH  26  28
ENDBRANCH  25  26
ENDBRANCH  24  25
ENDBRANCH  23  24
ENDBRANCH   1  23
TORSDOF 16
ENDMDL
MODEL 3
REMARK VINA RESULT:     -11.8      6.224     12.054
REMARK SMILES Cc1cc(-c2ccc(/C=C/C(=O)OCCOCCOC(=O)c3ccc(-c4c5nc(c(-c6c(F)c(F)c(F)c(F)c6F)c6ccc([nH]6)c(-c6c(F)c(F)c(F)c(F)c6F)c6nc(c(-c7c(F)c(F)c(F)c(F)c7F)c7ccc4[nH]7)C=C6)C=C5)cc3)o2)c(C)cc1Br
REMARK SMILES IDX 16 1 15 2 14 3 13 4 11 5 12 6 10 7 9 8 8 9 5 10 6 11 85 12
REMARK SMILES IDX 7 13 4 14 1 15 2 16 3 17 89 18 88 19 90 20 86 21 87 22 17 23
REMARK SMILES IDX 18 24 19 25 20 26 21 27 22 28 23 29 84 30 24 31 83 32 25 33
REMARK SMILES IDX 26 34 27 35 77 36 28 37 82 38 76 39 78 40 29 41 81 42 75 43
REMARK SMILES IDX 74 44 30 46 62 47 42 48 61 49 43 50 46 51 60 52 79 53 44 54
REMARK SMILES IDX 45 55 59 57 80 58 47 59 31 60 32 61 40 62 33 63 34 64 38 65
REMARK SMILES IDX 41 66 35 67 36 68 39 69 37 70 63 71 64 72 72 73 65 74 66 75
REMARK SMILES IDX 70 76 73 77 67 78 68 79 71 80 69 81 48 82 49 83 57 84 50 85
REMARK SMILES IDX 51 86 55 87 58 88 52 89 53 90 56 91 54 92
REMARK H PARENT 78 45 46 56
REMARK Flexibility Score: inf
ROOT
ATOM      1  O   UNL A   1      33.365  35.122  32.573  1.00  0.00    -0.374 OA
ENDROOT
BRANCH   1   2
ATOM      2  C   UNL A   1      33.270  36.164  31.606  1.00  0.00     0.202 C 
BRANCH   2   3
ATOM      3  C   UNL A   1      32.816  35.781  30.195  1.00  0.00     0.261 C 
BRANCH   3   4
ATOM      4  O   UNL A   1      33.280  34.480  29.798  1.00  0.00    -0.460 OA
BRANCH   4   5
ATOM      5  C   UNL A   1      34.101  34.473  28.720  1.00  0.00     0.330 C 
ATOM      6  O   UNL A   1      34.604  35.450  28.185  1.00  0.00    -0.247 OA
BRANCH   5   7
ATOM      7  C   UNL A   1      34.422  33.107  28.268  1.00  0.00     0.097 C 
ATOM      8  C   UNL A   1      33.523  32.175  27.923  1.00  0.00     0.054 C 
BRANCH   8   9
ATOM      9  C   UNL A   1      33.965  30.911  27.437  1.00  0.00     0.127 A 
ATOM     10  C   UNL A   1      33.897  28.931  26.422  1.00  0.00     0.135 A 
ATOM     11  C   UNL A   1      35.119  28.996  27.050  1.00  0.00     0.051 A 
ATOM     12  O   UNL A   1      33.202  30.079  26.642  1.00  0.00    -0.457 OA
ATOM     13  C   UNL A   1      35.173  30.266  27.672  1.00  0.00     0.051 A 
BRANCH  10  14
ATOM     14  C   UNL A   1      33.218  27.901  25.653  1.00  0.00     0.020 A 
ATOM     15  C   UNL A   1      31.029  24.898  26.502  1.00  0.00     0.045 C 
ATOM     16  C   UNL A   1      31.832  25.870  25.682  1.00  0.00    -0.036 A 
ATOM     17  C   UNL A   1      32.490  26.919  26.349  1.00  0.00     0.016 A 
ATOM     18  C   UNL A   1      31.899  25.829  24.285  1.00  0.00     0.021 A 
ATOM     19  C   UNL A   1      32.622  26.799  23.580  1.00  0.00     0.020 A 
ATOM     20  Br  UNL A   1      31.026  24.486  23.263  1.00  0.00    -0.051 Br
ATOM     21  C   UNL A   1      33.286  27.841  24.250  1.00  0.00    -0.039 A 
ATOM     22  C   UNL A   1      34.038  28.868  23.447  1.00  0.00     0.045 C 
ENDBRANCH  10  14
ENDBRANCH   8   9
ENDBRANCH   5   7
ENDBRANCH   4   5
ENDBRANCH   3   4
ENDBRANCH   2   3
ENDBRANCH   1   2
BRANCH   1  23
ATOM     23  C   UNL A   1      34.629  34.898  33.195  1.00  0.00     0.202 C 
BRANCH  23  24
ATOM     24  C   UNL A   1      34.868  33.522  33.832  1.00  0.00     0.261 C 
BRANCH  24  25
ATOM     25  O   UNL A   1      36.013  32.845  33.283  1.00  0.00    -0.460 OA
BRANCH  25  26
ATOM     26  C   UNL A   1      35.773  32.124  32.160  1.00  0.00     0.338 C 
ATOM     27  O   UNL A   1      34.703  31.959  31.596  1.00  0.00    -0.246 OA
BRANCH  26  28
ATOM     28  C   UNL A   1      37.060  31.700  31.576  1.00  0.00     0.060 A 
ATOM     29  C   UNL A   1      38.039  31.082  32.355  1.00  0.00     0.016 A 
ATOM     30  C   UNL A   1      37.271  31.913  30.207  1.00  0.00     0.016 A 
ATOM     31  C   UNL A   1      39.229  30.665  31.752  1.00  0.00     0.010 A 
ATOM     32  C   UNL A   1      38.458  31.492  29.607  1.00  0.00     0.010 A 
ATOM     33  C   UNL A   1      39.443  30.852  30.374  1.00  0.00    -0.014 A 
BRANCH  33  34
ATOM     34  C   UNL A   1      40.654  30.284  29.730  1.00  0.00     0.031 A 
ATOM     35  C   UNL A   1      40.678  28.878  29.207  1.00  0.00     0.074 A 
ATOM     36  C   UNL A   1      41.747  31.062  29.615  1.00  0.00     0.049 A 
ATOM     37  N   UNL A   1      41.618  28.270  28.527  1.00  0.00    -0.248 NA
ATOM     38  C   UNL A   1      39.501  28.044  29.483  1.00  0.00     0.031 C 
ATOM     39  C   UNL A   1      41.856  32.429  30.126  1.00  0.00     0.029 A 
ATOM     40  N   UNL A   1      42.962  30.828  29.022  1.00  0.00    -0.354 N 
ATOM     41  C   UNL A   1      41.139  26.994  28.273  1.00  0.00     0.074 A 
ATOM     42  C   UNL A   1      39.848  26.893  28.922  1.00  0.00     0.031 C 
ATOM     43  C   UNL A   1      43.055  32.928  29.786  1.00  0.00     0.029 A 
ATOM     44  C   UNL A   1      43.809  31.908  29.062  1.00  0.00     0.049 A 
ATOM     45  H   UNL A   1      43.203  29.969  28.606  1.00  0.00     0.167 HD
ATOM     46  C   UNL A   1      41.715  26.008  27.542  1.00  0.00     0.037 A 
ATOM     47  C   UNL A   1      45.051  32.065  28.565  1.00  0.00     0.037 A 
ATOM     48  C   UNL A   1      43.005  26.112  26.909  1.00  0.00     0.049 A 
ATOM     49  C   UNL A   1      45.688  30.935  27.803  1.00  0.00     0.074 A 
ATOM     50  C   UNL A   1      43.650  25.181  26.113  1.00  0.00     0.029 A 
ATOM     51  N   UNL A   1      43.856  27.203  27.013  1.00  0.00    -0.354 N 
ATOM     52  N   UNL A   1      45.186  29.766  27.487  1.00  0.00    -0.248 NA
ATOM     53  C   UNL A   1      47.062  31.146  27.326  1.00  0.00     0.031 C 
ATOM     54  C   UNL A   1      44.913  25.682  25.786  1.00  0.00     0.029 A 
ATOM     55  C   UNL A   1      45.034  26.952  26.328  1.00  0.00     0.049 A 
ATOM     56  H   UNL A   1      43.652  28.033  27.502  1.00  0.00     0.167 HD
ATOM     57  C   UNL A   1      46.173  29.110  26.763  1.00  0.00     0.074 A 
ATOM     58  C   UNL A   1      47.295  30.020  26.664  1.00  0.00     0.031 C 
ATOM     59  C   UNL A   1      46.149  27.863  26.234  1.00  0.00     0.037 A 
BRANCH  46  60
ATOM     60  C   UNL A   1      40.952  24.727  27.362  1.00  0.00     0.064 A 
ATOM     61  C   UNL A   1      39.857  24.648  26.489  1.00  0.00     0.173 A 
ATOM     62  C   UNL A   1      41.372  23.546  27.993  1.00  0.00     0.173 A 
ATOM     63  F   UNL A   1      39.411  25.749  25.863  1.00  0.00    -0.203 F 
ATOM     64  C   UNL A   1      39.202  23.440  26.264  1.00  0.00     0.198 A 
ATOM     65  C   UNL A   1      40.733  22.333  27.744  1.00  0.00     0.198 A 
ATOM     66  F   UNL A   1      42.421  23.562  28.830  1.00  0.00    -0.203 F 
ATOM     67  F   UNL A   1      38.140  23.397  25.449  1.00  0.00    -0.200 F 
ATOM     68  C   UNL A   1      39.647  22.282  26.883  1.00  0.00     0.200 A 
ATOM     69  F   UNL A   1      41.177  21.212  28.328  1.00  0.00    -0.200 F 
ATOM     70  F   UNL A   1      39.029  21.116  26.651  1.00  0.00    -0.200 F 
ENDBRANCH  46  60
BRANCH  47  71
ATOM     71  C   UNL A   1      45.755  33.362  28.743  1.00  0.00     0.064 A 
ATOM     72  C   UNL A   1      46.539  33.605  29.879  1.00  0.00     0.173 A 
ATOM     73  C   UNL A   1      45.680  34.373  27.774  1.00  0.00     0.173 A 
ATOM     74  F   UNL A   1      46.626  32.677  30.844  1.00  0.00    -0.203 F 
ATOM     75  C   UNL A   1      47.213  34.813  30.043  1.00  0.00     0.198 A 
ATOM     76  C   UNL A   1      46.380  35.569  27.924  1.00  0.00     0.198 A 
ATOM     77  F   UNL A   1      44.946  34.189  26.666  1.00  0.00    -0.203 F 
ATOM     78  F   UNL A   1      47.927  35.033  31.155  1.00  0.00    -0.200 F 
ATOM     79  C   UNL A   1      47.141  35.790  29.061  1.00  0.00     0.200 A 
ATOM     80  F   UNL A   1      46.321  36.501  26.964  1.00  0.00    -0.200 F 
ATOM     81  F   UNL A   1      47.802  36.945  29.213  1.00  0.00    -0.200 F 
ENDBRANCH  47  71
BRANCH  59  82
ATOM     82  C   UNL A   1      47.369  27.390  25.497  1.00  0.00     0.064 A 
ATOM     83  C   UNL A   1      47.535  27.636  24.126  1.00  0.00     0.173 A 
ATOM     84  C   UNL A   1      48.424  26.769  26.184  1.00  0.00     0.173 A 
ATOM     85  F   UNL A   1      46.551  28.213  23.420  1.00  0.00    -0.203 F 
ATOM     86  C   UNL A   1      48.708  27.271  23.469  1.00  0.00     0.198 A 
ATOM     87  C   UNL A   1      49.608  26.435  25.531  1.00  0.00     0.198 A 
ATOM     88  F   UNL A   1      48.321  26.517  27.498  1.00  0.00    -0.203 F 
ATOM     89  F   UNL A   1      48.832  27.490  22.152  1.00  0.00    -0.200 F 
ATOM     90  C   UNL A   1      49.748  26.684  24.174  1.00  0.00     0.200 A 
ATOM     91  F   UNL A   1      50.618  25.883  26.218  1.00  0.00    -0.200 F 
ATOM     92  F   UNL A   1      50.885  26.358  23.545  1.00  0.00    -0.200 F 
ENDBRANCH  59  82
ENDBRANCH  33  34
ENDBRANCH  26  28
ENDBRANCH  25  26
ENDBRANCH  24  25
ENDBRANCH  23  24
ENDBRANCH   1  23
TORSDOF 16
ENDMDL
