MODEL 1
REMARK VINA RESULT:     -10.7      0.000      0.000
REMARK SMILES CC[C@@](C)([NH2+]Cc1ccc(C(N)=O)cc1F)C(=O)OCCOCCOC(=O)c1ccc(-c2c3nc(c(-c4c(F)c(F)c(F)c(F)c4F)c4ccc([nH]4)c(-c4c(F)c(F)c(F)c(F)c4F)c4nc(c(-c5c(F)c(F)c(F)c(F)c5F)c5ccc2[nH]5)C=C4)C=C3)cc1
REMARK SMILES IDX 21 1 20 2 19 3 17 4 18 5 3 6 4 7 2 8 1 9 5 10 6 13 7 14 8 15
REMARK SMILES IDX 15 16 9 17 14 18 16 19 10 20 11 21 12 22 13 23 22 26 23 27
REMARK SMILES IDX 24 28 25 29 26 30 27 31 28 32 29 33 90 34 30 35 89 36 31 37
REMARK SMILES IDX 32 38 33 39 83 40 34 41 88 42 82 43 84 44 35 45 87 46 81 47
REMARK SMILES IDX 80 48 36 50 68 51 48 52 67 53 49 54 52 55 66 56 85 57 50 58
REMARK SMILES IDX 51 59 65 61 86 62 53 63 37 64 38 65 46 66 39 67 40 68 44 69
REMARK SMILES IDX 47 70 41 71 42 72 45 73 43 74 69 75 70 76 78 77 71 78 72 79
REMARK SMILES IDX 76 80 79 81 73 82 74 83 77 84 75 85 54 86 55 87 63 88 56 89
REMARK SMILES IDX 57 90 61 91 64 92 58 93 59 94 62 95 60 96
REMARK H PARENT 5 11 5 12 12 24 12 25 84 49 52 60
REMARK Flexibility Score: inf
ROOT
ATOM      1  C   UNL A   1      33.784  19.713  24.760  1.00  0.00     0.202 C 
ENDROOT
BRANCH   1   2
ATOM      2  C   UNL A   1      32.429  20.355  25.059  1.00  0.00     0.261 C 
BRANCH   2   3
ATOM      3  O   UNL A   1      32.560  21.467  25.958  1.00  0.00    -0.459 OA
BRANCH   3   4
ATOM      4  C   UNL A   1      31.509  22.329  25.944  1.00  0.00     0.367 C 
ATOM      5  O   UNL A   1      30.348  21.958  26.090  1.00  0.00    -0.245 OA
BRANCH   4   6
ATOM      6  C   UNL A   1      31.887  23.799  25.634  1.00  0.00     0.191 C 
ATOM      7  C   UNL A   1      33.396  23.899  25.883  1.00  0.00     0.092 C 
BRANCH   6   8
ATOM      8  C   UNL A   1      31.557  24.089  24.127  1.00  0.00     0.077 C 
ATOM      9  C   UNL A   1      32.441  23.463  23.052  1.00  0.00     0.011 C 
ENDBRANCH   6   8
BRANCH   6  10
ATOM     10  N   UNL A   1      31.066  24.869  26.302  1.00  0.00    -0.329 N 
ATOM     11  H   UNL A   1      31.537  25.065  27.185  1.00  0.00     0.347 HD
ATOM     12  H   UNL A   1      30.141  24.440  26.282  1.00  0.00     0.347 HD
BRANCH  10  13
ATOM     13  C   UNL A   1      30.776  26.174  25.711  1.00  0.00     0.301 C 
BRANCH  13  14
ATOM     14  C   UNL A   1      31.742  27.289  26.014  1.00  0.00     0.042 A 
ATOM     15  C   UNL A   1      31.624  27.995  27.220  1.00  0.00     0.013 A 
ATOM     16  C   UNL A   1      32.780  27.633  25.144  1.00  0.00     0.132 A 
ATOM     17  C   UNL A   1      32.630  28.876  27.624  1.00  0.00     0.014 A 
ATOM     18  C   UNL A   1      33.812  28.467  25.553  1.00  0.00     0.053 A 
ATOM     19  F   UNL A   1      32.861  27.057  23.935  1.00  0.00    -0.206 F 
ATOM     20  C   UNL A   1      33.762  29.054  26.819  1.00  0.00     0.042 A 
BRANCH  20  21
ATOM     21  C   UNL A   1      34.978  29.742  27.316  1.00  0.00     0.248 C 
ATOM     22  N   UNL A   1      35.011  31.105  27.261  1.00  0.00    -0.366 N 
ATOM     23  O   UNL A   1      35.917  29.107  27.778  1.00  0.00    -0.270 OA
ATOM     24  H   UNL A   1      34.249  31.601  26.886  1.00  0.00     0.159 HD
ATOM     25  H   UNL A   1      35.798  31.592  27.598  1.00  0.00     0.159 HD
ENDBRANCH  20  21
ENDBRANCH  13  14
ENDBRANCH  10  13
ENDBRANCH   6  10
ENDBRANCH   4   6
ENDBRANCH   3   4
ENDBRANCH   2   3
ENDBRANCH   1   2
BRANCH   1  26
ATOM     26  O   UNL A   1      34.861  20.591  24.441  1.00  0.00    -0.374 OA
BRANCH  26  27
ATOM     27  C   UNL A   1      35.899  20.738  25.413  1.00  0.00     0.202 C 
BRANCH  27  28
ATOM     28  C   UNL A   1      37.304  20.298  24.989  1.00  0.00     0.261 C 
BRANCH  28  29
ATOM     29  O   UNL A   1      38.262  21.363  25.138  1.00  0.00    -0.460 OA
BRANCH  29  30
ATOM     30  C   UNL A   1      39.280  21.096  25.991  1.00  0.00     0.338 C 
ATOM     31  O   UNL A   1      39.897  20.053  26.107  1.00  0.00    -0.246 OA
BRANCH  30  32
ATOM     32  C   UNL A   1      39.705  22.341  26.659  1.00  0.00     0.060 A 
ATOM     33  C   UNL A   1      39.027  23.519  26.313  1.00  0.00     0.016 A 
ATOM     34  C   UNL A   1      40.781  22.376  27.547  1.00  0.00     0.016 A 
ATOM     35  C   UNL A   1      39.460  24.744  26.807  1.00  0.00     0.010 A 
ATOM     36  C   UNL A   1      41.225  23.610  28.033  1.00  0.00     0.010 A 
ATOM     37  C   UNL A   1      40.591  24.801  27.633  1.00  0.00    -0.014 A 
BRANCH  37  38
ATOM     38  C   UNL A   1      41.207  26.115  27.928  1.00  0.00     0.031 A 
ATOM     39  C   UNL A   1      42.611  26.375  27.461  1.00  0.00     0.074 A 
ATOM     40  C   UNL A   1      40.510  27.078  28.557  1.00  0.00     0.049 A 
ATOM     41  N   UNL A   1      43.359  27.435  27.631  1.00  0.00    -0.248 NA
ATOM     42  C   UNL A   1      43.260  25.297  26.695  1.00  0.00     0.031 C 
ATOM     43  C   UNL A   1      39.123  26.962  28.999  1.00  0.00     0.029 A 
ATOM     44  N   UNL A   1      40.880  28.346  28.928  1.00  0.00    -0.354 N 
ATOM     45  C   UNL A   1      44.562  27.152  26.997  1.00  0.00     0.074 A 
ATOM     46  C   UNL A   1      44.459  25.812  26.465  1.00  0.00     0.031 C 
ATOM     47  C   UNL A   1      38.758  28.114  29.588  1.00  0.00     0.029 A 
ATOM     48  C   UNL A   1      39.895  29.033  29.592  1.00  0.00     0.049 A 
ATOM     49  H   UNL A   1      41.767  28.727  28.734  1.00  0.00     0.167 HD
ATOM     50  C   UNL A   1      45.650  27.946  26.863  1.00  0.00     0.037 A 
ATOM     51  C   UNL A   1      39.917  30.258  30.154  1.00  0.00     0.037 A 
ATOM     52  C   UNL A   1      45.746  29.282  27.385  1.00  0.00     0.049 A 
ATOM     53  C   UNL A   1      41.170  31.092  30.061  1.00  0.00     0.074 A 
ATOM     54  C   UNL A   1      46.804  30.168  27.292  1.00  0.00     0.029 A 
ATOM     55  N   UNL A   1      44.745  29.923  28.099  1.00  0.00    -0.354 N 
ATOM     56  N   UNL A   1      42.303  30.817  29.462  1.00  0.00    -0.248 NA
ATOM     57  C   UNL A   1      41.148  32.404  30.722  1.00  0.00     0.031 C 
ATOM     58  C   UNL A   1      46.463  31.329  27.992  1.00  0.00     0.029 A 
ATOM     59  C   UNL A   1      45.172  31.186  28.475  1.00  0.00     0.049 A 
ATOM     60  H   UNL A   1      43.863  29.539  28.308  1.00  0.00     0.167 HD
ATOM     61  C   UNL A   1      43.117  31.925  29.652  1.00  0.00     0.074 A 
ATOM     62  C   UNL A   1      42.346  32.884  30.415  1.00  0.00     0.031 C 
ATOM     63  C   UNL A   1      44.388  32.132  29.230  1.00  0.00     0.037 A 
BRANCH  50  64
ATOM     64  C   UNL A   1      46.836  27.391  26.133  1.00  0.00     0.064 A 
ATOM     65  C   UNL A   1      47.835  26.693  26.830  1.00  0.00     0.173 A 
ATOM     66  C   UNL A   1      47.024  27.613  24.761  1.00  0.00     0.173 A 
ATOM     67  F   UNL A   1      47.701  26.457  28.143  1.00  0.00    -0.203 F 
ATOM     68  C   UNL A   1      48.984  26.252  26.182  1.00  0.00     0.198 A 
ATOM     69  C   UNL A   1      48.165  27.149  24.111  1.00  0.00     0.198 A 
ATOM     70  F   UNL A   1      46.092  28.263  24.048  1.00  0.00    -0.203 F 
ATOM     71  F   UNL A   1      49.939  25.615  26.875  1.00  0.00    -0.200 F 
ATOM     72  C   UNL A   1      49.148  26.478  24.824  1.00  0.00     0.200 A 
ATOM     73  F   UNL A   1      48.312  27.348  22.794  1.00  0.00    -0.200 F 
ATOM     74  F   UNL A   1      50.254  26.049  24.201  1.00  0.00    -0.200 F 
ENDBRANCH  50  64
BRANCH  51  75
ATOM     75  C   UNL A   1      38.713  30.766  30.859  1.00  0.00     0.064 A 
ATOM     76  C   UNL A   1      37.674  31.398  30.158  1.00  0.00     0.173 A 
ATOM     77  C   UNL A   1      38.581  30.644  32.249  1.00  0.00     0.173 A 
ATOM     78  F   UNL A   1      37.752  31.543  28.826  1.00  0.00    -0.203 F 
ATOM     79  C   UNL A   1      36.561  31.906  30.823  1.00  0.00     0.198 A 
ATOM     80  C   UNL A   1      37.454  31.129  32.910  1.00  0.00     0.198 A 
ATOM     81  F   UNL A   1      39.537  30.027  32.958  1.00  0.00    -0.203 F 
ATOM     82  F   UNL A   1      35.601  32.536  30.132  1.00  0.00    -0.200 F 
ATOM     83  C   UNL A   1      36.449  31.767  32.198  1.00  0.00     0.200 A 
ATOM     84  F   UNL A   1      37.339  30.972  34.236  1.00  0.00    -0.200 F 
ATOM     85  F   UNL A   1      35.372  32.245  32.836  1.00  0.00    -0.200 F 
ENDBRANCH  51  75
BRANCH  63  86
ATOM     86  C   UNL A   1      45.032  33.446  29.558  1.00  0.00     0.064 A 
ATOM     87  C   UNL A   1      44.924  34.530  28.673  1.00  0.00     0.173 A 
ATOM     88  C   UNL A   1      45.832  33.606  30.698  1.00  0.00     0.173 A 
ATOM     89  F   UNL A   1      44.177  34.424  27.563  1.00  0.00    -0.203 F 
ATOM     90  C   UNL A   1      45.608  35.719  28.909  1.00  0.00     0.198 A 
ATOM     91  C   UNL A   1      46.493  34.806  30.945  1.00  0.00     0.198 A 
ATOM     92  F   UNL A   1      45.958  32.602  31.579  1.00  0.00    -0.203 F 
ATOM     93  F   UNL A   1      45.520  36.727  28.030  1.00  0.00    -0.200 F 
ATOM     94  C   UNL A   1      46.390  35.856  30.046  1.00  0.00     0.200 A 
ATOM     95  F   UNL A   1      47.232  34.945  32.055  1.00  0.00    -0.200 F 
ATOM     96  F   UNL A   1      47.044  37.004  30.275  1.00  0.00    -0.200 F 
ENDBRANCH  63  86
ENDBRANCH  37  38
ENDBRANCH  30  32
ENDBRANCH  29  30
ENDBRANCH  28  29
ENDBRANCH  27  28
ENDBRANCH  26  27
ENDBRANCH   1  26
TORSDOF 19
ENDMDL
MODEL 2
REMARK VINA RESULT:     -10.6      4.179     10.160
REMARK SMILES CC[C@@](C)([NH2+]Cc1ccc(C(N)=O)cc1F)C(=O)OCCOCCOC(=O)c1ccc(-c2c3nc(c(-c4c(F)c(F)c(F)c(F)c4F)c4ccc([nH]4)c(-c4c(F)c(F)c(F)c(F)c4F)c4nc(c(-c5c(F)c(F)c(F)c(F)c5F)c5ccc2[nH]5)C=C4)C=C3)cc1
REMARK SMILES IDX 21 1 20 2 19 3 17 4 18 5 3 6 4 7 2 8 1 9 5 10 6 13 7 14 8 15
REMARK SMILES IDX 15 16 9 17 14 18 16 19 10 20 11 21 12 22 13 23 22 26 23 27
REMARK SMILES IDX 24 28 25 29 26 30 27 31 28 32 29 33 90 34 30 35 89 36 31 37
REMARK SMILES IDX 32 38 33 39 83 40 34 41 88 42 82 43 84 44 35 45 87 46 81 47
REMARK SMILES IDX 80 48 36 50 68 51 48 52 67 53 49 54 52 55 66 56 85 57 50 58
REMARK SMILES IDX 51 59 65 61 86 62 53 63 37 64 38 65 46 66 39 67 40 68 44 69
REMARK SMILES IDX 47 70 41 71 42 72 45 73 43 74 69 75 70 76 78 77 71 78 72 79
REMARK SMILES IDX 76 80 79 81 73 82 74 83 77 84 75 85 54 86 55 87 63 88 56 89
REMARK SMILES IDX 57 90 61 91 64 92 58 93 59 94 62 95 60 96
REMARK H PARENT 5 11 5 12 12 24 12 25 84 49 52 60
REMARK Flexibility Score: inf
ROOT
ATOM      1  C   UNL A   1      32.351  28.960  26.498  1.00  0.00     0.202 C 
ENDROOT
BRANCH   1   2
ATOM      2  C   UNL A   1      31.700  27.645  26.929  1.00  0.00     0.261 C 
BRANCH   2   3
ATOM      3  O   UNL A   1      31.868  26.623  25.934  1.00  0.00    -0.459 OA
BRANCH   3   4
ATOM      4  C   UNL A   1      30.760  25.869  25.709  1.00  0.00     0.367 C 
ATOM      5  O   UNL A   1      30.150  25.306  26.613  1.00  0.00    -0.245 OA
BRANCH   4   6
ATOM      6  C   UNL A   1      30.389  25.702  24.214  1.00  0.00     0.191 C 
ATOM      7  C   UNL A   1      29.004  26.338  24.058  1.00  0.00     0.092 C 
BRANCH   6   8
ATOM      8  C   UNL A   1      31.450  26.472  23.352  1.00  0.00     0.077 C 
ATOM      9  C   UNL A   1      30.959  27.360  22.211  1.00  0.00     0.011 C 
ENDBRANCH   6   8
BRANCH   6  10
ATOM     10  N   UNL A   1      30.518  24.320  23.632  1.00  0.00    -0.329 N 
ATOM     11  H   UNL A   1      29.985  24.337  22.763  1.00  0.00     0.347 HD
ATOM     12  H   UNL A   1      30.219  23.751  24.423  1.00  0.00     0.347 HD
BRANCH  10  13
ATOM     13  C   UNL A   1      31.791  23.682  23.300  1.00  0.00     0.301 C 
BRANCH  13  14
ATOM     14  C   UNL A   1      31.990  22.270  23.781  1.00  0.00     0.042 A 
ATOM     15  C   UNL A   1      31.950  21.214  22.858  1.00  0.00     0.013 A 
ATOM     16  C   UNL A   1      32.246  21.967  25.122  1.00  0.00     0.132 A 
ATOM     17  C   UNL A   1      32.349  19.929  23.237  1.00  0.00     0.014 A 
ATOM     18  C   UNL A   1      32.692  20.708  25.501  1.00  0.00     0.053 A 
ATOM     19  F   UNL A   1      32.185  22.933  26.051  1.00  0.00    -0.206 F 
ATOM     20  C   UNL A   1      32.791  19.696  24.545  1.00  0.00     0.042 A 
BRANCH  20  21
ATOM     21  C   UNL A   1      33.488  18.444  24.926  1.00  0.00     0.248 C 
ATOM     22  N   UNL A   1      33.004  17.740  25.990  1.00  0.00    -0.366 N 
ATOM     23  O   UNL A   1      34.456  18.044  24.293  1.00  0.00    -0.270 OA
ATOM     24  H   UNL A   1      32.225  18.075  26.489  1.00  0.00     0.159 HD
ATOM     25  H   UNL A   1      33.435  16.896  26.258  1.00  0.00     0.159 HD
ENDBRANCH  20  21
ENDBRANCH  13  14
ENDBRANCH  10  13
ENDBRANCH   6  10
ENDBRANCH   4   6
ENDBRANCH   3   4
ENDBRANCH   2   3
ENDBRANCH   1   2
BRANCH   1  26
ATOM     26  O   UNL A   1      31.900  30.148  27.145  1.00  0.00    -0.374 OA
BRANCH  26  27
ATOM     27  C   UNL A   1      31.536  31.252  26.312  1.00  0.00     0.202 C 
BRANCH  27  28
ATOM     28  C   UNL A   1      31.616  32.645  26.945  1.00  0.00     0.261 C 
BRANCH  28  29
ATOM     29  O   UNL A   1      32.940  33.202  26.835  1.00  0.00    -0.460 OA
BRANCH  29  30
ATOM     30  C   UNL A   1      33.448  33.693  27.992  1.00  0.00     0.338 C 
ATOM     31  O   UNL A   1      32.921  34.476  28.760  1.00  0.00    -0.246 OA
BRANCH  30  32
ATOM     32  C   UNL A   1      34.697  32.981  28.324  1.00  0.00     0.060 A 
ATOM     33  C   UNL A   1      34.592  31.626  28.668  1.00  0.00     0.016 A 
ATOM     34  C   UNL A   1      35.931  33.632  28.369  1.00  0.00     0.016 A 
ATOM     35  C   UNL A   1      35.710  30.931  29.115  1.00  0.00     0.010 A 
ATOM     36  C   UNL A   1      37.053  32.936  28.832  1.00  0.00     0.010 A 
ATOM     37  C   UNL A   1      36.937  31.596  29.244  1.00  0.00    -0.014 A 
BRANCH  37  38
ATOM     38  C   UNL A   1      38.045  30.936  29.974  1.00  0.00     0.031 A 
ATOM     39  C   UNL A   1      38.242  31.256  31.429  1.00  0.00     0.074 A 
ATOM     40  C   UNL A   1      38.829  30.030  29.365  1.00  0.00     0.049 A 
ATOM     41  N   UNL A   1      39.158  30.824  32.257  1.00  0.00    -0.248 NA
ATOM     42  C   UNL A   1      37.274  32.186  32.035  1.00  0.00     0.031 C 
ATOM     43  C   UNL A   1      38.692  29.594  27.978  1.00  0.00     0.029 A 
ATOM     44  N   UNL A   1      39.897  29.313  29.842  1.00  0.00    -0.354 N 
ATOM     45  C   UNL A   1      38.879  31.429  33.475  1.00  0.00     0.074 A 
ATOM     46  C   UNL A   1      37.728  32.280  33.276  1.00  0.00     0.031 C 
ATOM     47  C   UNL A   1      39.646  28.684  27.713  1.00  0.00     0.029 A 
ATOM     48  C   UNL A   1      40.477  28.500  28.901  1.00  0.00     0.049 A 
ATOM     49  H   UNL A   1      40.215  29.374  30.772  1.00  0.00     0.167 HD
ATOM     50  C   UNL A   1      39.520  31.275  34.658  1.00  0.00     0.037 A 
ATOM     51  C   UNL A   1      41.567  27.712  28.987  1.00  0.00     0.037 A 
ATOM     52  C   UNL A   1      40.659  30.420  34.855  1.00  0.00     0.049 A 
ATOM     53  C   UNL A   1      42.313  27.621  30.294  1.00  0.00     0.074 A 
ATOM     54  C   UNL A   1      41.372  30.191  36.018  1.00  0.00     0.029 A 
ATOM     55  N   UNL A   1      41.251  29.653  33.863  1.00  0.00    -0.354 N 
ATOM     56  N   UNL A   1      42.044  28.195  31.441  1.00  0.00    -0.248 NA
ATOM     57  C   UNL A   1      43.514  26.773  30.318  1.00  0.00     0.031 C 
ATOM     58  C   UNL A   1      42.426  29.323  35.720  1.00  0.00     0.029 A 
ATOM     59  C   UNL A   1      42.338  28.969  34.382  1.00  0.00     0.049 A 
ATOM     60  H   UNL A   1      40.945  29.602  32.928  1.00  0.00     0.167 HD
ATOM     61  C   UNL A   1      43.022  27.764  32.326  1.00  0.00     0.074 A 
ATOM     62  C   UNL A   1      43.889  26.869  31.587  1.00  0.00     0.031 C 
ATOM     63  C   UNL A   1      43.187  28.077  33.634  1.00  0.00     0.037 A 
BRANCH  50  64
ATOM     64  C   UNL A   1      39.019  32.057  35.833  1.00  0.00     0.064 A 
ATOM     65  C   UNL A   1      39.430  33.385  36.030  1.00  0.00     0.173 A 
ATOM     66  C   UNL A   1      38.192  31.474  36.805  1.00  0.00     0.173 A 
ATOM     67  F   UNL A   1      40.222  33.986  35.130  1.00  0.00    -0.203 F 
ATOM     68  C   UNL A   1      39.046  34.093  37.164  1.00  0.00     0.198 A 
ATOM     69  C   UNL A   1      37.789  32.194  37.926  1.00  0.00     0.198 A 
ATOM     70  F   UNL A   1      37.760  30.213  36.655  1.00  0.00    -0.203 F 
ATOM     71  F   UNL A   1      39.478  35.349  37.347  1.00  0.00    -0.200 F 
ATOM     72  C   UNL A   1      38.224  33.499  38.110  1.00  0.00     0.200 A 
ATOM     73  F   UNL A   1      36.977  31.627  38.829  1.00  0.00    -0.200 F 
ATOM     74  F   UNL A   1      37.851  34.184  39.200  1.00  0.00    -0.200 F 
ENDBRANCH  50  64
BRANCH  51  75
ATOM     75  C   UNL A   1      42.019  26.950  27.795  1.00  0.00     0.064 A 
ATOM     76  C   UNL A   1      41.652  25.609  27.608  1.00  0.00     0.173 A 
ATOM     77  C   UNL A   1      42.840  27.541  26.825  1.00  0.00     0.173 A 
ATOM     78  F   UNL A   1      40.869  24.994  28.509  1.00  0.00    -0.203 F 
ATOM     79  C   UNL A   1      42.105  24.883  26.509  1.00  0.00     0.198 A 
ATOM     80  C   UNL A   1      43.271  26.822  25.712  1.00  0.00     0.198 A 
ATOM     81  F   UNL A   1      43.199  28.827  26.948  1.00  0.00    -0.203 F 
ATOM     82  F   UNL A   1      41.766  23.593  26.376  1.00  0.00    -0.200 F 
ATOM     83  C   UNL A   1      42.910  25.491  25.559  1.00  0.00     0.200 A 
ATOM     84  F   UNL A   1      44.030  27.420  24.784  1.00  0.00    -0.200 F 
ATOM     85  F   UNL A   1      43.335  24.797  24.495  1.00  0.00    -0.200 F 
ENDBRANCH  51  75
BRANCH  63  86
ATOM     86  C   UNL A   1      44.329  27.442  34.370  1.00  0.00     0.064 A 
ATOM     87  C   UNL A   1      44.162  26.203  35.007  1.00  0.00     0.173 A 
ATOM     88  C   UNL A   1      45.557  28.100  34.525  1.00  0.00     0.173 A 
ATOM     89  F   UNL A   1      43.002  25.538  34.898  1.00  0.00    -0.203 F 
ATOM     90  C   UNL A   1      45.176  25.655  35.787  1.00  0.00     0.198 A 
ATOM     91  C   UNL A   1      46.580  27.536  35.283  1.00  0.00     0.198 A 
ATOM     92  F   UNL A   1      45.769  29.282  33.926  1.00  0.00    -0.203 F 
ATOM     93  F   UNL A   1      44.980  24.489  36.417  1.00  0.00    -0.200 F 
ATOM     94  C   UNL A   1      46.385  26.321  35.922  1.00  0.00     0.200 A 
ATOM     95  F   UNL A   1      47.755  28.170  35.395  1.00  0.00    -0.200 F 
ATOM     96  F   UNL A   1      47.363  25.790  36.668  1.00  0.00    -0.200 F 
ENDBRANCH  63  86
ENDBRANCH  37  38
ENDBRANCH  30  32
ENDBRANCH  29  30
ENDBRANCH  28  29
ENDBRANCH  27  28
ENDBRANCH  26  27
ENDBRANCH   1  26
TORSDOF 19
ENDMDL
MODEL 3
REMARK VINA RESULT:     -10.6      0.466      7.366
REMARK SMILES CC[C@@](C)([NH2+]Cc1ccc(C(N)=O)cc1F)C(=O)OCCOCCOC(=O)c1ccc(-c2c3nc(c(-c4c(F)c(F)c(F)c(F)c4F)c4ccc([nH]4)c(-c4c(F)c(F)c(F)c(F)c4F)c4nc(c(-c5c(F)c(F)c(F)c(F)c5F)c5ccc2[nH]5)C=C4)C=C3)cc1
REMARK SMILES IDX 21 1 20 2 19 3 17 4 18 5 3 6 4 7 2 8 1 9 5 10 6 13 7 14 8 15
REMARK SMILES IDX 15 16 9 17 14 18 16 19 10 20 11 21 12 22 13 23 22 26 23 27
REMARK SMILES IDX 24 28 25 29 26 30 27 31 28 32 29 33 90 34 30 35 89 36 31 37
REMARK SMILES IDX 32 38 33 39 83 40 34 41 88 42 82 43 84 44 35 45 87 46 81 47
REMARK SMILES IDX 80 48 36 50 68 51 48 52 67 53 49 54 52 55 66 56 85 57 50 58
REMARK SMILES IDX 51 59 65 61 86 62 53 63 37 64 38 65 46 66 39 67 40 68 44 69
REMARK SMILES IDX 47 70 41 71 42 72 45 73 43 74 69 75 70 76 78 77 71 78 72 79
REMARK SMILES IDX 76 80 79 81 73 82 74 83 77 84 75 85 54 86 55 87 63 88 56 89
REMARK SMILES IDX 57 90 61 91 64 92 58 93 59 94 62 95 60 96
REMARK H PARENT 5 11 5 12 12 24 12 25 84 49 52 60
REMARK Flexibility Score: inf
ROOT
ATOM      1  C   UNL A   1      33.753  19.830  24.689  1.00  0.00     0.202 C 
ENDROOT
BRANCH   1   2
ATOM      2  C   UNL A   1      32.389  20.392  25.090  1.00  0.00     0.261 C 
BRANCH   2   3
ATOM      3  O   UNL A   1      32.518  21.481  26.016  1.00  0.00    -0.459 OA
BRANCH   3   4
ATOM      4  C   UNL A   1      31.511  22.393  25.957  1.00  0.00     0.367 C 
ATOM      5  O   UNL A   1      30.329  22.077  26.050  1.00  0.00    -0.245 OA
BRANCH   4   6
ATOM      6  C   UNL A   1      31.973  23.843  25.669  1.00  0.00     0.191 C 
ATOM      7  C   UNL A   1      33.500  23.823  25.792  1.00  0.00     0.092 C 
BRANCH   6   8
ATOM      8  C   UNL A   1      31.543  24.218  24.207  1.00  0.00     0.077 C 
ATOM      9  C   UNL A   1      32.106  23.401  23.047  1.00  0.00     0.011 C 
ENDBRANCH   6   8
BRANCH   6  10
ATOM     10  N   UNL A   1      31.293  24.940  26.443  1.00  0.00    -0.329 N 
ATOM     11  H   UNL A   1      31.893  25.122  27.247  1.00  0.00     0.347 HD
ATOM     12  H   UNL A   1      30.362  24.543  26.559  1.00  0.00     0.347 HD
BRANCH  10  13
ATOM     13  C   UNL A   1      30.965  26.254  25.891  1.00  0.00     0.301 C 
BRANCH  13  14
ATOM     14  C   UNL A   1      31.916  27.379  26.199  1.00  0.00     0.042 A 
ATOM     15  C   UNL A   1      31.636  28.247  27.266  1.00  0.00     0.013 A 
ATOM     16  C   UNL A   1      33.095  27.579  25.475  1.00  0.00     0.132 A 
ATOM     17  C   UNL A   1      32.602  29.154  27.709  1.00  0.00     0.014 A 
ATOM     18  C   UNL A   1      34.083  28.439  25.935  1.00  0.00     0.053 A 
ATOM     19  F   UNL A   1      33.344  26.840  24.382  1.00  0.00    -0.206 F 
ATOM     20  C   UNL A   1      33.855  29.196  27.086  1.00  0.00     0.042 A 
BRANCH  20  21
ATOM     21  C   UNL A   1      35.004  29.920  27.681  1.00  0.00     0.248 C 
ATOM     22  N   UNL A   1      35.244  31.196  27.262  1.00  0.00    -0.366 N 
ATOM     23  O   UNL A   1      35.705  29.395  28.537  1.00  0.00    -0.270 OA
ATOM     24  H   UNL A   1      34.672  31.604  26.573  1.00  0.00     0.159 HD
ATOM     25  H   UNL A   1      35.990  31.709  27.650  1.00  0.00     0.159 HD
ENDBRANCH  20  21
ENDBRANCH  13  14
ENDBRANCH  10  13
ENDBRANCH   6  10
ENDBRANCH   4   6
ENDBRANCH   3   4
ENDBRANCH   2   3
ENDBRANCH   1   2
BRANCH   1  26
ATOM     26  O   UNL A   1      34.801  20.771  24.467  1.00  0.00    -0.374 OA
BRANCH  26  27
ATOM     27  C   UNL A   1      35.827  20.860  25.458  1.00  0.00     0.202 C 
BRANCH  27  28
ATOM     28  C   UNL A   1      37.265  20.639  24.979  1.00  0.00     0.261 C 
BRANCH  28  29
ATOM     29  O   UNL A   1      38.110  21.761  25.300  1.00  0.00    -0.460 OA
BRANCH  29  30
ATOM     30  C   UNL A   1      39.170  21.466  26.091  1.00  0.00     0.338 C 
ATOM     31  O   UNL A   1      39.740  20.396  26.201  1.00  0.00    -0.246 OA
BRANCH  30  32
ATOM     32  C   UNL A   1      39.700  22.707  26.688  1.00  0.00     0.060 A 
ATOM     33  C   UNL A   1      39.196  23.920  26.201  1.00  0.00     0.016 A 
ATOM     34  C   UNL A   1      40.713  22.692  27.649  1.00  0.00     0.016 A 
ATOM     35  C   UNL A   1      39.744  25.125  26.628  1.00  0.00     0.010 A 
ATOM     36  C   UNL A   1      41.273  23.904  28.067  1.00  0.00     0.010 A 
ATOM     37  C   UNL A   1      40.818  25.121  27.528  1.00  0.00    -0.014 A 
BRANCH  37  38
ATOM     38  C   UNL A   1      41.570  26.375  27.763  1.00  0.00     0.031 A 
ATOM     39  C   UNL A   1      40.906  27.481  28.535  1.00  0.00     0.074 A 
ATOM     40  C   UNL A   1      42.840  26.508  27.342  1.00  0.00     0.049 A 
ATOM     41  N   UNL A   1      41.359  28.671  28.835  1.00  0.00    -0.248 NA
ATOM     42  C   UNL A   1      39.551  27.207  29.041  1.00  0.00     0.031 C 
ATOM     43  C   UNL A   1      43.606  25.482  26.640  1.00  0.00     0.029 A 
ATOM     44  N   UNL A   1      43.707  27.566  27.447  1.00  0.00    -0.354 N 
ATOM     45  C   UNL A   1      40.347  29.286  29.560  1.00  0.00     0.074 A 
ATOM     46  C   UNL A   1      39.245  28.354  29.632  1.00  0.00     0.031 C 
ATOM     47  C   UNL A   1      44.832  25.963  26.373  1.00  0.00     0.029 A 
ATOM     48  C   UNL A   1      44.924  27.340  26.856  1.00  0.00     0.049 A 
ATOM     49  H   UNL A   1      43.478  28.407  27.906  1.00  0.00     0.167 HD
ATOM     50  C   UNL A   1      40.345  30.516  30.125  1.00  0.00     0.037 A 
ATOM     51  C   UNL A   1      45.984  28.159  26.707  1.00  0.00     0.037 A 
ATOM     52  C   UNL A   1      41.446  31.439  30.060  1.00  0.00     0.049 A 
ATOM     53  C   UNL A   1      45.926  29.554  27.275  1.00  0.00     0.074 A 
ATOM     54  C   UNL A   1      41.541  32.705  30.610  1.00  0.00     0.029 A 
ATOM     55  N   UNL A   1      42.643  31.192  29.406  1.00  0.00    -0.354 N 
ATOM     56  N   UNL A   1      44.966  30.129  27.958  1.00  0.00    -0.248 NA
ATOM     57  C   UNL A   1      47.097  30.414  27.052  1.00  0.00     0.031 C 
ATOM     58  C   UNL A   1      42.778  33.245  30.246  1.00  0.00     0.029 A 
ATOM     59  C   UNL A   1      43.474  32.294  29.515  1.00  0.00     0.049 A 
ATOM     60  H   UNL A   1      42.869  30.359  28.933  1.00  0.00     0.167 HD
ATOM     61  C   UNL A   1      45.422  31.403  28.266  1.00  0.00     0.074 A 
ATOM     62  C   UNL A   1      46.752  31.518  27.703  1.00  0.00     0.031 C 
ATOM     63  C   UNL A   1      44.798  32.390  28.954  1.00  0.00     0.037 A 
BRANCH  50  64
ATOM     64  C   UNL A   1      39.109  30.950  30.855  1.00  0.00     0.064 A 
ATOM     65  C   UNL A   1      38.987  30.732  32.236  1.00  0.00     0.173 A 
ATOM     66  C   UNL A   1      38.016  31.513  30.178  1.00  0.00     0.173 A 
ATOM     67  F   UNL A   1      40.003  30.195  32.926  1.00  0.00    -0.203 F 
ATOM     68  C   UNL A   1      37.810  31.047  32.909  1.00  0.00     0.198 A 
ATOM     69  C   UNL A   1      36.850  31.848  30.860  1.00  0.00     0.198 A 
ATOM     70  F   UNL A   1      38.090  31.754  28.861  1.00  0.00    -0.203 F 
ATOM     71  F   UNL A   1      37.705  30.799  34.222  1.00  0.00    -0.200 F 
ATOM     72  C   UNL A   1      36.744  31.606  32.222  1.00  0.00     0.200 A 
ATOM     73  F   UNL A   1      35.827  32.410  30.199  1.00  0.00    -0.200 F 
ATOM     74  F   UNL A   1      35.613  31.912  32.872  1.00  0.00    -0.200 F 
ENDBRANCH  50  64
BRANCH  51  75
ATOM     75  C   UNL A   1      47.189  27.679  25.983  1.00  0.00     0.064 A 
ATOM     76  C   UNL A   1      48.307  27.194  26.677  1.00  0.00     0.173 A 
ATOM     77  C   UNL A   1      47.253  27.710  24.583  1.00  0.00     0.173 A 
ATOM     78  F   UNL A   1      48.298  27.145  28.018  1.00  0.00    -0.203 F 
ATOM     79  C   UNL A   1      49.450  26.777  26.000  1.00  0.00     0.198 A 
ATOM     80  C   UNL A   1      48.388  27.267  23.905  1.00  0.00     0.198 A 
ATOM     81  F   UNL A   1      46.200  28.144  23.876  1.00  0.00    -0.203 F 
ATOM     82  F   UNL A   1      50.517  26.351  26.690  1.00  0.00    -0.200 F 
ATOM     83  C   UNL A   1      49.489  26.809  24.614  1.00  0.00     0.200 A 
ATOM     84  F   UNL A   1      48.412  27.279  22.566  1.00  0.00    -0.200 F 
ATOM     85  F   UNL A   1      50.584  26.396  23.963  1.00  0.00    -0.200 F 
ENDBRANCH  51  75
BRANCH  63  86
ATOM     86  C   UNL A   1      45.540  33.676  29.164  1.00  0.00     0.064 A 
ATOM     87  C   UNL A   1      46.309  33.872  30.322  1.00  0.00     0.173 A 
ATOM     88  C   UNL A   1      45.414  34.749  28.270  1.00  0.00     0.173 A 
ATOM     89  F   UNL A   1      46.453  32.879  31.213  1.00  0.00    -0.203 F 
ATOM     90  C   UNL A   1      46.911  35.099  30.584  1.00  0.00     0.198 A 
ATOM     91  C   UNL A   1      46.039  35.967  28.522  1.00  0.00     0.198 A 
ATOM     92  F   UNL A   1      44.698  34.607  27.145  1.00  0.00    -0.203 F 
ATOM     93  F   UNL A   1      47.609  35.274  31.714  1.00  0.00    -0.200 F 
ATOM     94  C   UNL A   1      46.777  36.145  29.683  1.00  0.00     0.200 A 
ATOM     95  F   UNL A   1      45.927  36.970  27.641  1.00  0.00    -0.200 F 
ATOM     96  F   UNL A   1      47.361  37.324  29.934  1.00  0.00    -0.200 F 
ENDBRANCH  63  86
ENDBRANCH  37  38
ENDBRANCH  30  32
ENDBRANCH  29  30
ENDBRANCH  28  29
ENDBRANCH  27  28
ENDBRANCH  26  27
ENDBRANCH   1  26
TORSDOF 19
ENDMDL
