MODEL 1
REMARK VINA RESULT:     -12.2      0.000      0.000
REMARK SMILES Cc1nc2sc3c(c2c2nc(CCC(=O)OCCOCCOC(=O)c4ccc(-c5c6nc(c(-c7c(F)c(F)c(F)c(F)c7F)c7ccc([nH]7)c(-c7c(F)c(F)c(F)c(F)c7F)c7nc(c(-c8c(F)c(F)c(F)c(F)c8F)c8ccc5[nH]8)C=C7)C=C6)cc4)nn12)[C@@H](C)CCC3
REMARK SMILES IDX 19 1 18 2 17 3 16 4 14 5 15 6 13 7 12 8 11 9 1 10 2 11 3 12
REMARK SMILES IDX 89 13 4 14 9 15 88 16 5 17 8 18 10 19 6 20 7 21 94 22 90 23
REMARK SMILES IDX 93 24 91 25 92 26 20 27 21 28 22 29 23 30 24 31 25 32 26 33
REMARK SMILES IDX 87 34 27 35 86 36 28 37 29 38 30 39 80 40 31 41 85 42 79 43
REMARK SMILES IDX 81 44 32 45 84 46 78 47 77 48 33 50 65 51 45 52 64 53 46 54
REMARK SMILES IDX 49 55 63 56 82 57 47 58 48 59 62 61 83 62 50 63 34 64 35 65
REMARK SMILES IDX 43 66 36 67 37 68 41 69 44 70 38 71 39 72 42 73 40 74 66 75
REMARK SMILES IDX 67 76 75 77 68 78 69 79 73 80 76 81 70 82 71 83 74 84 72 85
REMARK SMILES IDX 51 86 52 87 60 88 53 89 54 90 58 91 61 92 55 93 56 94 59 95
REMARK SMILES IDX 57 96
REMARK H PARENT 81 49 49 60
REMARK Flexibility Score: inf
ROOT
ATOM      1  O   UNL A   1      33.664  35.608  30.134  1.00  0.00    -0.374 OA
ENDROOT
BRANCH   1   2
ATOM      2  C   UNL A   1      32.944  35.073  29.020  1.00  0.00     0.202 C 
BRANCH   2   3
ATOM      3  C   UNL A   1      33.848  34.305  28.050  1.00  0.00     0.261 C 
BRANCH   3   4
ATOM      4  O   UNL A   1      33.387  32.939  27.907  1.00  0.00    -0.463 OA
BRANCH   4   5
ATOM      5  C   UNL A   1      34.315  31.988  27.652  1.00  0.00     0.306 C 
ATOM      6  O   UNL A   1      35.525  32.173  27.628  1.00  0.00    -0.252 OA
BRANCH   5   7
ATOM      7  C   UNL A   1      33.690  30.637  27.394  1.00  0.00     0.131 C 
BRANCH   7   8
ATOM      8  C   UNL A   1      32.239  30.694  26.923  1.00  0.00     0.091 C 
BRANCH   8   9
ATOM      9  C   UNL A   1      31.947  29.811  25.758  1.00  0.00     0.152 A 
ATOM     10  C   UNL A   1      29.349  29.867  22.482  1.00  0.00     0.090 C 
ATOM     11  C   UNL A   1      30.420  28.867  22.794  1.00  0.00     0.131 A 
ATOM     12  N   UNL A   1      30.655  27.850  22.001  1.00  0.00    -0.222 NA
ATOM     13  N   UNL A   1      31.135  29.076  23.982  1.00  0.00    -0.199 N 
ATOM     14  C   UNL A   1      31.614  26.964  22.428  1.00  0.00     0.129 A 
ATOM     15  C   UNL A   1      32.117  28.222  24.404  1.00  0.00     0.168 A 
ATOM     16  N   UNL A   1      30.999  30.102  24.851  1.00  0.00    -0.150 NA
ATOM     17  S   UNL A   1      32.019  25.573  21.522  1.00  0.00    -0.120 S 
ATOM     18  C   UNL A   1      32.368  27.015  23.591  1.00  0.00     0.060 A 
ATOM     19  N   UNL A   1      32.676  28.678  25.498  1.00  0.00    -0.211 NA
ATOM     20  C   UNL A   1      33.121  25.039  22.710  1.00  0.00     0.011 A 
ATOM     21  C   UNL A   1      33.193  25.878  23.810  1.00  0.00    -0.018 A 
ATOM     22  C   UNL A   1      33.874  23.754  22.560  1.00  0.00     0.047 C 
ATOM     23  C   UNL A   1      34.040  25.545  25.017  1.00  0.00     0.018 C 
ATOM     24  C   UNL A   1      35.084  23.745  23.500  1.00  0.00     0.006 C 
ATOM     25  C   UNL A   1      33.233  25.592  26.314  1.00  0.00     0.013 C 
ATOM     26  C   UNL A   1      34.673  24.134  24.921  1.00  0.00     0.008 C 
ENDBRANCH   8   9
ENDBRANCH   7   8
ENDBRANCH   5   7
ENDBRANCH   4   5
ENDBRANCH   3   4
ENDBRANCH   2   3
ENDBRANCH   1   2
BRANCH   1  27
ATOM     27  C   UNL A   1      33.777  34.743  31.257  1.00  0.00     0.202 C 
BRANCH  27  28
ATOM     28  C   UNL A   1      35.215  34.376  31.570  1.00  0.00     0.261 C 
BRANCH  28  29
ATOM     29  O   UNL A   1      35.623  33.272  30.764  1.00  0.00    -0.460 OA
BRANCH  29  30
ATOM     30  C   UNL A   1      35.732  32.071  31.359  1.00  0.00     0.338 C 
ATOM     31  O   UNL A   1      35.159  31.677  32.372  1.00  0.00    -0.246 OA
BRANCH  30  32
ATOM     32  C   UNL A   1      36.841  31.364  30.705  1.00  0.00     0.060 A 
ATOM     33  C   UNL A   1      36.690  29.997  30.453  1.00  0.00     0.016 A 
ATOM     34  C   UNL A   1      38.085  32.002  30.557  1.00  0.00     0.016 A 
ATOM     35  C   UNL A   1      37.819  29.240  30.215  1.00  0.00     0.010 A 
ATOM     36  C   UNL A   1      39.211  31.246  30.344  1.00  0.00     0.010 A 
ATOM     37  C   UNL A   1      39.069  29.866  30.242  1.00  0.00    -0.014 A 
BRANCH  37  38
ATOM     38  C   UNL A   1      40.255  29.043  30.175  1.00  0.00     0.031 A 
ATOM     39  C   UNL A   1      40.913  28.794  31.478  1.00  0.00     0.074 A 
ATOM     40  C   UNL A   1      40.623  28.453  29.023  1.00  0.00     0.049 A 
ATOM     41  N   UNL A   1      42.095  29.157  31.858  1.00  0.00    -0.248 NA
ATOM     42  C   UNL A   1      40.114  28.148  32.531  1.00  0.00     0.031 C 
ATOM     43  C   UNL A   1      39.869  28.347  27.770  1.00  0.00     0.029 A 
ATOM     44  N   UNL A   1      41.744  27.733  28.766  1.00  0.00    -0.354 N 
ATOM     45  C   UNL A   1      42.250  28.645  33.143  1.00  0.00     0.074 A 
ATOM     46  C   UNL A   1      40.957  28.173  33.562  1.00  0.00     0.031 C 
ATOM     47  C   UNL A   1      40.465  27.434  26.968  1.00  0.00     0.029 A 
ATOM     48  C   UNL A   1      41.701  26.994  27.593  1.00  0.00     0.049 A 
ATOM     49  H   UNL A   1      42.526  27.734  29.365  1.00  0.00     0.167 HD
ATOM     50  C   UNL A   1      43.478  28.437  33.686  1.00  0.00     0.037 A 
ATOM     51  C   UNL A   1      42.586  26.029  27.242  1.00  0.00     0.037 A 
ATOM     52  C   UNL A   1      44.498  29.185  33.005  1.00  0.00     0.049 A 
ATOM     53  C   UNL A   1      43.811  26.238  28.062  1.00  0.00     0.074 A 
ATOM     54  C   UNL A   1      44.740  30.531  32.812  1.00  0.00     0.029 A 
ATOM     55  N   UNL A   1      45.271  28.535  32.076  1.00  0.00    -0.354 N 
ATOM     56  N   UNL A   1      44.602  27.269  27.949  1.00  0.00    -0.248 NA
ATOM     57  C   UNL A   1      43.903  25.514  29.322  1.00  0.00     0.031 C 
ATOM     58  C   UNL A   1      45.245  30.629  31.481  1.00  0.00     0.029 A 
ATOM     59  C   UNL A   1      45.326  29.336  30.963  1.00  0.00     0.049 A 
ATOM     60  H   UNL A   1      45.706  27.658  32.187  1.00  0.00     0.167 HD
ATOM     61  C   UNL A   1      44.991  27.564  29.249  1.00  0.00     0.074 A 
ATOM     62  C   UNL A   1      44.586  26.408  30.041  1.00  0.00     0.031 C 
ATOM     63  C   UNL A   1      45.348  28.832  29.610  1.00  0.00     0.037 A 
BRANCH  50  64
ATOM     64  C   UNL A   1      43.784  27.300  34.622  1.00  0.00     0.064 A 
ATOM     65  C   UNL A   1      44.187  27.570  35.941  1.00  0.00     0.173 A 
ATOM     66  C   UNL A   1      43.955  25.966  34.188  1.00  0.00     0.173 A 
ATOM     67  F   UNL A   1      44.115  28.814  36.437  1.00  0.00    -0.203 F 
ATOM     68  C   UNL A   1      44.751  26.581  36.754  1.00  0.00     0.198 A 
ATOM     69  C   UNL A   1      44.460  24.971  35.020  1.00  0.00     0.198 A 
ATOM     70  F   UNL A   1      43.752  25.603  32.915  1.00  0.00    -0.203 F 
ATOM     71  F   UNL A   1      45.223  26.905  37.966  1.00  0.00    -0.200 F 
ATOM     72  C   UNL A   1      44.881  25.282  36.295  1.00  0.00     0.200 A 
ATOM     73  F   UNL A   1      44.605  23.725  34.545  1.00  0.00    -0.200 F 
ATOM     74  F   UNL A   1      45.462  24.345  37.055  1.00  0.00    -0.200 F 
ENDBRANCH  50  64
BRANCH  51  75
ATOM     75  C   UNL A   1      42.289  24.722  26.600  1.00  0.00     0.064 A 
ATOM     76  C   UNL A   1      43.049  24.278  25.504  1.00  0.00     0.173 A 
ATOM     77  C   UNL A   1      41.479  23.756  27.230  1.00  0.00     0.173 A 
ATOM     78  F   UNL A   1      43.877  25.123  24.873  1.00  0.00    -0.203 F 
ATOM     79  C   UNL A   1      43.035  22.941  25.094  1.00  0.00     0.198 A 
ATOM     80  C   UNL A   1      41.458  22.425  26.813  1.00  0.00     0.198 A 
ATOM     81  F   UNL A   1      40.769  24.057  28.325  1.00  0.00    -0.203 F 
ATOM     82  F   UNL A   1      43.832  22.540  24.093  1.00  0.00    -0.200 F 
ATOM     83  C   UNL A   1      42.251  22.013  25.758  1.00  0.00     0.200 A 
ATOM     84  F   UNL A   1      40.722  21.530  27.487  1.00  0.00    -0.200 F 
ATOM     85  F   UNL A   1      42.291  20.719  25.412  1.00  0.00    -0.200 F 
ENDBRANCH  51  75
BRANCH  63  86
ATOM     86  C   UNL A   1      45.536  29.845  28.515  1.00  0.00     0.064 A 
ATOM     87  C   UNL A   1      44.495  30.631  27.990  1.00  0.00     0.173 A 
ATOM     88  C   UNL A   1      46.841  30.146  28.102  1.00  0.00     0.173 A 
ATOM     89  F   UNL A   1      43.235  30.473  28.409  1.00  0.00    -0.203 F 
ATOM     90  C   UNL A   1      44.749  31.646  27.069  1.00  0.00     0.198 A 
ATOM     91  C   UNL A   1      47.094  31.183  27.208  1.00  0.00     0.198 A 
ATOM     92  F   UNL A   1      47.879  29.465  28.611  1.00  0.00    -0.203 F 
ATOM     93  F   UNL A   1      43.737  32.380  26.582  1.00  0.00    -0.200 F 
ATOM     94  C   UNL A   1      46.049  31.928  26.686  1.00  0.00     0.200 A 
ATOM     95  F   UNL A   1      48.358  31.484  26.880  1.00  0.00    -0.200 F 
ATOM     96  F   UNL A   1      46.299  32.936  25.838  1.00  0.00    -0.200 F 
ENDBRANCH  63  86
ENDBRANCH  37  38
ENDBRANCH  30  32
ENDBRANCH  29  30
ENDBRANCH  28  29
ENDBRANCH  27  28
ENDBRANCH   1  27
TORSDOF 16
ENDMDL
MODEL 2
REMARK VINA RESULT:     -11.9      2.881      4.257
REMARK SMILES Cc1nc2sc3c(c2c2nc(CCC(=O)OCCOCCOC(=O)c4ccc(-c5c6nc(c(-c7c(F)c(F)c(F)c(F)c7F)c7ccc([nH]7)c(-c7c(F)c(F)c(F)c(F)c7F)c7nc(c(-c8c(F)c(F)c(F)c(F)c8F)c8ccc5[nH]8)C=C7)C=C6)cc4)nn12)[C@@H](C)CCC3
REMARK SMILES IDX 19 1 18 2 17 3 16 4 14 5 15 6 13 7 12 8 11 9 1 10 2 11 3 12
REMARK SMILES IDX 89 13 4 14 9 15 88 16 5 17 8 18 10 19 6 20 7 21 94 22 90 23
REMARK SMILES IDX 93 24 91 25 92 26 20 27 21 28 22 29 23 30 24 31 25 32 26 33
REMARK SMILES IDX 87 34 27 35 86 36 28 37 29 38 30 39 80 40 31 41 85 42 79 43
REMARK SMILES IDX 81 44 32 45 84 46 78 47 77 48 33 50 65 51 45 52 64 53 46 54
REMARK SMILES IDX 49 55 63 56 82 57 47 58 48 59 62 61 83 62 50 63 34 64 35 65
REMARK SMILES IDX 43 66 36 67 37 68 41 69 44 70 38 71 39 72 42 73 40 74 66 75
REMARK SMILES IDX 67 76 75 77 68 78 69 79 73 80 76 81 70 82 71 83 74 84 72 85
REMARK SMILES IDX 51 86 52 87 60 88 53 89 54 90 58 91 61 92 55 93 56 94 59 95
REMARK SMILES IDX 57 96
REMARK H PARENT 81 49 49 60
REMARK Flexibility Score: inf
ROOT
ATOM      1  O   UNL A   1      34.058  34.581  28.374  1.00  0.00    -0.374 OA
ENDROOT
BRANCH   1   2
ATOM      2  C   UNL A   1      33.514  33.312  28.000  1.00  0.00     0.202 C 
BRANCH   2   3
ATOM      3  C   UNL A   1      34.594  32.242  27.810  1.00  0.00     0.261 C 
BRANCH   3   4
ATOM      4  O   UNL A   1      34.092  30.943  28.203  1.00  0.00    -0.463 OA
BRANCH   4   5
ATOM      5  C   UNL A   1      33.502  30.184  27.252  1.00  0.00     0.306 C 
ATOM      6  O   UNL A   1      32.398  30.396  26.767  1.00  0.00    -0.252 OA
BRANCH   5   7
ATOM      7  C   UNL A   1      34.366  29.017  26.837  1.00  0.00     0.131 C 
BRANCH   7   8
ATOM      8  C   UNL A   1      33.984  28.396  25.496  1.00  0.00     0.091 C 
BRANCH   8   9
ATOM      9  C   UNL A   1      33.555  26.971  25.591  1.00  0.00     0.152 A 
ATOM     10  C   UNL A   1      29.995  24.917  26.361  1.00  0.00     0.090 C 
ATOM     11  C   UNL A   1      31.328  24.346  25.985  1.00  0.00     0.131 A 
ATOM     12  N   UNL A   1      31.501  23.054  25.848  1.00  0.00    -0.222 NA
ATOM     13  N   UNL A   1      32.369  25.269  25.806  1.00  0.00    -0.199 N 
ATOM     14  C   UNL A   1      32.783  22.646  25.570  1.00  0.00     0.129 A 
ATOM     15  C   UNL A   1      33.644  24.880  25.494  1.00  0.00     0.168 A 
ATOM     16  N   UNL A   1      32.293  26.615  25.889  1.00  0.00    -0.150 NA
ATOM     17  S   UNL A   1      33.181  20.994  25.389  1.00  0.00    -0.120 S 
ATOM     18  C   UNL A   1      33.915  23.432  25.409  1.00  0.00     0.060 A 
ATOM     19  N   UNL A   1      34.405  25.931  25.312  1.00  0.00    -0.211 NA
ATOM     20  C   UNL A   1      34.836  21.347  25.173  1.00  0.00     0.011 A 
ATOM     21  C   UNL A   1      35.124  22.700  25.251  1.00  0.00    -0.018 A 
ATOM     22  C   UNL A   1      35.850  20.264  24.978  1.00  0.00     0.047 C 
ATOM     23  C   UNL A   1      36.540  23.222  25.178  1.00  0.00     0.018 C 
ATOM     24  C   UNL A   1      37.130  20.849  24.371  1.00  0.00     0.006 C 
ATOM     25  C   UNL A   1      36.881  24.123  26.364  1.00  0.00     0.013 C 
ATOM     26  C   UNL A   1      37.588  22.082  25.151  1.00  0.00     0.008 C 
ENDBRANCH   8   9
ENDBRANCH   7   8
ENDBRANCH   5   7
ENDBRANCH   4   5
ENDBRANCH   3   4
ENDBRANCH   2   3
ENDBRANCH   1   2
BRANCH   1  27
ATOM     27  C   UNL A   1      33.107  35.546  28.807  1.00  0.00     0.202 C 
BRANCH  27  28
ATOM     28  C   UNL A   1      33.354  36.015  30.228  1.00  0.00     0.261 C 
BRANCH  28  29
ATOM     29  O   UNL A   1      33.289  34.907  31.125  1.00  0.00    -0.460 OA
BRANCH  29  30
ATOM     30  C   UNL A   1      33.643  35.118  32.404  1.00  0.00     0.338 C 
ATOM     31  O   UNL A   1      33.225  35.984  33.169  1.00  0.00    -0.246 OA
BRANCH  30  32
ATOM     32  C   UNL A   1      34.800  34.255  32.680  1.00  0.00     0.060 A 
ATOM     33  C   UNL A   1      36.015  34.870  32.996  1.00  0.00     0.016 A 
ATOM     34  C   UNL A   1      34.726  32.879  32.404  1.00  0.00     0.016 A 
ATOM     35  C   UNL A   1      37.178  34.137  32.872  1.00  0.00     0.010 A 
ATOM     36  C   UNL A   1      35.883  32.156  32.258  1.00  0.00     0.010 A 
ATOM     37  C   UNL A   1      37.097  32.813  32.429  1.00  0.00    -0.014 A 
BRANCH  37  38
ATOM     38  C   UNL A   1      38.323  32.111  32.127  1.00  0.00     0.031 A 
ATOM     39  C   UNL A   1      39.190  31.840  33.298  1.00  0.00     0.074 A 
ATOM     40  C   UNL A   1      38.561  31.634  30.892  1.00  0.00     0.049 A 
ATOM     41  N   UNL A   1      40.380  32.287  33.530  1.00  0.00    -0.248 NA
ATOM     42  C   UNL A   1      38.615  31.055  34.402  1.00  0.00     0.031 C 
ATOM     43  C   UNL A   1      37.638  31.539  29.756  1.00  0.00     0.029 A 
ATOM     44  N   UNL A   1      39.686  31.040  30.419  1.00  0.00    -0.354 N 
ATOM     45  C   UNL A   1      40.770  31.709  34.735  1.00  0.00     0.074 A 
ATOM     46  C   UNL A   1      39.599  31.092  35.299  1.00  0.00     0.031 C 
ATOM     47  C   UNL A   1      38.180  30.740  28.808  1.00  0.00     0.029 A 
ATOM     48  C   UNL A   1      39.528  30.379  29.211  1.00  0.00     0.049 A 
ATOM     49  H   UNL A   1      40.547  31.076  30.897  1.00  0.00     0.167 HD
ATOM     50  C   UNL A   1      42.079  31.582  35.076  1.00  0.00     0.037 A 
ATOM     51  C   UNL A   1      40.427  29.525  28.661  1.00  0.00     0.037 A 
ATOM     52  C   UNL A   1      42.919  32.465  34.315  1.00  0.00     0.049 A 
ATOM     53  C   UNL A   1      41.740  29.795  29.309  1.00  0.00     0.074 A 
ATOM     54  C   UNL A   1      43.016  33.838  34.195  1.00  0.00     0.029 A 
ATOM     55  N   UNL A   1      43.594  31.953  33.237  1.00  0.00    -0.354 N 
ATOM     56  N   UNL A   1      42.416  30.901  29.164  1.00  0.00    -0.248 NA
ATOM     57  C   UNL A   1      42.081  29.002  30.482  1.00  0.00     0.031 C 
ATOM     58  C   UNL A   1      43.304  34.069  32.817  1.00  0.00     0.029 A 
ATOM     59  C   UNL A   1      43.413  32.826  32.193  1.00  0.00     0.049 A 
ATOM     60  H   UNL A   1      44.112  31.115  33.214  1.00  0.00     0.167 HD
ATOM     61  C   UNL A   1      42.971  31.146  30.413  1.00  0.00     0.074 A 
ATOM     62  C   UNL A   1      42.789  29.907  31.162  1.00  0.00     0.031 C 
ATOM     63  C   UNL A   1      43.272  32.415  30.816  1.00  0.00     0.037 A 
BRANCH  50  64
ATOM     64  C   UNL A   1      42.617  30.421  35.866  1.00  0.00     0.064 A 
ATOM     65  C   UNL A   1      43.484  30.653  36.949  1.00  0.00     0.173 A 
ATOM     66  C   UNL A   1      42.524  29.080  35.430  1.00  0.00     0.173 A 
ATOM     67  F   UNL A   1      43.685  31.896  37.408  1.00  0.00    -0.203 F 
ATOM     68  C   UNL A   1      44.227  29.620  37.528  1.00  0.00     0.198 A 
ATOM     69  C   UNL A   1      43.218  28.045  36.050  1.00  0.00     0.198 A 
ATOM     70  F   UNL A   1      41.852  28.740  34.323  1.00  0.00    -0.203 F 
ATOM     71  F   UNL A   1      45.124  29.901  38.484  1.00  0.00    -0.200 F 
ATOM     72  C   UNL A   1      44.089  28.317  37.082  1.00  0.00     0.200 A 
ATOM     73  F   UNL A   1      43.093  26.794  35.582  1.00  0.00    -0.200 F 
ATOM     74  F   UNL A   1      44.834  27.335  37.605  1.00  0.00    -0.200 F 
ENDBRANCH  50  64
BRANCH  51  75
ATOM     75  C   UNL A   1      40.146  28.241  27.968  1.00  0.00     0.064 A 
ATOM     76  C   UNL A   1      40.783  27.933  26.753  1.00  0.00     0.173 A 
ATOM     77  C   UNL A   1      39.504  27.172  28.625  1.00  0.00     0.173 A 
ATOM     78  F   UNL A   1      41.451  28.884  26.085  1.00  0.00    -0.203 F 
ATOM     79  C   UNL A   1      40.814  26.628  26.251  1.00  0.00     0.198 A 
ATOM     80  C   UNL A   1      39.529  25.873  28.117  1.00  0.00     0.198 A 
ATOM     81  F   UNL A   1      38.928  27.342  29.823  1.00  0.00    -0.203 F 
ATOM     82  F   UNL A   1      41.497  26.360  25.129  1.00  0.00    -0.200 F 
ATOM     83  C   UNL A   1      40.200  25.596  26.941  1.00  0.00     0.200 A 
ATOM     84  F   UNL A   1      38.960  24.878  28.814  1.00  0.00    -0.200 F 
ATOM     85  F   UNL A   1      40.291  24.335  26.499  1.00  0.00    -0.200 F 
ENDBRANCH  51  75
BRANCH  63  86
ATOM     86  C   UNL A   1      43.209  33.511  29.788  1.00  0.00     0.064 A 
ATOM     87  C   UNL A   1      44.241  33.784  28.873  1.00  0.00     0.173 A 
ATOM     88  C   UNL A   1      41.998  34.195  29.617  1.00  0.00     0.173 A 
ATOM     89  F   UNL A   1      45.390  33.102  28.908  1.00  0.00    -0.203 F 
ATOM     90  C   UNL A   1      44.076  34.726  27.858  1.00  0.00     0.198 A 
ATOM     91  C   UNL A   1      41.826  35.109  28.581  1.00  0.00     0.198 A 
ATOM     92  F   UNL A   1      40.960  33.935  30.427  1.00  0.00    -0.203 F 
ATOM     93  F   UNL A   1      45.077  34.970  26.999  1.00  0.00    -0.200 F 
ATOM     94  C   UNL A   1      42.866  35.380  27.707  1.00  0.00     0.200 A 
ATOM     95  F   UNL A   1      40.636  35.702  28.409  1.00  0.00    -0.200 F 
ATOM     96  F   UNL A   1      42.690  36.249  26.701  1.00  0.00    -0.200 F 
ENDBRANCH  63  86
ENDBRANCH  37  38
ENDBRANCH  30  32
ENDBRANCH  29  30
ENDBRANCH  28  29
ENDBRANCH  27  28
ENDBRANCH   1  27
TORSDOF 16
ENDMDL
MODEL 3
REMARK VINA RESULT:     -11.9      4.313      7.516
REMARK SMILES Cc1nc2sc3c(c2c2nc(CCC(=O)OCCOCCOC(=O)c4ccc(-c5c6nc(c(-c7c(F)c(F)c(F)c(F)c7F)c7ccc([nH]7)c(-c7c(F)c(F)c(F)c(F)c7F)c7nc(c(-c8c(F)c(F)c(F)c(F)c8F)c8ccc5[nH]8)C=C7)C=C6)cc4)nn12)[C@@H](C)CCC3
REMARK SMILES IDX 19 1 18 2 17 3 16 4 14 5 15 6 13 7 12 8 11 9 1 10 2 11 3 12
REMARK SMILES IDX 89 13 4 14 9 15 88 16 5 17 8 18 10 19 6 20 7 21 94 22 90 23
REMARK SMILES IDX 93 24 91 25 92 26 20 27 21 28 22 29 23 30 24 31 25 32 26 33
REMARK SMILES IDX 87 34 27 35 86 36 28 37 29 38 30 39 80 40 31 41 85 42 79 43
REMARK SMILES IDX 81 44 32 45 84 46 78 47 77 48 33 50 65 51 45 52 64 53 46 54
REMARK SMILES IDX 49 55 63 56 82 57 47 58 48 59 62 61 83 62 50 63 34 64 35 65
REMARK SMILES IDX 43 66 36 67 37 68 41 69 44 70 38 71 39 72 42 73 40 74 66 75
REMARK SMILES IDX 67 76 75 77 68 78 69 79 73 80 76 81 70 82 71 83 74 84 72 85
REMARK SMILES IDX 51 86 52 87 60 88 53 89 54 90 58 91 61 92 55 93 56 94 59 95
REMARK SMILES IDX 57 96
REMARK H PARENT 81 49 49 60
REMARK Flexibility Score: inf
ROOT
ATOM      1  O   UNL A   1      34.136  33.129  30.571  1.00  0.00    -0.374 OA
ENDROOT
BRANCH   1   2
ATOM      2  C   UNL A   1      34.528  33.229  31.943  1.00  0.00     0.202 C 
BRANCH   2   3
ATOM      3  C   UNL A   1      36.045  33.367  32.110  1.00  0.00     0.261 C 
BRANCH   3   4
ATOM      4  O   UNL A   1      36.630  32.094  32.478  1.00  0.00    -0.463 OA
BRANCH   4   5
ATOM      5  C   UNL A   1      36.967  31.910  33.774  1.00  0.00     0.306 C 
ATOM      6  O   UNL A   1      36.536  32.565  34.714  1.00  0.00    -0.252 OA
BRANCH   5   7
ATOM      7  C   UNL A   1      37.957  30.782  33.951  1.00  0.00     0.131 C 
BRANCH   7   8
ATOM      8  C   UNL A   1      38.858  30.921  35.175  1.00  0.00     0.091 C 
BRANCH   8   9
ATOM      9  C   UNL A   1      39.807  32.068  35.099  1.00  0.00     0.152 A 
ATOM     10  C   UNL A   1      41.716  34.612  37.814  1.00  0.00     0.090 C 
ATOM     11  C   UNL A   1      41.884  34.556  36.326  1.00  0.00     0.131 A 
ATOM     12  N   UNL A   1      42.714  35.356  35.703  1.00  0.00    -0.222 NA
ATOM     13  N   UNL A   1      41.096  33.613  35.649  1.00  0.00    -0.199 N 
ATOM     14  C   UNL A   1      42.730  35.258  34.332  1.00  0.00     0.129 A 
ATOM     15  C   UNL A   1      41.126  33.479  34.288  1.00  0.00     0.168 A 
ATOM     16  N   UNL A   1      40.238  32.721  36.192  1.00  0.00    -0.150 NA
ATOM     17  S   UNL A   1      43.736  36.250  33.372  1.00  0.00    -0.120 S 
ATOM     18  C   UNL A   1      41.981  34.411  33.527  1.00  0.00     0.060 A 
ATOM     19  N   UNL A   1      40.356  32.487  33.914  1.00  0.00    -0.211 NA
ATOM     20  C   UNL A   1      43.115  35.593  31.925  1.00  0.00     0.011 A 
ATOM     21  C   UNL A   1      42.134  34.637  32.132  1.00  0.00    -0.018 A 
ATOM     22  C   UNL A   1      43.575  36.074  30.585  1.00  0.00     0.047 C 
ATOM     23  C   UNL A   1      41.389  33.993  30.986  1.00  0.00     0.018 C 
ATOM     24  C   UNL A   1      43.218  35.042  29.509  1.00  0.00     0.006 C 
ATOM     25  C   UNL A   1      39.874  34.109  31.150  1.00  0.00     0.013 C 
ATOM     26  C   UNL A   1      41.751  34.625  29.619  1.00  0.00     0.008 C 
ENDBRANCH   8   9
ENDBRANCH   7   8
ENDBRANCH   5   7
ENDBRANCH   4   5
ENDBRANCH   3   4
ENDBRANCH   2   3
ENDBRANCH   1   2
BRANCH   1  27
ATOM     27  C   UNL A   1      34.355  34.297  29.789  1.00  0.00     0.202 C 
BRANCH  27  28
ATOM     28  C   UNL A   1      34.387  34.008  28.301  1.00  0.00     0.261 C 
BRANCH  28  29
ATOM     29  O   UNL A   1      35.502  33.173  27.991  1.00  0.00    -0.460 OA
BRANCH  29  30
ATOM     30  C   UNL A   1      35.277  31.854  27.858  1.00  0.00     0.338 C 
ATOM     31  O   UNL A   1      34.279  31.303  27.399  1.00  0.00    -0.246 OA
BRANCH  30  32
ATOM     32  C   UNL A   1      36.357  31.158  28.569  1.00  0.00     0.060 A 
ATOM     33  C   UNL A   1      37.433  31.920  29.035  1.00  0.00     0.016 A 
ATOM     34  C   UNL A   1      36.402  29.753  28.567  1.00  0.00     0.016 A 
ATOM     35  C   UNL A   1      38.615  31.276  29.341  1.00  0.00     0.010 A 
ATOM     36  C   UNL A   1      37.584  29.114  28.849  1.00  0.00     0.010 A 
ATOM     37  C   UNL A   1      38.693  29.890  29.168  1.00  0.00    -0.014 A 
BRANCH  37  38
ATOM     38  C   UNL A   1      39.979  29.248  29.315  1.00  0.00     0.031 A 
ATOM     39  C   UNL A   1      40.393  28.997  30.715  1.00  0.00     0.074 A 
ATOM     40  C   UNL A   1      40.656  28.803  28.241  1.00  0.00     0.049 A 
ATOM     41  N   UNL A   1      41.405  29.492  31.349  1.00  0.00    -0.248 NA
ATOM     42  C   UNL A   1      39.506  28.169  31.547  1.00  0.00     0.031 C 
ATOM     43  C   UNL A   1      40.194  28.686  26.854  1.00  0.00     0.029 A 
ATOM     44  N   UNL A   1      41.902  28.268  28.192  1.00  0.00    -0.354 N 
ATOM     45  C   UNL A   1      41.376  28.913  32.614  1.00  0.00     0.074 A 
ATOM     46  C   UNL A   1      40.112  28.235  32.732  1.00  0.00     0.031 C 
ATOM     47  C   UNL A   1      41.070  27.927  26.155  1.00  0.00     0.029 A 
ATOM     48  C   UNL A   1      42.208  27.620  27.005  1.00  0.00     0.049 A 
ATOM     49  H   UNL A   1      42.539  28.334  28.941  1.00  0.00     0.167 HD
ATOM     50  C   UNL A   1      42.487  28.839  33.392  1.00  0.00     0.037 A 
ATOM     51  C   UNL A   1      43.282  26.817  26.804  1.00  0.00     0.037 A 
ATOM     52  C   UNL A   1      43.497  29.771  32.973  1.00  0.00     0.049 A 
ATOM     53  C   UNL A   1      44.271  27.134  27.871  1.00  0.00     0.074 A 
ATOM     54  C   UNL A   1      43.565  31.149  32.895  1.00  0.00     0.029 A 
ATOM     55  N   UNL A   1      44.530  29.307  32.199  1.00  0.00    -0.354 N 
ATOM     56  N   UNL A   1      44.902  28.270  27.972  1.00  0.00    -0.248 NA
ATOM     57  C   UNL A   1      44.218  26.338  29.089  1.00  0.00     0.031 C 
ATOM     58  C   UNL A   1      44.305  31.414  31.704  1.00  0.00     0.029 A 
ATOM     59  C   UNL A   1      44.684  30.187  31.158  1.00  0.00     0.049 A 
ATOM     60  H   UNL A   1      45.062  28.493  32.360  1.00  0.00     0.167 HD
ATOM     61  C   UNL A   1      44.973  28.519  29.336  1.00  0.00     0.074 A 
ATOM     62  C   UNL A   1      44.599  27.262  29.974  1.00  0.00     0.031 C 
ATOM     63  C   UNL A   1      45.054  29.794  29.819  1.00  0.00     0.037 A 
BRANCH  50  64
ATOM     64  C   UNL A   1      42.769  27.690  34.321  1.00  0.00     0.064 A 
ATOM     65  C   UNL A   1      43.300  26.492  33.811  1.00  0.00     0.173 A 
ATOM     66  C   UNL A   1      42.284  27.631  35.647  1.00  0.00     0.173 A 
ATOM     67  F   UNL A   1      43.741  26.424  32.546  1.00  0.00    -0.203 F 
ATOM     68  C   UNL A   1      43.314  25.315  34.566  1.00  0.00     0.198 A 
ATOM     69  C   UNL A   1      42.356  26.473  36.416  1.00  0.00     0.198 A 
ATOM     70  F   UNL A   1      41.622  28.653  36.205  1.00  0.00    -0.203 F 
ATOM     71  F   UNL A   1      43.727  24.170  34.006  1.00  0.00    -0.200 F 
ATOM     72  C   UNL A   1      42.847  25.309  35.868  1.00  0.00     0.200 A 
ATOM     73  F   UNL A   1      41.870  26.482  37.666  1.00  0.00    -0.200 F 
ATOM     74  F   UNL A   1      42.817  24.172  36.576  1.00  0.00    -0.200 F 
ENDBRANCH  50  64
BRANCH  51  75
ATOM     75  C   UNL A   1      43.322  25.533  26.058  1.00  0.00     0.064 A 
ATOM     76  C   UNL A   1      44.408  25.232  25.217  1.00  0.00     0.173 A 
ATOM     77  C   UNL A   1      42.472  24.458  26.388  1.00  0.00     0.173 A 
ATOM     78  F   UNL A   1      45.287  26.188  24.886  1.00  0.00    -0.203 F 
ATOM     79  C   UNL A   1      44.654  23.928  24.773  1.00  0.00     0.198 A 
ATOM     80  C   UNL A   1      42.714  23.160  25.937  1.00  0.00     0.198 A 
ATOM     81  F   UNL A   1      41.450  24.621  27.239  1.00  0.00    -0.203 F 
ATOM     82  F   UNL A   1      45.742  23.667  24.035  1.00  0.00    -0.200 F 
ATOM     83  C   UNL A   1      43.815  22.891  25.145  1.00  0.00     0.200 A 
ATOM     84  F   UNL A   1      41.914  22.160  26.333  1.00  0.00    -0.200 F 
ATOM     85  F   UNL A   1      44.089  21.632  24.780  1.00  0.00    -0.200 F 
ENDBRANCH  51  75
BRANCH  63  86
ATOM     86  C   UNL A   1      45.301  30.902  28.834  1.00  0.00     0.064 A 
ATOM     87  C   UNL A   1      44.281  31.558  28.123  1.00  0.00     0.173 A 
ATOM     88  C   UNL A   1      46.596  31.427  28.731  1.00  0.00     0.173 A 
ATOM     89  F   UNL A   1      43.003  31.181  28.246  1.00  0.00    -0.203 F 
ATOM     90  C   UNL A   1      44.554  32.666  27.321  1.00  0.00     0.198 A 
ATOM     91  C   UNL A   1      46.860  32.554  27.957  1.00  0.00     0.198 A 
ATOM     92  F   UNL A   1      47.600  30.875  29.430  1.00  0.00    -0.203 F 
ATOM     93  F   UNL A   1      43.563  33.272  26.651  1.00  0.00    -0.200 F 
ATOM     94  C   UNL A   1      45.842  33.168  27.247  1.00  0.00     0.200 A 
ATOM     95  F   UNL A   1      48.098  33.066  27.929  1.00  0.00    -0.200 F 
ATOM     96  F   UNL A   1      46.097  34.262  26.515  1.00  0.00    -0.200 F 
ENDBRANCH  63  86
ENDBRANCH  37  38
ENDBRANCH  30  32
ENDBRANCH  29  30
ENDBRANCH  28  29
ENDBRANCH  27  28
ENDBRANCH   1  27
TORSDOF 16
ENDMDL
