MODEL 1
REMARK VINA RESULT:     -11.3      0.000      0.000
REMARK SMILES Nn1c(Cc2ccc(F)c(F)c2)nnc1SCC(=O)OCCOCCOC(=O)c1ccc(-c2c3nc(c(-c4c(F)c(F)c(F)c(F)c4F)c4ccc([nH]4)c(-c4c(F)c(F)c(F)c(F)c4F)c4nc(c(-c5c(F)c(F)c(F)c(F)c5F)c5ccc2[nH]5)C=C4)C=C3)cc1
REMARK SMILES IDX 22 1 21 2 20 3 18 4 19 5 17 6 16 7 15 8 2 9 3 10 13 11 14 12
REMARK SMILES IDX 1 13 4 16 5 17 6 18 12 19 7 20 10 21 8 22 11 23 9 24 23 25
REMARK SMILES IDX 24 26 25 27 26 28 27 29 28 30 29 31 30 32 91 33 31 34 90 35
REMARK SMILES IDX 32 36 33 37 34 38 84 39 35 40 89 41 83 42 85 43 36 44 88 45
REMARK SMILES IDX 82 46 81 47 37 49 69 50 49 51 68 52 50 53 53 54 67 55 86 56
REMARK SMILES IDX 51 57 52 58 66 60 87 61 54 62 38 63 39 64 47 65 40 66 41 67
REMARK SMILES IDX 45 68 48 69 42 70 43 71 46 72 44 73 70 74 71 75 79 76 72 77
REMARK SMILES IDX 73 78 77 79 80 80 74 81 75 82 78 83 76 84 55 85 56 86 64 87
REMARK SMILES IDX 57 88 58 89 62 90 65 91 59 92 60 93 63 94 61 95
REMARK H PARENT 1 14 1 15 85 48 53 59
REMARK Flexibility Score: inf
ROOT
ATOM      1  C   UNL A   1      46.123  19.530  25.046  1.00  0.00     0.202 C 
ENDROOT
BRANCH   1   2
ATOM      2  C   UNL A   1      44.920  19.174  24.159  1.00  0.00     0.261 C 
BRANCH   2   3
ATOM      3  O   UNL A   1      44.071  18.126  24.681  1.00  0.00    -0.463 OA
BRANCH   3   4
ATOM      4  C   UNL A   1      43.289  18.453  25.749  1.00  0.00     0.316 C 
ATOM      5  O   UNL A   1      43.099  17.714  26.711  1.00  0.00    -0.251 OA
BRANCH   4   6
ATOM      6  C   UNL A   1      42.625  19.809  25.661  1.00  0.00     0.200 C 
BRANCH   6   7
ATOM      7  S   UNL A   1      41.396  20.161  26.909  1.00  0.00    -0.073 SA
BRANCH   7   8
ATOM      8  C   UNL A   1      39.812  20.253  26.215  1.00  0.00     0.210 A 
ATOM      9  N   UNL A   1      38.953  21.325  26.054  1.00  0.00    -0.221 N 
ATOM     10  C   UNL A   1      38.051  20.916  25.080  1.00  0.00     0.157 A 
ATOM     11  N   UNL A   1      38.193  19.616  24.905  1.00  0.00    -0.132 NA
ATOM     12  N   UNL A   1      39.305  19.212  25.589  1.00  0.00    -0.121 NA
BRANCH   9  13
ATOM     13  N   UNL A   1      38.944  22.576  26.749  1.00  0.00    -0.336 N 
ATOM     14  H   UNL A   1      39.121  23.411  26.260  1.00  0.00     0.178 HD
ATOM     15  H   UNL A   1      38.760  22.600  27.716  1.00  0.00     0.178 HD
ENDBRANCH   9  13
BRANCH  10  16
ATOM     16  C   UNL A   1      37.121  21.794  24.290  1.00  0.00     0.115 C 
BRANCH  16  17
ATOM     17  C   UNL A   1      35.735  21.966  24.916  1.00  0.00    -0.037 A 
ATOM     18  C   UNL A   1      34.830  20.888  25.002  1.00  0.00     0.007 A 
ATOM     19  C   UNL A   1      35.333  23.203  25.451  1.00  0.00     0.046 A 
ATOM     20  C   UNL A   1      33.559  21.048  25.569  1.00  0.00     0.043 A 
ATOM     21  C   UNL A   1      34.063  23.355  26.016  1.00  0.00     0.159 A 
ATOM     22  C   UNL A   1      33.180  22.285  26.072  1.00  0.00     0.158 A 
ATOM     23  F   UNL A   1      33.704  24.549  26.506  1.00  0.00    -0.204 F 
ATOM     24  F   UNL A   1      31.967  22.431  26.622  1.00  0.00    -0.204 F 
ENDBRANCH  16  17
ENDBRANCH  10  16
ENDBRANCH   7   8
ENDBRANCH   6   7
ENDBRANCH   4   6
ENDBRANCH   3   4
ENDBRANCH   2   3
ENDBRANCH   1   2
BRANCH   1  25
ATOM     25  O   UNL A   1      46.467  20.909  25.167  1.00  0.00    -0.374 OA
BRANCH  25  26
ATOM     26  C   UNL A   1      45.485  21.860  24.788  1.00  0.00     0.202 C 
BRANCH  26  27
ATOM     27  C   UNL A   1      44.863  22.709  25.891  1.00  0.00     0.261 C 
BRANCH  27  28
ATOM     28  O   UNL A   1      43.865  23.607  25.428  1.00  0.00    -0.460 OA
BRANCH  28  29
ATOM     29  C   UNL A   1      44.283  24.885  25.386  1.00  0.00     0.338 C 
ATOM     30  O   UNL A   1      45.095  25.402  24.626  1.00  0.00    -0.246 OA
BRANCH  29  31
ATOM     31  C   UNL A   1      43.486  25.652  26.330  1.00  0.00     0.060 A 
ATOM     32  C   UNL A   1      43.849  26.986  26.544  1.00  0.00     0.016 A 
ATOM     33  C   UNL A   1      42.451  25.041  27.038  1.00  0.00     0.016 A 
ATOM     34  C   UNL A   1      43.200  27.711  27.529  1.00  0.00     0.010 A 
ATOM     35  C   UNL A   1      41.805  25.769  28.028  1.00  0.00     0.010 A 
ATOM     36  C   UNL A   1      42.207  27.088  28.297  1.00  0.00    -0.014 A 
BRANCH  36  37
ATOM     37  C   UNL A   1      41.701  27.764  29.501  1.00  0.00     0.031 A 
ATOM     38  C   UNL A   1      40.442  28.570  29.387  1.00  0.00     0.074 A 
ATOM     39  C   UNL A   1      42.361  27.642  30.663  1.00  0.00     0.049 A 
ATOM     40  N   UNL A   1      39.855  29.318  30.282  1.00  0.00    -0.248 NA
ATOM     41  C   UNL A   1      39.754  28.531  28.086  1.00  0.00     0.031 C 
ATOM     42  C   UNL A   1      43.567  26.842  30.863  1.00  0.00     0.029 A 
ATOM     43  N   UNL A   1      42.112  28.199  31.887  1.00  0.00    -0.354 N 
ATOM     44  C   UNL A   1      38.738  29.847  29.651  1.00  0.00     0.074 A 
ATOM     45  C   UNL A   1      38.739  29.356  28.291  1.00  0.00     0.031 C 
ATOM     46  C   UNL A   1      43.964  26.969  32.140  1.00  0.00     0.029 A 
ATOM     47  C   UNL A   1      43.060  27.888  32.828  1.00  0.00     0.049 A 
ATOM     48  H   UNL A   1      41.330  28.768  32.074  1.00  0.00     0.167 HD
ATOM     49  C   UNL A   1      37.797  30.664  30.172  1.00  0.00     0.037 A 
ATOM     50  C   UNL A   1      43.186  28.325  34.093  1.00  0.00     0.037 A 
ATOM     51  C   UNL A   1      37.821  31.139  31.530  1.00  0.00     0.049 A 
ATOM     52  C   UNL A   1      42.157  29.281  34.632  1.00  0.00     0.074 A 
ATOM     53  C   UNL A   1      36.917  31.963  32.173  1.00  0.00     0.029 A 
ATOM     54  N   UNL A   1      38.810  30.827  32.453  1.00  0.00    -0.354 N 
ATOM     55  N   UNL A   1      41.100  29.779  34.036  1.00  0.00    -0.248 NA
ATOM     56  C   UNL A   1      42.336  29.735  36.016  1.00  0.00     0.031 C 
ATOM     57  C   UNL A   1      37.385  32.188  33.471  1.00  0.00     0.029 A 
ATOM     58  C   UNL A   1      38.552  31.462  33.656  1.00  0.00     0.049 A 
ATOM     59  H   UNL A   1      39.582  30.241  32.277  1.00  0.00     0.167 HD
ATOM     60  C   UNL A   1      40.482  30.597  34.971  1.00  0.00     0.074 A 
ATOM     61  C   UNL A   1      41.271  30.506  36.183  1.00  0.00     0.031 C 
ATOM     62  C   UNL A   1      39.366  31.359  34.840  1.00  0.00     0.037 A 
BRANCH  49  63
ATOM     63  C   UNL A   1      36.684  31.111  29.271  1.00  0.00     0.064 A 
ATOM     64  C   UNL A   1      36.623  32.439  28.824  1.00  0.00     0.173 A 
ATOM     65  C   UNL A   1      35.657  30.239  28.881  1.00  0.00     0.173 A 
ATOM     66  F   UNL A   1      37.581  33.312  29.166  1.00  0.00    -0.203 F 
ATOM     67  C   UNL A   1      35.568  32.879  28.029  1.00  0.00     0.198 A 
ATOM     68  C   UNL A   1      34.618  30.676  28.064  1.00  0.00     0.198 A 
ATOM     69  F   UNL A   1      35.679  28.953  29.266  1.00  0.00    -0.203 F 
ATOM     70  F   UNL A   1      35.517  34.160  27.635  1.00  0.00    -0.200 F 
ATOM     71  C   UNL A   1      34.568  31.998  27.647  1.00  0.00     0.200 A 
ATOM     72  F   UNL A   1      33.666  29.817  27.673  1.00  0.00    -0.200 F 
ATOM     73  F   UNL A   1      33.560  32.421  26.872  1.00  0.00    -0.200 F 
ENDBRANCH  49  63
BRANCH  50  74
ATOM     74  C   UNL A   1      44.331  27.861  34.918  1.00  0.00     0.064 A 
ATOM     75  C   UNL A   1      44.230  26.719  35.728  1.00  0.00     0.173 A 
ATOM     76  C   UNL A   1      45.536  28.573  34.942  1.00  0.00     0.173 A 
ATOM     77  F   UNL A   1      43.095  26.005  35.744  1.00  0.00    -0.203 F 
ATOM     78  C   UNL A   1      45.283  26.323  36.547  1.00  0.00     0.198 A 
ATOM     79  C   UNL A   1      46.599  28.161  35.741  1.00  0.00     0.198 A 
ATOM     80  F   UNL A   1      45.686  29.660  34.170  1.00  0.00    -0.203 F 
ATOM     81  F   UNL A   1      45.147  25.252  37.340  1.00  0.00    -0.200 F 
ATOM     82  C   UNL A   1      46.469  27.041  36.550  1.00  0.00     0.200 A 
ATOM     83  F   UNL A   1      47.751  28.845  35.726  1.00  0.00    -0.200 F 
ATOM     84  F   UNL A   1      47.486  26.656  37.333  1.00  0.00    -0.200 F 
ENDBRANCH  50  74
BRANCH  62  85
ATOM     85  C   UNL A   1      38.935  32.149  36.041  1.00  0.00     0.064 A 
ATOM     86  C   UNL A   1      39.358  33.475  36.211  1.00  0.00     0.173 A 
ATOM     87  C   UNL A   1      38.153  31.571  37.052  1.00  0.00     0.173 A 
ATOM     88  F   UNL A   1      40.117  34.068  35.277  1.00  0.00    -0.203 F 
ATOM     89  C   UNL A   1      39.020  34.192  37.353  1.00  0.00     0.198 A 
ATOM     90  C   UNL A   1      37.789  32.303  38.179  1.00  0.00     0.198 A 
ATOM     91  F   UNL A   1      37.714  30.309  36.929  1.00  0.00    -0.203 F 
ATOM     92  F   UNL A   1      39.460  35.449  37.509  1.00  0.00    -0.200 F 
ATOM     93  C   UNL A   1      38.230  33.609  38.332  1.00  0.00     0.200 A 
ATOM     94  F   UNL A   1      37.003  31.746  39.110  1.00  0.00    -0.200 F 
ATOM     95  F   UNL A   1      37.889  34.307  39.424  1.00  0.00    -0.200 F 
ENDBRANCH  62  85
ENDBRANCH  36  37
ENDBRANCH  29  31
ENDBRANCH  28  29
ENDBRANCH  27  28
ENDBRANCH  26  27
ENDBRANCH  25  26
ENDBRANCH   1  25
TORSDOF 19
ENDMDL
MODEL 2
REMARK VINA RESULT:     -11.2      5.180      9.823
REMARK SMILES Nn1c(Cc2ccc(F)c(F)c2)nnc1SCC(=O)OCCOCCOC(=O)c1ccc(-c2c3nc(c(-c4c(F)c(F)c(F)c(F)c4F)c4ccc([nH]4)c(-c4c(F)c(F)c(F)c(F)c4F)c4nc(c(-c5c(F)c(F)c(F)c(F)c5F)c5ccc2[nH]5)C=C4)C=C3)cc1
REMARK SMILES IDX 22 1 21 2 20 3 18 4 19 5 17 6 16 7 15 8 2 9 3 10 13 11 14 12
REMARK SMILES IDX 1 13 4 16 5 17 6 18 12 19 7 20 10 21 8 22 11 23 9 24 23 25
REMARK SMILES IDX 24 26 25 27 26 28 27 29 28 30 29 31 30 32 91 33 31 34 90 35
REMARK SMILES IDX 32 36 33 37 34 38 84 39 35 40 89 41 83 42 85 43 36 44 88 45
REMARK SMILES IDX 82 46 81 47 37 49 69 50 49 51 68 52 50 53 53 54 67 55 86 56
REMARK SMILES IDX 51 57 52 58 66 60 87 61 54 62 38 63 39 64 47 65 40 66 41 67
REMARK SMILES IDX 45 68 48 69 42 70 43 71 46 72 44 73 70 74 71 75 79 76 72 77
REMARK SMILES IDX 73 78 77 79 80 80 74 81 75 82 78 83 76 84 55 85 56 86 64 87
REMARK SMILES IDX 57 88 58 89 62 90 65 91 59 92 60 93 63 94 61 95
REMARK H PARENT 1 14 1 15 85 48 53 59
REMARK Flexibility Score: inf
ROOT
ATOM      1  C   UNL A   1      31.855  29.037  26.337  1.00  0.00     0.202 C 
ENDROOT
BRANCH   1   2
ATOM      2  C   UNL A   1      33.036  28.280  26.967  1.00  0.00     0.261 C 
BRANCH   2   3
ATOM      3  O   UNL A   1      33.805  27.478  26.041  1.00  0.00    -0.463 OA
BRANCH   3   4
ATOM      4  C   UNL A   1      33.307  26.243  25.749  1.00  0.00     0.316 C 
ATOM      5  O   UNL A   1      32.335  25.745  26.310  1.00  0.00    -0.251 OA
BRANCH   4   6
ATOM      6  C   UNL A   1      34.065  25.487  24.681  1.00  0.00     0.200 C 
BRANCH   6   7
ATOM      7  S   UNL A   1      33.287  25.409  23.074  1.00  0.00    -0.073 SA
BRANCH   7   8
ATOM      8  C   UNL A   1      32.205  26.740  22.842  1.00  0.00     0.210 A 
ATOM      9  N   UNL A   1      30.874  26.899  23.189  1.00  0.00    -0.221 N 
ATOM     10  C   UNL A   1      30.659  28.271  23.156  1.00  0.00     0.157 A 
ATOM     11  N   UNL A   1      31.689  28.837  22.557  1.00  0.00    -0.132 NA
ATOM     12  N   UNL A   1      32.659  27.890  22.388  1.00  0.00    -0.121 NA
BRANCH   9  13
ATOM     13  N   UNL A   1      29.901  25.892  23.482  1.00  0.00    -0.336 N 
ATOM     14  H   UNL A   1      28.985  25.978  23.134  1.00  0.00     0.178 HD
ATOM     15  H   UNL A   1      30.148  25.114  24.033  1.00  0.00     0.178 HD
ENDBRANCH   9  13
BRANCH  10  16
ATOM     16  C   UNL A   1      29.501  29.013  23.763  1.00  0.00     0.115 C 
BRANCH  16  17
ATOM     17  C   UNL A   1      28.990  30.181  22.916  1.00  0.00    -0.037 A 
ATOM     18  C   UNL A   1      28.458  29.976  21.627  1.00  0.00     0.007 A 
ATOM     19  C   UNL A   1      29.012  31.497  23.413  1.00  0.00     0.046 A 
ATOM     20  C   UNL A   1      27.997  31.046  20.850  1.00  0.00     0.043 A 
ATOM     21  C   UNL A   1      28.550  32.561  22.632  1.00  0.00     0.159 A 
ATOM     22  C   UNL A   1      28.049  32.337  21.357  1.00  0.00     0.158 A 
ATOM     23  F   UNL A   1      28.594  33.804  23.129  1.00  0.00    -0.204 F 
ATOM     24  F   UNL A   1      27.597  33.358  20.614  1.00  0.00    -0.204 F 
ENDBRANCH  16  17
ENDBRANCH  10  16
ENDBRANCH   7   8
ENDBRANCH   6   7
ENDBRANCH   4   6
ENDBRANCH   3   4
ENDBRANCH   2   3
ENDBRANCH   1   2
BRANCH   1  25
ATOM     25  O   UNL A   1      32.127  30.307  25.749  1.00  0.00    -0.374 OA
BRANCH  25  26
ATOM     26  C   UNL A   1      31.288  31.390  26.122  1.00  0.00     0.202 C 
BRANCH  26  27
ATOM     27  C   UNL A   1      31.911  32.514  26.942  1.00  0.00     0.261 C 
BRANCH  27  28
ATOM     28  O   UNL A   1      33.046  32.114  27.694  1.00  0.00    -0.460 OA
BRANCH  28  29
ATOM     29  C   UNL A   1      33.989  33.070  27.776  1.00  0.00     0.338 C 
ATOM     30  O   UNL A   1      33.867  34.282  27.626  1.00  0.00    -0.246 OA
BRANCH  29  31
ATOM     31  C   UNL A   1      35.221  32.453  28.237  1.00  0.00     0.060 A 
ATOM     32  C   UNL A   1      35.157  31.120  28.654  1.00  0.00     0.016 A 
ATOM     33  C   UNL A   1      36.395  33.202  28.321  1.00  0.00     0.016 A 
ATOM     34  C   UNL A   1      36.277  30.537  29.222  1.00  0.00     0.010 A 
ATOM     35  C   UNL A   1      37.516  32.616  28.894  1.00  0.00     0.010 A 
ATOM     36  C   UNL A   1      37.442  31.300  29.379  1.00  0.00    -0.014 A 
BRANCH  36  37
ATOM     37  C   UNL A   1      38.540  30.774  30.205  1.00  0.00     0.031 A 
ATOM     38  C   UNL A   1      39.473  29.774  29.593  1.00  0.00     0.074 A 
ATOM     39  C   UNL A   1      38.686  31.199  31.469  1.00  0.00     0.049 A 
ATOM     40  N   UNL A   1      40.453  29.111  30.146  1.00  0.00    -0.248 NA
ATOM     41  C   UNL A   1      39.272  29.476  28.165  1.00  0.00     0.031 C 
ATOM     42  C   UNL A   1      37.846  32.201  32.121  1.00  0.00     0.029 A 
ATOM     43  N   UNL A   1      39.590  30.833  32.428  1.00  0.00    -0.354 N 
ATOM     44  C   UNL A   1      40.977  28.312  29.139  1.00  0.00     0.074 A 
ATOM     45  C   UNL A   1      40.194  28.550  27.948  1.00  0.00     0.031 C 
ATOM     46  C   UNL A   1      38.267  32.363  33.385  1.00  0.00     0.029 A 
ATOM     47  C   UNL A   1      39.379  31.449  33.635  1.00  0.00     0.049 A 
ATOM     48  H   UNL A   1      40.319  30.190  32.268  1.00  0.00     0.167 HD
ATOM     49  C   UNL A   1      42.024  27.461  29.213  1.00  0.00     0.037 A 
ATOM     50  C   UNL A   1      40.005  31.265  34.811  1.00  0.00     0.037 A 
ATOM     51  C   UNL A   1      42.787  27.241  30.413  1.00  0.00     0.049 A 
ATOM     52  C   UNL A   1      41.131  30.269  34.881  1.00  0.00     0.074 A 
ATOM     53  C   UNL A   1      43.874  26.410  30.605  1.00  0.00     0.029 A 
ATOM     54  N   UNL A   1      42.532  27.861  31.629  1.00  0.00    -0.354 N 
ATOM     55  N   UNL A   1      41.627  29.515  33.929  1.00  0.00    -0.248 NA
ATOM     56  C   UNL A   1      41.782  30.098  36.185  1.00  0.00     0.031 C 
ATOM     57  C   UNL A   1      44.248  26.492  31.950  1.00  0.00     0.029 A 
ATOM     58  C   UNL A   1      43.428  27.414  32.585  1.00  0.00     0.049 A 
ATOM     59  H   UNL A   1      41.818  28.520  31.788  1.00  0.00     0.167 HD
ATOM     60  C   UNL A   1      42.654  28.787  34.512  1.00  0.00     0.074 A 
ATOM     61  C   UNL A   1      42.725  29.211  35.897  1.00  0.00     0.031 C 
ATOM     62  C   UNL A   1      43.462  27.849  33.958  1.00  0.00     0.037 A 
BRANCH  49  63
ATOM     63  C   UNL A   1      42.389  26.694  27.976  1.00  0.00     0.064 A 
ATOM     64  C   UNL A   1      43.314  27.220  27.062  1.00  0.00     0.173 A 
ATOM     65  C   UNL A   1      41.797  25.460  27.673  1.00  0.00     0.173 A 
ATOM     66  F   UNL A   1      43.911  28.396  27.306  1.00  0.00    -0.203 F 
ATOM     67  C   UNL A   1      43.623  26.543  25.886  1.00  0.00     0.198 A 
ATOM     68  C   UNL A   1      42.128  24.772  26.509  1.00  0.00     0.198 A 
ATOM     69  F   UNL A   1      40.920  24.903  28.524  1.00  0.00    -0.203 F 
ATOM     70  F   UNL A   1      44.491  27.078  25.015  1.00  0.00    -0.200 F 
ATOM     71  C   UNL A   1      43.033  25.319  25.611  1.00  0.00     0.200 A 
ATOM     72  F   UNL A   1      41.577  23.577  26.257  1.00  0.00    -0.200 F 
ATOM     73  F   UNL A   1      43.341  24.664  24.483  1.00  0.00    -0.200 F 
ENDBRANCH  49  63
BRANCH  50  74
ATOM     74  C   UNL A   1      39.571  32.040  36.001  1.00  0.00     0.064 A 
ATOM     75  C   UNL A   1      38.492  31.618  36.792  1.00  0.00     0.173 A 
ATOM     76  C   UNL A   1      40.202  33.242  36.347  1.00  0.00     0.173 A 
ATOM     77  F   UNL A   1      37.850  30.477  36.500  1.00  0.00    -0.203 F 
ATOM     78  C   UNL A   1      38.047  32.380  37.869  1.00  0.00     0.198 A 
ATOM     79  C   UNL A   1      39.775  33.990  37.441  1.00  0.00     0.198 A 
ATOM     80  F   UNL A   1      41.250  33.677  35.632  1.00  0.00    -0.203 F 
ATOM     81  F   UNL A   1      36.990  31.973  38.585  1.00  0.00    -0.200 F 
ATOM     82  C   UNL A   1      38.691  33.564  38.196  1.00  0.00     0.200 A 
ATOM     83  F   UNL A   1      40.412  35.122  37.766  1.00  0.00    -0.200 F 
ATOM     84  F   UNL A   1      38.269  34.293  39.237  1.00  0.00    -0.200 F 
ENDBRANCH  50  74
BRANCH  62  85
ATOM     85  C   UNL A   1      44.494  27.224  34.851  1.00  0.00     0.064 A 
ATOM     86  C   UNL A   1      44.205  26.049  35.560  1.00  0.00     0.173 A 
ATOM     87  C   UNL A   1      45.747  27.823  35.049  1.00  0.00     0.173 A 
ATOM     88  F   UNL A   1      43.016  25.445  35.413  1.00  0.00    -0.203 F 
ATOM     89  C   UNL A   1      45.130  25.500  36.442  1.00  0.00     0.198 A 
ATOM     90  C   UNL A   1      46.682  27.252  35.908  1.00  0.00     0.198 A 
ATOM     91  F   UNL A   1      46.074  28.940  34.383  1.00  0.00    -0.203 F 
ATOM     92  F   UNL A   1      44.820  24.394  37.133  1.00  0.00    -0.200 F 
ATOM     93  C   UNL A   1      46.369  26.097  36.610  1.00  0.00     0.200 A 
ATOM     94  F   UNL A   1      47.890  27.816  36.047  1.00  0.00    -0.200 F 
ATOM     95  F   UNL A   1      47.267  25.558  37.445  1.00  0.00    -0.200 F 
ENDBRANCH  62  85
ENDBRANCH  36  37
ENDBRANCH  29  31
ENDBRANCH  28  29
ENDBRANCH  27  28
ENDBRANCH  26  27
ENDBRANCH  25  26
ENDBRANCH   1  25
TORSDOF 19
ENDMDL
MODEL 3
REMARK VINA RESULT:     -11.2      5.321     10.197
REMARK SMILES Nn1c(Cc2ccc(F)c(F)c2)nnc1SCC(=O)OCCOCCOC(=O)c1ccc(-c2c3nc(c(-c4c(F)c(F)c(F)c(F)c4F)c4ccc([nH]4)c(-c4c(F)c(F)c(F)c(F)c4F)c4nc(c(-c5c(F)c(F)c(F)c(F)c5F)c5ccc2[nH]5)C=C4)C=C3)cc1
REMARK SMILES IDX 22 1 21 2 20 3 18 4 19 5 17 6 16 7 15 8 2 9 3 10 13 11 14 12
REMARK SMILES IDX 1 13 4 16 5 17 6 18 12 19 7 20 10 21 8 22 11 23 9 24 23 25
REMARK SMILES IDX 24 26 25 27 26 28 27 29 28 30 29 31 30 32 91 33 31 34 90 35
REMARK SMILES IDX 32 36 33 37 34 38 84 39 35 40 89 41 83 42 85 43 36 44 88 45
REMARK SMILES IDX 82 46 81 47 37 49 69 50 49 51 68 52 50 53 53 54 67 55 86 56
REMARK SMILES IDX 51 57 52 58 66 60 87 61 54 62 38 63 39 64 47 65 40 66 41 67
REMARK SMILES IDX 45 68 48 69 42 70 43 71 46 72 44 73 70 74 71 75 79 76 72 77
REMARK SMILES IDX 73 78 77 79 80 80 74 81 75 82 78 83 76 84 55 85 56 86 64 87
REMARK SMILES IDX 57 88 58 89 62 90 65 91 59 92 60 93 63 94 61 95
REMARK H PARENT 1 14 1 15 85 48 53 59
REMARK Flexibility Score: inf
ROOT
ATOM      1  C   UNL A   1      31.690  29.632  26.156  1.00  0.00     0.202 C 
ENDROOT
BRANCH   1   2
ATOM      2  C   UNL A   1      33.132  29.102  26.207  1.00  0.00     0.261 C 
BRANCH   2   3
ATOM      3  O   UNL A   1      33.469  28.162  25.160  1.00  0.00    -0.463 OA
BRANCH   3   4
ATOM      4  C   UNL A   1      33.349  26.840  25.467  1.00  0.00     0.316 C 
ATOM      5  O   UNL A   1      32.873  26.422  26.519  1.00  0.00    -0.251 OA
BRANCH   4   6
ATOM      6  C   UNL A   1      33.880  25.891  24.417  1.00  0.00     0.200 C 
BRANCH   6   7
ATOM      7  S   UNL A   1      32.665  25.175  23.320  1.00  0.00    -0.073 SA
BRANCH   7   8
ATOM      8  C   UNL A   1      31.415  26.315  22.949  1.00  0.00     0.210 A 
ATOM      9  N   UNL A   1      30.230  26.606  23.600  1.00  0.00    -0.221 N 
ATOM     10  C   UNL A   1      29.858  27.856  23.121  1.00  0.00     0.157 A 
ATOM     11  N   UNL A   1      30.602  28.134  22.068  1.00  0.00    -0.132 NA
ATOM     12  N   UNL A   1      31.586  27.190  21.980  1.00  0.00    -0.121 NA
BRANCH   9  13
ATOM     13  N   UNL A   1      29.502  25.803  24.534  1.00  0.00    -0.336 N 
ATOM     14  H   UNL A   1      28.524  25.728  24.460  1.00  0.00     0.178 HD
ATOM     15  H   UNL A   1      29.981  25.326  25.251  1.00  0.00     0.178 HD
ENDBRANCH   9  13
BRANCH  10  16
ATOM     16  C   UNL A   1      28.843  28.785  23.727  1.00  0.00     0.115 C 
BRANCH  16  17
ATOM     17  C   UNL A   1      28.577  30.048  22.905  1.00  0.00    -0.037 A 
ATOM     18  C   UNL A   1      28.080  29.976  21.588  1.00  0.00     0.007 A 
ATOM     19  C   UNL A   1      28.795  31.325  23.453  1.00  0.00     0.046 A 
ATOM     20  C   UNL A   1      27.843  31.132  20.834  1.00  0.00     0.043 A 
ATOM     21  C   UNL A   1      28.557  32.475  22.695  1.00  0.00     0.159 A 
ATOM     22  C   UNL A   1      28.087  32.379  21.392  1.00  0.00     0.158 A 
ATOM     23  F   UNL A   1      28.786  33.678  23.240  1.00  0.00    -0.204 F 
ATOM     24  F   UNL A   1      27.850  33.484  20.670  1.00  0.00    -0.204 F 
ENDBRANCH  16  17
ENDBRANCH  10  16
ENDBRANCH   7   8
ENDBRANCH   6   7
ENDBRANCH   4   6
ENDBRANCH   3   4
ENDBRANCH   2   3
ENDBRANCH   1   2
BRANCH   1  25
ATOM     25  O   UNL A   1      31.488  30.942  25.630  1.00  0.00    -0.374 OA
BRANCH  25  26
ATOM     26  C   UNL A   1      31.116  31.961  26.546  1.00  0.00     0.202 C 
BRANCH  26  27
ATOM     27  C   UNL A   1      32.134  33.060  26.829  1.00  0.00     0.261 C 
BRANCH  27  28
ATOM     28  O   UNL A   1      33.058  32.734  27.856  1.00  0.00    -0.460 OA
BRANCH  28  29
ATOM     29  C   UNL A   1      34.106  33.575  27.910  1.00  0.00     0.338 C 
ATOM     30  O   UNL A   1      34.116  34.797  27.796  1.00  0.00    -0.246 OA
BRANCH  29  31
ATOM     31  C   UNL A   1      35.283  32.809  28.286  1.00  0.00     0.060 A 
ATOM     32  C   UNL A   1      35.102  31.455  28.585  1.00  0.00     0.016 A 
ATOM     33  C   UNL A   1      36.522  33.437  28.409  1.00  0.00     0.016 A 
ATOM     34  C   UNL A   1      36.171  30.723  29.072  1.00  0.00     0.010 A 
ATOM     35  C   UNL A   1      37.592  32.703  28.903  1.00  0.00     0.010 A 
ATOM     36  C   UNL A   1      37.404  31.360  29.270  1.00  0.00    -0.014 A 
BRANCH  36  37
ATOM     37  C   UNL A   1      38.460  30.663  30.021  1.00  0.00     0.031 A 
ATOM     38  C   UNL A   1      38.649  31.009  31.467  1.00  0.00     0.074 A 
ATOM     39  C   UNL A   1      39.217  29.741  29.409  1.00  0.00     0.049 A 
ATOM     40  N   UNL A   1      39.562  30.595  32.304  1.00  0.00    -0.248 NA
ATOM     41  C   UNL A   1      37.680  31.955  32.048  1.00  0.00     0.031 C 
ATOM     42  C   UNL A   1      39.065  29.319  28.018  1.00  0.00     0.029 A 
ATOM     43  N   UNL A   1      40.267  29.002  29.879  1.00  0.00    -0.354 N 
ATOM     44  C   UNL A   1      39.285  31.236  33.504  1.00  0.00     0.074 A 
ATOM     45  C   UNL A   1      38.136  32.085  33.284  1.00  0.00     0.031 C 
ATOM     46  C   UNL A   1      40.003  28.399  27.740  1.00  0.00     0.029 A 
ATOM     47  C   UNL A   1      40.837  28.200  28.923  1.00  0.00     0.049 A 
ATOM     48  H   UNL A   1      40.583  29.042  30.811  1.00  0.00     0.167 HD
ATOM     49  C   UNL A   1      39.936  31.113  34.682  1.00  0.00     0.037 A 
ATOM     50  C   UNL A   1      41.928  27.417  29.001  1.00  0.00     0.037 A 
ATOM     51  C   UNL A   1      41.078  30.259  34.873  1.00  0.00     0.049 A 
ATOM     52  C   UNL A   1      42.670  27.343  30.308  1.00  0.00     0.074 A 
ATOM     53  C   UNL A   1      41.814  30.046  36.023  1.00  0.00     0.029 A 
ATOM     54  N   UNL A   1      41.649  29.478  33.878  1.00  0.00    -0.354 N 
ATOM     55  N   UNL A   1      42.407  27.947  31.443  1.00  0.00    -0.248 NA
ATOM     56  C   UNL A   1      43.856  26.480  30.347  1.00  0.00     0.031 C 
ATOM     57  C   UNL A   1      42.860  29.172  35.711  1.00  0.00     0.029 A 
ATOM     58  C   UNL A   1      42.745  28.798  34.380  1.00  0.00     0.049 A 
ATOM     59  H   UNL A   1      41.324  29.418  32.950  1.00  0.00     0.167 HD
ATOM     60  C   UNL A   1      43.387  27.533  32.334  1.00  0.00     0.074 A 
ATOM     61  C   UNL A   1      44.235  26.605  31.612  1.00  0.00     0.031 C 
ATOM     62  C   UNL A   1      43.575  27.890  33.629  1.00  0.00     0.037 A 
BRANCH  49  63
ATOM     63  C   UNL A   1      39.445  31.931  35.839  1.00  0.00     0.064 A 
ATOM     64  C   UNL A   1      38.446  31.432  36.688  1.00  0.00     0.173 A 
ATOM     65  C   UNL A   1      39.932  33.222  36.088  1.00  0.00     0.173 A 
ATOM     66  F   UNL A   1      37.948  30.201  36.495  1.00  0.00    -0.203 F 
ATOM     67  C   UNL A   1      37.945  32.201  37.734  1.00  0.00     0.198 A 
ATOM     68  C   UNL A   1      39.449  33.978  37.153  1.00  0.00     0.198 A 
ATOM     69  F   UNL A   1      40.902  33.738  35.318  1.00  0.00    -0.203 F 
ATOM     70  F   UNL A   1      36.971  31.712  38.517  1.00  0.00    -0.200 F 
ATOM     71  C   UNL A   1      38.448  33.471  37.968  1.00  0.00     0.200 A 
ATOM     72  F   UNL A   1      39.954  35.195  37.393  1.00  0.00    -0.200 F 
ATOM     73  F   UNL A   1      37.973  34.205  38.984  1.00  0.00    -0.200 F 
ENDBRANCH  49  63
BRANCH  50  74
ATOM     74  C   UNL A   1      42.371  26.657  27.805  1.00  0.00     0.064 A 
ATOM     75  C   UNL A   1      41.944  25.340  27.579  1.00  0.00     0.173 A 
ATOM     76  C   UNL A   1      43.263  27.221  26.885  1.00  0.00     0.173 A 
ATOM     77  F   UNL A   1      41.093  24.753  28.434  1.00  0.00    -0.203 F 
ATOM     78  C   UNL A   1      42.411  24.608  26.490  1.00  0.00     0.198 A 
ATOM     79  C   UNL A   1      43.709  26.498  25.781  1.00  0.00     0.198 A 
ATOM     80  F   UNL A   1      43.685  28.483  27.049  1.00  0.00    -0.203 F 
ATOM     81  F   UNL A   1      42.017  23.340  26.319  1.00  0.00    -0.200 F 
ATOM     82  C   UNL A   1      43.291  25.189  25.589  1.00  0.00     0.200 A 
ATOM     83  F   UNL A   1      44.543  27.069  24.901  1.00  0.00    -0.200 F 
ATOM     84  F   UNL A   1      43.734  24.489  24.537  1.00  0.00    -0.200 F 
ENDBRANCH  50  74
BRANCH  62  85
ATOM     85  C   UNL A   1      44.739  27.269  34.346  1.00  0.00     0.064 A 
ATOM     86  C   UNL A   1      44.589  26.054  35.029  1.00  0.00     0.173 A 
ATOM     87  C   UNL A   1      45.985  27.911  34.404  1.00  0.00     0.173 A 
ATOM     88  F   UNL A   1      43.413  25.408  35.012  1.00  0.00    -0.203 F 
ATOM     89  C   UNL A   1      45.643  25.506  35.752  1.00  0.00     0.198 A 
ATOM     90  C   UNL A   1      47.047  27.342  35.102  1.00  0.00     0.198 A 
ATOM     91  F   UNL A   1      46.180  29.069  33.756  1.00  0.00    -0.203 F 
ATOM     92  F   UNL A   1      45.469  24.359  36.423  1.00  0.00    -0.200 F 
ATOM     93  C   UNL A   1      46.872  26.146  35.782  1.00  0.00     0.200 A 
ATOM     94  F   UNL A   1      48.241  27.949  35.106  1.00  0.00    -0.200 F 
ATOM     95  F   UNL A   1      47.893  25.608  36.463  1.00  0.00    -0.200 F 
ENDBRANCH  62  85
ENDBRANCH  36  37
ENDBRANCH  29  31
ENDBRANCH  28  29
ENDBRANCH  27  28
ENDBRANCH  26  27
ENDBRANCH  25  26
ENDBRANCH   1  25
TORSDOF 19
ENDMDL
