MODEL 1
REMARK VINA RESULT:     -11.6      0.000      0.000
REMARK SMILES O=C(OCCOCCOC(=O)c1ccc(-c2ccc(Cl)cc2)cc1F)c1ccc(-c2c3nc(c(-c4c(F)c(F)c(F)c(F)c4F)c4ccc([nH]4)c(-c4c(F)c(F)c(F)c(F)c4F)c4nc(c(-c5c(F)c(F)c(F)c(F)c5F)c5ccc2[nH]5)C=C4)C=C3)cc1
REMARK SMILES IDX 5 1 4 2 3 3 2 4 1 5 26 6 27 7 88 8 28 9 87 10 29 11 30 12
REMARK SMILES IDX 31 13 81 14 32 15 86 16 80 17 82 18 33 19 85 20 79 21 78 22
REMARK SMILES IDX 34 24 66 25 46 26 65 27 47 28 50 29 64 30 83 31 48 32 49 33
REMARK SMILES IDX 63 35 84 36 51 37 35 38 36 39 44 40 37 41 38 42 42 43 45 44
REMARK SMILES IDX 39 45 40 46 43 47 41 48 67 49 68 50 76 51 69 52 70 53 74 54
REMARK SMILES IDX 77 55 71 56 72 57 75 58 73 59 52 60 53 61 61 62 54 63 55 64
REMARK SMILES IDX 59 65 62 66 56 67 57 68 60 69 58 70 6 71 7 72 8 73 9 74
REMARK SMILES IDX 10 75 11 76 12 77 13 78 24 79 14 80 23 81 25 82 15 83 16 84
REMARK SMILES IDX 17 85 22 86 18 87 21 88 19 89 20 90
REMARK H PARENT 82 23 50 34
REMARK Flexibility Score: inf
ROOT
ATOM      1  C   UNL A   1      34.862  34.759  32.463  1.00  0.00     0.202 C 
ENDROOT
BRANCH   1   2
ATOM      2  C   UNL A   1      34.255  33.392  32.792  1.00  0.00     0.261 C 
BRANCH   2   3
ATOM      3  O   UNL A   1      35.125  32.334  32.359  1.00  0.00    -0.460 OA
BRANCH   3   4
ATOM      4  C   UNL A   1      36.305  31.939  32.890  1.00  0.00     0.338 C 
ATOM      5  O   UNL A   1      36.455  32.017  34.109  1.00  0.00    -0.246 OA
BRANCH   4   6
ATOM      6  C   UNL A   1      37.444  31.400  32.086  1.00  0.00     0.060 A 
ATOM      7  C   UNL A   1      38.526  30.687  32.604  1.00  0.00     0.016 A 
ATOM      8  C   UNL A   1      37.369  31.553  30.690  1.00  0.00     0.016 A 
ATOM      9  C   UNL A   1      39.531  30.194  31.791  1.00  0.00     0.010 A 
ATOM     10  C   UNL A   1      38.358  31.024  29.853  1.00  0.00     0.010 A 
ATOM     11  C   UNL A   1      39.451  30.356  30.413  1.00  0.00    -0.014 A 
BRANCH  11  12
ATOM     12  C   UNL A   1      40.603  29.905  29.620  1.00  0.00     0.031 A 
ATOM     13  C   UNL A   1      41.790  30.809  29.526  1.00  0.00     0.074 A 
ATOM     14  C   UNL A   1      40.635  28.637  29.176  1.00  0.00     0.049 A 
ATOM     15  N   UNL A   1      42.927  30.619  28.917  1.00  0.00    -0.248 NA
ATOM     16  C   UNL A   1      41.693  32.094  30.239  1.00  0.00     0.031 C 
ATOM     17  C   UNL A   1      39.568  27.653  29.375  1.00  0.00     0.029 A 
ATOM     18  N   UNL A   1      41.614  27.940  28.522  1.00  0.00    -0.354 N 
ATOM     19  C   UNL A   1      43.673  31.763  29.159  1.00  0.00     0.074 A 
ATOM     20  C   UNL A   1      42.861  32.650  29.959  1.00  0.00     0.031 C 
ATOM     21  C   UNL A   1      39.969  26.468  28.891  1.00  0.00     0.029 A 
ATOM     22  C   UNL A   1      41.285  26.629  28.284  1.00  0.00     0.049 A 
ATOM     23  H   UNL A   1      42.471  28.341  28.249  1.00  0.00     0.167 HD
ATOM     24  C   UNL A   1      44.930  32.036  28.741  1.00  0.00     0.037 A 
ATOM     25  C   UNL A   1      41.972  25.678  27.623  1.00  0.00     0.037 A 
ATOM     26  C   UNL A   1      45.702  31.129  27.938  1.00  0.00     0.049 A 
ATOM     27  C   UNL A   1      43.314  26.051  27.058  1.00  0.00     0.074 A 
ATOM     28  C   UNL A   1      46.943  31.320  27.362  1.00  0.00     0.029 A 
ATOM     29  N   UNL A   1      45.292  29.842  27.602  1.00  0.00    -0.354 N 
ATOM     30  N   UNL A   1      43.980  27.175  27.192  1.00  0.00    -0.248 NA
ATOM     31  C   UNL A   1      43.992  25.044  26.235  1.00  0.00     0.031 C 
ATOM     32  C   UNL A   1      47.264  30.166  26.640  1.00  0.00     0.029 A 
ATOM     33  C   UNL A   1      46.250  29.233  26.813  1.00  0.00     0.049 A 
ATOM     34  H   UNL A   1      44.446  29.427  27.884  1.00  0.00     0.167 HD
ATOM     35  C   UNL A   1      45.159  27.010  26.481  1.00  0.00     0.074 A 
ATOM     36  C   UNL A   1      45.125  25.667  25.934  1.00  0.00     0.031 C 
ATOM     37  C   UNL A   1      46.175  27.888  26.292  1.00  0.00     0.037 A 
BRANCH  24  38
ATOM     38  C   UNL A   1      45.489  33.383  29.087  1.00  0.00     0.064 A 
ATOM     39  C   UNL A   1      46.249  33.553  30.254  1.00  0.00     0.173 A 
ATOM     40  C   UNL A   1      45.307  34.498  28.256  1.00  0.00     0.173 A 
ATOM     41  F   UNL A   1      46.464  32.518  31.078  1.00  0.00    -0.203 F 
ATOM     42  C   UNL A   1      46.804  34.789  30.576  1.00  0.00     0.198 A 
ATOM     43  C   UNL A   1      45.887  35.726  28.567  1.00  0.00     0.198 A 
ATOM     44  F   UNL A   1      44.617  34.382  27.111  1.00  0.00    -0.203 F 
ATOM     45  F   UNL A   1      47.521  34.927  31.701  1.00  0.00    -0.200 F 
ATOM     46  C   UNL A   1      46.630  35.872  29.728  1.00  0.00     0.200 A 
ATOM     47  F   UNL A   1      45.750  36.763  27.727  1.00  0.00    -0.200 F 
ATOM     48  F   UNL A   1      47.194  37.052  30.023  1.00  0.00    -0.200 F 
ENDBRANCH  24  38
BRANCH  25  49
ATOM     49  C   UNL A   1      41.383  24.324  27.445  1.00  0.00     0.064 A 
ATOM     50  C   UNL A   1      41.969  23.193  28.037  1.00  0.00     0.173 A 
ATOM     51  C   UNL A   1      40.246  24.122  26.651  1.00  0.00     0.173 A 
ATOM     52  F   UNL A   1      43.056  23.327  28.811  1.00  0.00    -0.203 F 
ATOM     53  C   UNL A   1      41.462  21.914  27.815  1.00  0.00     0.198 A 
ATOM     54  C   UNL A   1      39.722  22.844  26.453  1.00  0.00     0.198 A 
ATOM     55  F   UNL A   1      39.633  25.169  26.081  1.00  0.00    -0.203 F 
ATOM     56  F   UNL A   1      42.071  20.852  28.360  1.00  0.00    -0.200 F 
ATOM     57  C   UNL A   1      40.338  21.740  27.026  1.00  0.00     0.200 A 
ATOM     58  F   UNL A   1      38.619  22.682  25.710  1.00  0.00    -0.200 F 
ATOM     59  F   UNL A   1      39.843  20.512  26.821  1.00  0.00    -0.200 F 
ENDBRANCH  25  49
BRANCH  37  60
ATOM     60  C   UNL A   1      47.341  27.418  25.477  1.00  0.00     0.064 A 
ATOM     61  C   UNL A   1      48.440  26.810  26.104  1.00  0.00     0.173 A 
ATOM     62  C   UNL A   1      47.412  27.655  24.098  1.00  0.00     0.173 A 
ATOM     63  F   UNL A   1      48.420  26.573  27.425  1.00  0.00    -0.203 F 
ATOM     64  C   UNL A   1      49.579  26.478  25.379  1.00  0.00     0.198 A 
ATOM     65  C   UNL A   1      48.541  27.293  23.371  1.00  0.00     0.198 A 
ATOM     66  F   UNL A   1      46.379  28.223  23.457  1.00  0.00    -0.203 F 
ATOM     67  F   UNL A   1      50.634  25.938  26.005  1.00  0.00    -0.200 F 
ATOM     68  C   UNL A   1      49.628  26.716  24.014  1.00  0.00     0.200 A 
ATOM     69  F   UNL A   1      48.580  27.502  22.048  1.00  0.00    -0.200 F 
ATOM     70  F   UNL A   1      50.724  26.391  23.316  1.00  0.00    -0.200 F 
ENDBRANCH  37  60
ENDBRANCH  11  12
ENDBRANCH   4   6
ENDBRANCH   3   4
ENDBRANCH   2   3
ENDBRANCH   1   2
BRANCH   1  71
ATOM     71  O   UNL A   1      34.045  35.580  31.626  1.00  0.00    -0.374 OA
BRANCH  71  72
ATOM     72  C   UNL A   1      33.350  34.901  30.573  1.00  0.00     0.202 C 
BRANCH  72  73
ATOM     73  C   UNL A   1      34.328  34.563  29.447  1.00  0.00     0.261 C 
BRANCH  73  74
ATOM     74  O   UNL A   1      34.265  33.149  29.225  1.00  0.00    -0.460 OA
BRANCH  74  75
ATOM     75  C   UNL A   1      34.916  32.714  28.122  1.00  0.00     0.341 C 
ATOM     76  O   UNL A   1      35.938  33.167  27.633  1.00  0.00    -0.246 OA
BRANCH  75  77
ATOM     77  C   UNL A   1      34.331  31.428  27.718  1.00  0.00     0.095 A 
ATOM     78  C   UNL A   1      35.141  30.284  27.752  1.00  0.00     0.019 A 
ATOM     79  C   UNL A   1      32.999  31.322  27.334  1.00  0.00     0.138 A 
ATOM     80  C   UNL A   1      34.617  29.047  27.371  1.00  0.00     0.010 A 
ATOM     81  C   UNL A   1      32.480  30.094  26.942  1.00  0.00     0.049 A 
ATOM     82  F   UNL A   1      32.200  32.397  27.277  1.00  0.00    -0.206 F 
ATOM     83  C   UNL A   1      33.293  28.950  26.920  1.00  0.00    -0.015 A 
BRANCH  83  84
ATOM     84  C   UNL A   1      32.807  27.733  26.272  1.00  0.00    -0.018 A 
ATOM     85  C   UNL A   1      31.460  27.692  25.865  1.00  0.00     0.010 A 
ATOM     86  C   UNL A   1      33.618  26.615  26.041  1.00  0.00     0.010 A 
ATOM     87  C   UNL A   1      30.929  26.560  25.255  1.00  0.00     0.021 A 
ATOM     88  C   UNL A   1      33.083  25.475  25.429  1.00  0.00     0.021 A 
ATOM     89  C   UNL A   1      31.742  25.453  25.042  1.00  0.00     0.041 A 
ATOM     90  Cl  UNL A   1      31.083  24.049  24.299  1.00  0.00    -0.084 Cl
ENDBRANCH  83  84
ENDBRANCH  75  77
ENDBRANCH  74  75
ENDBRANCH  73  74
ENDBRANCH  72  73
ENDBRANCH  71  72
ENDBRANCH   1  71
TORSDOF 15
ENDMDL
MODEL 2
REMARK VINA RESULT:     -11.6      5.623     11.294
REMARK SMILES O=C(OCCOCCOC(=O)c1ccc(-c2ccc(Cl)cc2)cc1F)c1ccc(-c2c3nc(c(-c4c(F)c(F)c(F)c(F)c4F)c4ccc([nH]4)c(-c4c(F)c(F)c(F)c(F)c4F)c4nc(c(-c5c(F)c(F)c(F)c(F)c5F)c5ccc2[nH]5)C=C4)C=C3)cc1
REMARK SMILES IDX 5 1 4 2 3 3 2 4 1 5 26 6 27 7 88 8 28 9 87 10 29 11 30 12
REMARK SMILES IDX 31 13 81 14 32 15 86 16 80 17 82 18 33 19 85 20 79 21 78 22
REMARK SMILES IDX 34 24 66 25 46 26 65 27 47 28 50 29 64 30 83 31 48 32 49 33
REMARK SMILES IDX 63 35 84 36 51 37 35 38 36 39 44 40 37 41 38 42 42 43 45 44
REMARK SMILES IDX 39 45 40 46 43 47 41 48 67 49 68 50 76 51 69 52 70 53 74 54
REMARK SMILES IDX 77 55 71 56 72 57 75 58 73 59 52 60 53 61 61 62 54 63 55 64
REMARK SMILES IDX 59 65 62 66 56 67 57 68 60 69 58 70 6 71 7 72 8 73 9 74
REMARK SMILES IDX 10 75 11 76 12 77 13 78 24 79 14 80 23 81 25 82 15 83 16 84
REMARK SMILES IDX 17 85 22 86 18 87 21 88 19 89 20 90
REMARK H PARENT 82 23 50 34
REMARK Flexibility Score: inf
ROOT
ATOM      1  C   UNL A   1      44.811  21.137  24.422  1.00  0.00     0.202 C 
ENDROOT
BRANCH   1   2
ATOM      2  C   UNL A   1      44.340  22.519  23.958  1.00  0.00     0.261 C 
BRANCH   2   3
ATOM      3  O   UNL A   1      43.958  23.329  25.082  1.00  0.00    -0.460 OA
BRANCH   3   4
ATOM      4  C   UNL A   1      44.277  24.618  25.342  1.00  0.00     0.338 C 
ATOM      5  O   UNL A   1      45.117  25.169  24.633  1.00  0.00    -0.246 OA
BRANCH   4   6
ATOM      6  C   UNL A   1      43.660  25.425  26.439  1.00  0.00     0.060 A 
ATOM      7  C   UNL A   1      43.887  26.783  26.661  1.00  0.00     0.016 A 
ATOM      8  C   UNL A   1      42.712  24.778  27.253  1.00  0.00     0.016 A 
ATOM      9  C   UNL A   1      43.257  27.471  27.682  1.00  0.00     0.010 A 
ATOM     10  C   UNL A   1      42.038  25.472  28.263  1.00  0.00     0.010 A 
ATOM     11  C   UNL A   1      42.327  26.821  28.485  1.00  0.00    -0.014 A 
BRANCH  11  12
ATOM     12  C   UNL A   1      41.777  27.580  29.618  1.00  0.00     0.031 A 
ATOM     13  C   UNL A   1      42.579  27.647  30.877  1.00  0.00     0.074 A 
ATOM     14  C   UNL A   1      40.686  28.341  29.426  1.00  0.00     0.049 A 
ATOM     15  N   UNL A   1      42.321  28.276  31.990  1.00  0.00    -0.248 NA
ATOM     16  C   UNL A   1      43.865  26.927  30.873  1.00  0.00     0.031 C 
ATOM     17  C   UNL A   1      39.945  28.442  28.166  1.00  0.00     0.029 A 
ATOM     18  N   UNL A   1      40.043  29.214  30.261  1.00  0.00    -0.354 N 
ATOM     19  C   UNL A   1      43.400  28.015  32.822  1.00  0.00     0.074 A 
ATOM     20  C   UNL A   1      44.313  27.163  32.096  1.00  0.00     0.031 C 
ATOM     21  C   UNL A   1      38.975  29.359  28.300  1.00  0.00     0.029 A 
ATOM     22  C   UNL A   1      38.980  29.852  29.672  1.00  0.00     0.049 A 
ATOM     23  H   UNL A   1      40.316  29.368  31.194  1.00  0.00     0.167 HD
ATOM     24  C   UNL A   1      43.598  28.458  34.084  1.00  0.00     0.037 A 
ATOM     25  C   UNL A   1      38.098  30.720  30.202  1.00  0.00     0.037 A 
ATOM     26  C   UNL A   1      42.659  29.300  34.774  1.00  0.00     0.049 A 
ATOM     27  C   UNL A   1      38.271  31.094  31.648  1.00  0.00     0.074 A 
ATOM     28  C   UNL A   1      42.685  29.736  36.084  1.00  0.00     0.029 A 
ATOM     29  N   UNL A   1      41.516  29.837  34.190  1.00  0.00    -0.354 N 
ATOM     30  N   UNL A   1      39.234  30.762  32.475  1.00  0.00    -0.248 NA
ATOM     31  C   UNL A   1      37.230  31.941  32.244  1.00  0.00     0.031 C 
ATOM     32  C   UNL A   1      41.535  30.499  36.306  1.00  0.00     0.029 A 
ATOM     33  C   UNL A   1      40.820  30.588  35.119  1.00  0.00     0.049 A 
ATOM     34  H   UNL A   1      41.243  29.701  33.254  1.00  0.00     0.167 HD
ATOM     35  C   UNL A   1      38.927  31.363  33.686  1.00  0.00     0.074 A 
ATOM     36  C   UNL A   1      37.694  32.100  33.477  1.00  0.00     0.031 C 
ATOM     37  C   UNL A   1      39.596  31.310  34.864  1.00  0.00     0.037 A 
BRANCH  24  38
ATOM     38  C   UNL A   1      44.826  27.975  34.795  1.00  0.00     0.064 A 
ATOM     39  C   UNL A   1      44.801  26.764  35.502  1.00  0.00     0.173 A 
ATOM     40  C   UNL A   1      46.035  28.685  34.754  1.00  0.00     0.173 A 
ATOM     41  F   UNL A   1      43.674  26.040  35.563  1.00  0.00    -0.203 F 
ATOM     42  C   UNL A   1      45.940  26.282  36.143  1.00  0.00     0.198 A 
ATOM     43  C   UNL A   1      47.180  28.186  35.372  1.00  0.00     0.198 A 
ATOM     44  F   UNL A   1      46.122  29.832  34.063  1.00  0.00    -0.203 F 
ATOM     45  F   UNL A   1      45.888  25.125  36.817  1.00  0.00    -0.200 F 
ATOM     46  C   UNL A   1      47.130  26.989  36.069  1.00  0.00     0.200 A 
ATOM     47  F   UNL A   1      48.340  28.851  35.268  1.00  0.00    -0.200 F 
ATOM     48  F   UNL A   1      48.234  26.506  36.658  1.00  0.00    -0.200 F 
ENDBRANCH  24  38
BRANCH  25  49
ATOM     49  C   UNL A   1      36.984  31.247  29.371  1.00  0.00     0.064 A 
ATOM     50  C   UNL A   1      36.948  32.595  28.973  1.00  0.00     0.173 A 
ATOM     51  C   UNL A   1      35.911  30.432  28.987  1.00  0.00     0.173 A 
ATOM     52  F   UNL A   1      37.950  33.420  29.308  1.00  0.00    -0.203 F 
ATOM     53  C   UNL A   1      35.871  33.110  28.255  1.00  0.00     0.198 A 
ATOM     54  C   UNL A   1      34.846  30.942  28.244  1.00  0.00     0.198 A 
ATOM     55  F   UNL A   1      35.904  29.133  29.321  1.00  0.00    -0.203 F 
ATOM     56  F   UNL A   1      35.847  34.409  27.929  1.00  0.00    -0.200 F 
ATOM     57  C   UNL A   1      34.822  32.283  27.889  1.00  0.00     0.200 A 
ATOM     58  F   UNL A   1      33.846  30.134  27.868  1.00  0.00    -0.200 F 
ATOM     59  F   UNL A   1      33.791  32.776  27.188  1.00  0.00    -0.200 F 
ENDBRANCH  25  49
BRANCH  37  60
ATOM     60  C   UNL A   1      39.022  32.083  36.012  1.00  0.00     0.064 A 
ATOM     61  C   UNL A   1      39.418  33.410  36.236  1.00  0.00     0.173 A 
ATOM     62  C   UNL A   1      38.160  31.483  36.939  1.00  0.00     0.173 A 
ATOM     63  F   UNL A   1      40.250  34.022  35.379  1.00  0.00    -0.203 F 
ATOM     64  C   UNL A   1      38.987  34.102  37.363  1.00  0.00     0.198 A 
ATOM     65  C   UNL A   1      37.707  32.188  38.049  1.00  0.00     0.198 A 
ATOM     66  F   UNL A   1      37.746  30.219  36.757  1.00  0.00    -0.203 F 
ATOM     67  F   UNL A   1      39.412  35.354  37.580  1.00  0.00    -0.200 F 
ATOM     68  C   UNL A   1      38.131  33.492  38.266  1.00  0.00     0.200 A 
ATOM     69  F   UNL A   1      36.860  31.607  38.910  1.00  0.00    -0.200 F 
ATOM     70  F   UNL A   1      37.712  34.160  39.350  1.00  0.00    -0.200 F 
ENDBRANCH  37  60
ENDBRANCH  11  12
ENDBRANCH   4   6
ENDBRANCH   3   4
ENDBRANCH   2   3
ENDBRANCH   1   2
BRANCH   1  71
ATOM     71  O   UNL A   1      43.763  20.177  24.569  1.00  0.00    -0.374 OA
BRANCH  71  72
ATOM     72  C   UNL A   1      43.451  19.795  25.915  1.00  0.00     0.202 C 
BRANCH  72  73
ATOM     73  C   UNL A   1      41.940  19.609  26.059  1.00  0.00     0.261 C 
BRANCH  73  74
ATOM     74  O   UNL A   1      41.322  20.883  25.844  1.00  0.00    -0.460 OA
BRANCH  74  75
ATOM     75  C   UNL A   1      40.473  21.279  26.821  1.00  0.00     0.341 C 
ATOM     76  O   UNL A   1      40.694  21.340  28.020  1.00  0.00    -0.246 OA
BRANCH  75  77
ATOM     77  C   UNL A   1      39.286  21.871  26.189  1.00  0.00     0.095 A 
ATOM     78  C   UNL A   1      39.001  23.221  26.435  1.00  0.00     0.019 A 
ATOM     79  C   UNL A   1      38.468  21.133  25.343  1.00  0.00     0.138 A 
ATOM     80  C   UNL A   1      37.878  23.814  25.853  1.00  0.00     0.010 A 
ATOM     81  C   UNL A   1      37.343  21.717  24.773  1.00  0.00     0.049 A 
ATOM     82  F   UNL A   1      38.703  19.836  25.097  1.00  0.00    -0.206 F 
ATOM     83  C   UNL A   1      37.014  23.054  25.052  1.00  0.00    -0.015 A 
BRANCH  83  84
ATOM     84  C   UNL A   1      35.707  23.572  24.654  1.00  0.00    -0.018 A 
ATOM     85  C   UNL A   1      35.001  22.886  23.648  1.00  0.00     0.010 A 
ATOM     86  C   UNL A   1      35.133  24.714  25.225  1.00  0.00     0.010 A 
ATOM     87  C   UNL A   1      33.757  23.334  23.212  1.00  0.00     0.021 A 
ATOM     88  C   UNL A   1      33.883  25.166  24.785  1.00  0.00     0.021 A 
ATOM     89  C   UNL A   1      33.204  24.476  23.780  1.00  0.00     0.041 A 
ATOM     90  Cl  UNL A   1      31.673  25.037  23.233  1.00  0.00    -0.084 Cl
ENDBRANCH  83  84
ENDBRANCH  75  77
ENDBRANCH  74  75
ENDBRANCH  73  74
ENDBRANCH  72  73
ENDBRANCH  71  72
ENDBRANCH   1  71
TORSDOF 15
ENDMDL
MODEL 3
REMARK VINA RESULT:     -11.5      5.658     11.500
REMARK SMILES O=C(OCCOCCOC(=O)c1ccc(-c2ccc(Cl)cc2)cc1F)c1ccc(-c2c3nc(c(-c4c(F)c(F)c(F)c(F)c4F)c4ccc([nH]4)c(-c4c(F)c(F)c(F)c(F)c4F)c4nc(c(-c5c(F)c(F)c(F)c(F)c5F)c5ccc2[nH]5)C=C4)C=C3)cc1
REMARK SMILES IDX 5 1 4 2 3 3 2 4 1 5 26 6 27 7 88 8 28 9 87 10 29 11 30 12
REMARK SMILES IDX 31 13 81 14 32 15 86 16 80 17 82 18 33 19 85 20 79 21 78 22
REMARK SMILES IDX 34 24 66 25 46 26 65 27 47 28 50 29 64 30 83 31 48 32 49 33
REMARK SMILES IDX 63 35 84 36 51 37 35 38 36 39 44 40 37 41 38 42 42 43 45 44
REMARK SMILES IDX 39 45 40 46 43 47 41 48 67 49 68 50 76 51 69 52 70 53 74 54
REMARK SMILES IDX 77 55 71 56 72 57 75 58 73 59 52 60 53 61 61 62 54 63 55 64
REMARK SMILES IDX 59 65 62 66 56 67 57 68 60 69 58 70 6 71 7 72 8 73 9 74
REMARK SMILES IDX 10 75 11 76 12 77 13 78 24 79 14 80 23 81 25 82 15 83 16 84
REMARK SMILES IDX 17 85 22 86 18 87 21 88 19 89 20 90
REMARK H PARENT 82 23 50 34
REMARK Flexibility Score: inf
ROOT
ATOM      1  C   UNL A   1      44.167  21.060  25.255  1.00  0.00     0.202 C 
ENDROOT
BRANCH   1   2
ATOM      2  C   UNL A   1      44.113  22.272  24.320  1.00  0.00     0.261 C 
BRANCH   2   3
ATOM      3  O   UNL A   1      43.455  23.378  24.959  1.00  0.00    -0.460 OA
BRANCH   3   4
ATOM      4  C   UNL A   1      43.939  24.615  25.215  1.00  0.00     0.338 C 
ATOM      5  O   UNL A   1      44.827  25.060  24.489  1.00  0.00    -0.246 OA
BRANCH   4   6
ATOM      6  C   UNL A   1      43.451  25.488  26.326  1.00  0.00     0.060 A 
ATOM      7  C   UNL A   1      43.813  26.822  26.516  1.00  0.00     0.016 A 
ATOM      8  C   UNL A   1      42.487  24.941  27.192  1.00  0.00     0.016 A 
ATOM      9  C   UNL A   1      43.297  27.577  27.555  1.00  0.00     0.010 A 
ATOM     10  C   UNL A   1      41.928  25.705  28.222  1.00  0.00     0.010 A 
ATOM     11  C   UNL A   1      42.350  27.025  28.410  1.00  0.00    -0.014 A 
BRANCH  11  12
ATOM     12  C   UNL A   1      41.926  27.844  29.554  1.00  0.00     0.031 A 
ATOM     13  C   UNL A   1      40.659  28.625  29.430  1.00  0.00     0.074 A 
ATOM     14  C   UNL A   1      42.573  27.714  30.726  1.00  0.00     0.049 A 
ATOM     15  N   UNL A   1      40.068  29.388  30.307  1.00  0.00    -0.248 NA
ATOM     16  C   UNL A   1      39.941  28.510  28.149  1.00  0.00     0.031 C 
ATOM     17  C   UNL A   1      43.728  26.841  30.953  1.00  0.00     0.029 A 
ATOM     18  N   UNL A   1      42.323  28.263  31.953  1.00  0.00    -0.354 N 
ATOM     19  C   UNL A   1      38.922  29.856  29.681  1.00  0.00     0.074 A 
ATOM     20  C   UNL A   1      38.901  29.303  28.347  1.00  0.00     0.031 C 
ATOM     21  C   UNL A   1      44.059  26.883  32.253  1.00  0.00     0.029 A 
ATOM     22  C   UNL A   1      43.190  27.838  32.930  1.00  0.00     0.049 A 
ATOM     23  H   UNL A   1      41.592  28.902  32.120  1.00  0.00     0.167 HD
ATOM     24  C   UNL A   1      37.977  30.677  30.191  1.00  0.00     0.037 A 
ATOM     25  C   UNL A   1      43.277  28.209  34.221  1.00  0.00     0.037 A 
ATOM     26  C   UNL A   1      38.040  31.212  31.523  1.00  0.00     0.049 A 
ATOM     27  C   UNL A   1      42.288  29.222  34.725  1.00  0.00     0.074 A 
ATOM     28  C   UNL A   1      37.207  32.132  32.129  1.00  0.00     0.029 A 
ATOM     29  N   UNL A   1      39.006  30.859  32.460  1.00  0.00    -0.354 N 
ATOM     30  N   UNL A   1      41.263  29.753  34.101  1.00  0.00    -0.248 NA
ATOM     31  C   UNL A   1      42.475  29.708  36.097  1.00  0.00     0.031 C 
ATOM     32  C   UNL A   1      37.697  32.371  33.417  1.00  0.00     0.029 A 
ATOM     33  C   UNL A   1      38.800  31.557  33.636  1.00  0.00     0.049 A 
ATOM     34  H   UNL A   1      39.731  30.211  32.308  1.00  0.00     0.167 HD
ATOM     35  C   UNL A   1      40.673  30.626  35.002  1.00  0.00     0.074 A 
ATOM     36  C   UNL A   1      41.448  30.538  36.226  1.00  0.00     0.031 C 
ATOM     37  C   UNL A   1      39.596  31.433  34.834  1.00  0.00     0.037 A 
BRANCH  24  38
ATOM     38  C   UNL A   1      36.861  31.087  29.277  1.00  0.00     0.064 A 
ATOM     39  C   UNL A   1      35.844  30.176  28.953  1.00  0.00     0.173 A 
ATOM     40  C   UNL A   1      36.773  32.383  28.748  1.00  0.00     0.173 A 
ATOM     41  F   UNL A   1      35.873  28.928  29.441  1.00  0.00    -0.203 F 
ATOM     42  C   UNL A   1      34.783  30.548  28.132  1.00  0.00     0.198 A 
ATOM     43  C   UNL A   1      35.695  32.760  27.950  1.00  0.00     0.198 A 
ATOM     44  F   UNL A   1      37.701  33.302  29.055  1.00  0.00    -0.203 F 
ATOM     45  F   UNL A   1      33.827  29.657  27.831  1.00  0.00    -0.200 F 
ATOM     46  C   UNL A   1      34.704  31.841  27.639  1.00  0.00     0.200 A 
ATOM     47  F   UNL A   1      35.600  34.021  27.505  1.00  0.00    -0.200 F 
ATOM     48  F   UNL A   1      33.663  32.206  26.876  1.00  0.00    -0.200 F 
ENDBRANCH  24  38
BRANCH  25  49
ATOM     49  C   UNL A   1      44.346  27.642  35.085  1.00  0.00     0.064 A 
ATOM     50  C   UNL A   1      44.134  26.469  35.830  1.00  0.00     0.173 A 
ATOM     51  C   UNL A   1      45.588  28.275  35.219  1.00  0.00     0.173 A 
ATOM     52  F   UNL A   1      42.964  25.818  35.738  1.00  0.00    -0.203 F 
ATOM     53  C   UNL A   1      45.106  25.974  36.696  1.00  0.00     0.198 A 
ATOM     54  C   UNL A   1      46.573  27.763  36.065  1.00  0.00     0.198 A 
ATOM     55  F   UNL A   1      45.853  29.385  34.515  1.00  0.00    -0.203 F 
ATOM     56  F   UNL A   1      44.855  24.877  37.424  1.00  0.00    -0.200 F 
ATOM     57  C   UNL A   1      46.326  26.619  36.811  1.00  0.00     0.200 A 
ATOM     58  F   UNL A   1      47.761  28.374  36.154  1.00  0.00    -0.200 F 
ATOM     59  F   UNL A   1      47.266  26.137  37.635  1.00  0.00    -0.200 F 
ENDBRANCH  25  49
BRANCH  37  60
ATOM     60  C   UNL A   1      39.178  32.267  36.007  1.00  0.00     0.064 A 
ATOM     61  C   UNL A   1      39.714  33.552  36.184  1.00  0.00     0.173 A 
ATOM     62  C   UNL A   1      38.328  31.761  36.998  1.00  0.00     0.173 A 
ATOM     63  F   UNL A   1      40.541  34.073  35.264  1.00  0.00    -0.203 F 
ATOM     64  C   UNL A   1      39.430  34.291  37.327  1.00  0.00     0.198 A 
ATOM     65  C   UNL A   1      38.021  32.515  38.126  1.00  0.00     0.198 A 
ATOM     66  F   UNL A   1      37.783  30.542  36.863  1.00  0.00    -0.203 F 
ATOM     67  F   UNL A   1      39.987  35.497  37.497  1.00  0.00    -0.200 F 
ATOM     68  C   UNL A   1      38.583  33.774  38.295  1.00  0.00     0.200 A 
ATOM     69  F   UNL A   1      37.183  32.026  39.050  1.00  0.00    -0.200 F 
ATOM     70  F   UNL A   1      38.305  34.488  39.394  1.00  0.00    -0.200 F 
ENDBRANCH  37  60
ENDBRANCH  11  12
ENDBRANCH   4   6
ENDBRANCH   3   4
ENDBRANCH   2   3
ENDBRANCH   1   2
BRANCH   1  71
ATOM     71  O   UNL A   1      43.160  20.078  25.006  1.00  0.00    -0.374 OA
BRANCH  71  72
ATOM     72  C   UNL A   1      42.908  19.158  26.076  1.00  0.00     0.202 C 
BRANCH  72  73
ATOM     73  C   UNL A   1      41.502  19.389  26.632  1.00  0.00     0.261 C 
BRANCH  73  74
ATOM     74  O   UNL A   1      41.012  20.617  26.079  1.00  0.00    -0.460 OA
BRANCH  74  75
ATOM     75  C   UNL A   1      40.391  21.433  26.962  1.00  0.00     0.341 C 
ATOM     76  O   UNL A   1      40.791  21.784  28.060  1.00  0.00    -0.246 OA
BRANCH  75  77
ATOM     77  C   UNL A   1      39.238  22.048  26.290  1.00  0.00     0.095 A 
ATOM     78  C   UNL A   1      38.981  23.407  26.514  1.00  0.00     0.019 A 
ATOM     79  C   UNL A   1      38.427  21.323  25.427  1.00  0.00     0.138 A 
ATOM     80  C   UNL A   1      37.891  24.023  25.894  1.00  0.00     0.010 A 
ATOM     81  C   UNL A   1      37.335  21.929  24.819  1.00  0.00     0.049 A 
ATOM     82  F   UNL A   1      38.636  20.018  25.200  1.00  0.00    -0.206 F 
ATOM     83  C   UNL A   1      37.032  23.277  25.074  1.00  0.00    -0.015 A 
BRANCH  83  84
ATOM     84  C   UNL A   1      35.751  23.823  24.633  1.00  0.00    -0.018 A 
ATOM     85  C   UNL A   1      35.130  24.793  25.442  1.00  0.00     0.010 A 
ATOM     86  C   UNL A   1      35.118  23.425  23.449  1.00  0.00     0.010 A 
ATOM     87  C   UNL A   1      33.902  25.345  25.089  1.00  0.00     0.021 A 
ATOM     88  C   UNL A   1      33.881  23.978  23.094  1.00  0.00     0.021 A 
ATOM     89  C   UNL A   1      33.280  24.932  23.916  1.00  0.00     0.041 A 
ATOM     90  Cl  UNL A   1      31.757  25.604  23.485  1.00  0.00    -0.084 Cl
ENDBRANCH  83  84
ENDBRANCH  75  77
ENDBRANCH  74  75
ENDBRANCH  73  74
ENDBRANCH  72  73
ENDBRANCH  71  72
ENDBRANCH   1  71
TORSDOF 15
ENDMDL
