MODEL 1
REMARK VINA RESULT:     -12.2      0.000      0.000
REMARK SMILES Cc1ccc(NC(=O)C[C@H]([NH2+]Cc2cccnc2)C(=O)OCCOCCOC(=O)c2ccc(-c3c4nc(c(-c5c(F)c(F)c(F)c(F)c5F)c5ccc([nH]5)c(-c5c(F)c(F)c(F)c(F)c5F)c5nc(c(-c6c(F)c(F)c(F)c(F)c6F)c6ccc3[nH]6)C=C5)C=C4)cc2)cc1Cl
REMARK SMILES IDX 23 1 22 2 21 3 19 4 20 5 10 6 9 7 7 8 6 9 8 11 5 12 1 13
REMARK SMILES IDX 2 14 3 15 94 16 4 17 93 18 95 19 11 20 12 23 13 24 14 25
REMARK SMILES IDX 18 26 15 27 17 28 16 29 24 30 25 31 26 32 27 33 28 34 29 35
REMARK SMILES IDX 30 36 31 37 92 38 32 39 91 40 33 41 34 42 35 43 85 44 36 45
REMARK SMILES IDX 90 46 84 47 86 48 37 49 89 50 83 51 82 52 38 54 70 55 50 56
REMARK SMILES IDX 69 57 51 58 54 59 68 60 87 61 52 62 53 63 67 65 88 66 55 67
REMARK SMILES IDX 39 68 40 69 48 70 41 71 42 72 46 73 49 74 43 75 44 76 47 77
REMARK SMILES IDX 45 78 71 79 72 80 80 81 73 82 74 83 78 84 81 85 75 86 76 87
REMARK SMILES IDX 79 88 77 89 56 90 57 91 65 92 58 93 59 94 63 95 66 96 60 97
REMARK SMILES IDX 61 98 64 99 62 100
REMARK H PARENT 6 10 11 21 11 22 86 53 54 64
REMARK Flexibility Score: inf
ROOT
ATOM      1  C   UNL A   1      35.313  22.979  25.431  1.00  0.00     0.202 C 
ENDROOT
BRANCH   1   2
ATOM      2  C   UNL A   1      34.879  23.285  23.999  1.00  0.00     0.261 C 
BRANCH   2   3
ATOM      3  O   UNL A   1      33.751  22.484  23.599  1.00  0.00    -0.459 OA
BRANCH   3   4
ATOM      4  C   UNL A   1      32.508  22.905  23.935  1.00  0.00     0.365 C 
ATOM      5  O   UNL A   1      31.940  23.872  23.438  1.00  0.00    -0.245 OA
BRANCH   4   6
ATOM      6  C   UNL A   1      31.845  22.004  25.000  1.00  0.00     0.303 C 
BRANCH   6   7
ATOM      7  C   UNL A   1      31.602  22.715  26.334  1.00  0.00     0.177 C 
BRANCH   7   8
ATOM      8  C   UNL A   1      30.298  23.371  26.770  1.00  0.00     0.231 C 
ATOM      9  N   UNL A   1      30.001  24.692  26.671  1.00  0.00    -0.326 N 
ATOM     10  H   UNL A   1      29.430  24.990  27.415  1.00  0.00     0.169 HD
ATOM     11  O   UNL A   1      29.533  22.708  27.489  1.00  0.00    -0.274 OA
BRANCH   9  12
ATOM     12  C   UNL A   1      30.291  25.746  25.792  1.00  0.00     0.042 A 
ATOM     13  C   UNL A   1      31.009  28.778  22.766  1.00  0.00     0.046 C 
ATOM     14  C   UNL A   1      30.772  27.734  23.820  1.00  0.00    -0.032 A 
ATOM     15  C   UNL A   1      29.627  26.935  23.766  1.00  0.00     0.007 A 
ATOM     16  C   UNL A   1      31.672  27.520  24.870  1.00  0.00     0.046 A 
ATOM     17  C   UNL A   1      29.394  25.953  24.738  1.00  0.00     0.026 A 
ATOM     18  C   UNL A   1      31.451  26.503  25.811  1.00  0.00     0.047 A 
ATOM     19  Cl  UNL A   1      33.090  28.496  25.039  1.00  0.00    -0.084 Cl
ENDBRANCH   9  12
ENDBRANCH   7   8
ENDBRANCH   6   7
BRANCH   6  20
ATOM     20  N   UNL A   1      32.520  20.691  25.088  1.00  0.00    -0.330 N 
ATOM     21  H   UNL A   1      32.166  20.208  25.912  1.00  0.00     0.347 HD
ATOM     22  H   UNL A   1      33.521  20.887  25.131  1.00  0.00     0.347 HD
BRANCH  20  23
ATOM     23  C   UNL A   1      32.324  19.817  23.929  1.00  0.00     0.299 C 
BRANCH  23  24
ATOM     24  C   UNL A   1      32.809  18.419  24.211  1.00  0.00     0.024 A 
ATOM     25  C   UNL A   1      33.586  17.708  23.295  1.00  0.00     0.013 A 
ATOM     26  C   UNL A   1      32.527  17.790  25.423  1.00  0.00     0.120 A 
ATOM     27  C   UNL A   1      34.033  16.426  23.612  1.00  0.00     0.021 A 
ATOM     28  N   UNL A   1      32.937  16.543  25.756  1.00  0.00    -0.264 NA
ATOM     29  C   UNL A   1      33.685  15.892  24.841  1.00  0.00     0.111 A 
ENDBRANCH  23  24
ENDBRANCH  20  23
ENDBRANCH   6  20
ENDBRANCH   4   6
ENDBRANCH   3   4
ENDBRANCH   2   3
ENDBRANCH   1   2
BRANCH   1  30
ATOM     30  O   UNL A   1      35.448  21.577  25.660  1.00  0.00    -0.374 OA
BRANCH  30  31
ATOM     31  C   UNL A   1      36.241  20.876  24.698  1.00  0.00     0.202 C 
BRANCH  31  32
ATOM     32  C   UNL A   1      37.542  20.366  25.318  1.00  0.00     0.261 C 
BRANCH  32  33
ATOM     33  O   UNL A   1      38.502  21.438  25.352  1.00  0.00    -0.460 OA
BRANCH  33  34
ATOM     34  C   UNL A   1      39.581  21.202  26.122  1.00  0.00     0.338 C 
ATOM     35  O   UNL A   1      40.293  20.207  26.124  1.00  0.00    -0.246 OA
BRANCH  34  36
ATOM     36  C   UNL A   1      39.898  22.400  26.913  1.00  0.00     0.060 A 
ATOM     37  C   UNL A   1      39.186  23.568  26.632  1.00  0.00     0.016 A 
ATOM     38  C   UNL A   1      40.969  22.420  27.808  1.00  0.00     0.016 A 
ATOM     39  C   UNL A   1      39.605  24.780  27.178  1.00  0.00     0.010 A 
ATOM     40  C   UNL A   1      41.374  23.634  28.376  1.00  0.00     0.010 A 
ATOM     41  C   UNL A   1      40.735  24.831  28.008  1.00  0.00    -0.014 A 
BRANCH  41  42
ATOM     42  C   UNL A   1      41.343  26.154  28.306  1.00  0.00     0.031 A 
ATOM     43  C   UNL A   1      42.727  26.459  27.789  1.00  0.00     0.074 A 
ATOM     44  C   UNL A   1      40.646  27.109  28.948  1.00  0.00     0.049 A 
ATOM     45  N   UNL A   1      43.406  27.579  27.836  1.00  0.00    -0.248 NA
ATOM     46  C   UNL A   1      43.445  25.354  27.133  1.00  0.00     0.031 C 
ATOM     47  C   UNL A   1      39.302  26.948  29.496  1.00  0.00     0.029 A 
ATOM     48  N   UNL A   1      40.974  28.412  29.230  1.00  0.00    -0.354 N 
ATOM     49  C   UNL A   1      44.621  27.311  27.220  1.00  0.00     0.074 A 
ATOM     50  C   UNL A   1      44.611  25.914  26.849  1.00  0.00     0.031 C 
ATOM     51  C   UNL A   1      38.910  28.117  30.033  1.00  0.00     0.029 A 
ATOM     52  C   UNL A   1      39.978  29.102  29.874  1.00  0.00     0.049 A 
ATOM     53  H   UNL A   1      41.840  28.814  28.992  1.00  0.00     0.167 HD
ATOM     54  C   UNL A   1      45.647  28.157  26.961  1.00  0.00     0.037 A 
ATOM     55  C   UNL A   1      39.929  30.387  30.277  1.00  0.00     0.037 A 
ATOM     56  C   UNL A   1      45.658  29.554  27.299  1.00  0.00     0.049 A 
ATOM     57  C   UNL A   1      41.086  31.307  29.985  1.00  0.00     0.074 A 
ATOM     58  C   UNL A   1      46.639  30.498  27.048  1.00  0.00     0.029 A 
ATOM     59  N   UNL A   1      44.633  30.210  27.963  1.00  0.00    -0.354 N 
ATOM     60  N   UNL A   1      42.208  31.054  29.357  1.00  0.00    -0.248 NA
ATOM     61  C   UNL A   1      40.959  32.698  30.445  1.00  0.00     0.031 C 
ATOM     62  C   UNL A   1      46.224  31.718  27.590  1.00  0.00     0.029 A 
ATOM     63  C   UNL A   1      44.965  31.544  28.144  1.00  0.00     0.049 A 
ATOM     64  H   UNL A   1      43.795  29.792  28.262  1.00  0.00     0.167 HD
ATOM     65  C   UNL A   1      42.905  32.254  29.322  1.00  0.00     0.074 A 
ATOM     66  C   UNL A   1      42.076  33.241  29.980  1.00  0.00     0.031 C 
ATOM     67  C   UNL A   1      44.125  32.516  28.790  1.00  0.00     0.037 A 
BRANCH  54  68
ATOM     68  C   UNL A   1      46.853  27.588  26.273  1.00  0.00     0.064 A 
ATOM     69  C   UNL A   1      47.891  26.981  26.996  1.00  0.00     0.173 A 
ATOM     70  C   UNL A   1      46.959  27.625  24.875  1.00  0.00     0.173 A 
ATOM     71  F   UNL A   1      47.843  26.933  28.336  1.00  0.00    -0.203 F 
ATOM     72  C   UNL A   1      49.003  26.451  26.344  1.00  0.00     0.198 A 
ATOM     73  C   UNL A   1      48.059  27.072  24.226  1.00  0.00     0.198 A 
ATOM     74  F   UNL A   1      45.992  28.193  24.139  1.00  0.00    -0.203 F 
ATOM     75  F   UNL A   1      50.003  25.913  27.057  1.00  0.00    -0.200 F 
ATOM     76  C   UNL A   1      49.083  26.492  24.960  1.00  0.00     0.200 A 
ATOM     77  F   UNL A   1      48.131  27.104  22.887  1.00  0.00    -0.200 F 
ATOM     78  F   UNL A   1      50.150  25.978  24.334  1.00  0.00    -0.200 F 
ENDBRANCH  54  68
BRANCH  55  79
ATOM     79  C   UNL A   1      38.723  30.894  30.981  1.00  0.00     0.064 A 
ATOM     80  C   UNL A   1      37.665  31.480  30.274  1.00  0.00     0.173 A 
ATOM     81  C   UNL A   1      38.615  30.817  32.377  1.00  0.00     0.173 A 
ATOM     82  F   UNL A   1      37.737  31.599  28.939  1.00  0.00    -0.203 F 
ATOM     83  C   UNL A   1      36.550  31.987  30.938  1.00  0.00     0.198 A 
ATOM     84  C   UNL A   1      37.488  31.303  33.038  1.00  0.00     0.198 A 
ATOM     85  F   UNL A   1      39.603  30.268  33.098  1.00  0.00    -0.203 F 
ATOM     86  F   UNL A   1      35.572  32.582  30.242  1.00  0.00    -0.200 F 
ATOM     87  C   UNL A   1      36.460  31.893  32.318  1.00  0.00     0.200 A 
ATOM     88  F   UNL A   1      37.403  31.204  34.372  1.00  0.00    -0.200 F 
ATOM     89  F   UNL A   1      35.388  32.381  32.957  1.00  0.00    -0.200 F 
ENDBRANCH  55  79
BRANCH  67  90
ATOM     90  C   UNL A   1      44.623  33.929  28.868  1.00  0.00     0.064 A 
ATOM     91  C   UNL A   1      45.424  34.369  29.931  1.00  0.00     0.173 A 
ATOM     92  C   UNL A   1      44.328  34.844  27.845  1.00  0.00     0.173 A 
ATOM     93  F   UNL A   1      45.723  33.535  30.940  1.00  0.00    -0.203 F 
ATOM     94  C   UNL A   1      45.891  35.679  29.982  1.00  0.00     0.198 A 
ATOM     95  C   UNL A   1      44.818  36.146  27.885  1.00  0.00     0.198 A 
ATOM     96  F   UNL A   1      43.573  34.470  26.801  1.00  0.00    -0.203 F 
ATOM     97  F   UNL A   1      46.619  36.090  31.029  1.00  0.00    -0.200 F 
ATOM     98  C   UNL A   1      45.593  36.565  28.956  1.00  0.00     0.200 A 
ATOM     99  F   UNL A   1      44.538  36.998  26.888  1.00  0.00    -0.200 F 
ATOM    100  F   UNL A   1      46.046  37.826  29.004  1.00  0.00    -0.200 F 
ENDBRANCH  67  90
ENDBRANCH  41  42
ENDBRANCH  34  36
ENDBRANCH  33  34
ENDBRANCH  32  33
ENDBRANCH  31  32
ENDBRANCH  30  31
ENDBRANCH   1  30
TORSDOF 20
ENDMDL
MODEL 2
REMARK VINA RESULT:     -12.1      1.079      7.162
REMARK SMILES Cc1ccc(NC(=O)C[C@H]([NH2+]Cc2cccnc2)C(=O)OCCOCCOC(=O)c2ccc(-c3c4nc(c(-c5c(F)c(F)c(F)c(F)c5F)c5ccc([nH]5)c(-c5c(F)c(F)c(F)c(F)c5F)c5nc(c(-c6c(F)c(F)c(F)c(F)c6F)c6ccc3[nH]6)C=C5)C=C4)cc2)cc1Cl
REMARK SMILES IDX 23 1 22 2 21 3 19 4 20 5 10 6 9 7 7 8 6 9 8 11 5 12 1 13
REMARK SMILES IDX 2 14 3 15 94 16 4 17 93 18 95 19 11 20 12 23 13 24 14 25
REMARK SMILES IDX 18 26 15 27 17 28 16 29 24 30 25 31 26 32 27 33 28 34 29 35
REMARK SMILES IDX 30 36 31 37 92 38 32 39 91 40 33 41 34 42 35 43 85 44 36 45
REMARK SMILES IDX 90 46 84 47 86 48 37 49 89 50 83 51 82 52 38 54 70 55 50 56
REMARK SMILES IDX 69 57 51 58 54 59 68 60 87 61 52 62 53 63 67 65 88 66 55 67
REMARK SMILES IDX 39 68 40 69 48 70 41 71 42 72 46 73 49 74 43 75 44 76 47 77
REMARK SMILES IDX 45 78 71 79 72 80 80 81 73 82 74 83 78 84 81 85 75 86 76 87
REMARK SMILES IDX 79 88 77 89 56 90 57 91 65 92 58 93 59 94 63 95 66 96 60 97
REMARK SMILES IDX 61 98 64 99 62 100
REMARK H PARENT 6 10 11 21 11 22 86 53 54 64
REMARK Flexibility Score: inf
ROOT
ATOM      1  C   UNL A   1      36.546  21.486  24.744  1.00  0.00     0.202 C 
ENDROOT
BRANCH   1   2
ATOM      2  C   UNL A   1      35.975  22.250  25.936  1.00  0.00     0.261 C 
BRANCH   2   3
ATOM      3  O   UNL A   1      34.554  22.056  26.065  1.00  0.00    -0.459 OA
BRANCH   3   4
ATOM      4  C   UNL A   1      33.737  23.120  25.873  1.00  0.00     0.365 C 
ATOM      5  O   UNL A   1      33.858  24.204  26.433  1.00  0.00    -0.245 OA
BRANCH   4   6
ATOM      6  C   UNL A   1      32.638  22.839  24.825  1.00  0.00     0.303 C 
BRANCH   6   7
ATOM      7  C   UNL A   1      31.236  22.714  25.430  1.00  0.00     0.177 C 
BRANCH   7   8
ATOM      8  C   UNL A   1      30.646  23.616  26.507  1.00  0.00     0.231 C 
ATOM      9  N   UNL A   1      30.700  24.972  26.525  1.00  0.00    -0.326 N 
ATOM     10  H   UNL A   1      30.763  25.319  27.443  1.00  0.00     0.169 HD
ATOM     11  O   UNL A   1      30.298  23.085  27.574  1.00  0.00    -0.274 OA
BRANCH   9  12
ATOM     12  C   UNL A   1      30.689  26.013  25.584  1.00  0.00     0.042 A 
ATOM     13  C   UNL A   1      30.445  28.971  22.412  1.00  0.00     0.046 C 
ATOM     14  C   UNL A   1      30.542  27.954  23.514  1.00  0.00    -0.032 A 
ATOM     15  C   UNL A   1      29.504  27.039  23.712  1.00  0.00     0.007 A 
ATOM     16  C   UNL A   1      31.653  27.879  24.361  1.00  0.00     0.046 A 
ATOM     17  C   UNL A   1      29.581  26.081  24.732  1.00  0.00     0.026 A 
ATOM     18  C   UNL A   1      31.740  26.885  25.348  1.00  0.00     0.047 A 
ATOM     19  Cl  UNL A   1      32.960  29.002  24.215  1.00  0.00    -0.084 Cl
ENDBRANCH   9  12
ENDBRANCH   7   8
ENDBRANCH   6   7
BRANCH   6  20
ATOM     20  N   UNL A   1      33.037  21.752  23.905  1.00  0.00    -0.330 N 
ATOM     21  H   UNL A   1      33.947  21.403  24.203  1.00  0.00     0.347 HD
ATOM     22  H   UNL A   1      33.045  22.159  22.969  1.00  0.00     0.347 HD
BRANCH  20  23
ATOM     23  C   UNL A   1      32.111  20.618  23.850  1.00  0.00     0.299 C 
BRANCH  23  24
ATOM     24  C   UNL A   1      32.853  19.314  23.717  1.00  0.00     0.024 A 
ATOM     25  C   UNL A   1      33.965  19.013  24.505  1.00  0.00     0.013 A 
ATOM     26  C   UNL A   1      32.432  18.335  22.817  1.00  0.00     0.120 A 
ATOM     27  C   UNL A   1      34.602  17.781  24.363  1.00  0.00     0.021 A 
ATOM     28  N   UNL A   1      33.037  17.135  22.648  1.00  0.00    -0.264 NA
ATOM     29  C   UNL A   1      34.107  16.887  23.431  1.00  0.00     0.111 A 
ENDBRANCH  23  24
ENDBRANCH  20  23
ENDBRANCH   6  20
ENDBRANCH   4   6
ENDBRANCH   3   4
ENDBRANCH   2   3
ENDBRANCH   1   2
BRANCH   1  30
ATOM     30  O   UNL A   1      37.885  21.050  24.980  1.00  0.00    -0.374 OA
BRANCH  30  31
ATOM     31  C   UNL A   1      38.073  19.632  24.971  1.00  0.00     0.202 C 
BRANCH  31  32
ATOM     32  C   UNL A   1      39.366  19.240  25.687  1.00  0.00     0.261 C 
BRANCH  32  33
ATOM     33  O   UNL A   1      40.156  20.421  25.920  1.00  0.00    -0.460 OA
BRANCH  33  34
ATOM     34  C   UNL A   1      40.773  20.458  27.116  1.00  0.00     0.338 C 
ATOM     35  O   UNL A   1      41.236  19.517  27.746  1.00  0.00    -0.246 OA
BRANCH  34  36
ATOM     36  C   UNL A   1      40.952  21.855  27.539  1.00  0.00     0.060 A 
ATOM     37  C   UNL A   1      40.260  22.840  26.830  1.00  0.00     0.016 A 
ATOM     38  C   UNL A   1      41.889  22.206  28.513  1.00  0.00     0.016 A 
ATOM     39  C   UNL A   1      40.574  24.182  27.030  1.00  0.00     0.010 A 
ATOM     40  C   UNL A   1      42.185  23.558  28.731  1.00  0.00     0.010 A 
ATOM     41  C   UNL A   1      41.577  24.548  27.941  1.00  0.00    -0.014 A 
BRANCH  41  42
ATOM     42  C   UNL A   1      42.110  25.936  27.897  1.00  0.00     0.031 A 
ATOM     43  C   UNL A   1      41.349  27.036  28.593  1.00  0.00     0.074 A 
ATOM     44  C   UNL A   1      43.298  26.204  27.327  1.00  0.00     0.049 A 
ATOM     45  N   UNL A   1      41.679  28.291  28.775  1.00  0.00    -0.248 NA
ATOM     46  C   UNL A   1      40.037  26.677  29.157  1.00  0.00     0.031 C 
ATOM     47  C   UNL A   1      44.136  25.236  26.625  1.00  0.00     0.029 A 
ATOM     48  N   UNL A   1      44.011  27.376  27.267  1.00  0.00    -0.354 N 
ATOM     49  C   UNL A   1      40.622  28.864  29.470  1.00  0.00     0.074 A 
ATOM     50  C   UNL A   1      39.617  27.838  29.637  1.00  0.00     0.031 C 
ATOM     51  C   UNL A   1      45.263  25.849  26.220  1.00  0.00     0.029 A 
ATOM     52  C   UNL A   1      45.219  27.253  26.627  1.00  0.00     0.049 A 
ATOM     53  H   UNL A   1      43.688  28.224  27.648  1.00  0.00     0.167 HD
ATOM     54  C   UNL A   1      40.505  30.125  29.951  1.00  0.00     0.037 A 
ATOM     55  C   UNL A   1      46.185  28.166  26.406  1.00  0.00     0.037 A 
ATOM     56  C   UNL A   1      41.508  31.146  29.816  1.00  0.00     0.049 A 
ATOM     57  C   UNL A   1      46.028  29.564  26.944  1.00  0.00     0.074 A 
ATOM     58  C   UNL A   1      41.492  32.443  30.299  1.00  0.00     0.029 A 
ATOM     59  N   UNL A   1      42.712  30.982  29.149  1.00  0.00    -0.354 N 
ATOM     60  N   UNL A   1      45.047  30.079  27.643  1.00  0.00    -0.248 NA
ATOM     61  C   UNL A   1      47.127  30.505  26.673  1.00  0.00     0.031 C 
ATOM     62  C   UNL A   1      42.672  33.076  29.893  1.00  0.00     0.029 A 
ATOM     63  C   UNL A   1      43.440  32.160  29.193  1.00  0.00     0.049 A 
ATOM     64  H   UNL A   1      43.005  30.153  28.708  1.00  0.00     0.167 HD
ATOM     65  C   UNL A   1      45.419  31.388  27.919  1.00  0.00     0.074 A 
ATOM     66  C   UNL A   1      46.723  31.587  27.324  1.00  0.00     0.031 C 
ATOM     67  C   UNL A   1      44.742  32.340  28.607  1.00  0.00     0.037 A 
BRANCH  54  68
ATOM     68  C   UNL A   1      39.237  30.473  30.673  1.00  0.00     0.064 A 
ATOM     69  C   UNL A   1      39.105  30.284  32.058  1.00  0.00     0.173 A 
ATOM     70  C   UNL A   1      38.152  31.029  29.979  1.00  0.00     0.173 A 
ATOM     71  F   UNL A   1      40.109  29.742  32.764  1.00  0.00    -0.203 F 
ATOM     72  C   UNL A   1      37.924  30.617  32.716  1.00  0.00     0.198 A 
ATOM     73  C   UNL A   1      36.983  31.385  30.645  1.00  0.00     0.198 A 
ATOM     74  F   UNL A   1      38.229  31.232  28.656  1.00  0.00    -0.203 F 
ATOM     75  F   UNL A   1      37.804  30.389  34.032  1.00  0.00    -0.200 F 
ATOM     76  C   UNL A   1      36.867  31.173  32.011  1.00  0.00     0.200 A 
ATOM     77  F   UNL A   1      35.965  31.931  29.964  1.00  0.00    -0.200 F 
ATOM     78  F   UNL A   1      35.733  31.498  32.646  1.00  0.00    -0.200 F 
ENDBRANCH  54  68
BRANCH  55  79
ATOM     79  C   UNL A   1      47.409  27.779  25.659  1.00  0.00     0.064 A 
ATOM     80  C   UNL A   1      47.438  27.796  24.258  1.00  0.00     0.173 A 
ATOM     81  C   UNL A   1      48.568  27.368  26.333  1.00  0.00     0.173 A 
ATOM     82  F   UNL A   1      46.344  28.157  23.571  1.00  0.00    -0.203 F 
ATOM     83  C   UNL A   1      48.576  27.400  23.558  1.00  0.00     0.198 A 
ATOM     84  C   UNL A   1      49.713  26.995  25.632  1.00  0.00     0.198 A 
ATOM     85  F   UNL A   1      48.588  27.331  27.673  1.00  0.00    -0.203 F 
ATOM     86  F   UNL A   1      48.562  27.384  22.218  1.00  0.00    -0.200 F 
ATOM     87  C   UNL A   1      49.713  27.005  24.245  1.00  0.00     0.200 A 
ATOM     88  F   UNL A   1      50.812  26.620  26.300  1.00  0.00    -0.200 F 
ATOM     89  F   UNL A   1      50.807  26.624  23.571  1.00  0.00    -0.200 F 
ENDBRANCH  55  79
BRANCH  67  90
ATOM     90  C   UNL A   1      45.408  33.673  28.781  1.00  0.00     0.064 A 
ATOM     91  C   UNL A   1      45.198  34.724  27.877  1.00  0.00     0.173 A 
ATOM     92  C   UNL A   1      46.237  33.913  29.888  1.00  0.00     0.173 A 
ATOM     93  F   UNL A   1      44.425  34.539  26.796  1.00  0.00    -0.203 F 
ATOM     94  C   UNL A   1      45.813  35.959  28.061  1.00  0.00     0.198 A 
ATOM     95  C   UNL A   1      46.829  35.157  30.083  1.00  0.00     0.198 A 
ATOM     96  F   UNL A   1      46.463  32.942  30.786  1.00  0.00    -0.203 F 
ATOM     97  F   UNL A   1      45.632  36.936  27.162  1.00  0.00    -0.200 F 
ATOM     98  C   UNL A   1      46.623  36.177  29.166  1.00  0.00     0.200 A 
ATOM     99  F   UNL A   1      47.603  35.370  31.157  1.00  0.00    -0.200 F 
ATOM    100  F   UNL A   1      47.211  37.369  29.344  1.00  0.00    -0.200 F 
ENDBRANCH  67  90
ENDBRANCH  41  42
ENDBRANCH  34  36
ENDBRANCH  33  34
ENDBRANCH  32  33
ENDBRANCH  31  32
ENDBRANCH  30  31
ENDBRANCH   1  30
TORSDOF 20
ENDMDL
MODEL 3
REMARK VINA RESULT:     -11.8      1.688      7.696
REMARK SMILES Cc1ccc(NC(=O)C[C@H]([NH2+]Cc2cccnc2)C(=O)OCCOCCOC(=O)c2ccc(-c3c4nc(c(-c5c(F)c(F)c(F)c(F)c5F)c5ccc([nH]5)c(-c5c(F)c(F)c(F)c(F)c5F)c5nc(c(-c6c(F)c(F)c(F)c(F)c6F)c6ccc3[nH]6)C=C5)C=C4)cc2)cc1Cl
REMARK SMILES IDX 23 1 22 2 21 3 19 4 20 5 10 6 9 7 7 8 6 9 8 11 5 12 1 13
REMARK SMILES IDX 2 14 3 15 94 16 4 17 93 18 95 19 11 20 12 23 13 24 14 25
REMARK SMILES IDX 18 26 15 27 17 28 16 29 24 30 25 31 26 32 27 33 28 34 29 35
REMARK SMILES IDX 30 36 31 37 92 38 32 39 91 40 33 41 34 42 35 43 85 44 36 45
REMARK SMILES IDX 90 46 84 47 86 48 37 49 89 50 83 51 82 52 38 54 70 55 50 56
REMARK SMILES IDX 69 57 51 58 54 59 68 60 87 61 52 62 53 63 67 65 88 66 55 67
REMARK SMILES IDX 39 68 40 69 48 70 41 71 42 72 46 73 49 74 43 75 44 76 47 77
REMARK SMILES IDX 45 78 71 79 72 80 80 81 73 82 74 83 78 84 81 85 75 86 76 87
REMARK SMILES IDX 79 88 77 89 56 90 57 91 65 92 58 93 59 94 63 95 66 96 60 97
REMARK SMILES IDX 61 98 64 99 62 100
REMARK H PARENT 6 10 11 21 11 22 86 53 54 64
REMARK Flexibility Score: inf
ROOT
ATOM      1  C   UNL A   1      36.705  21.634  24.684  1.00  0.00     0.202 C 
ENDROOT
BRANCH   1   2
ATOM      2  C   UNL A   1      35.657  20.568  24.993  1.00  0.00     0.261 C 
BRANCH   2   3
ATOM      3  O   UNL A   1      34.680  21.037  25.941  1.00  0.00    -0.459 OA
BRANCH   3   4
ATOM      4  C   UNL A   1      33.445  21.364  25.489  1.00  0.00     0.365 C 
ATOM      5  O   UNL A   1      32.666  20.581  24.957  1.00  0.00    -0.245 OA
BRANCH   4   6
ATOM      6  C   UNL A   1      33.092  22.845  25.749  1.00  0.00     0.303 C 
BRANCH   6   7
ATOM      7  C   UNL A   1      31.621  23.177  25.486  1.00  0.00     0.177 C 
BRANCH   7   8
ATOM      8  C   UNL A   1      30.674  23.867  26.460  1.00  0.00     0.231 C 
ATOM      9  N   UNL A   1      30.455  25.204  26.543  1.00  0.00    -0.326 N 
ATOM     10  H   UNL A   1      30.276  25.483  27.470  1.00  0.00     0.169 HD
ATOM     11  O   UNL A   1      30.243  23.198  27.414  1.00  0.00    -0.274 OA
BRANCH   9  12
ATOM     12  C   UNL A   1      30.416  26.295  25.662  1.00  0.00     0.042 A 
ATOM     13  C   UNL A   1      30.362  29.394  22.620  1.00  0.00     0.046 C 
ATOM     14  C   UNL A   1      30.386  28.333  23.682  1.00  0.00    -0.032 A 
ATOM     15  C   UNL A   1      29.883  27.057  23.405  1.00  0.00     0.007 A 
ATOM     16  C   UNL A   1      30.907  28.569  24.959  1.00  0.00     0.046 A 
ATOM     17  C   UNL A   1      29.903  26.054  24.383  1.00  0.00     0.026 A 
ATOM     18  C   UNL A   1      30.964  27.542  25.914  1.00  0.00     0.047 A 
ATOM     19  Cl  UNL A   1      31.506  30.130  25.400  1.00  0.00    -0.084 Cl
ENDBRANCH   9  12
ENDBRANCH   7   8
ENDBRANCH   6   7
BRANCH   6  20
ATOM     20  N   UNL A   1      34.076  23.751  25.117  1.00  0.00    -0.330 N 
ATOM     21  H   UNL A   1      33.996  23.649  24.106  1.00  0.00     0.347 HD
ATOM     22  H   UNL A   1      34.989  23.480  25.482  1.00  0.00     0.347 HD
BRANCH  20  23
ATOM     23  C   UNL A   1      33.909  25.169  25.445  1.00  0.00     0.299 C 
BRANCH  23  24
ATOM     24  C   UNL A   1      33.821  26.010  24.199  1.00  0.00     0.024 A 
ATOM     25  C   UNL A   1      34.029  27.391  24.225  1.00  0.00     0.013 A 
ATOM     26  C   UNL A   1      33.560  25.434  22.957  1.00  0.00     0.120 A 
ATOM     27  C   UNL A   1      33.962  28.124  23.041  1.00  0.00     0.021 A 
ATOM     28  N   UNL A   1      33.479  26.120  21.792  1.00  0.00    -0.264 NA
ATOM     29  C   UNL A   1      33.686  27.451  21.863  1.00  0.00     0.111 A 
ENDBRANCH  23  24
ENDBRANCH  20  23
ENDBRANCH   6  20
ENDBRANCH   4   6
ENDBRANCH   3   4
ENDBRANCH   2   3
ENDBRANCH   1   2
BRANCH   1  30
ATOM     30  O   UNL A   1      38.034  21.127  24.800  1.00  0.00    -0.374 OA
BRANCH  30  31
ATOM     31  C   UNL A   1      38.134  19.708  24.940  1.00  0.00     0.202 C 
BRANCH  31  32
ATOM     32  C   UNL A   1      39.446  19.306  25.613  1.00  0.00     0.261 C 
BRANCH  32  33
ATOM     33  O   UNL A   1      39.620  20.085  26.812  1.00  0.00    -0.460 OA
BRANCH  33  34
ATOM     34  C   UNL A   1      40.902  20.325  27.145  1.00  0.00     0.338 C 
ATOM     35  O   UNL A   1      41.855  19.565  27.040  1.00  0.00    -0.246 OA
BRANCH  34  36
ATOM     36  C   UNL A   1      41.055  21.730  27.551  1.00  0.00     0.060 A 
ATOM     37  C   UNL A   1      40.371  22.696  26.809  1.00  0.00     0.016 A 
ATOM     38  C   UNL A   1      41.963  22.108  28.542  1.00  0.00     0.016 A 
ATOM     39  C   UNL A   1      40.665  24.045  26.995  1.00  0.00     0.010 A 
ATOM     40  C   UNL A   1      42.238  23.466  28.746  1.00  0.00     0.010 A 
ATOM     41  C   UNL A   1      41.641  24.436  27.924  1.00  0.00    -0.014 A 
BRANCH  41  42
ATOM     42  C   UNL A   1      42.159  25.829  27.872  1.00  0.00     0.031 A 
ATOM     43  C   UNL A   1      41.401  26.922  28.583  1.00  0.00     0.074 A 
ATOM     44  C   UNL A   1      43.334  26.109  27.280  1.00  0.00     0.049 A 
ATOM     45  N   UNL A   1      41.722  28.179  28.760  1.00  0.00    -0.248 NA
ATOM     46  C   UNL A   1      40.104  26.549  29.172  1.00  0.00     0.031 C 
ATOM     47  C   UNL A   1      44.168  25.149  26.561  1.00  0.00     0.029 A 
ATOM     48  N   UNL A   1      44.035  27.288  27.208  1.00  0.00    -0.354 N 
ATOM     49  C   UNL A   1      40.672  28.741  29.475  1.00  0.00     0.074 A 
ATOM     50  C   UNL A   1      39.681  27.706  29.660  1.00  0.00     0.031 C 
ATOM     51  C   UNL A   1      45.281  25.774  26.136  1.00  0.00     0.029 A 
ATOM     52  C   UNL A   1      45.231  27.177  26.545  1.00  0.00     0.049 A 
ATOM     53  H   UNL A   1      43.711  28.133  27.596  1.00  0.00     0.167 HD
ATOM     54  C   UNL A   1      40.553  30.001  29.959  1.00  0.00     0.037 A 
ATOM     55  C   UNL A   1      46.184  28.099  26.307  1.00  0.00     0.037 A 
ATOM     56  C   UNL A   1      41.543  31.032  29.807  1.00  0.00     0.049 A 
ATOM     57  C   UNL A   1      46.024  29.495  26.849  1.00  0.00     0.074 A 
ATOM     58  C   UNL A   1      41.524  32.328  30.290  1.00  0.00     0.029 A 
ATOM     59  N   UNL A   1      42.736  30.880  29.116  1.00  0.00    -0.354 N 
ATOM     60  N   UNL A   1      45.051  30.001  27.567  1.00  0.00    -0.248 NA
ATOM     61  C   UNL A   1      47.108  30.446  26.559  1.00  0.00     0.031 C 
ATOM     62  C   UNL A   1      42.690  32.973  29.864  1.00  0.00     0.029 A 
ATOM     63  C   UNL A   1      43.454  32.064  29.148  1.00  0.00     0.049 A 
ATOM     64  H   UNL A   1      43.029  30.054  28.670  1.00  0.00     0.167 HD
ATOM     65  C   UNL A   1      45.416  31.312  27.837  1.00  0.00     0.074 A 
ATOM     66  C   UNL A   1      46.707  31.525  27.218  1.00  0.00     0.031 C 
ATOM     67  C   UNL A   1      44.742  32.258  28.538  1.00  0.00     0.037 A 
BRANCH  54  68
ATOM     68  C   UNL A   1      39.295  30.337  30.705  1.00  0.00     0.064 A 
ATOM     69  C   UNL A   1      39.195  30.154  32.093  1.00  0.00     0.173 A 
ATOM     70  C   UNL A   1      38.189  30.873  30.031  1.00  0.00     0.173 A 
ATOM     71  F   UNL A   1      40.220  29.631  32.782  1.00  0.00    -0.203 F 
ATOM     72  C   UNL A   1      38.023  30.476  32.774  1.00  0.00     0.198 A 
ATOM     73  C   UNL A   1      37.029  31.218  30.718  1.00  0.00     0.198 A 
ATOM     74  F   UNL A   1      38.236  31.069  28.704  1.00  0.00    -0.203 F 
ATOM     75  F   UNL A   1      37.933  30.255  34.093  1.00  0.00    -0.200 F 
ATOM     76  C   UNL A   1      36.944  31.013  32.088  1.00  0.00     0.200 A 
ATOM     77  F   UNL A   1      35.990  31.745  30.055  1.00  0.00    -0.200 F 
ATOM     78  F   UNL A   1      35.819  31.327  32.744  1.00  0.00    -0.200 F 
ENDBRANCH  54  68
BRANCH  55  79
ATOM     79  C   UNL A   1      47.398  27.724  25.537  1.00  0.00     0.064 A 
ATOM     80  C   UNL A   1      48.588  27.372  26.188  1.00  0.00     0.173 A 
ATOM     81  C   UNL A   1      47.394  27.728  24.135  1.00  0.00     0.173 A 
ATOM     82  F   UNL A   1      48.645  27.381  27.528  1.00  0.00    -0.203 F 
ATOM     83  C   UNL A   1      49.736  27.055  25.464  1.00  0.00     0.198 A 
ATOM     84  C   UNL A   1      48.536  27.386  23.413  1.00  0.00     0.198 A 
ATOM     85  F   UNL A   1      46.281  28.061  23.467  1.00  0.00    -0.203 F 
ATOM     86  F   UNL A   1      50.872  26.764  26.111  1.00  0.00    -0.200 F 
ATOM     87  C   UNL A   1      49.707  27.057  24.078  1.00  0.00     0.200 A 
ATOM     88  F   UNL A   1      48.503  27.384  22.073  1.00  0.00    -0.200 F 
ATOM     89  F   UNL A   1      50.812  26.751  23.383  1.00  0.00    -0.200 F 
ENDBRANCH  55  79
BRANCH  67  90
ATOM     90  C   UNL A   1      45.400  33.596  28.701  1.00  0.00     0.064 A 
ATOM     91  C   UNL A   1      45.156  34.649  27.807  1.00  0.00     0.173 A 
ATOM     92  C   UNL A   1      46.253  33.841  29.788  1.00  0.00     0.173 A 
ATOM     93  F   UNL A   1      44.358  34.460  26.744  1.00  0.00    -0.203 F 
ATOM     94  C   UNL A   1      45.762  35.890  27.980  1.00  0.00     0.198 A 
ATOM     95  C   UNL A   1      46.837  35.091  29.973  1.00  0.00     0.198 A 
ATOM     96  F   UNL A   1      46.511  32.870  30.676  1.00  0.00    -0.203 F 
ATOM     97  F   UNL A   1      45.549  36.868  27.090  1.00  0.00    -0.200 F 
ATOM     98  C   UNL A   1      46.597  36.111  29.066  1.00  0.00     0.200 A 
ATOM     99  F   UNL A   1      47.635  35.307  31.028  1.00  0.00    -0.200 F 
ATOM    100  F   UNL A   1      47.177  37.309  29.233  1.00  0.00    -0.200 F 
ENDBRANCH  67  90
ENDBRANCH  41  42
ENDBRANCH  34  36
ENDBRANCH  33  34
ENDBRANCH  32  33
ENDBRANCH  31  32
ENDBRANCH  30  31
ENDBRANCH   1  30
TORSDOF 20
ENDMDL
