MODEL 1
REMARK VINA RESULT:     -10.7      0.000      0.000
REMARK SMILES CN(C)c1ccc(CC(=O)OCCOCCOC(=O)c2ccc(-c3c4nc(c(-c5c(F)c(F)c(F)c(F)c5F)c5ccc([nH]5)c(-c5c(F)c(F)c(F)c(F)c5F)c5nc(c(-c6c(F)c(F)c(F)c(F)c6F)c6ccc3[nH]6)C=C5)C=C4)cc2)cc1
REMARK SMILES IDX 14 1 13 2 12 3 11 4 9 5 10 6 8 7 7 8 4 9 5 10 84 11 6 12
REMARK SMILES IDX 83 13 2 14 1 15 3 16 15 17 16 18 17 19 18 20 19 21 20 22
REMARK SMILES IDX 21 23 82 24 22 25 81 26 23 27 24 28 25 29 75 30 26 31 80 32
REMARK SMILES IDX 74 33 76 34 27 35 79 36 73 37 72 38 28 40 60 41 40 42 59 43
REMARK SMILES IDX 41 44 44 45 58 46 77 47 42 48 43 49 57 51 78 52 45 53 29 54
REMARK SMILES IDX 30 55 38 56 31 57 32 58 36 59 39 60 33 61 34 62 37 63 35 64
REMARK SMILES IDX 61 65 62 66 70 67 63 68 64 69 68 70 71 71 65 72 66 73 69 74
REMARK SMILES IDX 67 75 46 76 47 77 55 78 48 79 49 80 53 81 56 82 50 83 51 84
REMARK SMILES IDX 54 85 52 86
REMARK H PARENT 76 39 44 50
REMARK Flexibility Score: inf
ROOT
ATOM      1  O   UNL A   1      35.508  21.455  24.172  1.00  0.00    -0.374 OA
ENDROOT
BRANCH   1   2
ATOM      2  C   UNL A   1      34.830  22.573  24.746  1.00  0.00     0.202 C 
BRANCH   2   3
ATOM      3  C   UNL A   1      34.112  23.511  23.771  1.00  0.00     0.261 C 
BRANCH   3   4
ATOM      4  O   UNL A   1      33.396  22.798  22.744  1.00  0.00    -0.463 OA
BRANCH   4   5
ATOM      5  C   UNL A   1      32.162  22.350  23.095  1.00  0.00     0.310 C 
ATOM      6  O   UNL A   1      31.379  22.970  23.811  1.00  0.00    -0.252 OA
BRANCH   5   7
ATOM      7  C   UNL A   1      31.814  20.976  22.577  1.00  0.00     0.158 C 
BRANCH   7   8
ATOM      8  C   UNL A   1      32.398  19.753  23.245  1.00  0.00    -0.037 A 
ATOM      9  C   UNL A   1      33.234  17.370  24.563  1.00  0.00     0.036 A 
ATOM     10  C   UNL A   1      33.104  17.420  23.171  1.00  0.00     0.026 A 
ATOM     11  C   UNL A   1      32.964  18.544  25.276  1.00  0.00     0.026 A 
ATOM     12  C   UNL A   1      32.672  18.587  22.521  1.00  0.00     0.006 A 
ATOM     13  C   UNL A   1      32.572  19.724  24.633  1.00  0.00     0.006 A 
BRANCH   9  14
ATOM     14  N   UNL A   1      33.576  16.207  25.239  1.00  0.00    -0.378 N 
ATOM     15  C   UNL A   1      32.538  15.199  25.397  1.00  0.00     0.143 C 
ATOM     16  C   UNL A   1      34.970  15.834  25.391  1.00  0.00     0.143 C 
ENDBRANCH   9  14
ENDBRANCH   7   8
ENDBRANCH   5   7
ENDBRANCH   4   5
ENDBRANCH   3   4
ENDBRANCH   2   3
ENDBRANCH   1   2
BRANCH   1  17
ATOM     17  C   UNL A   1      36.101  20.527  25.077  1.00  0.00     0.202 C 
BRANCH  17  18
ATOM     18  C   UNL A   1      37.611  20.306  24.934  1.00  0.00     0.261 C 
BRANCH  18  19
ATOM     19  O   UNL A   1      38.371  21.473  25.293  1.00  0.00    -0.460 OA
BRANCH  19  20
ATOM     20  C   UNL A   1      39.391  21.244  26.155  1.00  0.00     0.338 C 
ATOM     21  O   UNL A   1      39.979  20.194  26.346  1.00  0.00    -0.246 OA
BRANCH  20  22
ATOM     22  C   UNL A   1      39.845  22.515  26.753  1.00  0.00     0.060 A 
ATOM     23  C   UNL A   1      39.264  23.694  26.267  1.00  0.00     0.016 A 
ATOM     24  C   UNL A   1      40.856  22.567  27.714  1.00  0.00     0.016 A 
ATOM     25  C   UNL A   1      39.727  24.932  26.706  1.00  0.00     0.010 A 
ATOM     26  C   UNL A   1      41.327  23.813  28.146  1.00  0.00     0.010 A 
ATOM     27  C   UNL A   1      40.786  25.000  27.622  1.00  0.00    -0.014 A 
BRANCH  27  28
ATOM     28  C   UNL A   1      41.391  26.317  27.936  1.00  0.00     0.031 A 
ATOM     29  C   UNL A   1      42.798  26.607  27.494  1.00  0.00     0.074 A 
ATOM     30  C   UNL A   1      40.676  27.260  28.575  1.00  0.00     0.049 A 
ATOM     31  N   UNL A   1      43.514  27.690  27.659  1.00  0.00    -0.248 NA
ATOM     32  C   UNL A   1      43.489  25.532  26.765  1.00  0.00     0.031 C 
ATOM     33  C   UNL A   1      39.294  27.108  29.024  1.00  0.00     0.029 A 
ATOM     34  N   UNL A   1      41.019  28.532  28.960  1.00  0.00    -0.354 N 
ATOM     35  C   UNL A   1      44.737  27.428  27.054  1.00  0.00     0.074 A 
ATOM     36  C   UNL A   1      44.678  26.074  26.546  1.00  0.00     0.031 C 
ATOM     37  C   UNL A   1      38.906  28.243  29.631  1.00  0.00     0.029 A 
ATOM     38  C   UNL A   1      40.021  29.188  29.637  1.00  0.00     0.049 A 
ATOM     39  H   UNL A   1      41.896  28.935  28.768  1.00  0.00     0.167 HD
ATOM     40  C   UNL A   1      45.807  28.248  26.926  1.00  0.00     0.037 A 
ATOM     41  C   UNL A   1      40.017  30.407  30.210  1.00  0.00     0.037 A 
ATOM     42  C   UNL A   1      45.865  29.594  27.434  1.00  0.00     0.049 A 
ATOM     43  C   UNL A   1      41.247  31.272  30.117  1.00  0.00     0.074 A 
ATOM     44  C   UNL A   1      46.894  30.514  27.331  1.00  0.00     0.029 A 
ATOM     45  N   UNL A   1      44.851  30.209  28.153  1.00  0.00    -0.354 N 
ATOM     46  N   UNL A   1      42.385  31.031  29.512  1.00  0.00    -0.248 NA
ATOM     47  C   UNL A   1      41.189  32.580  30.786  1.00  0.00     0.031 C 
ATOM     48  C   UNL A   1      46.523  31.667  28.031  1.00  0.00     0.029 A 
ATOM     49  C   UNL A   1      45.243  31.484  28.528  1.00  0.00     0.049 A 
ATOM     50  H   UNL A   1      43.981  29.800  28.367  1.00  0.00     0.167 HD
ATOM     51  C   UNL A   1      43.169  32.160  29.709  1.00  0.00     0.074 A 
ATOM     52  C   UNL A   1      42.371  33.094  30.475  1.00  0.00     0.031 C 
ATOM     53  C   UNL A   1      44.437  32.401  29.295  1.00  0.00     0.037 A 
BRANCH  40  54
ATOM     54  C   UNL A   1      47.017  27.704  26.226  1.00  0.00     0.064 A 
ATOM     55  C   UNL A   1      48.090  27.145  26.935  1.00  0.00     0.173 A 
ATOM     56  C   UNL A   1      47.089  27.708  24.823  1.00  0.00     0.173 A 
ATOM     57  F   UNL A   1      48.076  27.128  28.277  1.00  0.00    -0.203 F 
ATOM     58  C   UNL A   1      49.199  26.630  26.270  1.00  0.00     0.198 A 
ATOM     59  C   UNL A   1      48.188  27.169  24.161  1.00  0.00     0.198 A 
ATOM     60  F   UNL A   1      46.088  28.227  24.098  1.00  0.00    -0.203 F 
ATOM     61  F   UNL A   1      50.231  26.138  26.969  1.00  0.00    -0.200 F 
ATOM     62  C   UNL A   1      49.245  26.637  24.882  1.00  0.00     0.200 A 
ATOM     63  F   UNL A   1      48.224  27.166  22.821  1.00  0.00    -0.200 F 
ATOM     64  F   UNL A   1      50.310  26.136  24.243  1.00  0.00    -0.200 F 
ENDBRANCH  40  54
BRANCH  41  65
ATOM     65  C   UNL A   1      38.809  30.879  30.937  1.00  0.00     0.064 A 
ATOM     66  C   UNL A   1      37.784  31.564  30.271  1.00  0.00     0.173 A 
ATOM     67  C   UNL A   1      38.663  30.665  32.315  1.00  0.00     0.173 A 
ATOM     68  F   UNL A   1      37.891  31.817  28.958  1.00  0.00    -0.203 F 
ATOM     69  C   UNL A   1      36.665  32.029  30.958  1.00  0.00     0.198 A 
ATOM     70  C   UNL A   1      37.531  31.105  32.996  1.00  0.00     0.198 A 
ATOM     71  F   UNL A   1      39.618  30.018  32.999  1.00  0.00    -0.203 F 
ATOM     72  F   UNL A   1      35.720  32.719  30.306  1.00  0.00    -0.200 F 
ATOM     73  C   UNL A   1      36.536  31.793  32.319  1.00  0.00     0.200 A 
ATOM     74  F   UNL A   1      37.406  30.867  34.309  1.00  0.00    -0.200 F 
ATOM     75  F   UNL A   1      35.458  32.237  32.979  1.00  0.00    -0.200 F 
ENDBRANCH  41  65
BRANCH  53  76
ATOM     76  C   UNL A   1      45.034  33.733  29.645  1.00  0.00     0.064 A 
ATOM     77  C   UNL A   1      44.903  34.841  28.796  1.00  0.00     0.173 A 
ATOM     78  C   UNL A   1      45.710  33.913  30.862  1.00  0.00     0.173 A 
ATOM     79  F   UNL A   1      44.279  34.717  27.615  1.00  0.00    -0.203 F 
ATOM     80  C   UNL A   1      45.447  36.075  29.141  1.00  0.00     0.198 A 
ATOM     81  C   UNL A   1      46.229  35.156  31.216  1.00  0.00     0.198 A 
ATOM     82  F   UNL A   1      45.857  32.886  31.713  1.00  0.00    -0.203 F 
ATOM     83  F   UNL A   1      45.349  37.110  28.294  1.00  0.00    -0.200 F 
ATOM     84  C   UNL A   1      46.102  36.234  30.353  1.00  0.00     0.200 A 
ATOM     85  F   UNL A   1      46.851  35.309  32.393  1.00  0.00    -0.200 F 
ATOM     86  F   UNL A   1      46.620  37.424  30.686  1.00  0.00    -0.200 F 
ENDBRANCH  53  76
ENDBRANCH  27  28
ENDBRANCH  20  22
ENDBRANCH  19  20
ENDBRANCH  18  19
ENDBRANCH  17  18
ENDBRANCH   1  17
TORSDOF 16
ENDMDL
MODEL 2
REMARK VINA RESULT:     -10.6      4.240      6.801
REMARK SMILES CN(C)c1ccc(CC(=O)OCCOCCOC(=O)c2ccc(-c3c4nc(c(-c5c(F)c(F)c(F)c(F)c5F)c5ccc([nH]5)c(-c5c(F)c(F)c(F)c(F)c5F)c5nc(c(-c6c(F)c(F)c(F)c(F)c6F)c6ccc3[nH]6)C=C5)C=C4)cc2)cc1
REMARK SMILES IDX 14 1 13 2 12 3 11 4 9 5 10 6 8 7 7 8 4 9 5 10 84 11 6 12
REMARK SMILES IDX 83 13 2 14 1 15 3 16 15 17 16 18 17 19 18 20 19 21 20 22
REMARK SMILES IDX 21 23 82 24 22 25 81 26 23 27 24 28 25 29 75 30 26 31 80 32
REMARK SMILES IDX 74 33 76 34 27 35 79 36 73 37 72 38 28 40 60 41 40 42 59 43
REMARK SMILES IDX 41 44 44 45 58 46 77 47 42 48 43 49 57 51 78 52 45 53 29 54
REMARK SMILES IDX 30 55 38 56 31 57 32 58 36 59 39 60 33 61 34 62 37 63 35 64
REMARK SMILES IDX 61 65 62 66 70 67 63 68 64 69 68 70 71 71 65 72 66 73 69 74
REMARK SMILES IDX 67 75 46 76 47 77 55 78 48 79 49 80 53 81 56 82 50 83 51 84
REMARK SMILES IDX 54 85 52 86
REMARK H PARENT 76 39 44 50
REMARK Flexibility Score: inf
ROOT
ATOM      1  O   UNL A   1      42.251  19.261  27.598  1.00  0.00    -0.374 OA
ENDROOT
BRANCH   1   2
ATOM      2  C   UNL A   1      42.933  18.200  26.928  1.00  0.00     0.202 C 
BRANCH   2   3
ATOM      3  C   UNL A   1      43.482  18.513  25.533  1.00  0.00     0.261 C 
BRANCH   3   4
ATOM      4  O   UNL A   1      44.847  18.083  25.367  1.00  0.00    -0.463 OA
BRANCH   4   5
ATOM      5  C   UNL A   1      45.729  19.058  25.023  1.00  0.00     0.310 C 
ATOM      6  O   UNL A   1      46.910  19.074  25.364  1.00  0.00    -0.252 OA
BRANCH   5   7
ATOM      7  C   UNL A   1      45.143  20.187  24.211  1.00  0.00     0.158 C 
BRANCH   7   8
ATOM      8  C   UNL A   1      45.167  21.596  24.758  1.00  0.00    -0.037 A 
ATOM      9  C   UNL A   1      45.142  24.337  25.532  1.00  0.00     0.036 A 
ATOM     10  C   UNL A   1      44.033  23.512  25.751  1.00  0.00     0.026 A 
ATOM     11  C   UNL A   1      46.270  23.753  24.943  1.00  0.00     0.026 A 
ATOM     12  C   UNL A   1      44.036  22.167  25.353  1.00  0.00     0.006 A 
ATOM     13  C   UNL A   1      46.296  22.402  24.579  1.00  0.00     0.006 A 
BRANCH   9  14
ATOM     14  N   UNL A   1      45.137  25.691  25.838  1.00  0.00    -0.378 N 
ATOM     15  C   UNL A   1      46.407  26.294  26.211  1.00  0.00     0.143 C 
ATOM     16  C   UNL A   1      44.042  26.534  25.397  1.00  0.00     0.143 C 
ENDBRANCH   9  14
ENDBRANCH   7   8
ENDBRANCH   5   7
ENDBRANCH   4   5
ENDBRANCH   3   4
ENDBRANCH   2   3
ENDBRANCH   1   2
BRANCH   1  17
ATOM     17  C   UNL A   1      41.241  19.945  26.859  1.00  0.00     0.202 C 
BRANCH  17  18
ATOM     18  C   UNL A   1      40.916  21.373  27.311  1.00  0.00     0.261 C 
BRANCH  18  19
ATOM     19  O   UNL A   1      40.627  22.244  26.203  1.00  0.00    -0.460 OA
BRANCH  19  20
ATOM     20  C   UNL A   1      39.412  22.843  26.254  1.00  0.00     0.338 C 
ATOM     21  O   UNL A   1      38.332  22.354  25.975  1.00  0.00    -0.246 OA
BRANCH  20  22
ATOM     22  C   UNL A   1      39.530  24.176  26.877  1.00  0.00     0.060 A 
ATOM     23  C   UNL A   1      40.223  25.159  26.159  1.00  0.00     0.016 A 
ATOM     24  C   UNL A   1      39.039  24.447  28.156  1.00  0.00     0.016 A 
ATOM     25  C   UNL A   1      40.468  26.403  26.736  1.00  0.00     0.010 A 
ATOM     26  C   UNL A   1      39.296  25.694  28.739  1.00  0.00     0.010 A 
ATOM     27  C   UNL A   1      40.038  26.666  28.044  1.00  0.00    -0.014 A 
BRANCH  27  28
ATOM     28  C   UNL A   1      40.467  27.918  28.712  1.00  0.00     0.031 A 
ATOM     29  C   UNL A   1      41.906  28.086  29.111  1.00  0.00     0.074 A 
ATOM     30  C   UNL A   1      39.587  28.914  28.923  1.00  0.00     0.049 A 
ATOM     31  N   UNL A   1      42.493  29.097  29.699  1.00  0.00    -0.248 NA
ATOM     32  C   UNL A   1      42.805  26.962  28.803  1.00  0.00     0.031 C 
ATOM     33  C   UNL A   1      38.175  28.881  28.551  1.00  0.00     0.029 A 
ATOM     34  N   UNL A   1      39.755  30.145  29.507  1.00  0.00    -0.354 N 
ATOM     35  C   UNL A   1      43.827  28.734  29.830  1.00  0.00     0.074 A 
ATOM     36  C   UNL A   1      43.958  27.397  29.290  1.00  0.00     0.031 C 
ATOM     37  C   UNL A   1      37.601  30.039  28.921  1.00  0.00     0.029 A 
ATOM     38  C   UNL A   1      38.599  30.880  29.581  1.00  0.00     0.049 A 
ATOM     39  H   UNL A   1      40.623  30.469  29.839  1.00  0.00     0.167 HD
ATOM     40  C   UNL A   1      44.852  29.455  30.345  1.00  0.00     0.037 A 
ATOM     41  C   UNL A   1      38.370  32.086  30.134  1.00  0.00     0.037 A 
ATOM     42  C   UNL A   1      44.719  30.783  30.884  1.00  0.00     0.049 A 
ATOM     43  C   UNL A   1      39.512  32.838  30.767  1.00  0.00     0.074 A 
ATOM     44  C   UNL A   1      45.702  31.608  31.404  1.00  0.00     0.029 A 
ATOM     45  N   UNL A   1      43.522  31.478  30.982  1.00  0.00    -0.354 N 
ATOM     46  N   UNL A   1      40.777  32.502  30.854  1.00  0.00    -0.248 NA
ATOM     47  C   UNL A   1      39.194  34.136  31.378  1.00  0.00     0.031 C 
ATOM     48  C   UNL A   1      45.093  32.780  31.863  1.00  0.00     0.029 A 
ATOM     49  C   UNL A   1      43.738  32.708  31.585  1.00  0.00     0.049 A 
ATOM     50  H   UNL A   1      42.649  31.147  30.671  1.00  0.00     0.167 HD
ATOM     51  C   UNL A   1      41.407  33.553  31.508  1.00  0.00     0.074 A 
ATOM     52  C   UNL A   1      40.388  34.546  31.780  1.00  0.00     0.031 C 
ATOM     53  C   UNL A   1      42.711  33.684  31.853  1.00  0.00     0.037 A 
BRANCH  40  54
ATOM     54  C   UNL A   1      46.207  28.813  30.371  1.00  0.00     0.064 A 
ATOM     55  C   UNL A   1      46.660  28.093  31.487  1.00  0.00     0.173 A 
ATOM     56  C   UNL A   1      47.051  28.887  29.252  1.00  0.00     0.173 A 
ATOM     57  F   UNL A   1      45.896  28.003  32.587  1.00  0.00    -0.203 F 
ATOM     58  C   UNL A   1      47.915  27.490  31.490  1.00  0.00     0.198 A 
ATOM     59  C   UNL A   1      48.294  28.261  29.249  1.00  0.00     0.198 A 
ATOM     60  F   UNL A   1      46.664  29.560  28.158  1.00  0.00    -0.203 F 
ATOM     61  F   UNL A   1      48.344  26.841  32.582  1.00  0.00    -0.200 F 
ATOM     62  C   UNL A   1      48.729  27.569  30.368  1.00  0.00     0.200 A 
ATOM     63  F   UNL A   1      49.073  28.329  28.160  1.00  0.00    -0.200 F 
ATOM     64  F   UNL A   1      49.933  26.983  30.370  1.00  0.00    -0.200 F 
ENDBRANCH  40  54
BRANCH  41  65
ATOM     65  C   UNL A   1      36.998  32.655  30.127  1.00  0.00     0.064 A 
ATOM     66  C   UNL A   1      36.536  33.421  29.047  1.00  0.00     0.173 A 
ATOM     67  C   UNL A   1      36.124  32.456  31.206  1.00  0.00     0.173 A 
ATOM     68  F   UNL A   1      37.344  33.663  28.005  1.00  0.00    -0.203 F 
ATOM     69  C   UNL A   1      35.258  33.976  29.053  1.00  0.00     0.198 A 
ATOM     70  C   UNL A   1      34.837  32.988  31.199  1.00  0.00     0.198 A 
ATOM     71  F   UNL A   1      36.519  31.734  32.265  1.00  0.00    -0.203 F 
ATOM     72  F   UNL A   1      34.858  34.740  28.028  1.00  0.00    -0.200 F 
ATOM     73  C   UNL A   1      34.408  33.754  30.126  1.00  0.00     0.200 A 
ATOM     74  F   UNL A   1      34.015  32.762  32.232  1.00  0.00    -0.200 F 
ATOM     75  F   UNL A   1      33.177  34.285  30.130  1.00  0.00    -0.200 F 
ENDBRANCH  41  65
BRANCH  53  76
ATOM     76  C   UNL A   1      43.115  34.951  32.547  1.00  0.00     0.064 A 
ATOM     77  C   UNL A   1      43.140  35.045  33.947  1.00  0.00     0.173 A 
ATOM     78  C   UNL A   1      43.521  36.072  31.806  1.00  0.00     0.173 A 
ATOM     79  F   UNL A   1      42.746  34.006  34.699  1.00  0.00    -0.203 F 
ATOM     80  C   UNL A   1      43.532  36.221  34.579  1.00  0.00     0.198 A 
ATOM     81  C   UNL A   1      43.941  37.238  32.442  1.00  0.00     0.198 A 
ATOM     82  F   UNL A   1      43.524  36.032  30.466  1.00  0.00    -0.203 F 
ATOM     83  F   UNL A   1      43.505  36.303  35.916  1.00  0.00    -0.200 F 
ATOM     84  C   UNL A   1      43.940  37.313  33.827  1.00  0.00     0.200 A 
ATOM     85  F   UNL A   1      44.345  38.288  31.714  1.00  0.00    -0.200 F 
ATOM     86  F   UNL A   1      44.324  38.443  34.437  1.00  0.00    -0.200 F 
ENDBRANCH  53  76
ENDBRANCH  27  28
ENDBRANCH  20  22
ENDBRANCH  19  20
ENDBRANCH  18  19
ENDBRANCH  17  18
ENDBRANCH   1  17
TORSDOF 16
ENDMDL
MODEL 3
REMARK VINA RESULT:     -10.4      2.275      4.449
REMARK SMILES CN(C)c1ccc(CC(=O)OCCOCCOC(=O)c2ccc(-c3c4nc(c(-c5c(F)c(F)c(F)c(F)c5F)c5ccc([nH]5)c(-c5c(F)c(F)c(F)c(F)c5F)c5nc(c(-c6c(F)c(F)c(F)c(F)c6F)c6ccc3[nH]6)C=C5)C=C4)cc2)cc1
REMARK SMILES IDX 14 1 13 2 12 3 11 4 9 5 10 6 8 7 7 8 4 9 5 10 84 11 6 12
REMARK SMILES IDX 83 13 2 14 1 15 3 16 15 17 16 18 17 19 18 20 19 21 20 22
REMARK SMILES IDX 21 23 82 24 22 25 81 26 23 27 24 28 25 29 75 30 26 31 80 32
REMARK SMILES IDX 74 33 76 34 27 35 79 36 73 37 72 38 28 40 60 41 40 42 59 43
REMARK SMILES IDX 41 44 44 45 58 46 77 47 42 48 43 49 57 51 78 52 45 53 29 54
REMARK SMILES IDX 30 55 38 56 31 57 32 58 36 59 39 60 33 61 34 62 37 63 35 64
REMARK SMILES IDX 61 65 62 66 70 67 63 68 64 69 68 70 71 71 65 72 66 73 69 74
REMARK SMILES IDX 67 75 46 76 47 77 55 78 48 79 49 80 53 81 56 82 50 83 51 84
REMARK SMILES IDX 54 85 52 86
REMARK H PARENT 76 39 44 50
REMARK Flexibility Score: inf
ROOT
ATOM      1  O   UNL A   1      35.054  23.092  24.772  1.00  0.00    -0.374 OA
ENDROOT
BRANCH   1   2
ATOM      2  C   UNL A   1      33.975  22.158  24.808  1.00  0.00     0.202 C 
BRANCH   2   3
ATOM      3  C   UNL A   1      32.578  22.735  25.059  1.00  0.00     0.261 C 
BRANCH   3   4
ATOM      4  O   UNL A   1      32.507  23.496  26.280  1.00  0.00    -0.463 OA
BRANCH   4   5
ATOM      5  C   UNL A   1      31.331  24.142  26.499  1.00  0.00     0.310 C 
ATOM      6  O   UNL A   1      30.443  23.728  27.241  1.00  0.00    -0.252 OA
BRANCH   5   7
ATOM      7  C   UNL A   1      31.150  25.416  25.712  1.00  0.00     0.158 C 
BRANCH   7   8
ATOM      8  C   UNL A   1      31.935  26.650  26.091  1.00  0.00    -0.037 A 
ATOM      9  C   UNL A   1      33.516  28.828  27.024  1.00  0.00     0.036 A 
ATOM     10  C   UNL A   1      33.974  27.985  26.006  1.00  0.00     0.026 A 
ATOM     11  C   UNL A   1      32.242  28.575  27.543  1.00  0.00     0.026 A 
ATOM     12  C   UNL A   1      33.206  26.899  25.559  1.00  0.00     0.006 A 
ATOM     13  C   UNL A   1      31.452  27.518  27.076  1.00  0.00     0.006 A 
BRANCH   9  14
ATOM     14  N   UNL A   1      34.290  29.857  27.544  1.00  0.00    -0.378 N 
ATOM     15  C   UNL A   1      35.721  29.621  27.658  1.00  0.00     0.143 C 
ATOM     16  C   UNL A   1      33.781  31.216  27.563  1.00  0.00     0.143 C 
ENDBRANCH   9  14
ENDBRANCH   7   8
ENDBRANCH   5   7
ENDBRANCH   4   5
ENDBRANCH   3   4
ENDBRANCH   2   3
ENDBRANCH   1   2
BRANCH   1  17
ATOM     17  C   UNL A   1      36.155  22.772  23.925  1.00  0.00     0.202 C 
BRANCH  17  18
ATOM     18  C   UNL A   1      37.072  21.638  24.398  1.00  0.00     0.261 C 
BRANCH  18  19
ATOM     19  O   UNL A   1      37.441  21.775  25.782  1.00  0.00    -0.460 OA
BRANCH  19  20
ATOM     20  C   UNL A   1      38.758  21.588  26.039  1.00  0.00     0.338 C 
ATOM     21  O   UNL A   1      39.455  20.649  25.695  1.00  0.00    -0.246 OA
BRANCH  20  22
ATOM     22  C   UNL A   1      39.326  22.793  26.676  1.00  0.00     0.060 A 
ATOM     23  C   UNL A   1      38.694  24.015  26.410  1.00  0.00     0.016 A 
ATOM     24  C   UNL A   1      40.483  22.748  27.457  1.00  0.00     0.016 A 
ATOM     25  C   UNL A   1      39.245  25.203  26.887  1.00  0.00     0.010 A 
ATOM     26  C   UNL A   1      41.040  23.944  27.926  1.00  0.00     0.010 A 
ATOM     27  C   UNL A   1      40.441  25.178  27.617  1.00  0.00    -0.014 A 
BRANCH  27  28
ATOM     28  C   UNL A   1      41.111  26.456  27.955  1.00  0.00     0.031 A 
ATOM     29  C   UNL A   1      42.545  26.666  27.554  1.00  0.00     0.074 A 
ATOM     30  C   UNL A   1      40.435  27.438  28.578  1.00  0.00     0.049 A 
ATOM     31  N   UNL A   1      43.318  27.705  27.745  1.00  0.00    -0.248 NA
ATOM     32  C   UNL A   1      43.193  25.554  26.840  1.00  0.00     0.031 C 
ATOM     33  C   UNL A   1      39.034  27.364  28.987  1.00  0.00     0.029 A 
ATOM     34  N   UNL A   1      40.839  28.686  28.979  1.00  0.00    -0.354 N 
ATOM     35  C   UNL A   1      44.540  27.374  27.174  1.00  0.00     0.074 A 
ATOM     36  C   UNL A   1      44.418  26.027  26.658  1.00  0.00     0.031 C 
ATOM     37  C   UNL A   1      38.695  28.519  29.587  1.00  0.00     0.029 A 
ATOM     38  C   UNL A   1      39.863  29.397  29.630  1.00  0.00     0.049 A 
ATOM     39  H   UNL A   1      41.744  29.039  28.814  1.00  0.00     0.167 HD
ATOM     40  C   UNL A   1      45.660  28.131  27.080  1.00  0.00     0.037 A 
ATOM     41  C   UNL A   1      39.913  30.612  30.209  1.00  0.00     0.037 A 
ATOM     42  C   UNL A   1      45.781  29.469  27.597  1.00  0.00     0.049 A 
ATOM     43  C   UNL A   1      41.193  31.405  30.155  1.00  0.00     0.074 A 
ATOM     44  C   UNL A   1      46.865  30.328  27.528  1.00  0.00     0.029 A 
ATOM     45  N   UNL A   1      44.784  30.140  28.290  1.00  0.00    -0.354 N 
ATOM     46  N   UNL A   1      42.332  31.100  29.582  1.00  0.00    -0.248 NA
ATOM     47  C   UNL A   1      41.192  32.711  30.829  1.00  0.00     0.031 C 
ATOM     48  C   UNL A   1      46.541  31.498  28.222  1.00  0.00     0.029 A 
ATOM     49  C   UNL A   1      45.239  31.389  28.682  1.00  0.00     0.049 A 
ATOM     50  H   UNL A   1      43.886  29.782  28.476  1.00  0.00     0.167 HD
ATOM     51  C   UNL A   1      43.175  32.180  29.807  1.00  0.00     0.074 A 
ATOM     52  C   UNL A   1      42.410  33.157  30.554  1.00  0.00     0.031 C 
ATOM     53  C   UNL A   1      44.466  32.349  29.430  1.00  0.00     0.037 A 
BRANCH  40  54
ATOM     54  C   UNL A   1      46.856  27.520  26.412  1.00  0.00     0.064 A 
ATOM     55  C   UNL A   1      47.049  27.605  25.025  1.00  0.00     0.173 A 
ATOM     56  C   UNL A   1      47.842  26.872  27.173  1.00  0.00     0.173 A 
ATOM     57  F   UNL A   1      46.129  28.203  24.252  1.00  0.00    -0.203 F 
ATOM     58  C   UNL A   1      48.172  27.046  24.422  1.00  0.00     0.198 A 
ATOM     59  C   UNL A   1      48.976  26.338  26.569  1.00  0.00     0.198 A 
ATOM     60  F   UNL A   1      47.708  26.768  28.503  1.00  0.00    -0.203 F 
ATOM     61  F   UNL A   1      48.315  27.103  23.090  1.00  0.00    -0.200 F 
ATOM     62  C   UNL A   1      49.138  26.418  25.195  1.00  0.00     0.200 A 
ATOM     63  F   UNL A   1      49.914  25.742  27.320  1.00  0.00    -0.200 F 
ATOM     64  F   UNL A   1      50.222  25.886  24.614  1.00  0.00    -0.200 F 
ENDBRANCH  40  54
BRANCH  41  65
ATOM     65  C   UNL A   1      38.714  31.151  30.903  1.00  0.00     0.064 A 
ATOM     66  C   UNL A   1      38.543  30.990  32.285  1.00  0.00     0.173 A 
ATOM     67  C   UNL A   1      37.709  31.827  30.195  1.00  0.00     0.173 A 
ATOM     68  F   UNL A   1      39.462  30.326  33.000  1.00  0.00    -0.203 F 
ATOM     69  C   UNL A   1      37.406  31.472  32.930  1.00  0.00     0.198 A 
ATOM     70  C   UNL A   1      36.587  32.333  30.845  1.00  0.00     0.198 A 
ATOM     71  F   UNL A   1      37.824  32.004  28.871  1.00  0.00    -0.203 F 
ATOM     72  F   UNL A   1      37.246  31.266  34.244  1.00  0.00    -0.200 F 
ATOM     73  C   UNL A   1      36.432  32.149  32.211  1.00  0.00     0.200 A 
ATOM     74  F   UNL A   1      35.653  32.996  30.149  1.00  0.00    -0.200 F 
ATOM     75  F   UNL A   1      35.340  32.616  32.832  1.00  0.00    -0.200 F 
ENDBRANCH  41  65
BRANCH  53  76
ATOM     76  C   UNL A   1      45.129  33.642  29.804  1.00  0.00     0.064 A 
ATOM     77  C   UNL A   1      45.841  33.781  31.004  1.00  0.00     0.173 A 
ATOM     78  C   UNL A   1      45.085  34.743  28.934  1.00  0.00     0.173 A 
ATOM     79  F   UNL A   1      45.899  32.763  31.875  1.00  0.00    -0.203 F 
ATOM     80  C   UNL A   1      46.466  34.981  31.331  1.00  0.00     0.198 A 
ATOM     81  C   UNL A   1      45.735  35.933  29.252  1.00  0.00     0.198 A 
ATOM     82  F   UNL A   1      44.423  34.660  27.770  1.00  0.00    -0.203 F 
ATOM     83  F   UNL A   1      47.103  35.106  32.503  1.00  0.00    -0.200 F 
ATOM     84  C   UNL A   1      46.419  36.053  30.452  1.00  0.00     0.200 A 
ATOM     85  F   UNL A   1      45.698  36.964  28.396  1.00  0.00    -0.200 F 
ATOM     86  F   UNL A   1      47.026  37.206  30.766  1.00  0.00    -0.200 F 
ENDBRANCH  53  76
ENDBRANCH  27  28
ENDBRANCH  20  22
ENDBRANCH  19  20
ENDBRANCH  18  19
ENDBRANCH  17  18
ENDBRANCH   1  17
TORSDOF 16
ENDMDL
