MODEL 1
REMARK VINA RESULT:     -12.4      0.000      0.000
REMARK SMILES O=C(OCCOCCOC(=O)[C@@H]1[C@@H](C(=O)Nc2ccc(F)c(F)c2)[C@H]2CC[C@@H]1O2)c1ccc(-c2c3nc(c(-c4c(F)c(F)c(F)c(F)c4F)c4ccc([nH]4)c(-c4c(F)c(F)c(F)c(F)c4F)c4nc(c(-c5c(F)c(F)c(F)c(F)c5F)c5ccc2[nH]5)C=C4)C=C3)cc1
REMARK SMILES IDX 6 1 5 2 4 3 3 4 2 5 1 6 30 7 31 8 92 9 32 10 91 11 33 12
REMARK SMILES IDX 34 13 35 14 85 15 36 16 90 17 84 18 86 19 37 20 89 21 83 22
REMARK SMILES IDX 82 23 38 25 70 26 50 27 69 28 51 29 54 30 68 31 87 32 52 33
REMARK SMILES IDX 53 34 67 36 88 37 55 38 39 39 40 40 48 41 41 42 42 43 46 44
REMARK SMILES IDX 49 45 43 46 44 47 47 48 45 49 71 50 72 51 80 52 73 53 74 54
REMARK SMILES IDX 78 55 81 56 75 57 76 58 79 59 77 60 56 61 57 62 65 63 58 64
REMARK SMILES IDX 59 65 63 66 66 67 60 68 61 69 64 70 62 71 7 72 8 73 9 74
REMARK SMILES IDX 10 75 11 76 12 77 13 78 28 79 25 80 27 81 29 82 26 83 14 84
REMARK SMILES IDX 15 85 16 86 17 88 18 89 24 90 19 91 22 92 20 93 23 94 21 95
REMARK H PARENT 86 24 54 35 16 87
REMARK Flexibility Score: inf
ROOT
ATOM      1  O   UNL A   1      31.428  30.895  26.668  1.00  0.00    -0.374 OA
ENDROOT
BRANCH   1   2
ATOM      2  C   UNL A   1      31.435  32.326  26.645  1.00  0.00     0.202 C 
BRANCH   2   3
ATOM      3  C   UNL A   1      32.685  32.967  27.253  1.00  0.00     0.261 C 
BRANCH   3   4
ATOM      4  O   UNL A   1      32.345  34.205  27.898  1.00  0.00    -0.460 OA
BRANCH   4   5
ATOM      5  C   UNL A   1      33.047  34.895  28.824  1.00  0.00     0.338 C 
ATOM      6  O   UNL A   1      32.657  36.018  29.141  1.00  0.00    -0.246 OA
BRANCH   5   7
ATOM      7  C   UNL A   1      34.265  34.367  29.512  1.00  0.00     0.060 A 
ATOM      8  C   UNL A   1      35.581  34.534  29.073  1.00  0.00     0.016 A 
ATOM      9  C   UNL A   1      34.058  33.728  30.746  1.00  0.00     0.016 A 
ATOM     10  C   UNL A   1      36.656  34.027  29.791  1.00  0.00     0.010 A 
ATOM     11  C   UNL A   1      35.134  33.242  31.492  1.00  0.00     0.010 A 
ATOM     12  C   UNL A   1      36.435  33.374  30.998  1.00  0.00    -0.014 A 
BRANCH  12  13
ATOM     13  C   UNL A   1      37.576  32.728  31.663  1.00  0.00     0.031 A 
ATOM     14  C   UNL A   1      38.283  31.629  30.936  1.00  0.00     0.074 A 
ATOM     15  C   UNL A   1      38.022  33.206  32.838  1.00  0.00     0.049 A 
ATOM     16  N   UNL A   1      39.250  30.854  31.344  1.00  0.00    -0.248 NA
ATOM     17  C   UNL A   1      37.851  31.377  29.550  1.00  0.00     0.031 C 
ATOM     18  C   UNL A   1      37.469  34.366  33.539  1.00  0.00     0.029 A 
ATOM     19  N   UNL A   1      39.056  32.793  33.634  1.00  0.00    -0.354 N 
ATOM     20  C   UNL A   1      39.527  30.012  30.276  1.00  0.00     0.074 A 
ATOM     21  C   UNL A   1      38.630  30.365  29.200  1.00  0.00     0.031 C 
ATOM     22  C   UNL A   1      38.179  34.578  34.659  1.00  0.00     0.029 A 
ATOM     23  C   UNL A   1      39.188  33.531  34.784  1.00  0.00     0.049 A 
ATOM     24  H   UNL A   1      39.646  32.039  33.405  1.00  0.00     0.167 HD
ATOM     25  C   UNL A   1      40.450  29.028  30.219  1.00  0.00     0.037 A 
ATOM     26  C   UNL A   1      40.013  33.345  35.831  1.00  0.00     0.037 A 
ATOM     27  C   UNL A   1      41.322  28.702  31.313  1.00  0.00     0.049 A 
ATOM     28  C   UNL A   1      40.952  32.169  35.786  1.00  0.00     0.074 A 
ATOM     29  C   UNL A   1      42.241  27.677  31.414  1.00  0.00     0.029 A 
ATOM     30  N   UNL A   1      41.376  29.417  32.504  1.00  0.00    -0.354 N 
ATOM     31  N   UNL A   1      41.152  31.309  34.815  1.00  0.00    -0.248 NA
ATOM     32  C   UNL A   1      41.760  31.918  36.985  1.00  0.00     0.031 C 
ATOM     33  C   UNL A   1      42.827  27.749  32.681  1.00  0.00     0.029 A 
ATOM     34  C   UNL A   1      42.306  28.846  33.353  1.00  0.00     0.049 A 
ATOM     35  H   UNL A   1      40.834  30.211  32.711  1.00  0.00     0.167 HD
ATOM     36  C   UNL A   1      42.108  30.419  35.279  1.00  0.00     0.074 A 
ATOM     37  C   UNL A   1      42.469  30.860  36.613  1.00  0.00     0.031 C 
ATOM     38  C   UNL A   1      42.633  29.326  34.672  1.00  0.00     0.037 A 
BRANCH  25  39
ATOM     39  C   UNL A   1      40.516  28.214  28.963  1.00  0.00     0.064 A 
ATOM     40  C   UNL A   1      41.319  28.633  27.891  1.00  0.00     0.173 A 
ATOM     41  C   UNL A   1      39.785  27.027  28.812  1.00  0.00     0.173 A 
ATOM     42  F   UNL A   1      42.047  29.755  27.989  1.00  0.00    -0.203 F 
ATOM     43  C   UNL A   1      41.379  27.897  26.711  1.00  0.00     0.198 A 
ATOM     44  C   UNL A   1      39.865  26.282  27.638  1.00  0.00     0.198 A 
ATOM     45  F   UNL A   1      39.028  26.568  29.821  1.00  0.00    -0.203 F 
ATOM     46  F   UNL A   1      42.144  28.323  25.696  1.00  0.00    -0.200 F 
ATOM     47  C   UNL A   1      40.655  26.720  26.587  1.00  0.00     0.200 A 
ATOM     48  F   UNL A   1      39.190  25.129  27.531  1.00  0.00    -0.200 F 
ATOM     49  F   UNL A   1      40.729  26.004  25.457  1.00  0.00    -0.200 F 
ENDBRANCH  25  39
BRANCH  26  50
ATOM     50  C   UNL A   1      39.950  34.251  37.009  1.00  0.00     0.064 A 
ATOM     51  C   UNL A   1      39.093  33.985  38.091  1.00  0.00     0.173 A 
ATOM     52  C   UNL A   1      40.745  35.403  37.083  1.00  0.00     0.173 A 
ATOM     53  F   UNL A   1      38.314  32.894  38.079  1.00  0.00    -0.203 F 
ATOM     54  C   UNL A   1      39.019  34.846  39.185  1.00  0.00     0.198 A 
ATOM     55  C   UNL A   1      40.692  36.247  38.192  1.00  0.00     0.198 A 
ATOM     56  F   UNL A   1      41.599  35.691  36.090  1.00  0.00    -0.203 F 
ATOM     57  F   UNL A   1      38.169  34.581  40.185  1.00  0.00    -0.200 F 
ATOM     58  C   UNL A   1      39.823  35.973  39.237  1.00  0.00     0.200 A 
ATOM     59  F   UNL A   1      41.493  37.320  38.253  1.00  0.00    -0.200 F 
ATOM     60  F   UNL A   1      39.768  36.788  40.299  1.00  0.00    -0.200 F 
ENDBRANCH  26  50
BRANCH  38  61
ATOM     61  C   UNL A   1      43.653  28.544  35.440  1.00  0.00     0.064 A 
ATOM     62  C   UNL A   1      45.021  28.753  35.219  1.00  0.00     0.173 A 
ATOM     63  C   UNL A   1      43.270  27.530  36.330  1.00  0.00     0.173 A 
ATOM     64  F   UNL A   1      45.431  29.705  34.369  1.00  0.00    -0.203 F 
ATOM     65  C   UNL A   1      45.973  27.960  35.852  1.00  0.00     0.198 A 
ATOM     66  C   UNL A   1      44.225  26.758  36.981  1.00  0.00     0.198 A 
ATOM     67  F   UNL A   1      41.971  27.305  36.579  1.00  0.00    -0.203 F 
ATOM     68  F   UNL A   1      47.276  28.151  35.600  1.00  0.00    -0.200 F 
ATOM     69  C   UNL A   1      45.575  26.966  36.733  1.00  0.00     0.200 A 
ATOM     70  F   UNL A   1      43.841  25.812  37.850  1.00  0.00    -0.200 F 
ATOM     71  F   UNL A   1      46.494  26.208  37.347  1.00  0.00    -0.200 F 
ENDBRANCH  38  61
ENDBRANCH  12  13
ENDBRANCH   5   7
ENDBRANCH   4   5
ENDBRANCH   3   4
ENDBRANCH   2   3
ENDBRANCH   1   2
BRANCH   1  72
ATOM     72  C   UNL A   1      32.604  30.261  26.142  1.00  0.00     0.202 C 
BRANCH  72  73
ATOM     73  C   UNL A   1      33.352  29.532  27.262  1.00  0.00     0.261 C 
BRANCH  73  74
ATOM     74  O   UNL A   1      33.431  28.142  26.913  1.00  0.00    -0.463 OA
BRANCH  74  75
ATOM     75  C   UNL A   1      32.259  27.463  27.085  1.00  0.00     0.312 C 
ATOM     76  O   UNL A   1      31.425  27.704  27.947  1.00  0.00    -0.252 OA
BRANCH  75  77
ATOM     77  C   UNL A   1      32.075  26.516  25.926  1.00  0.00     0.143 C 
ATOM     78  C   UNL A   1      30.956  26.974  24.976  1.00  0.00     0.124 C 
ATOM     79  C   UNL A   1      31.574  25.162  26.406  1.00  0.00     0.133 C 
ATOM     80  C   UNL A   1      30.012  25.765  25.021  1.00  0.00     0.132 C 
ATOM     81  C   UNL A   1      31.725  24.135  25.282  1.00  0.00     0.036 C 
ATOM     82  O   UNL A   1      30.141  25.369  26.411  1.00  0.00    -0.373 OA
ATOM     83  C   UNL A   1      30.572  24.512  24.349  1.00  0.00     0.035 C 
BRANCH  78  84
ATOM     84  C   UNL A   1      31.438  27.257  23.563  1.00  0.00     0.231 C 
ATOM     85  O   UNL A   1      32.513  26.824  23.142  1.00  0.00    -0.274 OA
ATOM     86  N   UNL A   1      30.590  27.867  22.682  1.00  0.00    -0.326 N 
ATOM     87  H   UNL A   1      30.688  27.588  21.742  1.00  0.00     0.169 HD
BRANCH  86  88
ATOM     88  C   UNL A   1      29.601  28.832  22.917  1.00  0.00     0.044 A 
ATOM     89  C   UNL A   1      28.233  28.549  22.808  1.00  0.00     0.029 A 
ATOM     90  C   UNL A   1      30.009  30.086  23.380  1.00  0.00     0.068 A 
ATOM     91  C   UNL A   1      27.283  29.527  23.114  1.00  0.00     0.044 A 
ATOM     92  C   UNL A   1      29.056  31.062  23.657  1.00  0.00     0.160 A 
ATOM     93  C   UNL A   1      27.703  30.786  23.526  1.00  0.00     0.158 A 
ATOM     94  F   UNL A   1      29.463  32.275  24.056  1.00  0.00    -0.204 F 
ATOM     95  F   UNL A   1      26.790  31.724  23.810  1.00  0.00    -0.204 F 
ENDBRANCH  86  88
ENDBRANCH  78  84
ENDBRANCH  75  77
ENDBRANCH  74  75
ENDBRANCH  73  74
ENDBRANCH  72  73
ENDBRANCH   1  72
TORSDOF 16
ENDMDL
MODEL 2
REMARK VINA RESULT:     -12.4      0.070      1.567
REMARK SMILES O=C(OCCOCCOC(=O)[C@@H]1[C@@H](C(=O)Nc2ccc(F)c(F)c2)[C@H]2CC[C@@H]1O2)c1ccc(-c2c3nc(c(-c4c(F)c(F)c(F)c(F)c4F)c4ccc([nH]4)c(-c4c(F)c(F)c(F)c(F)c4F)c4nc(c(-c5c(F)c(F)c(F)c(F)c5F)c5ccc2[nH]5)C=C4)C=C3)cc1
REMARK SMILES IDX 6 1 5 2 4 3 3 4 2 5 1 6 30 7 31 8 92 9 32 10 91 11 33 12
REMARK SMILES IDX 34 13 35 14 85 15 36 16 90 17 84 18 86 19 37 20 89 21 83 22
REMARK SMILES IDX 82 23 38 25 70 26 50 27 69 28 51 29 54 30 68 31 87 32 52 33
REMARK SMILES IDX 53 34 67 36 88 37 55 38 39 39 40 40 48 41 41 42 42 43 46 44
REMARK SMILES IDX 49 45 43 46 44 47 47 48 45 49 71 50 72 51 80 52 73 53 74 54
REMARK SMILES IDX 78 55 81 56 75 57 76 58 79 59 77 60 56 61 57 62 65 63 58 64
REMARK SMILES IDX 59 65 63 66 66 67 60 68 61 69 64 70 62 71 7 72 8 73 9 74
REMARK SMILES IDX 10 75 11 76 12 77 13 78 28 79 25 80 27 81 29 82 26 83 14 84
REMARK SMILES IDX 15 85 16 86 17 88 18 89 24 90 19 91 22 92 20 93 23 94 21 95
REMARK H PARENT 86 24 54 35 16 87
REMARK Flexibility Score: inf
ROOT
ATOM      1  O   UNL A   1      31.534  30.799  26.562  1.00  0.00    -0.374 OA
ENDROOT
BRANCH   1   2
ATOM      2  C   UNL A   1      31.413  32.211  26.761  1.00  0.00     0.202 C 
BRANCH   2   3
ATOM      3  C   UNL A   1      32.694  32.900  27.235  1.00  0.00     0.261 C 
BRANCH   3   4
ATOM      4  O   UNL A   1      32.387  34.181  27.810  1.00  0.00    -0.460 OA
BRANCH   4   5
ATOM      5  C   UNL A   1      33.048  34.851  28.779  1.00  0.00     0.338 C 
ATOM      6  O   UNL A   1      32.619  35.949  29.131  1.00  0.00    -0.246 OA
BRANCH   5   7
ATOM      7  C   UNL A   1      34.265  34.329  29.474  1.00  0.00     0.060 A 
ATOM      8  C   UNL A   1      35.585  34.551  29.074  1.00  0.00     0.016 A 
ATOM      9  C   UNL A   1      34.048  33.634  30.676  1.00  0.00     0.016 A 
ATOM     10  C   UNL A   1      36.658  34.045  29.796  1.00  0.00     0.010 A 
ATOM     11  C   UNL A   1      35.121  33.148  31.426  1.00  0.00     0.010 A 
ATOM     12  C   UNL A   1      36.429  33.336  30.970  1.00  0.00    -0.014 A 
BRANCH  12  13
ATOM     13  C   UNL A   1      37.572  32.695  31.635  1.00  0.00     0.031 A 
ATOM     14  C   UNL A   1      38.283  31.598  30.908  1.00  0.00     0.074 A 
ATOM     15  C   UNL A   1      38.017  33.176  32.809  1.00  0.00     0.049 A 
ATOM     16  N   UNL A   1      39.253  30.828  31.317  1.00  0.00    -0.248 NA
ATOM     17  C   UNL A   1      37.852  31.344  29.522  1.00  0.00     0.031 C 
ATOM     18  C   UNL A   1      37.459  34.334  33.510  1.00  0.00     0.029 A 
ATOM     19  N   UNL A   1      39.052  32.768  33.606  1.00  0.00    -0.354 N 
ATOM     20  C   UNL A   1      39.533  29.986  30.250  1.00  0.00     0.074 A 
ATOM     21  C   UNL A   1      38.635  30.335  29.174  1.00  0.00     0.031 C 
ATOM     22  C   UNL A   1      38.168  34.550  34.629  1.00  0.00     0.029 A 
ATOM     23  C   UNL A   1      39.182  33.507  34.755  1.00  0.00     0.049 A 
ATOM     24  H   UNL A   1      39.645  32.016  33.377  1.00  0.00     0.167 HD
ATOM     25  C   UNL A   1      40.461  29.005  30.192  1.00  0.00     0.037 A 
ATOM     26  C   UNL A   1      40.008  33.325  35.802  1.00  0.00     0.037 A 
ATOM     27  C   UNL A   1      41.333  28.684  31.287  1.00  0.00     0.049 A 
ATOM     28  C   UNL A   1      40.951  32.152  35.757  1.00  0.00     0.074 A 
ATOM     29  C   UNL A   1      42.256  27.662  31.389  1.00  0.00     0.029 A 
ATOM     30  N   UNL A   1      41.385  29.399  32.477  1.00  0.00    -0.354 N 
ATOM     31  N   UNL A   1      41.154  31.292  34.787  1.00  0.00    -0.248 NA
ATOM     32  C   UNL A   1      41.761  31.905  36.957  1.00  0.00     0.031 C 
ATOM     33  C   UNL A   1      42.843  27.738  32.656  1.00  0.00     0.029 A 
ATOM     34  C   UNL A   1      42.317  28.832  33.327  1.00  0.00     0.049 A 
ATOM     35  H   UNL A   1      40.840  30.191  32.684  1.00  0.00     0.167 HD
ATOM     36  C   UNL A   1      42.113  30.406  35.252  1.00  0.00     0.074 A 
ATOM     37  C   UNL A   1      42.473  30.850  36.585  1.00  0.00     0.031 C 
ATOM     38  C   UNL A   1      42.643  29.315  34.645  1.00  0.00     0.037 A 
BRANCH  25  39
ATOM     39  C   UNL A   1      40.529  28.191  28.937  1.00  0.00     0.064 A 
ATOM     40  C   UNL A   1      39.782  27.009  28.820  1.00  0.00     0.173 A 
ATOM     41  C   UNL A   1      41.333  28.570  27.853  1.00  0.00     0.173 A 
ATOM     42  F   UNL A   1      38.988  26.609  29.824  1.00  0.00    -0.203 F 
ATOM     43  C   UNL A   1      39.845  26.233  27.667  1.00  0.00     0.198 A 
ATOM     44  C   UNL A   1      41.377  27.803  26.692  1.00  0.00     0.198 A 
ATOM     45  F   UNL A   1      42.041  29.709  27.904  1.00  0.00    -0.203 F 
ATOM     46  F   UNL A   1      39.132  25.101  27.582  1.00  0.00    -0.200 F 
ATOM     47  C   UNL A   1      40.640  26.631  26.602  1.00  0.00     0.200 A 
ATOM     48  F   UNL A   1      42.120  28.205  25.652  1.00  0.00    -0.200 F 
ATOM     49  F   UNL A   1      40.686  25.892  25.486  1.00  0.00    -0.200 F 
ENDBRANCH  25  39
BRANCH  26  50
ATOM     50  C   UNL A   1      39.941  34.230  36.980  1.00  0.00     0.064 A 
ATOM     51  C   UNL A   1      40.720  35.397  37.051  1.00  0.00     0.173 A 
ATOM     52  C   UNL A   1      39.094  33.951  38.063  1.00  0.00     0.173 A 
ATOM     53  F   UNL A   1      41.542  35.718  36.043  1.00  0.00    -0.203 F 
ATOM     54  C   UNL A   1      40.672  36.233  38.166  1.00  0.00     0.198 A 
ATOM     55  C   UNL A   1      39.025  34.805  39.163  1.00  0.00     0.198 A 
ATOM     56  F   UNL A   1      38.310  32.864  38.035  1.00  0.00    -0.203 F 
ATOM     57  F   UNL A   1      41.451  37.321  38.217  1.00  0.00    -0.200 F 
ATOM     58  C   UNL A   1      39.819  35.940  39.218  1.00  0.00     0.200 A 
ATOM     59  F   UNL A   1      38.177  34.534  40.165  1.00  0.00    -0.200 F 
ATOM     60  F   UNL A   1      39.757  36.756  40.278  1.00  0.00    -0.200 F 
ENDBRANCH  26  50
BRANCH  38  61
ATOM     61  C   UNL A   1      43.666  28.537  35.414  1.00  0.00     0.064 A 
ATOM     62  C   UNL A   1      45.033  28.782  35.225  1.00  0.00     0.173 A 
ATOM     63  C   UNL A   1      43.290  27.493  36.271  1.00  0.00     0.173 A 
ATOM     64  F   UNL A   1      45.437  29.765  34.406  1.00  0.00    -0.203 F 
ATOM     65  C   UNL A   1      45.991  27.996  35.856  1.00  0.00     0.198 A 
ATOM     66  C   UNL A   1      44.251  26.727  36.921  1.00  0.00     0.198 A 
ATOM     67  F   UNL A   1      41.992  27.232  36.489  1.00  0.00    -0.203 F 
ATOM     68  F   UNL A   1      47.293  28.222  35.634  1.00  0.00    -0.200 F 
ATOM     69  C   UNL A   1      45.599  26.972  36.705  1.00  0.00     0.200 A 
ATOM     70  F   UNL A   1      43.872  25.752  37.759  1.00  0.00    -0.200 F 
ATOM     71  F   UNL A   1      46.524  26.220  37.317  1.00  0.00    -0.200 F 
ENDBRANCH  38  61
ENDBRANCH  12  13
ENDBRANCH   5   7
ENDBRANCH   4   5
ENDBRANCH   3   4
ENDBRANCH   2   3
ENDBRANCH   1   2
BRANCH   1  72
ATOM     72  C   UNL A   1      32.844  30.335  26.200  1.00  0.00     0.202 C 
BRANCH  72  73
ATOM     73  C   UNL A   1      33.444  29.516  27.346  1.00  0.00     0.261 C 
BRANCH  73  74
ATOM     74  O   UNL A   1      33.481  28.140  26.938  1.00  0.00    -0.463 OA
BRANCH  74  75
ATOM     75  C   UNL A   1      32.290  27.489  27.089  1.00  0.00     0.312 C 
ATOM     76  O   UNL A   1      31.444  27.754  27.932  1.00  0.00    -0.252 OA
BRANCH  75  77
ATOM     77  C   UNL A   1      32.110  26.538  25.932  1.00  0.00     0.143 C 
ATOM     78  C   UNL A   1      30.992  26.993  24.979  1.00  0.00     0.124 C 
ATOM     79  C   UNL A   1      31.609  25.185  26.415  1.00  0.00     0.133 C 
ATOM     80  C   UNL A   1      30.049  25.783  25.024  1.00  0.00     0.132 C 
ATOM     81  C   UNL A   1      31.763  24.155  25.293  1.00  0.00     0.036 C 
ATOM     82  O   UNL A   1      30.176  25.391  26.416  1.00  0.00    -0.373 OA
ATOM     83  C   UNL A   1      30.612  24.529  24.357  1.00  0.00     0.035 C 
BRANCH  78  84
ATOM     84  C   UNL A   1      31.477  27.273  23.565  1.00  0.00     0.231 C 
ATOM     85  O   UNL A   1      32.553  26.839  23.148  1.00  0.00    -0.274 OA
ATOM     86  N   UNL A   1      30.630  27.880  22.682  1.00  0.00    -0.326 N 
ATOM     87  H   UNL A   1      30.730  27.599  21.743  1.00  0.00     0.169 HD
BRANCH  86  88
ATOM     88  C   UNL A   1      29.640  28.845  22.912  1.00  0.00     0.044 A 
ATOM     89  C   UNL A   1      28.274  28.574  22.755  1.00  0.00     0.029 A 
ATOM     90  C   UNL A   1      30.041  30.083  23.420  1.00  0.00     0.068 A 
ATOM     91  C   UNL A   1      27.321  29.550  23.058  1.00  0.00     0.044 A 
ATOM     92  C   UNL A   1      29.087  31.058  23.695  1.00  0.00     0.160 A 
ATOM     93  C   UNL A   1      27.736  30.794  23.515  1.00  0.00     0.158 A 
ATOM     94  F   UNL A   1      29.488  32.258  24.137  1.00  0.00    -0.204 F 
ATOM     95  F   UNL A   1      26.821  31.731  23.796  1.00  0.00    -0.204 F 
ENDBRANCH  86  88
ENDBRANCH  78  84
ENDBRANCH  75  77
ENDBRANCH  74  75
ENDBRANCH  73  74
ENDBRANCH  72  73
ENDBRANCH   1  72
TORSDOF 16
ENDMDL
MODEL 3
REMARK VINA RESULT:     -12.2      0.864      7.274
REMARK SMILES O=C(OCCOCCOC(=O)[C@@H]1[C@@H](C(=O)Nc2ccc(F)c(F)c2)[C@H]2CC[C@@H]1O2)c1ccc(-c2c3nc(c(-c4c(F)c(F)c(F)c(F)c4F)c4ccc([nH]4)c(-c4c(F)c(F)c(F)c(F)c4F)c4nc(c(-c5c(F)c(F)c(F)c(F)c5F)c5ccc2[nH]5)C=C4)C=C3)cc1
REMARK SMILES IDX 6 1 5 2 4 3 3 4 2 5 1 6 30 7 31 8 92 9 32 10 91 11 33 12
REMARK SMILES IDX 34 13 35 14 85 15 36 16 90 17 84 18 86 19 37 20 89 21 83 22
REMARK SMILES IDX 82 23 38 25 70 26 50 27 69 28 51 29 54 30 68 31 87 32 52 33
REMARK SMILES IDX 53 34 67 36 88 37 55 38 39 39 40 40 48 41 41 42 42 43 46 44
REMARK SMILES IDX 49 45 43 46 44 47 47 48 45 49 71 50 72 51 80 52 73 53 74 54
REMARK SMILES IDX 78 55 81 56 75 57 76 58 79 59 77 60 56 61 57 62 65 63 58 64
REMARK SMILES IDX 59 65 63 66 66 67 60 68 61 69 64 70 62 71 7 72 8 73 9 74
REMARK SMILES IDX 10 75 11 76 12 77 13 78 28 79 25 80 27 81 29 82 26 83 14 84
REMARK SMILES IDX 15 85 16 86 17 88 18 89 24 90 19 91 22 92 20 93 23 94 21 95
REMARK H PARENT 86 24 54 35 16 87
REMARK Flexibility Score: inf
ROOT
ATOM      1  O   UNL A   1      31.504  30.845  26.402  1.00  0.00    -0.374 OA
ENDROOT
BRANCH   1   2
ATOM      2  C   UNL A   1      31.304  32.225  26.721  1.00  0.00     0.202 C 
BRANCH   2   3
ATOM      3  C   UNL A   1      32.590  33.008  26.999  1.00  0.00     0.261 C 
BRANCH   3   4
ATOM      4  O   UNL A   1      32.303  34.175  27.787  1.00  0.00    -0.460 OA
BRANCH   4   5
ATOM      5  C   UNL A   1      33.064  34.759  28.738  1.00  0.00     0.338 C 
ATOM      6  O   UNL A   1      32.742  35.874  29.145  1.00  0.00    -0.246 OA
BRANCH   5   7
ATOM      7  C   UNL A   1      34.269  34.121  29.351  1.00  0.00     0.060 A 
ATOM      8  C   UNL A   1      35.595  34.476  29.090  1.00  0.00     0.016 A 
ATOM      9  C   UNL A   1      34.029  33.146  30.334  1.00  0.00     0.016 A 
ATOM     10  C   UNL A   1      36.655  33.842  29.724  1.00  0.00     0.010 A 
ATOM     11  C   UNL A   1      35.086  32.525  31.001  1.00  0.00     0.010 A 
ATOM     12  C   UNL A   1      36.404  32.860  30.676  1.00  0.00    -0.014 A 
BRANCH  12  13
ATOM     13  C   UNL A   1      37.544  32.112  31.228  1.00  0.00     0.031 A 
ATOM     14  C   UNL A   1      37.942  32.385  32.644  1.00  0.00     0.074 A 
ATOM     15  C   UNL A   1      38.118  31.139  30.502  1.00  0.00     0.049 A 
ATOM     16  N   UNL A   1      38.957  31.923  33.321  1.00  0.00    -0.248 NA
ATOM     17  C   UNL A   1      37.068  33.292  33.408  1.00  0.00     0.031 C 
ATOM     18  C   UNL A   1      37.690  30.722  29.165  1.00  0.00     0.029 A 
ATOM     19  N   UNL A   1      39.165  30.308  30.793  1.00  0.00    -0.354 N 
ATOM     20  C   UNL A   1      38.855  32.497  34.580  1.00  0.00     0.074 A 
ATOM     21  C   UNL A   1      37.683  33.341  34.579  1.00  0.00     0.031 C 
ATOM     22  C   UNL A   1      38.464  29.703  28.757  1.00  0.00     0.029 A 
ATOM     23  C   UNL A   1      39.479  29.444  29.773  1.00  0.00     0.049 A 
ATOM     24  H   UNL A   1      39.647  30.328  31.652  1.00  0.00     0.167 HD
ATOM     25  C   UNL A   1      39.683  32.329  35.634  1.00  0.00     0.037 A 
ATOM     26  C   UNL A   1      40.501  28.575  29.670  1.00  0.00     0.037 A 
ATOM     27  C   UNL A   1      40.844  31.484  35.595  1.00  0.00     0.049 A 
ATOM     28  C   UNL A   1      41.473  28.494  30.818  1.00  0.00     0.074 A 
ATOM     29  C   UNL A   1      41.810  31.292  36.563  1.00  0.00     0.029 A 
ATOM     30  N   UNL A   1      41.186  30.682  34.513  1.00  0.00    -0.354 N 
ATOM     31  N   UNL A   1      41.435  29.109  31.977  1.00  0.00    -0.248 NA
ATOM     32  C   UNL A   1      42.643  27.625  30.637  1.00  0.00     0.031 C 
ATOM     33  C   UNL A   1      42.757  30.399  36.053  1.00  0.00     0.029 A 
ATOM     34  C   UNL A   1      42.359  30.001  34.785  1.00  0.00     0.049 A 
ATOM     35  H   UNL A   1      40.671  30.610  33.678  1.00  0.00     0.167 HD
ATOM     36  C   UNL A   1      42.567  28.701  32.666  1.00  0.00     0.074 A 
ATOM     37  C   UNL A   1      43.259  27.763  31.803  1.00  0.00     0.031 C 
ATOM     38  C   UNL A   1      43.008  29.073  33.893  1.00  0.00     0.037 A 
BRANCH  25  39
ATOM     39  C   UNL A   1      39.388  33.112  36.876  1.00  0.00     0.064 A 
ATOM     40  C   UNL A   1      40.014  34.348  37.098  1.00  0.00     0.173 A 
ATOM     41  C   UNL A   1      38.495  32.643  37.851  1.00  0.00     0.173 A 
ATOM     42  F   UNL A   1      40.867  34.846  36.191  1.00  0.00    -0.203 F 
ATOM     43  C   UNL A   1      39.763  35.081  38.254  1.00  0.00     0.198 A 
ATOM     44  C   UNL A   1      38.230  33.390  38.996  1.00  0.00     0.198 A 
ATOM     45  F   UNL A   1      37.847  31.482  37.670  1.00  0.00    -0.203 F 
ATOM     46  F   UNL A   1      40.382  36.254  38.450  1.00  0.00    -0.200 F 
ATOM     47  C   UNL A   1      38.869  34.604  39.201  1.00  0.00     0.200 A 
ATOM     48  F   UNL A   1      37.341  32.943  39.895  1.00  0.00    -0.200 F 
ATOM     49  F   UNL A   1      38.614  35.319  40.305  1.00  0.00    -0.200 F 
ENDBRANCH  25  39
BRANCH  26  50
ATOM     50  C   UNL A   1      40.679  27.765  28.436  1.00  0.00     0.064 A 
ATOM     51  C   UNL A   1      40.096  26.495  28.303  1.00  0.00     0.173 A 
ATOM     52  C   UNL A   1      41.437  28.244  27.357  1.00  0.00     0.173 A 
ATOM     53  F   UNL A   1      39.356  25.988  29.299  1.00  0.00    -0.203 F 
ATOM     54  C   UNL A   1      40.282  25.728  27.154  1.00  0.00     0.198 A 
ATOM     55  C   UNL A   1      41.598  27.489  26.196  1.00  0.00     0.198 A 
ATOM     56  F   UNL A   1      41.996  29.462  27.421  1.00  0.00    -0.203 F 
ATOM     57  F   UNL A   1      39.739  24.506  27.071  1.00  0.00    -0.200 F 
ATOM     58  C   UNL A   1      41.028  26.229  26.098  1.00  0.00     0.200 A 
ATOM     59  F   UNL A   1      42.294  27.989  25.166  1.00  0.00    -0.200 F 
ATOM     60  F   UNL A   1      41.187  25.501  24.985  1.00  0.00    -0.200 F 
ENDBRANCH  26  50
BRANCH  38  61
ATOM     61  C   UNL A   1      44.288  28.462  34.371  1.00  0.00     0.064 A 
ATOM     62  C   UNL A   1      44.275  27.256  35.086  1.00  0.00     0.173 A 
ATOM     63  C   UNL A   1      45.515  29.117  34.195  1.00  0.00     0.173 A 
ATOM     64  F   UNL A   1      43.123  26.602  35.287  1.00  0.00    -0.203 F 
ATOM     65  C   UNL A   1      45.447  26.735  35.623  1.00  0.00     0.198 A 
ATOM     66  C   UNL A   1      46.689  28.578  34.710  1.00  0.00     0.198 A 
ATOM     67  F   UNL A   1      45.574  30.268  33.507  1.00  0.00    -0.203 F 
ATOM     68  F   UNL A   1      45.409  25.600  36.335  1.00  0.00    -0.200 F 
ATOM     69  C   UNL A   1      46.652  27.394  35.432  1.00  0.00     0.200 A 
ATOM     70  F   UNL A   1      47.857  29.204  34.506  1.00  0.00    -0.200 F 
ATOM     71  F   UNL A   1      47.782  26.887  35.944  1.00  0.00    -0.200 F 
ENDBRANCH  38  61
ENDBRANCH  12  13
ENDBRANCH   5   7
ENDBRANCH   4   5
ENDBRANCH   3   4
ENDBRANCH   2   3
ENDBRANCH   1   2
BRANCH   1  72
ATOM     72  C   UNL A   1      32.867  30.451  26.180  1.00  0.00     0.202 C 
BRANCH  72  73
ATOM     73  C   UNL A   1      33.364  29.602  27.353  1.00  0.00     0.261 C 
BRANCH  73  74
ATOM     74  O   UNL A   1      33.431  28.236  26.918  1.00  0.00    -0.463 OA
BRANCH  74  75
ATOM     75  C   UNL A   1      32.262  27.549  27.080  1.00  0.00     0.312 C 
ATOM     76  O   UNL A   1      31.410  27.796  27.922  1.00  0.00    -0.252 OA
BRANCH  75  77
ATOM     77  C   UNL A   1      32.108  26.580  25.933  1.00  0.00     0.143 C 
ATOM     78  C   UNL A   1      30.976  26.990  24.978  1.00  0.00     0.124 C 
ATOM     79  C   UNL A   1      31.649  25.218  26.432  1.00  0.00     0.133 C 
ATOM     80  C   UNL A   1      30.070  25.753  25.039  1.00  0.00     0.132 C 
ATOM     81  C   UNL A   1      31.833  24.181  25.322  1.00  0.00     0.036 C 
ATOM     82  O   UNL A   1      30.211  25.380  26.434  1.00  0.00    -0.373 OA
ATOM     83  C   UNL A   1      30.669  24.510  24.384  1.00  0.00     0.035 C 
BRANCH  78  84
ATOM     84  C   UNL A   1      31.449  27.270  23.560  1.00  0.00     0.231 C 
ATOM     85  O   UNL A   1      32.525  26.843  23.138  1.00  0.00    -0.274 OA
ATOM     86  N   UNL A   1      30.591  27.868  22.680  1.00  0.00    -0.326 N 
ATOM     87  H   UNL A   1      30.688  27.584  21.742  1.00  0.00     0.169 HD
BRANCH  86  88
ATOM     88  C   UNL A   1      29.596  28.826  22.915  1.00  0.00     0.044 A 
ATOM     89  C   UNL A   1      28.230  28.528  22.824  1.00  0.00     0.029 A 
ATOM     90  C   UNL A   1      29.997  30.089  23.357  1.00  0.00     0.068 A 
ATOM     91  C   UNL A   1      27.273  29.501  23.128  1.00  0.00     0.044 A 
ATOM     92  C   UNL A   1      29.038  31.060  23.634  1.00  0.00     0.160 A 
ATOM     93  C   UNL A   1      27.686  30.768  23.521  1.00  0.00     0.158 A 
ATOM     94  F   UNL A   1      29.437  32.281  24.012  1.00  0.00    -0.204 F 
ATOM     95  F   UNL A   1      26.767  31.702  23.802  1.00  0.00    -0.204 F 
ENDBRANCH  86  88
ENDBRANCH  78  84
ENDBRANCH  75  77
ENDBRANCH  74  75
ENDBRANCH  73  74
ENDBRANCH  72  73
ENDBRANCH   1  72
TORSDOF 16
ENDMDL
