MODEL 1
REMARK VINA RESULT:     -11.9      0.000      0.000
REMARK SMILES CC1=C[C@@H]([C@@H]2N=N[C@H](S)N2/N=C/c2ccc(C(=O)OCCOCCOC(=O)c3ccc(-c4c5nc(c(-c6c(F)c(F)c(F)c(F)c6F)c6ccc([nH]6)c(-c6c(F)c(F)c(F)c(F)c6F)c6nc(c(-c7c(F)c(F)c(F)c(F)c7F)c7ccc4[nH]7)C=C6)C=C5)cc3)cc2)N=N1
REMARK SMILES IDX 21 1 20 2 19 3 17 4 18 5 16 6 13 7 14 8 92 9 15 10 91 11
REMARK SMILES IDX 12 12 11 13 10 14 5 15 6 16 7 17 8 18 4 19 1 20 2 21 3 22
REMARK SMILES IDX 94 23 93 24 9 25 22 27 23 28 24 29 25 30 26 31 27 32 28 33
REMARK SMILES IDX 29 34 90 35 30 36 89 37 31 38 32 39 33 40 83 41 34 42 88 43
REMARK SMILES IDX 82 44 84 45 35 46 87 47 81 48 80 49 36 51 68 52 48 53 67 54
REMARK SMILES IDX 49 55 52 56 66 57 85 58 50 59 51 60 65 62 86 63 53 64 37 65
REMARK SMILES IDX 38 66 46 67 39 68 40 69 44 70 47 71 41 72 42 73 45 74 43 75
REMARK SMILES IDX 69 76 70 77 78 78 71 79 72 80 76 81 79 82 73 83 74 84 77 85
REMARK SMILES IDX 75 86 54 87 55 88 63 89 56 90 57 91 61 92 64 93 58 94 59 95
REMARK SMILES IDX 62 96 60 97
REMARK H PARENT 9 26 84 50 52 61
REMARK Flexibility Score: inf
ROOT
ATOM      1  C   UNL A   1      42.020  18.909  25.931  1.00  0.00     0.202 C 
ENDROOT
BRANCH   1   2
ATOM      2  C   UNL A   1      42.183  20.409  26.191  1.00  0.00     0.261 C 
BRANCH   2   3
ATOM      3  O   UNL A   1      41.075  21.188  25.709  1.00  0.00    -0.460 OA
BRANCH   3   4
ATOM      4  C   UNL A   1      40.215  21.582  26.679  1.00  0.00     0.338 C 
ATOM      5  O   UNL A   1      40.433  21.631  27.878  1.00  0.00    -0.246 OA
BRANCH   4   6
ATOM      6  C   UNL A   1      38.974  22.129  26.091  1.00  0.00     0.060 A 
ATOM      7  C   UNL A   1      36.522  23.180  25.319  1.00  0.00    -0.005 A 
ATOM      8  C   UNL A   1      37.413  23.980  26.037  1.00  0.00     0.010 A 
ATOM      9  C   UNL A   1      36.881  21.888  24.918  1.00  0.00     0.010 A 
ATOM     10  C   UNL A   1      38.634  23.445  26.437  1.00  0.00     0.016 A 
ATOM     11  C   UNL A   1      38.122  21.362  25.291  1.00  0.00     0.016 A 
BRANCH   7  12
ATOM     12  C   UNL A   1      35.166  23.707  25.087  1.00  0.00     0.141 C 
ATOM     13  N   UNL A   1      34.882  24.359  24.007  1.00  0.00    -0.180 NA
BRANCH  13  14
ATOM     14  N   UNL A   1      33.610  24.777  23.819  1.00  0.00    -0.233 NA
ATOM     15  C   UNL A   1      33.235  26.165  24.108  1.00  0.00     0.274 C 
ATOM     16  N   UNL A   1      31.998  26.469  23.347  1.00  0.00    -0.161 NA
ATOM     17  N   UNL A   1      31.662  25.483  22.647  1.00  0.00    -0.153 NA
ATOM     18  C   UNL A   1      32.612  24.366  22.836  1.00  0.00     0.298 C 
BRANCH  15  19
ATOM     19  C   UNL A   1      33.025  26.389  25.624  1.00  0.00     0.201 C 
ATOM     20  C   UNL A   1      31.744  29.584  26.990  1.00  0.00     0.068 C 
ATOM     21  C   UNL A   1      32.444  28.346  26.565  1.00  0.00     0.058 C 
ATOM     22  C   UNL A   1      31.893  27.295  25.964  1.00  0.00     0.031 C 
ATOM     23  N   UNL A   1      33.800  28.211  26.718  1.00  0.00    -0.160 NA
ATOM     24  N   UNL A   1      34.189  27.113  26.221  1.00  0.00    -0.177 NA
ENDBRANCH  15  19
BRANCH  18  25
ATOM     25  S   UNL A   1      31.836  22.804  23.387  1.00  0.00    -0.128 SA
ATOM     26  H   UNL A   1      31.685  22.825  24.739  1.00  0.00     0.106 HD
ENDBRANCH  18  25
ENDBRANCH  13  14
ENDBRANCH   7  12
ENDBRANCH   4   6
ENDBRANCH   3   4
ENDBRANCH   2   3
ENDBRANCH   1   2
BRANCH   1  27
ATOM     27  O   UNL A   1      43.142  18.179  25.438  1.00  0.00    -0.374 OA
BRANCH  27  28
ATOM     28  C   UNL A   1      44.410  18.314  26.068  1.00  0.00     0.202 C 
BRANCH  28  29
ATOM     29  C   UNL A   1      45.593  18.763  25.224  1.00  0.00     0.261 C 
BRANCH  29  30
ATOM     30  O   UNL A   1      45.754  20.173  25.215  1.00  0.00    -0.460 OA
BRANCH  30  31
ATOM     31  C   UNL A   1      45.047  20.788  24.238  1.00  0.00     0.338 C 
ATOM     32  O   UNL A   1      44.623  20.298  23.209  1.00  0.00    -0.246 OA
BRANCH  31  33
ATOM     33  C   UNL A   1      45.036  22.226  24.517  1.00  0.00     0.060 A 
ATOM     34  C   UNL A   1      46.009  22.682  25.408  1.00  0.00     0.016 A 
ATOM     35  C   UNL A   1      43.913  22.995  24.176  1.00  0.00     0.016 A 
ATOM     36  C   UNL A   1      45.735  23.813  26.137  1.00  0.00     0.010 A 
ATOM     37  C   UNL A   1      43.634  24.117  24.916  1.00  0.00     0.010 A 
ATOM     38  C   UNL A   1      44.507  24.457  25.943  1.00  0.00    -0.014 A 
BRANCH  38  39
ATOM     39  C   UNL A   1      44.223  25.615  26.757  1.00  0.00     0.031 A 
ATOM     40  C   UNL A   1      45.186  26.703  26.502  1.00  0.00     0.074 A 
ATOM     41  C   UNL A   1      43.160  25.693  27.579  1.00  0.00     0.049 A 
ATOM     42  N   UNL A   1      46.117  27.111  27.296  1.00  0.00    -0.248 NA
ATOM     43  C   UNL A   1      45.274  27.246  25.136  1.00  0.00     0.031 C 
ATOM     44  C   UNL A   1      42.038  24.762  27.707  1.00  0.00     0.029 A 
ATOM     45  N   UNL A   1      42.823  26.697  28.432  1.00  0.00    -0.354 N 
ATOM     46  C   UNL A   1      46.762  28.129  26.608  1.00  0.00     0.074 A 
ATOM     47  C   UNL A   1      46.361  28.014  25.233  1.00  0.00     0.031 C 
ATOM     48  C   UNL A   1      41.045  25.358  28.408  1.00  0.00     0.029 A 
ATOM     49  C   UNL A   1      41.507  26.653  28.879  1.00  0.00     0.049 A 
ATOM     50  H   UNL A   1      43.457  27.397  28.710  1.00  0.00     0.167 HD
ATOM     51  C   UNL A   1      47.305  29.168  27.297  1.00  0.00     0.037 A 
ATOM     52  C   UNL A   1      40.851  27.660  29.512  1.00  0.00     0.037 A 
ATOM     53  C   UNL A   1      47.537  28.804  28.676  1.00  0.00     0.049 A 
ATOM     54  C   UNL A   1      41.885  28.567  30.081  1.00  0.00     0.074 A 
ATOM     55  C   UNL A   1      48.264  27.813  29.308  1.00  0.00     0.029 A 
ATOM     56  N   UNL A   1      46.654  29.274  29.618  1.00  0.00    -0.354 N 
ATOM     57  N   UNL A   1      42.672  28.232  31.065  1.00  0.00    -0.248 NA
ATOM     58  C   UNL A   1      42.364  29.655  29.241  1.00  0.00     0.031 C 
ATOM     59  C   UNL A   1      47.466  27.418  30.422  1.00  0.00     0.029 A 
ATOM     60  C   UNL A   1      46.338  28.238  30.455  1.00  0.00     0.049 A 
ATOM     61  H   UNL A   1      46.309  30.194  29.679  1.00  0.00     0.167 HD
ATOM     62  C   UNL A   1      43.914  28.732  30.702  1.00  0.00     0.074 A 
ATOM     63  C   UNL A   1      43.648  29.664  29.609  1.00  0.00     0.031 C 
ATOM     64  C   UNL A   1      45.061  28.116  31.114  1.00  0.00     0.037 A 
BRANCH  51  65
ATOM     65  C   UNL A   1      47.170  30.605  26.852  1.00  0.00     0.064 A 
ATOM     66  C   UNL A   1      48.296  31.444  26.955  1.00  0.00     0.173 A 
ATOM     67  C   UNL A   1      45.936  31.268  26.654  1.00  0.00     0.173 A 
ATOM     68  F   UNL A   1      49.516  30.923  27.155  1.00  0.00    -0.203 F 
ATOM     69  C   UNL A   1      48.179  32.835  26.971  1.00  0.00     0.198 A 
ATOM     70  C   UNL A   1      45.831  32.655  26.617  1.00  0.00     0.198 A 
ATOM     71  F   UNL A   1      44.765  30.625  26.608  1.00  0.00    -0.203 F 
ATOM     72  F   UNL A   1      49.258  33.587  27.223  1.00  0.00    -0.200 F 
ATOM     73  C   UNL A   1      46.946  33.439  26.814  1.00  0.00     0.200 A 
ATOM     74  F   UNL A   1      44.622  33.218  26.482  1.00  0.00    -0.200 F 
ATOM     75  F   UNL A   1      46.820  34.769  26.904  1.00  0.00    -0.200 F 
ENDBRANCH  51  65
BRANCH  52  76
ATOM     76  C   UNL A   1      39.437  28.085  29.347  1.00  0.00     0.064 A 
ATOM     77  C   UNL A   1      38.590  28.219  30.463  1.00  0.00     0.173 A 
ATOM     78  C   UNL A   1      38.970  28.648  28.144  1.00  0.00     0.173 A 
ATOM     79  F   UNL A   1      38.972  27.751  31.660  1.00  0.00    -0.203 F 
ATOM     80  C   UNL A   1      37.373  28.907  30.385  1.00  0.00     0.198 A 
ATOM     81  C   UNL A   1      37.752  29.327  28.066  1.00  0.00     0.198 A 
ATOM     82  F   UNL A   1      39.727  28.643  27.038  1.00  0.00    -0.203 F 
ATOM     83  F   UNL A   1      36.628  29.075  31.488  1.00  0.00    -0.200 F 
ATOM     84  C   UNL A   1      36.961  29.471  29.190  1.00  0.00     0.200 A 
ATOM     85  F   UNL A   1      37.384  29.899  26.911  1.00  0.00    -0.200 F 
ATOM     86  F   UNL A   1      35.830  30.186  29.130  1.00  0.00    -0.200 F 
ENDBRANCH  52  76
BRANCH  64  87
ATOM     87  C   UNL A   1      44.950  27.078  32.195  1.00  0.00     0.064 A 
ATOM     88  C   UNL A   1      44.674  25.719  31.967  1.00  0.00     0.173 A 
ATOM     89  C   UNL A   1      45.270  27.462  33.504  1.00  0.00     0.173 A 
ATOM     90  F   UNL A   1      44.457  25.256  30.729  1.00  0.00    -0.203 F 
ATOM     91  C   UNL A   1      44.671  24.798  33.015  1.00  0.00     0.198 A 
ATOM     92  C   UNL A   1      45.306  26.534  34.541  1.00  0.00     0.198 A 
ATOM     93  F   UNL A   1      45.595  28.736  33.770  1.00  0.00    -0.203 F 
ATOM     94  F   UNL A   1      44.389  23.509  32.778  1.00  0.00    -0.200 F 
ATOM     95  C   UNL A   1      44.995  25.206  34.299  1.00  0.00     0.200 A 
ATOM     96  F   UNL A   1      45.667  26.926  35.770  1.00  0.00    -0.200 F 
ATOM     97  F   UNL A   1      45.032  24.316  35.300  1.00  0.00    -0.200 F 
ENDBRANCH  64  87
ENDBRANCH  38  39
ENDBRANCH  31  33
ENDBRANCH  30  31
ENDBRANCH  29  30
ENDBRANCH  28  29
ENDBRANCH  27  28
ENDBRANCH   1  27
TORSDOF 18
ENDMDL
MODEL 2
REMARK VINA RESULT:     -11.7      1.074      1.982
REMARK SMILES CC1=C[C@@H]([C@@H]2N=N[C@H](S)N2/N=C/c2ccc(C(=O)OCCOCCOC(=O)c3ccc(-c4c5nc(c(-c6c(F)c(F)c(F)c(F)c6F)c6ccc([nH]6)c(-c6c(F)c(F)c(F)c(F)c6F)c6nc(c(-c7c(F)c(F)c(F)c(F)c7F)c7ccc4[nH]7)C=C6)C=C5)cc3)cc2)N=N1
REMARK SMILES IDX 21 1 20 2 19 3 17 4 18 5 16 6 13 7 14 8 92 9 15 10 91 11
REMARK SMILES IDX 12 12 11 13 10 14 5 15 6 16 7 17 8 18 4 19 1 20 2 21 3 22
REMARK SMILES IDX 94 23 93 24 9 25 22 27 23 28 24 29 25 30 26 31 27 32 28 33
REMARK SMILES IDX 29 34 90 35 30 36 89 37 31 38 32 39 33 40 83 41 34 42 88 43
REMARK SMILES IDX 82 44 84 45 35 46 87 47 81 48 80 49 36 51 68 52 48 53 67 54
REMARK SMILES IDX 49 55 52 56 66 57 85 58 50 59 51 60 65 62 86 63 53 64 37 65
REMARK SMILES IDX 38 66 46 67 39 68 40 69 44 70 47 71 41 72 42 73 45 74 43 75
REMARK SMILES IDX 69 76 70 77 78 78 71 79 72 80 76 81 79 82 73 83 74 84 77 85
REMARK SMILES IDX 75 86 54 87 55 88 63 89 56 90 57 91 61 92 64 93 58 94 59 95
REMARK SMILES IDX 62 96 60 97
REMARK H PARENT 9 26 84 50 52 61
REMARK Flexibility Score: inf
ROOT
ATOM      1  C   UNL A   1      42.348  18.893  26.422  1.00  0.00     0.202 C 
ENDROOT
BRANCH   1   2
ATOM      2  C   UNL A   1      42.476  20.412  26.561  1.00  0.00     0.261 C 
BRANCH   2   3
ATOM      3  O   UNL A   1      41.353  21.124  26.017  1.00  0.00    -0.460 OA
BRANCH   3   4
ATOM      4  C   UNL A   1      40.423  21.474  26.939  1.00  0.00     0.338 C 
ATOM      5  O   UNL A   1      40.573  21.529  28.149  1.00  0.00    -0.246 OA
BRANCH   4   6
ATOM      6  C   UNL A   1      39.192  21.963  26.286  1.00  0.00     0.060 A 
ATOM      7  C   UNL A   1      37.046  22.829  24.749  1.00  0.00    -0.005 A 
ATOM      8  C   UNL A   1      37.426  21.487  24.696  1.00  0.00     0.010 A 
ATOM      9  C   UNL A   1      37.680  23.721  25.623  1.00  0.00     0.010 A 
ATOM     10  C   UNL A   1      38.512  21.060  25.455  1.00  0.00     0.016 A 
ATOM     11  C   UNL A   1      38.750  23.284  26.409  1.00  0.00     0.016 A 
BRANCH   7  12
ATOM     12  C   UNL A   1      36.028  23.289  23.788  1.00  0.00     0.141 C 
ATOM     13  N   UNL A   1      34.889  23.747  24.196  1.00  0.00    -0.180 NA
BRANCH  13  14
ATOM     14  N   UNL A   1      34.009  24.204  23.276  1.00  0.00    -0.233 NA
ATOM     15  C   UNL A   1      34.034  25.609  22.861  1.00  0.00     0.274 C 
ATOM     16  N   UNL A   1      33.371  25.704  21.536  1.00  0.00    -0.161 NA
ATOM     17  N   UNL A   1      33.030  24.564  21.136  1.00  0.00    -0.153 NA
ATOM     18  C   UNL A   1      33.401  23.533  22.130  1.00  0.00     0.298 C 
BRANCH  15  19
ATOM     19  C   UNL A   1      33.334  26.517  23.899  1.00  0.00     0.201 C 
ATOM     20  C   UNL A   1      29.646  26.749  24.154  1.00  0.00     0.068 C 
ATOM     21  C   UNL A   1      31.117  26.878  24.003  1.00  0.00     0.058 C 
ATOM     22  C   UNL A   1      32.031  25.996  24.398  1.00  0.00     0.031 C 
ATOM     23  N   UNL A   1      31.672  27.953  23.356  1.00  0.00    -0.160 NA
ATOM     24  N   UNL A   1      32.928  27.817  23.281  1.00  0.00    -0.177 NA
ENDBRANCH  15  19
BRANCH  18  25
ATOM     25  S   UNL A   1      32.002  22.507  22.708  1.00  0.00    -0.128 SA
ATOM     26  H   UNL A   1      30.829  23.089  22.336  1.00  0.00     0.106 HD
ENDBRANCH  18  25
ENDBRANCH  13  14
ENDBRANCH   7  12
ENDBRANCH   4   6
ENDBRANCH   3   4
ENDBRANCH   2   3
ENDBRANCH   1   2
BRANCH   1  27
ATOM     27  O   UNL A   1      43.357  18.188  25.703  1.00  0.00    -0.374 OA
BRANCH  27  28
ATOM     28  C   UNL A   1      44.726  18.355  26.050  1.00  0.00     0.202 C 
BRANCH  28  29
ATOM     29  C   UNL A   1      45.687  18.861  24.985  1.00  0.00     0.261 C 
BRANCH  29  30
ATOM     30  O   UNL A   1      45.903  20.262  25.067  1.00  0.00    -0.460 OA
BRANCH  30  31
ATOM     31  C   UNL A   1      45.106  20.978  24.239  1.00  0.00     0.338 C 
ATOM     32  O   UNL A   1      44.560  20.597  23.222  1.00  0.00    -0.246 OA
BRANCH  31  33
ATOM     33  C   UNL A   1      45.156  22.382  24.657  1.00  0.00     0.060 A 
ATOM     34  C   UNL A   1      46.027  22.674  25.708  1.00  0.00     0.016 A 
ATOM     35  C   UNL A   1      44.148  23.268  24.251  1.00  0.00     0.016 A 
ATOM     36  C   UNL A   1      45.735  23.754  26.504  1.00  0.00     0.010 A 
ATOM     37  C   UNL A   1      43.849  24.338  25.056  1.00  0.00     0.010 A 
ATOM     38  C   UNL A   1      44.593  24.512  26.217  1.00  0.00    -0.014 A 
BRANCH  38  39
ATOM     39  C   UNL A   1      44.280  25.612  27.099  1.00  0.00     0.031 A 
ATOM     40  C   UNL A   1      45.306  26.671  27.024  1.00  0.00     0.074 A 
ATOM     41  C   UNL A   1      43.150  25.672  27.826  1.00  0.00     0.049 A 
ATOM     42  N   UNL A   1      46.174  26.968  27.930  1.00  0.00    -0.248 NA
ATOM     43  C   UNL A   1      45.541  27.318  25.723  1.00  0.00     0.031 C 
ATOM     44  C   UNL A   1      41.986  24.788  27.775  1.00  0.00     0.029 A 
ATOM     45  N   UNL A   1      42.775  26.618  28.729  1.00  0.00    -0.354 N 
ATOM     46  C   UNL A   1      46.920  28.007  27.391  1.00  0.00     0.074 A 
ATOM     47  C   UNL A   1      46.643  28.023  25.981  1.00  0.00     0.031 C 
ATOM     48  C   UNL A   1      40.956  25.371  28.432  1.00  0.00     0.029 A 
ATOM     49  C   UNL A   1      41.423  26.600  29.052  1.00  0.00     0.049 A 
ATOM     50  H   UNL A   1      43.408  27.262  29.121  1.00  0.00     0.167 HD
ATOM     51  C   UNL A   1      47.437  28.960  28.212  1.00  0.00     0.037 A 
ATOM     52  C   UNL A   1      40.752  27.582  29.708  1.00  0.00     0.037 A 
ATOM     53  C   UNL A   1      47.526  28.474  29.570  1.00  0.00     0.049 A 
ATOM     54  C   UNL A   1      41.764  28.389  30.442  1.00  0.00     0.074 A 
ATOM     55  C   UNL A   1      48.152  27.402  30.177  1.00  0.00     0.029 A 
ATOM     56  N   UNL A   1      46.579  28.907  30.466  1.00  0.00    -0.354 N 
ATOM     57  N   UNL A   1      42.442  27.939  31.460  1.00  0.00    -0.248 NA
ATOM     58  C   UNL A   1      42.360  29.519  29.743  1.00  0.00     0.031 C 
ATOM     59  C   UNL A   1      47.239  26.955  31.178  1.00  0.00     0.029 A 
ATOM     60  C   UNL A   1      46.146  27.822  31.181  1.00  0.00     0.049 A 
ATOM     61  H   UNL A   1      46.267  29.834  30.575  1.00  0.00     0.167 HD
ATOM     62  C   UNL A   1      43.731  28.407  31.253  1.00  0.00     0.074 A 
ATOM     63  C   UNL A   1      43.604  29.437  30.224  1.00  0.00     0.031 C 
ATOM     64  C   UNL A   1      44.810  27.707  31.711  1.00  0.00     0.037 A 
BRANCH  51  65
ATOM     65  C   UNL A   1      47.401  30.433  27.881  1.00  0.00     0.064 A 
ATOM     66  C   UNL A   1      46.173  30.999  27.488  1.00  0.00     0.173 A 
ATOM     67  C   UNL A   1      48.545  31.219  27.611  1.00  0.00     0.173 A 
ATOM     68  F   UNL A   1      45.024  30.335  27.685  1.00  0.00    -0.203 F 
ATOM     69  C   UNL A   1      46.109  32.201  26.781  1.00  0.00     0.198 A 
ATOM     70  C   UNL A   1      48.472  32.444  26.954  1.00  0.00     0.198 A 
ATOM     71  F   UNL A   1      49.791  30.798  27.855  1.00  0.00    -0.203 F 
ATOM     72  F   UNL A   1      44.934  32.622  26.297  1.00  0.00    -0.200 F 
ATOM     73  C   UNL A   1      47.259  32.916  26.505  1.00  0.00     0.200 A 
ATOM     74  F   UNL A   1      49.602  33.110  26.681  1.00  0.00    -0.200 F 
ATOM     75  F   UNL A   1      47.209  34.030  25.763  1.00  0.00    -0.200 F 
ENDBRANCH  51  65
BRANCH  52  76
ATOM     76  C   UNL A   1      39.377  28.085  29.454  1.00  0.00     0.064 A 
ATOM     77  C   UNL A   1      38.470  28.269  30.514  1.00  0.00     0.173 A 
ATOM     78  C   UNL A   1      39.019  28.671  28.225  1.00  0.00     0.173 A 
ATOM     79  F   UNL A   1      38.749  27.783  31.733  1.00  0.00    -0.203 F 
ATOM     80  C   UNL A   1      37.300  29.023  30.362  1.00  0.00     0.198 A 
ATOM     81  C   UNL A   1      37.848  29.416  28.072  1.00  0.00     0.198 A 
ATOM     82  F   UNL A   1      39.843  28.621  27.169  1.00  0.00    -0.203 F 
ATOM     83  F   UNL A   1      36.498  29.236  31.415  1.00  0.00    -0.200 F 
ATOM     84  C   UNL A   1      36.998  29.607  29.143  1.00  0.00     0.200 A 
ATOM     85  F   UNL A   1      37.586  30.006  26.896  1.00  0.00    -0.200 F 
ATOM     86  F   UNL A   1      35.914  30.385  29.013  1.00  0.00    -0.200 F 
ENDBRANCH  52  76
BRANCH  64  87
ATOM     87  C   UNL A   1      44.559  26.591  32.685  1.00  0.00     0.064 A 
ATOM     88  C   UNL A   1      44.379  26.768  34.067  1.00  0.00     0.173 A 
ATOM     89  C   UNL A   1      44.362  25.304  32.168  1.00  0.00     0.173 A 
ATOM     90  F   UNL A   1      44.451  27.985  34.624  1.00  0.00    -0.203 F 
ATOM     91  C   UNL A   1      44.064  25.693  34.898  1.00  0.00     0.198 A 
ATOM     92  C   UNL A   1      44.009  24.240  32.992  1.00  0.00     0.198 A 
ATOM     93  F   UNL A   1      44.468  25.086  30.848  1.00  0.00    -0.203 F 
ATOM     94  F   UNL A   1      43.912  25.881  36.217  1.00  0.00    -0.200 F 
ATOM     95  C   UNL A   1      43.871  24.431  34.357  1.00  0.00     0.200 A 
ATOM     96  F   UNL A   1      43.777  23.033  32.457  1.00  0.00    -0.200 F 
ATOM     97  F   UNL A   1      43.530  23.404  35.147  1.00  0.00    -0.200 F 
ENDBRANCH  64  87
ENDBRANCH  38  39
ENDBRANCH  31  33
ENDBRANCH  30  31
ENDBRANCH  29  30
ENDBRANCH  28  29
ENDBRANCH  27  28
ENDBRANCH   1  27
TORSDOF 18
ENDMDL
MODEL 3
REMARK VINA RESULT:     -11.5      5.288     10.567
REMARK SMILES CC1=C[C@@H]([C@@H]2N=N[C@H](S)N2/N=C/c2ccc(C(=O)OCCOCCOC(=O)c3ccc(-c4c5nc(c(-c6c(F)c(F)c(F)c(F)c6F)c6ccc([nH]6)c(-c6c(F)c(F)c(F)c(F)c6F)c6nc(c(-c7c(F)c(F)c(F)c(F)c7F)c7ccc4[nH]7)C=C6)C=C5)cc3)cc2)N=N1
REMARK SMILES IDX 21 1 20 2 19 3 17 4 18 5 16 6 13 7 14 8 92 9 15 10 91 11
REMARK SMILES IDX 12 12 11 13 10 14 5 15 6 16 7 17 8 18 4 19 1 20 2 21 3 22
REMARK SMILES IDX 94 23 93 24 9 25 22 27 23 28 24 29 25 30 26 31 27 32 28 33
REMARK SMILES IDX 29 34 90 35 30 36 89 37 31 38 32 39 33 40 83 41 34 42 88 43
REMARK SMILES IDX 82 44 84 45 35 46 87 47 81 48 80 49 36 51 68 52 48 53 67 54
REMARK SMILES IDX 49 55 52 56 66 57 85 58 50 59 51 60 65 62 86 63 53 64 37 65
REMARK SMILES IDX 38 66 46 67 39 68 40 69 44 70 47 71 41 72 42 73 45 74 43 75
REMARK SMILES IDX 69 76 70 77 78 78 71 79 72 80 76 81 79 82 73 83 74 84 77 85
REMARK SMILES IDX 75 86 54 87 55 88 63 89 56 90 57 91 61 92 64 93 58 94 59 95
REMARK SMILES IDX 62 96 60 97
REMARK H PARENT 9 26 84 50 52 61
REMARK Flexibility Score: inf
ROOT
ATOM      1  C   UNL A   1      32.695  35.702  29.042  1.00  0.00     0.202 C 
ENDROOT
BRANCH   1   2
ATOM      2  C   UNL A   1      33.948  34.823  29.044  1.00  0.00     0.261 C 
BRANCH   2   3
ATOM      3  O   UNL A   1      33.671  33.445  28.743  1.00  0.00    -0.460 OA
BRANCH   3   4
ATOM      4  C   UNL A   1      34.596  32.858  27.946  1.00  0.00     0.338 C 
ATOM      5  O   UNL A   1      35.685  33.307  27.631  1.00  0.00    -0.246 OA
BRANCH   4   6
ATOM      6  C   UNL A   1      34.199  31.475  27.609  1.00  0.00     0.060 A 
ATOM      7  C   UNL A   1      33.665  28.907  26.696  1.00  0.00    -0.005 A 
ATOM      8  C   UNL A   1      34.944  29.214  27.162  1.00  0.00     0.010 A 
ATOM      9  C   UNL A   1      32.633  29.851  26.757  1.00  0.00     0.010 A 
ATOM     10  C   UNL A   1      35.213  30.506  27.604  1.00  0.00     0.016 A 
ATOM     11  C   UNL A   1      32.895  31.140  27.231  1.00  0.00     0.016 A 
BRANCH   7  12
ATOM     12  C   UNL A   1      33.469  27.596  26.052  1.00  0.00     0.141 C 
ATOM     13  N   UNL A   1      33.860  27.388  24.837  1.00  0.00    -0.180 NA
BRANCH  13  14
ATOM     14  N   UNL A   1      33.703  26.152  24.310  1.00  0.00    -0.233 NA
ATOM     15  C   UNL A   1      33.342  25.989  22.898  1.00  0.00     0.274 C 
ATOM     16  N   UNL A   1      33.745  24.623  22.482  1.00  0.00    -0.161 NA
ATOM     17  N   UNL A   1      34.315  24.027  23.428  1.00  0.00    -0.153 NA
ATOM     18  C   UNL A   1      34.374  24.895  24.625  1.00  0.00     0.298 C 
BRANCH  15  19
ATOM     19  C   UNL A   1      31.830  26.216  22.672  1.00  0.00     0.201 C 
ATOM     20  C   UNL A   1      30.123  29.339  23.700  1.00  0.00     0.068 C 
ATOM     21  C   UNL A   1      30.667  27.984  23.433  1.00  0.00     0.058 C 
ATOM     22  C   UNL A   1      31.448  27.633  22.415  1.00  0.00     0.031 C 
ATOM     23  N   UNL A   1      30.436  26.945  24.299  1.00  0.00    -0.160 NA
ATOM     24  N   UNL A   1      31.054  25.909  23.913  1.00  0.00    -0.177 NA
ENDBRANCH  15  19
BRANCH  18  25
ATOM     25  S   UNL A   1      33.613  24.167  26.120  1.00  0.00    -0.128 SA
ATOM     26  H   UNL A   1      32.275  24.019  25.921  1.00  0.00     0.106 HD
ENDBRANCH  18  25
ENDBRANCH  13  14
ENDBRANCH   7  12
ENDBRANCH   4   6
ENDBRANCH   3   4
ENDBRANCH   2   3
ENDBRANCH   1   2
BRANCH   1  27
ATOM     27  O   UNL A   1      32.560  36.696  30.056  1.00  0.00    -0.374 OA
BRANCH  27  28
ATOM     28  C   UNL A   1      33.666  37.013  30.893  1.00  0.00     0.202 C 
BRANCH  28  29
ATOM     29  C   UNL A   1      33.397  37.343  32.353  1.00  0.00     0.261 C 
BRANCH  29  30
ATOM     30  O   UNL A   1      33.977  36.401  33.241  1.00  0.00    -0.460 OA
BRANCH  30  31
ATOM     31  C   UNL A   1      33.722  35.115  32.903  1.00  0.00     0.338 C 
ATOM     32  O   UNL A   1      32.663  34.640  32.541  1.00  0.00    -0.246 OA
BRANCH  31  33
ATOM     33  C   UNL A   1      34.901  34.311  33.235  1.00  0.00     0.060 A 
ATOM     34  C   UNL A   1      36.115  34.999  33.278  1.00  0.00     0.016 A 
ATOM     35  C   UNL A   1      34.835  32.912  33.167  1.00  0.00     0.016 A 
ATOM     36  C   UNL A   1      37.264  34.293  33.015  1.00  0.00     0.010 A 
ATOM     37  C   UNL A   1      35.982  32.211  32.890  1.00  0.00     0.010 A 
ATOM     38  C   UNL A   1      37.163  32.926  32.732  1.00  0.00    -0.014 A 
BRANCH  38  39
ATOM     39  C   UNL A   1      38.380  32.218  32.410  1.00  0.00     0.031 A 
ATOM     40  C   UNL A   1      39.189  31.959  33.617  1.00  0.00     0.074 A 
ATOM     41  C   UNL A   1      38.675  31.791  31.169  1.00  0.00     0.049 A 
ATOM     42  N   UNL A   1      40.304  32.524  33.933  1.00  0.00    -0.248 NA
ATOM     43  C   UNL A   1      38.589  31.157  34.695  1.00  0.00     0.031 C 
ATOM     44  C   UNL A   1      37.825  31.797  29.977  1.00  0.00     0.029 A 
ATOM     45  N   UNL A   1      39.805  31.172  30.733  1.00  0.00    -0.354 N 
ATOM     46  C   UNL A   1      40.660  31.968  35.153  1.00  0.00     0.074 A 
ATOM     47  C   UNL A   1      39.485  31.322  35.669  1.00  0.00     0.031 C 
ATOM     48  C   UNL A   1      38.382  31.006  29.030  1.00  0.00     0.029 A 
ATOM     49  C   UNL A   1      39.678  30.544  29.499  1.00  0.00     0.049 A 
ATOM     50  H   UNL A   1      40.644  31.169  31.249  1.00  0.00     0.167 HD
ATOM     51  C   UNL A   1      41.975  31.812  35.463  1.00  0.00     0.037 A 
ATOM     52  C   UNL A   1      40.553  29.650  28.972  1.00  0.00     0.037 A 
ATOM     53  C   UNL A   1      42.799  32.691  34.665  1.00  0.00     0.049 A 
ATOM     54  C   UNL A   1      41.855  29.849  29.664  1.00  0.00     0.074 A 
ATOM     55  C   UNL A   1      42.853  34.059  34.474  1.00  0.00     0.029 A 
ATOM     56  N   UNL A   1      43.483  32.141  33.608  1.00  0.00    -0.354 N 
ATOM     57  N   UNL A   1      42.592  30.914  29.517  1.00  0.00    -0.248 NA
ATOM     58  C   UNL A   1      42.095  29.087  30.881  1.00  0.00     0.031 C 
ATOM     59  C   UNL A   1      43.142  34.231  33.088  1.00  0.00     0.029 A 
ATOM     60  C   UNL A   1      43.325  32.967  32.527  1.00  0.00     0.049 A 
ATOM     61  H   UNL A   1      43.995  31.302  33.626  1.00  0.00     0.167 HD
ATOM     62  C   UNL A   1      43.043  31.205  30.796  1.00  0.00     0.074 A 
ATOM     63  C   UNL A   1      42.769  30.003  31.581  1.00  0.00     0.031 C 
ATOM     64  C   UNL A   1      43.311  32.492  31.166  1.00  0.00     0.037 A 
BRANCH  51  65
ATOM     65  C   UNL A   1      42.521  30.561  36.111  1.00  0.00     0.064 A 
ATOM     66  C   UNL A   1      43.486  30.703  37.127  1.00  0.00     0.173 A 
ATOM     67  C   UNL A   1      42.399  29.261  35.568  1.00  0.00     0.173 A 
ATOM     68  F   UNL A   1      43.695  31.896  37.705  1.00  0.00    -0.203 F 
ATOM     69  C   UNL A   1      44.335  29.655  37.488  1.00  0.00     0.198 A 
ATOM     70  C   UNL A   1      43.211  28.204  35.970  1.00  0.00     0.198 A 
ATOM     71  F   UNL A   1      41.582  28.973  34.549  1.00  0.00    -0.203 F 
ATOM     72  F   UNL A   1      45.335  29.880  38.349  1.00  0.00    -0.200 F 
ATOM     73  C   UNL A   1      44.204  28.410  36.901  1.00  0.00     0.200 A 
ATOM     74  F   UNL A   1      43.078  27.012  35.373  1.00  0.00    -0.200 F 
ATOM     75  F   UNL A   1      45.063  27.425  37.190  1.00  0.00    -0.200 F 
ENDBRANCH  51  65
BRANCH  52  76
ATOM     76  C   UNL A   1      40.255  28.418  28.196  1.00  0.00     0.064 A 
ATOM     77  C   UNL A   1      40.871  28.181  26.954  1.00  0.00     0.173 A 
ATOM     78  C   UNL A   1      39.597  27.318  28.781  1.00  0.00     0.173 A 
ATOM     79  F   UNL A   1      41.558  29.159  26.344  1.00  0.00    -0.203 F 
ATOM     80  C   UNL A   1      40.862  26.916  26.355  1.00  0.00     0.198 A 
ATOM     81  C   UNL A   1      39.581  26.058  28.178  1.00  0.00     0.198 A 
ATOM     82  F   UNL A   1      39.039  27.411  29.995  1.00  0.00    -0.203 F 
ATOM     83  F   UNL A   1      41.523  26.713  25.206  1.00  0.00    -0.200 F 
ATOM     84  C   UNL A   1      40.228  25.852  26.974  1.00  0.00     0.200 A 
ATOM     85  F   UNL A   1      38.995  25.030  28.807  1.00  0.00    -0.200 F 
ATOM     86  F   UNL A   1      40.274  24.626  26.437  1.00  0.00    -0.200 F 
ENDBRANCH  52  76
BRANCH  64  87
ATOM     87  C   UNL A   1      43.390  33.530  30.083  1.00  0.00     0.064 A 
ATOM     88  C   UNL A   1      44.529  33.772  29.296  1.00  0.00     0.173 A 
ATOM     89  C   UNL A   1      42.215  34.214  29.746  1.00  0.00     0.173 A 
ATOM     90  F   UNL A   1      45.663  33.086  29.490  1.00  0.00    -0.203 F 
ATOM     91  C   UNL A   1      44.500  34.695  28.250  1.00  0.00     0.198 A 
ATOM     92  C   UNL A   1      42.177  35.104  28.677  1.00  0.00     0.198 A 
ATOM     93  F   UNL A   1      41.083  33.982  30.429  1.00  0.00    -0.203 F 
ATOM     94  F   UNL A   1      45.603  34.923  27.521  1.00  0.00    -0.200 F 
ATOM     95  C   UNL A   1      43.322  35.354  27.937  1.00  0.00     0.200 A 
ATOM     96  F   UNL A   1      41.023  35.701  28.350  1.00  0.00    -0.200 F 
ATOM     97  F   UNL A   1      43.281  36.211  26.908  1.00  0.00    -0.200 F 
ENDBRANCH  64  87
ENDBRANCH  38  39
ENDBRANCH  31  33
ENDBRANCH  30  31
ENDBRANCH  29  30
ENDBRANCH  28  29
ENDBRANCH  27  28
ENDBRANCH   1  27
TORSDOF 18
ENDMDL
