MODEL 1
REMARK VINA RESULT:     -10.9      0.000      0.000
REMARK SMILES C[NH2+][C@@]1(C(=O)OCCOCCOC(=O)c2ccc(-c3c4nc(c(-c5c(F)c(F)c(F)c(F)c5F)c5ccc([nH]5)c(-c5c(F)c(F)c(F)c(F)c5F)c5nc(c(-c6c(F)c(F)c(F)c(F)c6F)c6ccc3[nH]6)C=C5)C=C4)cc2)CCC[C@H]([N@H+](C)C2CC[NH+](C)CC2)C1
REMARK SMILES IDX 9 1 8 2 7 3 6 4 4 5 5 6 3 7 78 8 91 9 79 10 81 11 80 12 2 13
REMARK SMILES IDX 1 14 82 17 83 18 84 20 85 21 90 22 86 23 89 24 87 25 88 26
REMARK SMILES IDX 10 28 11 29 12 30 13 31 14 32 15 33 16 34 77 35 17 36 76 37
REMARK SMILES IDX 18 38 19 39 20 40 70 41 21 42 75 43 69 44 71 45 22 46 74 47
REMARK SMILES IDX 68 48 67 49 23 51 55 52 35 53 54 54 36 55 39 56 53 57 72 58
REMARK SMILES IDX 37 59 38 60 52 62 73 63 40 64 24 65 25 66 33 67 26 68 27 69
REMARK SMILES IDX 31 70 34 71 28 72 29 73 32 74 30 75 56 76 57 77 65 78 58 79
REMARK SMILES IDX 59 80 63 81 66 82 60 83 61 84 64 85 62 86 41 87 42 88 50 89
REMARK SMILES IDX 43 90 44 91 48 92 51 93 45 94 46 95 49 96 47 97
REMARK H PARENT 2 15 2 16 82 19 87 27 71 50 39 61
REMARK Flexibility Score: inf
ROOT
ATOM      1  O   UNL A   1      32.436  30.700  26.364  1.00  0.00    -0.374 OA
ENDROOT
BRANCH   1   2
ATOM      2  C   UNL A   1      32.340  29.589  27.261  1.00  0.00     0.202 C 
BRANCH   2   3
ATOM      3  C   UNL A   1      33.426  28.536  27.032  1.00  0.00     0.261 C 
BRANCH   3   4
ATOM      4  O   UNL A   1      33.475  28.203  25.635  1.00  0.00    -0.459 OA
BRANCH   4   5
ATOM      5  C   UNL A   1      32.911  27.014  25.284  1.00  0.00     0.368 C 
ATOM      6  O   UNL A   1      33.194  25.947  25.822  1.00  0.00    -0.245 OA
BRANCH   5   7
ATOM      7  C   UNL A   1      31.721  27.228  24.277  1.00  0.00     0.199 C 
ATOM      8  C   UNL A   1      30.399  26.871  24.990  1.00  0.00     0.081 C 
ATOM      9  C   UNL A   1      31.862  26.398  22.972  1.00  0.00     0.146 C 
ATOM     10  C   UNL A   1      30.208  25.370  25.164  1.00  0.00     0.013 C 
ATOM     11  C   UNL A   1      31.642  24.855  23.096  1.00  0.00     0.190 C 
ATOM     12  C   UNL A   1      30.318  24.634  23.834  1.00  0.00     0.065 C 
BRANCH   7  13
ATOM     13  N   UNL A   1      31.794  28.688  23.940  1.00  0.00    -0.334 N 
ATOM     14  C   UNL A   1      30.572  29.319  23.470  1.00  0.00     0.331 C 
ATOM     15  H   UNL A   1      32.092  29.184  24.779  1.00  0.00     0.347 HD
ATOM     16  H   UNL A   1      32.440  28.747  23.153  1.00  0.00     0.347 HD
ENDBRANCH   7  13
BRANCH  11  17
ATOM     17  N   UNL A   1      32.901  24.198  23.537  1.00  0.00    -0.332 N 
ATOM     18  C   UNL A   1      33.974  24.736  22.652  1.00  0.00     0.333 C 
ATOM     19  H   UNL A   1      32.965  24.415  24.532  1.00  0.00     0.348 HD
BRANCH  17  20
ATOM     20  C   UNL A   1      33.006  22.699  23.520  1.00  0.00     0.195 C 
ATOM     21  C   UNL A   1      32.058  21.877  24.417  1.00  0.00     0.126 C 
ATOM     22  C   UNL A   1      34.406  22.214  23.997  1.00  0.00     0.126 C 
ATOM     23  C   UNL A   1      32.299  22.120  25.906  1.00  0.00     0.268 C 
ATOM     24  C   UNL A   1      34.637  22.498  25.486  1.00  0.00     0.268 C 
ATOM     25  N   UNL A   1      33.668  21.753  26.298  1.00  0.00    -0.337 N 
ATOM     26  C   UNL A   1      33.851  22.019  27.726  1.00  0.00     0.332 C 
ATOM     27  H   UNL A   1      33.821  20.758  26.133  1.00  0.00     0.347 HD
ENDBRANCH  17  20
ENDBRANCH  11  17
ENDBRANCH   5   7
ENDBRANCH   4   5
ENDBRANCH   3   4
ENDBRANCH   2   3
ENDBRANCH   1   2
BRANCH   1  28
ATOM     28  C   UNL A   1      31.411  31.684  26.495  1.00  0.00     0.202 C 
BRANCH  28  29
ATOM     29  C   UNL A   1      31.936  33.079  26.843  1.00  0.00     0.261 C 
BRANCH  29  30
ATOM     30  O   UNL A   1      32.797  33.070  27.997  1.00  0.00    -0.460 OA
BRANCH  30  31
ATOM     31  C   UNL A   1      33.918  33.827  27.907  1.00  0.00     0.338 C 
ATOM     32  O   UNL A   1      33.985  35.007  27.602  1.00  0.00    -0.246 OA
BRANCH  31  33
ATOM     33  C   UNL A   1      35.100  33.040  28.335  1.00  0.00     0.060 A 
ATOM     34  C   UNL A   1      34.903  31.722  28.764  1.00  0.00     0.016 A 
ATOM     35  C   UNL A   1      36.387  33.588  28.351  1.00  0.00     0.016 A 
ATOM     36  C   UNL A   1      35.979  30.962  29.237  1.00  0.00     0.010 A 
ATOM     37  C   UNL A   1      37.468  32.815  28.795  1.00  0.00     0.010 A 
ATOM     38  C   UNL A   1      37.271  31.506  29.279  1.00  0.00    -0.014 A 
BRANCH  38  39
ATOM     39  C   UNL A   1      38.381  30.791  29.975  1.00  0.00     0.031 A 
ATOM     40  C   UNL A   1      38.664  31.132  31.416  1.00  0.00     0.074 A 
ATOM     41  C   UNL A   1      39.139  29.855  29.368  1.00  0.00     0.049 A 
ATOM     42  N   UNL A   1      39.590  30.667  32.217  1.00  0.00    -0.248 NA
ATOM     43  C   UNL A   1      37.787  32.137  32.036  1.00  0.00     0.031 C 
ATOM     44  C   UNL A   1      38.978  29.389  27.996  1.00  0.00     0.029 A 
ATOM     45  N   UNL A   1      40.221  29.140  29.831  1.00  0.00    -0.354 N 
ATOM     46  C   UNL A   1      39.397  31.315  33.429  1.00  0.00     0.074 A 
ATOM     47  C   UNL A   1      38.324  32.265  33.237  1.00  0.00     0.031 C 
ATOM     48  C   UNL A   1      39.950  28.507  27.706  1.00  0.00     0.029 A 
ATOM     49  C   UNL A   1      40.797  28.329  28.881  1.00  0.00     0.049 A 
ATOM     50  H   UNL A   1      40.551  29.204  30.756  1.00  0.00     0.167 HD
ATOM     51  C   UNL A   1      40.019  31.109  34.614  1.00  0.00     0.037 A 
ATOM     52  C   UNL A   1      41.878  27.527  28.950  1.00  0.00     0.037 A 
ATOM     53  C   UNL A   1      41.071  30.155  34.829  1.00  0.00     0.049 A 
ATOM     54  C   UNL A   1      42.608  27.367  30.259  1.00  0.00     0.074 A 
ATOM     55  C   UNL A   1      41.727  29.847  36.008  1.00  0.00     0.029 A 
ATOM     56  N   UNL A   1      41.626  29.357  33.841  1.00  0.00    -0.354 N 
ATOM     57  N   UNL A   1      42.362  27.927  31.418  1.00  0.00    -0.248 NA
ATOM     58  C   UNL A   1      43.747  26.436  30.278  1.00  0.00     0.031 C 
ATOM     59  C   UNL A   1      42.711  28.895  35.725  1.00  0.00     0.029 A 
ATOM     60  C   UNL A   1      42.635  28.574  34.379  1.00  0.00     0.049 A 
ATOM     61  H   UNL A   1      41.345  29.346  32.898  1.00  0.00     0.167 HD
ATOM     62  C   UNL A   1      43.278  27.381  32.309  1.00  0.00     0.074 A 
ATOM     63  C   UNL A   1      44.088  26.446  31.559  1.00  0.00     0.031 C 
ATOM     64  C   UNL A   1      43.425  27.629  33.634  1.00  0.00     0.037 A 
BRANCH  51  65
ATOM     65  C   UNL A   1      39.556  31.934  35.777  1.00  0.00     0.064 A 
ATOM     66  C   UNL A   1      38.510  31.502  36.608  1.00  0.00     0.173 A 
ATOM     67  C   UNL A   1      40.164  33.162  36.068  1.00  0.00     0.173 A 
ATOM     68  F   UNL A   1      37.884  30.341  36.358  1.00  0.00    -0.203 F 
ATOM     69  C   UNL A   1      38.066  32.289  37.667  1.00  0.00     0.198 A 
ATOM     70  C   UNL A   1      39.739  33.931  37.148  1.00  0.00     0.198 A 
ATOM     71  F   UNL A   1      41.170  33.618  35.306  1.00  0.00    -0.203 F 
ATOM     72  F   UNL A   1      37.025  31.885  38.408  1.00  0.00    -0.200 F 
ATOM     73  C   UNL A   1      38.685  33.499  37.939  1.00  0.00     0.200 A 
ATOM     74  F   UNL A   1      40.343  35.096  37.417  1.00  0.00    -0.200 F 
ATOM     75  F   UNL A   1      38.256  34.256  38.958  1.00  0.00    -0.200 F 
ENDBRANCH  51  65
BRANCH  52  76
ATOM     76  C   UNL A   1      42.331  26.775  27.749  1.00  0.00     0.064 A 
ATOM     77  C   UNL A   1      41.861  25.480  27.487  1.00  0.00     0.173 A 
ATOM     78  C   UNL A   1      43.277  27.316  26.867  1.00  0.00     0.173 A 
ATOM     79  F   UNL A   1      40.978  24.908  28.319  1.00  0.00    -0.203 F 
ATOM     80  C   UNL A   1      42.342  24.744  26.407  1.00  0.00     0.198 A 
ATOM     81  C   UNL A   1      43.739  26.589  25.772  1.00  0.00     0.198 A 
ATOM     82  F   UNL A   1      43.763  28.549  27.078  1.00  0.00    -0.203 F 
ATOM     83  F   UNL A   1      41.920  23.487  26.215  1.00  0.00    -0.200 F 
ATOM     84  C   UNL A   1      43.279  25.300  25.548  1.00  0.00     0.200 A 
ATOM     85  F   UNL A   1      44.645  27.129  24.944  1.00  0.00    -0.200 F 
ATOM     86  F   UNL A   1      43.751  24.587  24.516  1.00  0.00    -0.200 F 
ENDBRANCH  52  76
BRANCH  64  87
ATOM     87  C   UNL A   1      44.464  26.844  34.380  1.00  0.00     0.064 A 
ATOM     88  C   UNL A   1      45.766  27.332  34.568  1.00  0.00     0.173 A 
ATOM     89  C   UNL A   1      44.134  25.612  34.968  1.00  0.00     0.173 A 
ATOM     90  F   UNL A   1      46.136  28.498  34.016  1.00  0.00    -0.203 F 
ATOM     91  C   UNL A   1      46.704  26.607  35.298  1.00  0.00     0.198 A 
ATOM     92  C   UNL A   1      45.065  24.904  35.722  1.00  0.00     0.198 A 
ATOM     93  F   UNL A   1      42.901  25.105  34.826  1.00  0.00    -0.203 F 
ATOM     94  F   UNL A   1      47.953  27.073  35.430  1.00  0.00    -0.200 F 
ATOM     95  C   UNL A   1      46.351  25.399  35.882  1.00  0.00     0.200 A 
ATOM     96  F   UNL A   1      44.717  23.745  36.298  1.00  0.00    -0.200 F 
ATOM     97  F   UNL A   1      47.251  24.709  36.595  1.00  0.00    -0.200 F 
ENDBRANCH  64  87
ENDBRANCH  38  39
ENDBRANCH  31  33
ENDBRANCH  30  31
ENDBRANCH  29  30
ENDBRANCH  28  29
ENDBRANCH   1  28
TORSDOF 17
ENDMDL
MODEL 2
REMARK VINA RESULT:     -10.8      0.213      1.941
REMARK SMILES C[NH2+][C@@]1(C(=O)OCCOCCOC(=O)c2ccc(-c3c4nc(c(-c5c(F)c(F)c(F)c(F)c5F)c5ccc([nH]5)c(-c5c(F)c(F)c(F)c(F)c5F)c5nc(c(-c6c(F)c(F)c(F)c(F)c6F)c6ccc3[nH]6)C=C5)C=C4)cc2)CCC[C@H]([N@H+](C)C2CC[NH+](C)CC2)C1
REMARK SMILES IDX 9 1 8 2 7 3 6 4 4 5 5 6 3 7 78 8 91 9 79 10 81 11 80 12 2 13
REMARK SMILES IDX 1 14 82 17 83 18 84 20 85 21 90 22 86 23 89 24 87 25 88 26
REMARK SMILES IDX 10 28 11 29 12 30 13 31 14 32 15 33 16 34 77 35 17 36 76 37
REMARK SMILES IDX 18 38 19 39 20 40 70 41 21 42 75 43 69 44 71 45 22 46 74 47
REMARK SMILES IDX 68 48 67 49 23 51 55 52 35 53 54 54 36 55 39 56 53 57 72 58
REMARK SMILES IDX 37 59 38 60 52 62 73 63 40 64 24 65 25 66 33 67 26 68 27 69
REMARK SMILES IDX 31 70 34 71 28 72 29 73 32 74 30 75 56 76 57 77 65 78 58 79
REMARK SMILES IDX 59 80 63 81 66 82 60 83 61 84 64 85 62 86 41 87 42 88 50 89
REMARK SMILES IDX 43 90 44 91 48 92 51 93 45 94 46 95 49 96 47 97
REMARK H PARENT 2 15 2 16 82 19 87 27 71 50 39 61
REMARK Flexibility Score: inf
ROOT
ATOM      1  O   UNL A   1      32.393  30.634  26.238  1.00  0.00    -0.374 OA
ENDROOT
BRANCH   1   2
ATOM      2  C   UNL A   1      32.625  29.613  27.212  1.00  0.00     0.202 C 
BRANCH   2   3
ATOM      3  C   UNL A   1      33.665  28.582  26.769  1.00  0.00     0.261 C 
BRANCH   3   4
ATOM      4  O   UNL A   1      33.405  28.205  25.407  1.00  0.00    -0.459 OA
BRANCH   4   5
ATOM      5  C   UNL A   1      32.667  27.074  25.231  1.00  0.00     0.368 C 
ATOM      6  O   UNL A   1      32.705  26.117  25.999  1.00  0.00    -0.245 OA
BRANCH   5   7
ATOM      7  C   UNL A   1      31.629  27.252  24.062  1.00  0.00     0.199 C 
ATOM      8  C   UNL A   1      30.228  26.867  24.582  1.00  0.00     0.081 C 
ATOM      9  C   UNL A   1      31.975  26.417  22.798  1.00  0.00     0.146 C 
ATOM     10  C   UNL A   1      30.049  25.362  24.742  1.00  0.00     0.013 C 
ATOM     11  C   UNL A   1      31.776  24.871  22.905  1.00  0.00     0.190 C 
ATOM     12  C   UNL A   1      30.365  24.621  23.449  1.00  0.00     0.065 C 
BRANCH   7  13
ATOM     13  N   UNL A   1      31.715  28.712  23.724  1.00  0.00    -0.334 N 
ATOM     14  C   UNL A   1      30.945  29.171  22.582  1.00  0.00     0.331 C 
ATOM     15  H   UNL A   1      31.398  29.236  24.539  1.00  0.00     0.347 HD
ATOM     16  H   UNL A   1      32.689  28.867  23.466  1.00  0.00     0.347 HD
ENDBRANCH   7  13
BRANCH  11  17
ATOM     17  N   UNL A   1      32.975  24.248  23.527  1.00  0.00    -0.332 N 
ATOM     18  C   UNL A   1      34.153  24.903  22.891  1.00  0.00     0.333 C 
ATOM     19  H   UNL A   1      32.845  24.394  24.529  1.00  0.00     0.348 HD
BRANCH  17  20
ATOM     20  C   UNL A   1      33.175  22.761  23.436  1.00  0.00     0.195 C 
ATOM     21  C   UNL A   1      32.209  21.832  24.200  1.00  0.00     0.126 C 
ATOM     22  C   UNL A   1      34.558  22.330  24.005  1.00  0.00     0.126 C 
ATOM     23  C   UNL A   1      32.309  21.997  25.716  1.00  0.00     0.268 C 
ATOM     24  C   UNL A   1      34.646  22.536  25.522  1.00  0.00     0.268 C 
ATOM     25  N   UNL A   1      33.661  21.688  26.204  1.00  0.00    -0.337 N 
ATOM     26  C   UNL A   1      33.708  21.876  27.655  1.00  0.00     0.332 C 
ATOM     27  H   UNL A   1      33.891  20.715  25.997  1.00  0.00     0.347 HD
ENDBRANCH  17  20
ENDBRANCH  11  17
ENDBRANCH   5   7
ENDBRANCH   4   5
ENDBRANCH   3   4
ENDBRANCH   2   3
ENDBRANCH   1   2
BRANCH   1  28
ATOM     28  C   UNL A   1      31.440  31.630  26.606  1.00  0.00     0.202 C 
BRANCH  28  29
ATOM     29  C   UNL A   1      32.049  33.017  26.822  1.00  0.00     0.261 C 
BRANCH  29  30
ATOM     30  O   UNL A   1      32.842  33.089  28.022  1.00  0.00    -0.460 OA
BRANCH  30  31
ATOM     31  C   UNL A   1      33.969  33.839  27.945  1.00  0.00     0.338 C 
ATOM     32  O   UNL A   1      34.047  35.018  27.639  1.00  0.00    -0.246 OA
BRANCH  31  33
ATOM     33  C   UNL A   1      35.141  33.046  28.390  1.00  0.00     0.060 A 
ATOM     34  C   UNL A   1      34.922  31.754  28.883  1.00  0.00     0.016 A 
ATOM     35  C   UNL A   1      36.439  33.564  28.358  1.00  0.00     0.016 A 
ATOM     36  C   UNL A   1      35.990  30.992  29.374  1.00  0.00     0.010 A 
ATOM     37  C   UNL A   1      37.511  32.788  28.820  1.00  0.00     0.010 A 
ATOM     38  C   UNL A   1      37.294  31.508  29.368  1.00  0.00    -0.014 A 
BRANCH  38  39
ATOM     39  C   UNL A   1      38.400  30.801  30.078  1.00  0.00     0.031 A 
ATOM     40  C   UNL A   1      38.673  31.156  31.518  1.00  0.00     0.074 A 
ATOM     41  C   UNL A   1      39.163  29.860  29.486  1.00  0.00     0.049 A 
ATOM     42  N   UNL A   1      39.594  30.701  32.329  1.00  0.00    -0.248 NA
ATOM     43  C   UNL A   1      37.791  32.168  32.122  1.00  0.00     0.031 C 
ATOM     44  C   UNL A   1      39.011  29.380  28.118  1.00  0.00     0.029 A 
ATOM     45  N   UNL A   1      40.242  29.150  29.963  1.00  0.00    -0.354 N 
ATOM     46  C   UNL A   1      39.393  31.360  33.534  1.00  0.00     0.074 A 
ATOM     47  C   UNL A   1      38.321  32.308  33.325  1.00  0.00     0.031 C 
ATOM     48  C   UNL A   1      39.985  28.496  27.842  1.00  0.00     0.029 A 
ATOM     49  C   UNL A   1      40.825  28.330  29.025  1.00  0.00     0.049 A 
ATOM     50  H   UNL A   1      40.566  29.224  30.889  1.00  0.00     0.167 HD
ATOM     51  C   UNL A   1      40.007  31.167  34.724  1.00  0.00     0.037 A 
ATOM     52  C   UNL A   1      41.906  27.530  29.109  1.00  0.00     0.037 A 
ATOM     53  C   UNL A   1      41.059  30.216  34.956  1.00  0.00     0.049 A 
ATOM     54  C   UNL A   1      42.627  27.384  30.424  1.00  0.00     0.074 A 
ATOM     55  C   UNL A   1      41.708  29.920  36.142  1.00  0.00     0.029 A 
ATOM     56  N   UNL A   1      41.621  29.408  33.980  1.00  0.00    -0.354 N 
ATOM     57  N   UNL A   1      42.373  27.955  31.576  1.00  0.00    -0.248 NA
ATOM     58  C   UNL A   1      43.767  26.454  30.460  1.00  0.00     0.031 C 
ATOM     59  C   UNL A   1      42.695  28.967  35.875  1.00  0.00     0.029 A 
ATOM     60  C   UNL A   1      42.627  28.632  34.532  1.00  0.00     0.049 A 
ATOM     61  H   UNL A   1      41.346  29.389  33.035  1.00  0.00     0.167 HD
ATOM     62  C   UNL A   1      43.285  27.420  32.478  1.00  0.00     0.074 A 
ATOM     63  C   UNL A   1      44.100  26.478  31.742  1.00  0.00     0.031 C 
ATOM     64  C   UNL A   1      43.423  27.681  33.801  1.00  0.00     0.037 A 
BRANCH  51  65
ATOM     65  C   UNL A   1      39.536  32.004  35.876  1.00  0.00     0.064 A 
ATOM     66  C   UNL A   1      40.136  33.237  36.176  1.00  0.00     0.173 A 
ATOM     67  C   UNL A   1      38.476  31.573  36.684  1.00  0.00     0.173 A 
ATOM     68  F   UNL A   1      41.167  33.683  35.442  1.00  0.00    -0.203 F 
ATOM     69  C   UNL A   1      39.713  33.992  37.266  1.00  0.00     0.198 A 
ATOM     70  C   UNL A   1      38.034  32.346  37.754  1.00  0.00     0.198 A 
ATOM     71  F   UNL A   1      37.868  30.403  36.438  1.00  0.00    -0.203 F 
ATOM     72  F   UNL A   1      40.341  35.136  37.570  1.00  0.00    -0.200 F 
ATOM     73  C   UNL A   1      38.659  33.548  38.050  1.00  0.00     0.200 A 
ATOM     74  F   UNL A   1      37.009  31.923  38.506  1.00  0.00    -0.200 F 
ATOM     75  F   UNL A   1      38.253  34.275  39.100  1.00  0.00    -0.200 F 
ENDBRANCH  51  65
BRANCH  52  76
ATOM     76  C   UNL A   1      42.367  26.766  27.918  1.00  0.00     0.064 A 
ATOM     77  C   UNL A   1      43.271  27.328  27.005  1.00  0.00     0.173 A 
ATOM     78  C   UNL A   1      41.876  25.482  27.645  1.00  0.00     0.173 A 
ATOM     79  F   UNL A   1      43.745  28.566  27.209  1.00  0.00    -0.203 F 
ATOM     80  C   UNL A   1      43.644  26.646  25.849  1.00  0.00     0.198 A 
ATOM     81  C   UNL A   1      42.269  24.790  26.500  1.00  0.00     0.198 A 
ATOM     82  F   UNL A   1      41.003  24.904  28.483  1.00  0.00    -0.203 F 
ATOM     83  F   UNL A   1      44.463  27.230  24.964  1.00  0.00    -0.200 F 
ATOM     84  C   UNL A   1      43.144  25.376  25.598  1.00  0.00     0.200 A 
ATOM     85  F   UNL A   1      41.784  23.563  26.260  1.00  0.00    -0.200 F 
ATOM     86  F   UNL A   1      43.493  24.726  24.479  1.00  0.00    -0.200 F 
ENDBRANCH  52  76
BRANCH  64  87
ATOM     87  C   UNL A   1      44.458  26.904  34.562  1.00  0.00     0.064 A 
ATOM     88  C   UNL A   1      44.172  25.656  35.135  1.00  0.00     0.173 A 
ATOM     89  C   UNL A   1      45.771  27.390  34.668  1.00  0.00     0.173 A 
ATOM     90  F   UNL A   1      42.930  25.153  35.074  1.00  0.00    -0.203 F 
ATOM     91  C   UNL A   1      45.158  24.933  35.803  1.00  0.00     0.198 A 
ATOM     92  C   UNL A   1      46.760  26.651  35.310  1.00  0.00     0.198 A 
ATOM     93  F   UNL A   1      46.098  28.574  34.131  1.00  0.00    -0.203 F 
ATOM     94  F   UNL A   1      44.852  23.761  36.378  1.00  0.00    -0.200 F 
ATOM     95  C   UNL A   1      46.452  25.426  35.883  1.00  0.00     0.200 A 
ATOM     96  F   UNL A   1      48.013  27.122  35.371  1.00  0.00    -0.200 F 
ATOM     97  F   UNL A   1      47.401  24.722  36.514  1.00  0.00    -0.200 F 
ENDBRANCH  64  87
ENDBRANCH  38  39
ENDBRANCH  31  33
ENDBRANCH  30  31
ENDBRANCH  29  30
ENDBRANCH  28  29
ENDBRANCH   1  28
TORSDOF 17
ENDMDL
MODEL 3
REMARK VINA RESULT:     -10.7      4.339     10.256
REMARK SMILES C[NH2+][C@@]1(C(=O)OCCOCCOC(=O)c2ccc(-c3c4nc(c(-c5c(F)c(F)c(F)c(F)c5F)c5ccc([nH]5)c(-c5c(F)c(F)c(F)c(F)c5F)c5nc(c(-c6c(F)c(F)c(F)c(F)c6F)c6ccc3[nH]6)C=C5)C=C4)cc2)CCC[C@H]([N@H+](C)C2CC[NH+](C)CC2)C1
REMARK SMILES IDX 9 1 8 2 7 3 6 4 4 5 5 6 3 7 78 8 91 9 79 10 81 11 80 12 2 13
REMARK SMILES IDX 1 14 82 17 83 18 84 20 85 21 90 22 86 23 89 24 87 25 88 26
REMARK SMILES IDX 10 28 11 29 12 30 13 31 14 32 15 33 16 34 77 35 17 36 76 37
REMARK SMILES IDX 18 38 19 39 20 40 70 41 21 42 75 43 69 44 71 45 22 46 74 47
REMARK SMILES IDX 68 48 67 49 23 51 55 52 35 53 54 54 36 55 39 56 53 57 72 58
REMARK SMILES IDX 37 59 38 60 52 62 73 63 40 64 24 65 25 66 33 67 26 68 27 69
REMARK SMILES IDX 31 70 34 71 28 72 29 73 32 74 30 75 56 76 57 77 65 78 58 79
REMARK SMILES IDX 59 80 63 81 66 82 60 83 61 84 64 85 62 86 41 87 42 88 50 89
REMARK SMILES IDX 43 90 44 91 48 92 51 93 45 94 46 95 49 96 47 97
REMARK H PARENT 2 15 2 16 82 19 87 27 71 50 39 61
REMARK Flexibility Score: inf
ROOT
ATOM      1  O   UNL A   1      37.533  21.359  25.230  1.00  0.00    -0.374 OA
ENDROOT
BRANCH   1   2
ATOM      2  C   UNL A   1      37.039  22.128  24.130  1.00  0.00     0.202 C 
BRANCH   2   3
ATOM      3  C   UNL A   1      36.621  23.546  24.525  1.00  0.00     0.261 C 
BRANCH   3   4
ATOM      4  O   UNL A   1      35.314  23.818  23.994  1.00  0.00    -0.459 OA
BRANCH   4   5
ATOM      5  C   UNL A   1      34.361  24.166  24.903  1.00  0.00     0.368 C 
ATOM      6  O   UNL A   1      34.158  25.323  25.261  1.00  0.00    -0.245 OA
BRANCH   5   7
ATOM      7  C   UNL A   1      33.439  22.939  25.252  1.00  0.00     0.199 C 
ATOM      8  C   UNL A   1      33.340  22.027  24.010  1.00  0.00     0.081 C 
ATOM      9  C   UNL A   1      32.018  23.350  25.724  1.00  0.00     0.146 C 
ATOM     10  C   UNL A   1      32.448  22.608  22.920  1.00  0.00     0.013 C 
ATOM     11  C   UNL A   1      31.056  23.922  24.632  1.00  0.00     0.190 C 
ATOM     12  C   UNL A   1      31.061  22.944  23.453  1.00  0.00     0.065 C 
BRANCH   7  13
ATOM     13  N   UNL A   1      34.155  22.261  26.383  1.00  0.00    -0.334 N 
ATOM     14  C   UNL A   1      33.434  22.133  27.637  1.00  0.00     0.331 C 
ATOM     15  H   UNL A   1      34.402  21.322  26.073  1.00  0.00     0.347 HD
ATOM     16  H   UNL A   1      34.948  22.867  26.595  1.00  0.00     0.347 HD
ENDBRANCH   7  13
BRANCH  11  17
ATOM     17  N   UNL A   1      31.310  25.375  24.444  1.00  0.00    -0.332 N 
ATOM     18  C   UNL A   1      30.668  26.056  25.604  1.00  0.00     0.333 C 
ATOM     19  H   UNL A   1      32.325  25.447  24.364  1.00  0.00     0.348 HD
BRANCH  17  20
ATOM     20  C   UNL A   1      30.834  26.060  23.193  1.00  0.00     0.195 C 
ATOM     21  C   UNL A   1      31.697  25.964  21.918  1.00  0.00     0.126 C 
ATOM     22  C   UNL A   1      30.714  27.599  23.389  1.00  0.00     0.126 C 
ATOM     23  C   UNL A   1      33.051  26.653  22.071  1.00  0.00     0.268 C 
ATOM     24  C   UNL A   1      32.084  28.264  23.573  1.00  0.00     0.268 C 
ATOM     25  N   UNL A   1      32.897  28.086  22.365  1.00  0.00    -0.337 N 
ATOM     26  C   UNL A   1      34.220  28.695  22.517  1.00  0.00     0.332 C 
ATOM     27  H   UNL A   1      32.416  28.549  21.593  1.00  0.00     0.347 HD
ENDBRANCH  17  20
ENDBRANCH  11  17
ENDBRANCH   5   7
ENDBRANCH   4   5
ENDBRANCH   3   4
ENDBRANCH   2   3
ENDBRANCH   1   2
BRANCH   1  28
ATOM     28  C   UNL A   1      37.803  19.987  24.949  1.00  0.00     0.202 C 
BRANCH  28  29
ATOM     29  C   UNL A   1      39.176  19.515  25.435  1.00  0.00     0.261 C 
BRANCH  29  30
ATOM     30  O   UNL A   1      39.544  20.104  26.697  1.00  0.00    -0.460 OA
BRANCH  30  31
ATOM     31  C   UNL A   1      40.866  20.336  26.881  1.00  0.00     0.338 C 
ATOM     32  O   UNL A   1      41.783  19.554  26.688  1.00  0.00    -0.246 OA
BRANCH  31  33
ATOM     33  C   UNL A   1      41.087  21.750  27.272  1.00  0.00     0.060 A 
ATOM     34  C   UNL A   1      40.454  22.752  26.527  1.00  0.00     0.016 A 
ATOM     35  C   UNL A   1      41.928  22.101  28.332  1.00  0.00     0.016 A 
ATOM     36  C   UNL A   1      40.682  24.103  26.818  1.00  0.00     0.010 A 
ATOM     37  C   UNL A   1      42.131  23.453  28.642  1.00  0.00     0.010 A 
ATOM     38  C   UNL A   1      41.541  24.470  27.865  1.00  0.00    -0.014 A 
BRANCH  38  39
ATOM     39  C   UNL A   1      41.960  25.891  28.049  1.00  0.00     0.031 A 
ATOM     40  C   UNL A   1      43.315  26.312  27.540  1.00  0.00     0.074 A 
ATOM     41  C   UNL A   1      41.178  26.810  28.651  1.00  0.00     0.049 A 
ATOM     42  N   UNL A   1      43.907  27.478  27.610  1.00  0.00    -0.248 NA
ATOM     43  C   UNL A   1      44.113  25.275  26.865  1.00  0.00     0.031 C 
ATOM     44  C   UNL A   1      39.835  26.576  29.168  1.00  0.00     0.029 A 
ATOM     45  N   UNL A   1      41.416  28.133  28.948  1.00  0.00    -0.354 N 
ATOM     46  C   UNL A   1      45.134  27.314  26.982  1.00  0.00     0.074 A 
ATOM     47  C   UNL A   1      45.240  25.920  26.614  1.00  0.00     0.031 C 
ATOM     48  C   UNL A   1      39.384  27.693  29.764  1.00  0.00     0.029 A 
ATOM     49  C   UNL A   1      40.401  28.734  29.654  1.00  0.00     0.049 A 
ATOM     50  H   UNL A   1      42.239  28.604  28.680  1.00  0.00     0.167 HD
ATOM     51  C   UNL A   1      46.073  28.244  26.691  1.00  0.00     0.037 A 
ATOM     52  C   UNL A   1      40.297  29.983  30.150  1.00  0.00     0.037 A 
ATOM     53  C   UNL A   1      45.976  29.636  27.029  1.00  0.00     0.049 A 
ATOM     54  C   UNL A   1      41.388  30.988  29.882  1.00  0.00     0.074 A 
ATOM     55  C   UNL A   1      46.860  30.659  26.733  1.00  0.00     0.029 A 
ATOM     56  N   UNL A   1      44.934  30.203  27.746  1.00  0.00    -0.354 N 
ATOM     57  N   UNL A   1      42.506  30.837  29.217  1.00  0.00    -0.248 NA
ATOM     58  C   UNL A   1      41.186  32.347  30.407  1.00  0.00     0.031 C 
ATOM     59  C   UNL A   1      46.376  31.837  27.310  1.00  0.00     0.029 A 
ATOM     60  C   UNL A   1      45.166  31.558  27.923  1.00  0.00     0.049 A 
ATOM     61  H   UNL A   1      44.146  29.716  28.079  1.00  0.00     0.167 HD
ATOM     62  C   UNL A   1      43.114  32.087  29.201  1.00  0.00     0.074 A 
ATOM     63  C   UNL A   1      42.241  32.987  29.924  1.00  0.00     0.031 C 
ATOM     64  C   UNL A   1      44.285  32.454  28.626  1.00  0.00     0.037 A 
BRANCH  51  65
ATOM     65  C   UNL A   1      47.289  27.774  25.949  1.00  0.00     0.064 A 
ATOM     66  C   UNL A   1      48.455  27.386  26.630  1.00  0.00     0.173 A 
ATOM     67  C   UNL A   1      47.290  27.704  24.551  1.00  0.00     0.173 A 
ATOM     68  F   UNL A   1      48.508  27.453  27.970  1.00  0.00    -0.203 F 
ATOM     69  C   UNL A   1      49.589  26.981  25.933  1.00  0.00     0.198 A 
ATOM     70  C   UNL A   1      48.416  27.267  23.858  1.00  0.00     0.198 A 
ATOM     71  F   UNL A   1      46.200  28.060  23.854  1.00  0.00    -0.203 F 
ATOM     72  F   UNL A   1      50.709  26.676  26.602  1.00  0.00    -0.200 F 
ATOM     73  C   UNL A   1      49.566  26.917  24.549  1.00  0.00     0.200 A 
ATOM     74  F   UNL A   1      48.391  27.196  22.520  1.00  0.00    -0.200 F 
ATOM     75  F   UNL A   1      50.659  26.527  23.878  1.00  0.00    -0.200 F 
ENDBRANCH  51  65
BRANCH  52  76
ATOM     76  C   UNL A   1      39.094  30.381  30.930  1.00  0.00     0.064 A 
ATOM     77  C   UNL A   1      37.987  30.969  30.302  1.00  0.00     0.173 A 
ATOM     78  C   UNL A   1      39.047  30.226  32.323  1.00  0.00     0.173 A 
ATOM     79  F   UNL A   1      37.998  31.165  28.975  1.00  0.00    -0.203 F 
ATOM     80  C   UNL A   1      36.892  31.413  31.039  1.00  0.00     0.198 A 
ATOM     81  C   UNL A   1      37.941  30.649  33.057  1.00  0.00     0.198 A 
ATOM     82  F   UNL A   1      40.084  29.677  32.972  1.00  0.00    -0.203 F 
ATOM     83  F   UNL A   1      35.874  32.026  30.420  1.00  0.00    -0.200 F 
ATOM     84  C   UNL A   1      36.868  31.251  32.417  1.00  0.00     0.200 A 
ATOM     85  F   UNL A   1      37.922  30.491  34.389  1.00  0.00    -0.200 F 
ATOM     86  F   UNL A   1      35.820  31.691  33.128  1.00  0.00    -0.200 F 
ENDBRANCH  52  76
BRANCH  64  87
ATOM     87  C   UNL A   1      44.679  33.901  28.705  1.00  0.00     0.064 A 
ATOM     88  C   UNL A   1      44.287  34.828  27.727  1.00  0.00     0.173 A 
ATOM     89  C   UNL A   1      45.408  34.377  29.806  1.00  0.00     0.173 A 
ATOM     90  F   UNL A   1      43.600  34.422  26.648  1.00  0.00    -0.203 F 
ATOM     91  C   UNL A   1      44.628  36.173  27.839  1.00  0.00     0.198 A 
ATOM     92  C   UNL A   1      45.722  35.728  29.930  1.00  0.00     0.198 A 
ATOM     93  F   UNL A   1      45.800  33.535  30.773  1.00  0.00    -0.203 F 
ATOM     94  F   UNL A   1      44.279  37.034  26.873  1.00  0.00    -0.200 F 
ATOM     95  C   UNL A   1      45.337  36.624  28.943  1.00  0.00     0.200 A 
ATOM     96  F   UNL A   1      46.391  36.164  31.005  1.00  0.00    -0.200 F 
ATOM     97  F   UNL A   1      45.652  37.921  29.056  1.00  0.00    -0.200 F 
ENDBRANCH  64  87
ENDBRANCH  38  39
ENDBRANCH  31  33
ENDBRANCH  30  31
ENDBRANCH  29  30
ENDBRANCH  28  29
ENDBRANCH   1  28
TORSDOF 17
ENDMDL
