MODEL 1
REMARK VINA RESULT:     -13.6      0.000      0.000
REMARK SMILES Cc1c(C(=O)Nc2ccc(C(=O)Nc3ccccc3C(=O)OCCOCCOC(=O)c3ccc(-c4c5nc(c(-c6c(F)c(F)c(F)c(F)c6F)c6ccc([nH]6)c(-c6c(F)c(F)c(F)c(F)c6F)c6nc(c(-c7c(F)c(F)c(F)c(F)c7F)c7ccc4[nH]7)C=C6)C=C5)cc3)cc2)cccc1[N+](=O)[O-]
REMARK SMILES IDX 23 1 22 2 20 3 21 4 19 5 14 6 15 7 16 8 18 9 17 10 13 11
REMARK SMILES IDX 11 12 12 13 10 15 7 16 8 17 95 18 9 19 94 20 6 21 4 22 5 23
REMARK SMILES IDX 3 25 1 26 2 27 99 28 96 29 98 30 97 31 100 32 101 33 102 34
REMARK SMILES IDX 24 35 25 36 26 37 27 38 28 39 29 40 30 41 31 42 32 43 93 44
REMARK SMILES IDX 33 45 92 46 34 47 35 48 36 49 86 50 37 51 91 52 85 53 87 54
REMARK SMILES IDX 38 55 90 56 84 57 83 58 39 60 71 61 51 62 70 63 52 64 55 65
REMARK SMILES IDX 69 66 88 67 53 68 54 69 68 71 89 72 56 73 40 74 41 75 49 76
REMARK SMILES IDX 42 77 43 78 47 79 50 80 44 81 45 82 48 83 46 84 72 85 73 86
REMARK SMILES IDX 81 87 74 88 75 89 79 90 82 91 76 92 77 93 80 94 78 95 57 96
REMARK SMILES IDX 58 97 66 98 59 99 60 100 64 101 67 102 61 103 62 104 65 105
REMARK SMILES IDX 63 106
REMARK H PARENT 13 14 6 24 87 59 55 70
REMARK Flexibility Score: inf
ROOT
ATOM      1  C   UNL A   1      33.986  34.005  27.998  1.00  0.00     0.261 C 
ENDROOT
BRANCH   1   2
ATOM      2  O   UNL A   1      33.620  32.609  28.014  1.00  0.00    -0.460 OA
BRANCH   2   3
ATOM      3  C   UNL A   1      32.593  32.072  27.287  1.00  0.00     0.340 C 
ATOM      4  O   UNL A   1      31.611  32.627  26.906  1.00  0.00    -0.246 OA
BRANCH   3   5
ATOM      5  C   UNL A   1      32.974  30.664  26.909  1.00  0.00     0.083 A 
ATOM      6  C   UNL A   1      32.227  29.930  25.958  1.00  0.00     0.056 A 
ATOM      7  C   UNL A   1      32.671  28.659  25.556  1.00  0.00     0.027 A 
ATOM      8  C   UNL A   1      33.889  28.156  26.009  1.00  0.00     0.002 A 
ATOM      9  C   UNL A   1      34.159  30.099  27.420  1.00  0.00     0.018 A 
ATOM     10  C   UNL A   1      34.628  28.871  26.946  1.00  0.00     0.001 A 
BRANCH   6  11
ATOM     11  N   UNL A   1      31.098  30.386  25.258  1.00  0.00    -0.321 N 
ATOM     12  C   UNL A   1      30.464  29.912  24.128  1.00  0.00     0.255 C 
ATOM     13  O   UNL A   1      29.504  30.556  23.698  1.00  0.00    -0.269 OA
ATOM     14  H   UNL A   1      30.683  31.190  25.645  1.00  0.00     0.170 HD
BRANCH  12  15
ATOM     15  C   UNL A   1      30.820  28.631  23.438  1.00  0.00     0.040 A 
ATOM     16  C   UNL A   1      31.799  26.254  22.260  1.00  0.00     0.041 A 
ATOM     17  C   UNL A   1      30.714  26.231  23.132  1.00  0.00     0.027 A 
ATOM     18  C   UNL A   1      32.380  27.478  21.947  1.00  0.00     0.027 A 
ATOM     19  C   UNL A   1      30.191  27.410  23.659  1.00  0.00     0.016 A 
ATOM     20  C   UNL A   1      31.881  28.658  22.517  1.00  0.00     0.016 A 
BRANCH  16  21
ATOM     21  N   UNL A   1      32.255  25.098  21.608  1.00  0.00    -0.322 N 
ATOM     22  C   UNL A   1      33.048  24.080  22.115  1.00  0.00     0.256 C 
ATOM     23  O   UNL A   1      33.517  23.231  21.361  1.00  0.00    -0.269 OA
ATOM     24  H   UNL A   1      31.975  24.997  20.669  1.00  0.00     0.170 HD
BRANCH  22  25
ATOM     25  C   UNL A   1      33.335  23.998  23.585  1.00  0.00     0.049 A 
ATOM     26  C   UNL A   1      31.228  22.693  24.168  1.00  0.00     0.053 C 
ATOM     27  C   UNL A   1      32.376  23.595  24.547  1.00  0.00     0.039 A 
ATOM     28  C   UNL A   1      32.557  24.080  25.859  1.00  0.00     0.273 A 
ATOM     29  C   UNL A   1      34.577  24.512  23.992  1.00  0.00     0.014 A 
ATOM     30  C   UNL A   1      33.789  24.628  26.259  1.00  0.00     0.086 A 
ATOM     31  C   UNL A   1      34.824  24.766  25.338  1.00  0.00     0.008 A 
BRANCH  28  32
ATOM     32  N   UNL A   1      31.417  24.266  26.784  1.00  0.00     0.063 N 
ATOM     33  O   UNL A   1      30.817  25.350  26.724  1.00  0.00    -0.258 OA
ATOM     34  O   UNL A   1      31.081  23.331  27.518  1.00  0.00    -0.258 OA
ENDBRANCH  28  32
ENDBRANCH  22  25
ENDBRANCH  16  21
ENDBRANCH  12  15
ENDBRANCH   6  11
ENDBRANCH   3   5
ENDBRANCH   2   3
ENDBRANCH   1   2
BRANCH   1  35
ATOM     35  C   UNL A   1      33.332  35.075  28.861  1.00  0.00     0.202 C 
BRANCH  35  36
ATOM     36  O   UNL A   1      34.011  35.515  30.011  1.00  0.00    -0.374 OA
BRANCH  36  37
ATOM     37  C   UNL A   1      33.548  35.135  31.297  1.00  0.00     0.202 C 
BRANCH  37  38
ATOM     38  C   UNL A   1      34.342  34.043  32.035  1.00  0.00     0.261 C 
BRANCH  38  39
ATOM     39  O   UNL A   1      34.472  32.808  31.301  1.00  0.00    -0.460 OA
BRANCH  39  40
ATOM     40  C   UNL A   1      35.421  31.935  31.742  1.00  0.00     0.338 C 
ATOM     41  O   UNL A   1      35.893  31.925  32.866  1.00  0.00    -0.246 OA
BRANCH  40  42
ATOM     42  C   UNL A   1      35.956  31.188  30.570  1.00  0.00     0.060 A 
ATOM     43  C   UNL A   1      36.218  29.821  30.714  1.00  0.00     0.016 A 
ATOM     44  C   UNL A   1      36.591  31.909  29.565  1.00  0.00     0.016 A 
ATOM     45  C   UNL A   1      37.381  29.296  30.139  1.00  0.00     0.010 A 
ATOM     46  C   UNL A   1      37.738  31.377  29.007  1.00  0.00     0.010 A 
ATOM     47  C   UNL A   1      38.254  30.154  29.473  1.00  0.00    -0.014 A 
BRANCH  47  48
ATOM     48  C   UNL A   1      39.733  29.975  29.476  1.00  0.00     0.031 A 
ATOM     49  C   UNL A   1      40.278  28.857  28.707  1.00  0.00     0.074 A 
ATOM     50  C   UNL A   1      40.679  30.813  29.963  1.00  0.00     0.049 A 
ATOM     51  N   UNL A   1      40.606  27.707  29.198  1.00  0.00    -0.248 NA
ATOM     52  C   UNL A   1      40.392  28.984  27.252  1.00  0.00     0.031 C 
ATOM     53  C   UNL A   1      42.131  30.710  29.784  1.00  0.00     0.029 A 
ATOM     54  N   UNL A   1      40.536  31.983  30.717  1.00  0.00    -0.354 N 
ATOM     55  C   UNL A   1      41.181  27.043  28.136  1.00  0.00     0.074 A 
ATOM     56  C   UNL A   1      40.727  27.733  26.937  1.00  0.00     0.031 C 
ATOM     57  C   UNL A   1      42.745  31.565  30.622  1.00  0.00     0.029 A 
ATOM     58  C   UNL A   1      41.725  32.209  31.434  1.00  0.00     0.049 A 
ATOM     59  H   UNL A   1      39.734  32.554  30.743  1.00  0.00     0.167 HD
ATOM     60  C   UNL A   1      42.406  26.448  28.241  1.00  0.00     0.037 A 
ATOM     61  C   UNL A   1      41.701  32.307  32.792  1.00  0.00     0.037 A 
ATOM     62  C   UNL A   1      43.180  27.009  29.354  1.00  0.00     0.049 A 
ATOM     63  C   UNL A   1      42.279  31.064  33.405  1.00  0.00     0.074 A 
ATOM     64  C   UNL A   1      44.282  27.853  29.365  1.00  0.00     0.029 A 
ATOM     65  N   UNL A   1      42.707  26.981  30.664  1.00  0.00    -0.354 N 
ATOM     66  N   UNL A   1      42.574  30.020  32.683  1.00  0.00    -0.248 NA
ATOM     67  C   UNL A   1      42.578  30.859  34.817  1.00  0.00     0.031 C 
ATOM     68  C   UNL A   1      44.479  28.316  30.689  1.00  0.00     0.029 A 
ATOM     69  C   UNL A   1      43.505  27.750  31.493  1.00  0.00     0.049 A 
ATOM     70  H   UNL A   1      41.912  26.482  30.959  1.00  0.00     0.167 HD
ATOM     71  C   UNL A   1      43.021  29.014  33.472  1.00  0.00     0.074 A 
ATOM     72  C   UNL A   1      43.034  29.590  34.803  1.00  0.00     0.031 C 
ATOM     73  C   UNL A   1      43.290  27.791  32.936  1.00  0.00     0.037 A 
BRANCH  60  74
ATOM     74  C   UNL A   1      43.024  25.692  27.079  1.00  0.00     0.064 A 
ATOM     75  C   UNL A   1      42.547  24.427  26.687  1.00  0.00     0.173 A 
ATOM     76  C   UNL A   1      44.053  26.216  26.261  1.00  0.00     0.173 A 
ATOM     77  F   UNL A   1      41.476  23.874  27.269  1.00  0.00    -0.203 F 
ATOM     78  C   UNL A   1      43.130  23.699  25.645  1.00  0.00     0.198 A 
ATOM     79  C   UNL A   1      44.672  25.466  25.258  1.00  0.00     0.198 A 
ATOM     80  F   UNL A   1      44.460  27.489  26.381  1.00  0.00    -0.203 F 
ATOM     81  F   UNL A   1      42.622  22.505  25.308  1.00  0.00    -0.200 F 
ATOM     82  C   UNL A   1      44.212  24.203  24.953  1.00  0.00     0.200 A 
ATOM     83  F   UNL A   1      45.706  25.986  24.580  1.00  0.00    -0.200 F 
ATOM     84  F   UNL A   1      44.780  23.494  23.969  1.00  0.00    -0.200 F 
ENDBRANCH  60  74
BRANCH  61  85
ATOM     85  C   UNL A   1      40.562  33.138  33.273  1.00  0.00     0.064 A 
ATOM     86  C   UNL A   1      39.462  32.434  33.806  1.00  0.00     0.173 A 
ATOM     87  C   UNL A   1      40.727  34.469  33.679  1.00  0.00     0.173 A 
ATOM     88  F   UNL A   1      39.255  31.154  33.457  1.00  0.00    -0.203 F 
ATOM     89  C   UNL A   1      38.667  32.979  34.814  1.00  0.00     0.198 A 
ATOM     90  C   UNL A   1      39.935  35.006  34.702  1.00  0.00     0.198 A 
ATOM     91  F   UNL A   1      41.749  35.196  33.208  1.00  0.00    -0.203 F 
ATOM     92  F   UNL A   1      37.734  32.221  35.411  1.00  0.00    -0.200 F 
ATOM     93  C   UNL A   1      38.939  34.246  35.298  1.00  0.00     0.200 A 
ATOM     94  F   UNL A   1      40.214  36.223  35.195  1.00  0.00    -0.200 F 
ATOM     95  F   UNL A   1      38.297  34.699  36.385  1.00  0.00    -0.200 F 
ENDBRANCH  61  85
BRANCH  73  96
ATOM     96  C   UNL A   1      43.449  26.537  33.736  1.00  0.00     0.064 A 
ATOM     97  C   UNL A   1      42.413  25.986  34.506  1.00  0.00     0.173 A 
ATOM     98  C   UNL A   1      44.616  25.751  33.607  1.00  0.00     0.173 A 
ATOM     99  F   UNL A   1      41.220  26.589  34.609  1.00  0.00    -0.203 F 
ATOM    100  C   UNL A   1      42.556  24.759  35.151  1.00  0.00     0.198 A 
ATOM    101  C   UNL A   1      44.730  24.499  34.199  1.00  0.00     0.198 A 
ATOM    102  F   UNL A   1      45.664  26.166  32.879  1.00  0.00    -0.203 F 
ATOM    103  F   UNL A   1      41.556  24.292  35.912  1.00  0.00    -0.200 F 
ATOM    104  C   UNL A   1      43.706  24.010  34.986  1.00  0.00     0.200 A 
ATOM    105  F   UNL A   1      45.828  23.761  33.987  1.00  0.00    -0.200 F 
ATOM    106  F   UNL A   1      43.820  22.811  35.571  1.00  0.00    -0.200 F 
ENDBRANCH  73  96
ENDBRANCH  47  48
ENDBRANCH  40  42
ENDBRANCH  39  40
ENDBRANCH  38  39
ENDBRANCH  37  38
ENDBRANCH  36  37
ENDBRANCH  35  36
ENDBRANCH   1  35
TORSDOF 19
ENDMDL
MODEL 2
REMARK VINA RESULT:     -13.5      3.701     10.156
REMARK SMILES Cc1c(C(=O)Nc2ccc(C(=O)Nc3ccccc3C(=O)OCCOCCOC(=O)c3ccc(-c4c5nc(c(-c6c(F)c(F)c(F)c(F)c6F)c6ccc([nH]6)c(-c6c(F)c(F)c(F)c(F)c6F)c6nc(c(-c7c(F)c(F)c(F)c(F)c7F)c7ccc4[nH]7)C=C6)C=C5)cc3)cc2)cccc1[N+](=O)[O-]
REMARK SMILES IDX 23 1 22 2 20 3 21 4 19 5 14 6 15 7 16 8 18 9 17 10 13 11
REMARK SMILES IDX 11 12 12 13 10 15 7 16 8 17 95 18 9 19 94 20 6 21 4 22 5 23
REMARK SMILES IDX 3 25 1 26 2 27 99 28 96 29 98 30 97 31 100 32 101 33 102 34
REMARK SMILES IDX 24 35 25 36 26 37 27 38 28 39 29 40 30 41 31 42 32 43 93 44
REMARK SMILES IDX 33 45 92 46 34 47 35 48 36 49 86 50 37 51 91 52 85 53 87 54
REMARK SMILES IDX 38 55 90 56 84 57 83 58 39 60 71 61 51 62 70 63 52 64 55 65
REMARK SMILES IDX 69 66 88 67 53 68 54 69 68 71 89 72 56 73 40 74 41 75 49 76
REMARK SMILES IDX 42 77 43 78 47 79 50 80 44 81 45 82 48 83 46 84 72 85 73 86
REMARK SMILES IDX 81 87 74 88 75 89 79 90 82 91 76 92 77 93 80 94 78 95 57 96
REMARK SMILES IDX 58 97 66 98 59 99 60 100 64 101 67 102 61 103 62 104 65 105
REMARK SMILES IDX 63 106
REMARK H PARENT 13 14 6 24 87 59 55 70
REMARK Flexibility Score: inf
ROOT
ATOM      1  C   UNL A   1      41.211  20.173  27.106  1.00  0.00     0.261 C 
ENDROOT
BRANCH   1   2
ATOM      2  O   UNL A   1      40.255  21.030  26.446  1.00  0.00    -0.460 OA
BRANCH   2   3
ATOM      3  C   UNL A   1      39.188  20.579  25.717  1.00  0.00     0.340 C 
ATOM      4  O   UNL A   1      39.006  19.474  25.315  1.00  0.00    -0.246 OA
BRANCH   3   5
ATOM      5  C   UNL A   1      38.182  21.696  25.621  1.00  0.00     0.083 A 
ATOM      6  C   UNL A   1      36.860  21.460  25.178  1.00  0.00     0.056 A 
ATOM      7  C   UNL A   1      35.921  22.505  25.199  1.00  0.00     0.027 A 
ATOM      8  C   UNL A   1      36.251  23.744  25.742  1.00  0.00     0.002 A 
ATOM      9  C   UNL A   1      38.519  22.982  26.086  1.00  0.00     0.018 A 
ATOM     10  C   UNL A   1      37.550  23.987  26.177  1.00  0.00     0.001 A 
BRANCH   6  11
ATOM     11  N   UNL A   1      36.321  20.218  24.800  1.00  0.00    -0.321 N 
ATOM     12  C   UNL A   1      35.028  19.739  24.806  1.00  0.00     0.255 C 
ATOM     13  O   UNL A   1      34.850  18.567  24.460  1.00  0.00    -0.269 OA
ATOM     14  H   UNL A   1      36.989  19.573  24.472  1.00  0.00     0.170 HD
BRANCH  12  15
ATOM     15  C   UNL A   1      33.823  20.568  25.130  1.00  0.00     0.040 A 
ATOM     16  C   UNL A   1      31.764  22.362  25.859  1.00  0.00     0.041 A 
ATOM     17  C   UNL A   1      31.901  21.920  24.547  1.00  0.00     0.027 A 
ATOM     18  C   UNL A   1      32.642  21.880  26.824  1.00  0.00     0.027 A 
ATOM     19  C   UNL A   1      32.874  20.985  24.203  1.00  0.00     0.016 A 
ATOM     20  C   UNL A   1      33.651  20.975  26.464  1.00  0.00     0.016 A 
BRANCH  16  21
ATOM     21  N   UNL A   1      30.706  23.194  26.258  1.00  0.00    -0.322 N 
ATOM     22  C   UNL A   1      30.627  24.578  26.191  1.00  0.00     0.256 C 
ATOM     23  O   UNL A   1      29.710  25.170  26.756  1.00  0.00    -0.269 OA
ATOM     24  H   UNL A   1      29.918  22.737  26.633  1.00  0.00     0.170 HD
BRANCH  22  25
ATOM     25  C   UNL A   1      31.650  25.364  25.426  1.00  0.00     0.049 A 
ATOM     26  C   UNL A   1      30.437  25.225  23.192  1.00  0.00     0.053 C 
ATOM     27  C   UNL A   1      31.687  25.429  24.012  1.00  0.00     0.039 A 
ATOM     28  C   UNL A   1      32.942  25.694  23.425  1.00  0.00     0.273 A 
ATOM     29  C   UNL A   1      32.695  25.907  26.190  1.00  0.00     0.014 A 
ATOM     30  C   UNL A   1      34.001  26.205  24.195  1.00  0.00     0.086 A 
ATOM     31  C   UNL A   1      33.844  26.386  25.566  1.00  0.00     0.008 A 
BRANCH  28  32
ATOM     32  N   UNL A   1      33.278  25.223  22.063  1.00  0.00     0.063 N 
ATOM     33  O   UNL A   1      33.607  26.089  21.237  1.00  0.00    -0.258 OA
ATOM     34  O   UNL A   1      33.275  24.010  21.827  1.00  0.00    -0.258 OA
ENDBRANCH  28  32
ENDBRANCH  22  25
ENDBRANCH  16  21
ENDBRANCH  12  15
ENDBRANCH   6  11
ENDBRANCH   3   5
ENDBRANCH   2   3
ENDBRANCH   1   2
BRANCH   1  35
ATOM     35  C   UNL A   1      42.219  19.293  26.381  1.00  0.00     0.202 C 
BRANCH  35  36
ATOM     36  O   UNL A   1      42.835  19.794  25.222  1.00  0.00    -0.374 OA
BRANCH  36  37
ATOM     37  C   UNL A   1      44.087  20.455  25.312  1.00  0.00     0.202 C 
BRANCH  37  38
ATOM     38  C   UNL A   1      44.155  21.904  24.799  1.00  0.00     0.261 C 
BRANCH  38  39
ATOM     39  O   UNL A   1      42.923  22.643  24.947  1.00  0.00    -0.460 OA
BRANCH  39  40
ATOM     40  C   UNL A   1      43.041  23.979  25.185  1.00  0.00     0.338 C 
ATOM     41  O   UNL A   1      44.033  24.646  24.948  1.00  0.00    -0.246 OA
BRANCH  40  42
ATOM     42  C   UNL A   1      41.876  24.417  26.003  1.00  0.00     0.060 A 
ATOM     43  C   UNL A   1      41.244  25.620  25.671  1.00  0.00     0.016 A 
ATOM     44  C   UNL A   1      41.742  23.898  27.286  1.00  0.00     0.016 A 
ATOM     45  C   UNL A   1      40.841  26.473  26.705  1.00  0.00     0.010 A 
ATOM     46  C   UNL A   1      41.343  24.754  28.296  1.00  0.00     0.010 A 
ATOM     47  C   UNL A   1      41.111  26.115  28.024  1.00  0.00    -0.014 A 
BRANCH  47  48
ATOM     48  C   UNL A   1      41.440  27.106  29.087  1.00  0.00     0.031 A 
ATOM     49  C   UNL A   1      40.363  27.983  29.545  1.00  0.00     0.074 A 
ATOM     50  C   UNL A   1      42.571  27.202  29.824  1.00  0.00     0.049 A 
ATOM     51  N   UNL A   1      40.164  29.192  29.132  1.00  0.00    -0.248 NA
ATOM     52  C   UNL A   1      39.364  27.456  30.478  1.00  0.00     0.031 C 
ATOM     53  C   UNL A   1      42.797  28.059  30.993  1.00  0.00     0.029 A 
ATOM     54  N   UNL A   1      43.783  26.514  29.698  1.00  0.00    -0.354 N 
ATOM     55  C   UNL A   1      39.137  29.652  29.929  1.00  0.00     0.074 A 
ATOM     56  C   UNL A   1      38.496  28.467  30.480  1.00  0.00     0.031 C 
ATOM     57  C   UNL A   1      44.110  28.071  31.290  1.00  0.00     0.029 A 
ATOM     58  C   UNL A   1      44.805  27.282  30.285  1.00  0.00     0.049 A 
ATOM     59  H   UNL A   1      43.901  25.636  29.269  1.00  0.00     0.167 HD
ATOM     60  C   UNL A   1      39.228  30.837  30.601  1.00  0.00     0.037 A 
ATOM     61  C   UNL A   1      45.887  27.662  29.551  1.00  0.00     0.037 A 
ATOM     62  C   UNL A   1      40.625  31.254  30.767  1.00  0.00     0.049 A 
ATOM     63  C   UNL A   1      45.798  29.127  29.229  1.00  0.00     0.074 A 
ATOM     64  C   UNL A   1      41.443  31.273  31.888  1.00  0.00     0.029 A 
ATOM     65  N   UNL A   1      41.466  31.450  29.676  1.00  0.00    -0.354 N 
ATOM     66  N   UNL A   1      44.729  29.820  29.497  1.00  0.00    -0.248 NA
ATOM     67  C   UNL A   1      46.840  29.936  28.609  1.00  0.00     0.031 C 
ATOM     68  C   UNL A   1      42.776  31.500  31.466  1.00  0.00     0.029 A 
ATOM     69  C   UNL A   1      42.776  31.629  30.087  1.00  0.00     0.049 A 
ATOM     70  H   UNL A   1      41.169  31.459  28.737  1.00  0.00     0.167 HD
ATOM     71  C   UNL A   1      44.874  31.094  29.059  1.00  0.00     0.074 A 
ATOM     72  C   UNL A   1      46.224  31.133  28.530  1.00  0.00     0.031 C 
ATOM     73  C   UNL A   1      43.833  31.970  29.141  1.00  0.00     0.037 A 
BRANCH  60  74
ATOM     74  C   UNL A   1      38.085  31.356  31.455  1.00  0.00     0.064 A 
ATOM     75  C   UNL A   1      36.922  31.899  30.877  1.00  0.00     0.173 A 
ATOM     76  C   UNL A   1      38.056  31.264  32.866  1.00  0.00     0.173 A 
ATOM     77  F   UNL A   1      36.740  31.908  29.551  1.00  0.00    -0.203 F 
ATOM     78  C   UNL A   1      35.877  32.418  31.647  1.00  0.00     0.198 A 
ATOM     79  C   UNL A   1      37.039  31.832  33.637  1.00  0.00     0.198 A 
ATOM     80  F   UNL A   1      38.994  30.580  33.540  1.00  0.00    -0.203 F 
ATOM     81  F   UNL A   1      34.788  32.910  31.040  1.00  0.00    -0.200 F 
ATOM     82  C   UNL A   1      35.949  32.415  33.025  1.00  0.00     0.200 A 
ATOM     83  F   UNL A   1      37.117  31.795  34.975  1.00  0.00    -0.200 F 
ATOM     84  F   UNL A   1      34.955  32.929  33.760  1.00  0.00    -0.200 F 
ENDBRANCH  60  74
BRANCH  61  85
ATOM     85  C   UNL A   1      46.405  26.553  28.702  1.00  0.00     0.064 A 
ATOM     86  C   UNL A   1      46.089  26.623  27.329  1.00  0.00     0.173 A 
ATOM     87  C   UNL A   1      47.530  25.799  29.061  1.00  0.00     0.173 A 
ATOM     88  F   UNL A   1      45.024  27.334  26.924  1.00  0.00    -0.203 F 
ATOM     89  C   UNL A   1      46.944  26.105  26.357  1.00  0.00     0.198 A 
ATOM     90  C   UNL A   1      48.393  25.293  28.081  1.00  0.00     0.198 A 
ATOM     91  F   UNL A   1      47.884  25.688  30.349  1.00  0.00    -0.203 F 
ATOM     92  F   UNL A   1      46.694  26.333  25.058  1.00  0.00    -0.200 F 
ATOM     93  C   UNL A   1      48.123  25.487  26.733  1.00  0.00     0.200 A 
ATOM     94  F   UNL A   1      49.552  24.720  28.440  1.00  0.00    -0.200 F 
ATOM     95  F   UNL A   1      49.029  25.151  25.804  1.00  0.00    -0.200 F 
ENDBRANCH  61  85
BRANCH  73  96
ATOM     96  C   UNL A   1      43.759  33.263  28.393  1.00  0.00     0.064 A 
ATOM     97  C   UNL A   1      43.760  33.336  26.992  1.00  0.00     0.173 A 
ATOM     98  C   UNL A   1      43.505  34.471  29.081  1.00  0.00     0.173 A 
ATOM     99  F   UNL A   1      43.880  32.237  26.234  1.00  0.00    -0.203 F 
ATOM    100  C   UNL A   1      43.578  34.545  26.324  1.00  0.00     0.198 A 
ATOM    101  C   UNL A   1      43.260  35.663  28.409  1.00  0.00     0.198 A 
ATOM    102  F   UNL A   1      43.460  34.520  30.421  1.00  0.00    -0.203 F 
ATOM    103  F   UNL A   1      43.630  34.575  24.985  1.00  0.00    -0.200 F 
ATOM    104  C   UNL A   1      43.314  35.704  27.030  1.00  0.00     0.200 A 
ATOM    105  F   UNL A   1      42.952  36.767  29.104  1.00  0.00    -0.200 F 
ATOM    106  F   UNL A   1      43.094  36.854  26.382  1.00  0.00    -0.200 F 
ENDBRANCH  73  96
ENDBRANCH  47  48
ENDBRANCH  40  42
ENDBRANCH  39  40
ENDBRANCH  38  39
ENDBRANCH  37  38
ENDBRANCH  36  37
ENDBRANCH  35  36
ENDBRANCH   1  35
TORSDOF 19
ENDMDL
MODEL 3
REMARK VINA RESULT:     -13.4      1.911      2.623
REMARK SMILES Cc1c(C(=O)Nc2ccc(C(=O)Nc3ccccc3C(=O)OCCOCCOC(=O)c3ccc(-c4c5nc(c(-c6c(F)c(F)c(F)c(F)c6F)c6ccc([nH]6)c(-c6c(F)c(F)c(F)c(F)c6F)c6nc(c(-c7c(F)c(F)c(F)c(F)c7F)c7ccc4[nH]7)C=C6)C=C5)cc3)cc2)cccc1[N+](=O)[O-]
REMARK SMILES IDX 23 1 22 2 20 3 21 4 19 5 14 6 15 7 16 8 18 9 17 10 13 11
REMARK SMILES IDX 11 12 12 13 10 15 7 16 8 17 95 18 9 19 94 20 6 21 4 22 5 23
REMARK SMILES IDX 3 25 1 26 2 27 99 28 96 29 98 30 97 31 100 32 101 33 102 34
REMARK SMILES IDX 24 35 25 36 26 37 27 38 28 39 29 40 30 41 31 42 32 43 93 44
REMARK SMILES IDX 33 45 92 46 34 47 35 48 36 49 86 50 37 51 91 52 85 53 87 54
REMARK SMILES IDX 38 55 90 56 84 57 83 58 39 60 71 61 51 62 70 63 52 64 55 65
REMARK SMILES IDX 69 66 88 67 53 68 54 69 68 71 89 72 56 73 40 74 41 75 49 76
REMARK SMILES IDX 42 77 43 78 47 79 50 80 44 81 45 82 48 83 46 84 72 85 73 86
REMARK SMILES IDX 81 87 74 88 75 89 79 90 82 91 76 92 77 93 80 94 78 95 57 96
REMARK SMILES IDX 58 97 66 98 59 99 60 100 64 101 67 102 61 103 62 104 65 105
REMARK SMILES IDX 63 106
REMARK H PARENT 13 14 6 24 87 59 55 70
REMARK Flexibility Score: inf
ROOT
ATOM      1  C   UNL A   1      33.244  33.730  27.710  1.00  0.00     0.261 C 
ENDROOT
BRANCH   1   2
ATOM      2  O   UNL A   1      33.120  32.296  27.600  1.00  0.00    -0.460 OA
BRANCH   2   3
ATOM      3  C   UNL A   1      32.136  31.657  26.895  1.00  0.00     0.340 C 
ATOM      4  O   UNL A   1      31.123  32.128  26.483  1.00  0.00    -0.246 OA
BRANCH   3   5
ATOM      5  C   UNL A   1      32.611  30.260  26.589  1.00  0.00     0.083 A 
ATOM      6  C   UNL A   1      32.107  29.538  25.483  1.00  0.00     0.056 A 
ATOM      7  C   UNL A   1      32.647  28.279  25.169  1.00  0.00     0.027 A 
ATOM      8  C   UNL A   1      33.738  27.779  25.877  1.00  0.00     0.002 A 
ATOM      9  C   UNL A   1      33.657  29.697  27.345  1.00  0.00     0.018 A 
ATOM     10  C   UNL A   1      34.237  28.482  26.969  1.00  0.00     0.001 A 
BRANCH   6  11
ATOM     11  N   UNL A   1      31.158  29.998  24.554  1.00  0.00    -0.321 N 
ATOM     12  C   UNL A   1      30.453  29.347  23.563  1.00  0.00     0.255 C 
ATOM     13  O   UNL A   1      29.710  30.026  22.849  1.00  0.00    -0.269 OA
ATOM     14  H   UNL A   1      30.961  30.960  24.623  1.00  0.00     0.170 HD
BRANCH  12  15
ATOM     15  C   UNL A   1      30.475  27.865  23.348  1.00  0.00     0.040 A 
ATOM     16  C   UNL A   1      30.842  25.081  23.018  1.00  0.00     0.041 A 
ATOM     17  C   UNL A   1      29.917  25.581  23.930  1.00  0.00     0.027 A 
ATOM     18  C   UNL A   1      31.567  25.977  22.240  1.00  0.00     0.027 A 
ATOM     19  C   UNL A   1      29.690  26.951  24.044  1.00  0.00     0.016 A 
ATOM     20  C   UNL A   1      31.370  27.357  22.392  1.00  0.00     0.016 A 
BRANCH  16  21
ATOM     21  N   UNL A   1      30.988  23.704  22.786  1.00  0.00    -0.322 N 
ATOM     22  C   UNL A   1      31.857  22.815  23.402  1.00  0.00     0.256 C 
ATOM     23  O   UNL A   1      31.996  21.680  22.953  1.00  0.00    -0.269 OA
ATOM     24  H   UNL A   1      30.398  23.321  22.097  1.00  0.00     0.170 HD
BRANCH  22  25
ATOM     25  C   UNL A   1      32.627  23.224  24.622  1.00  0.00     0.049 A 
ATOM     26  C   UNL A   1      34.699  23.984  23.352  1.00  0.00     0.053 C 
ATOM     27  C   UNL A   1      34.015  23.508  24.610  1.00  0.00     0.039 A 
ATOM     28  C   UNL A   1      34.707  23.324  25.826  1.00  0.00     0.273 A 
ATOM     29  C   UNL A   1      31.929  23.146  25.837  1.00  0.00     0.014 A 
ATOM     30  C   UNL A   1      34.007  23.212  27.040  1.00  0.00     0.086 A 
ATOM     31  C   UNL A   1      32.615  23.205  27.046  1.00  0.00     0.008 A 
BRANCH  28  32
ATOM     32  N   UNL A   1      36.149  22.997  25.857  1.00  0.00     0.063 N 
ATOM     33  O   UNL A   1      36.941  23.953  25.873  1.00  0.00    -0.258 OA
ATOM     34  O   UNL A   1      36.496  21.813  25.925  1.00  0.00    -0.258 OA
ENDBRANCH  28  32
ENDBRANCH  22  25
ENDBRANCH  16  21
ENDBRANCH  12  15
ENDBRANCH   6  11
ENDBRANCH   3   5
ENDBRANCH   2   3
ENDBRANCH   1   2
BRANCH   1  35
ATOM     35  C   UNL A   1      33.152  34.501  29.019  1.00  0.00     0.202 C 
BRANCH  35  36
ATOM     36  O   UNL A   1      34.331  34.722  29.751  1.00  0.00    -0.374 OA
BRANCH  36  37
ATOM     37  C   UNL A   1      34.616  33.930  30.893  1.00  0.00     0.202 C 
BRANCH  37  38
ATOM     38  C   UNL A   1      34.804  32.419  30.670  1.00  0.00     0.261 C 
BRANCH  38  39
ATOM     39  O   UNL A   1      36.179  32.011  30.506  1.00  0.00    -0.460 OA
BRANCH  39  40
ATOM     40  C   UNL A   1      36.633  31.910  29.225  1.00  0.00     0.338 C 
ATOM     41  O   UNL A   1      36.580  32.798  28.392  1.00  0.00    -0.246 OA
BRANCH  40  42
ATOM     42  C   UNL A   1      36.956  30.482  28.951  1.00  0.00     0.060 A 
ATOM     43  C   UNL A   1      37.273  29.651  30.030  1.00  0.00     0.016 A 
ATOM     44  C   UNL A   1      37.371  30.137  27.669  1.00  0.00     0.016 A 
ATOM     45  C   UNL A   1      38.320  28.733  29.884  1.00  0.00     0.010 A 
ATOM     46  C   UNL A   1      38.406  29.229  27.542  1.00  0.00     0.010 A 
ATOM     47  C   UNL A   1      39.031  28.699  28.686  1.00  0.00    -0.014 A 
BRANCH  47  48
ATOM     48  C   UNL A   1      40.488  28.399  28.610  1.00  0.00     0.031 A 
ATOM     49  C   UNL A   1      40.879  27.091  28.083  1.00  0.00     0.074 A 
ATOM     50  C   UNL A   1      41.530  29.240  28.806  1.00  0.00     0.049 A 
ATOM     51  N   UNL A   1      41.179  26.060  28.803  1.00  0.00    -0.248 NA
ATOM     52  C   UNL A   1      40.855  26.872  26.635  1.00  0.00     0.031 C 
ATOM     53  C   UNL A   1      42.947  28.973  28.538  1.00  0.00     0.029 A 
ATOM     54  N   UNL A   1      41.540  30.559  29.273  1.00  0.00    -0.354 N 
ATOM     55  C   UNL A   1      41.600  25.123  27.884  1.00  0.00     0.074 A 
ATOM     56  C   UNL A   1      41.075  25.558  26.598  1.00  0.00     0.031 C 
ATOM     57  C   UNL A   1      43.696  29.941  29.098  1.00  0.00     0.029 A 
ATOM     58  C   UNL A   1      42.807  30.839  29.816  1.00  0.00     0.049 A 
ATOM     59  H   UNL A   1      40.783  31.188  29.229  1.00  0.00     0.167 HD
ATOM     60  C   UNL A   1      42.788  24.464  28.025  1.00  0.00     0.037 A 
ATOM     61  C   UNL A   1      42.925  31.246  31.111  1.00  0.00     0.037 A 
ATOM     62  C   UNL A   1      43.705  25.196  28.908  1.00  0.00     0.049 A 
ATOM     63  C   UNL A   1      43.479  30.131  31.949  1.00  0.00     0.074 A 
ATOM     64  C   UNL A   1      44.855  25.921  28.629  1.00  0.00     0.029 A 
ATOM     65  N   UNL A   1      43.364  25.509  30.221  1.00  0.00    -0.354 N 
ATOM     66  N   UNL A   1      43.632  28.929  31.471  1.00  0.00    -0.248 NA
ATOM     67  C   UNL A   1      43.904  30.229  33.340  1.00  0.00     0.031 C 
ATOM     68  C   UNL A   1      45.213  26.655  29.786  1.00  0.00     0.029 A 
ATOM     69  C   UNL A   1      44.289  26.375  30.778  1.00  0.00     0.049 A 
ATOM     70  H   UNL A   1      42.572  25.161  30.690  1.00  0.00     0.167 HD
ATOM     71  C   UNL A   1      44.089  28.095  32.436  1.00  0.00     0.074 A 
ATOM     72  C   UNL A   1      44.272  28.956  33.589  1.00  0.00     0.031 C 
ATOM     73  C   UNL A   1      44.222  26.762  32.184  1.00  0.00     0.037 A 
BRANCH  60  74
ATOM     74  C   UNL A   1      43.237  23.412  27.028  1.00  0.00     0.064 A 
ATOM     75  C   UNL A   1      42.785  22.081  27.108  1.00  0.00     0.173 A 
ATOM     76  C   UNL A   1      44.061  23.690  25.912  1.00  0.00     0.173 A 
ATOM     77  F   UNL A   1      41.877  21.706  28.018  1.00  0.00    -0.203 F 
ATOM     78  C   UNL A   1      43.218  21.090  26.222  1.00  0.00     0.198 A 
ATOM     79  C   UNL A   1      44.539  22.690  25.061  1.00  0.00     0.198 A 
ATOM     80  F   UNL A   1      44.394  24.949  25.587  1.00  0.00    -0.203 F 
ATOM     81  F   UNL A   1      42.741  19.843  26.340  1.00  0.00    -0.200 F 
ATOM     82  C   UNL A   1      44.120  21.386  25.221  1.00  0.00     0.200 A 
ATOM     83  F   UNL A   1      45.395  23.004  24.078  1.00  0.00    -0.200 F 
ATOM     84  F   UNL A   1      44.548  20.431  24.386  1.00  0.00    -0.200 F 
ENDBRANCH  60  74
BRANCH  61  85
ATOM     85  C   UNL A   1      41.896  32.261  31.474  1.00  0.00     0.064 A 
ATOM     86  C   UNL A   1      41.907  33.454  30.720  1.00  0.00     0.173 A 
ATOM     87  C   UNL A   1      40.693  31.913  32.102  1.00  0.00     0.173 A 
ATOM     88  F   UNL A   1      43.030  33.836  30.091  1.00  0.00    -0.203 F 
ATOM     89  C   UNL A   1      40.737  34.171  30.474  1.00  0.00     0.198 A 
ATOM     90  C   UNL A   1      39.518  32.628  31.840  1.00  0.00     0.198 A 
ATOM     91  F   UNL A   1      40.615  30.795  32.837  1.00  0.00    -0.203 F 
ATOM     92  F   UNL A   1      40.755  35.206  29.620  1.00  0.00    -0.200 F 
ATOM     93  C   UNL A   1      39.533  33.726  30.992  1.00  0.00     0.200 A 
ATOM     94  F   UNL A   1      38.344  32.185  32.315  1.00  0.00    -0.200 F 
ATOM     95  F   UNL A   1      38.386  34.307  30.610  1.00  0.00    -0.200 F 
ENDBRANCH  61  85
BRANCH  73  96
ATOM     96  C   UNL A   1      44.378  25.716  33.240  1.00  0.00     0.064 A 
ATOM     97  C   UNL A   1      43.374  25.418  34.175  1.00  0.00     0.173 A 
ATOM     98  C   UNL A   1      45.495  24.851  33.229  1.00  0.00     0.173 A 
ATOM     99  F   UNL A   1      42.221  26.101  34.204  1.00  0.00    -0.203 F 
ATOM    100  C   UNL A   1      43.505  24.364  35.076  1.00  0.00     0.198 A 
ATOM    101  C   UNL A   1      45.592  23.761  34.087  1.00  0.00     0.198 A 
ATOM    102  F   UNL A   1      46.508  25.024  32.366  1.00  0.00    -0.203 F 
ATOM    103  F   UNL A   1      42.540  24.144  35.980  1.00  0.00    -0.200 F 
ATOM    104  C   UNL A   1      44.605  23.528  35.023  1.00  0.00     0.200 A 
ATOM    105  F   UNL A   1      46.637  22.928  33.987  1.00  0.00    -0.200 F 
ATOM    106  F   UNL A   1      44.703  22.488  35.860  1.00  0.00    -0.200 F 
ENDBRANCH  73  96
ENDBRANCH  47  48
ENDBRANCH  40  42
ENDBRANCH  39  40
ENDBRANCH  38  39
ENDBRANCH  37  38
ENDBRANCH  36  37
ENDBRANCH  35  36
ENDBRANCH   1  35
TORSDOF 19
ENDMDL
