MODEL 1
REMARK VINA RESULT:     -11.6      0.000      0.000
REMARK SMILES O=C(OCCOCCOC(=O)c1cccn1CC(=O)N1CC[C@H]2CCCC[C@H]2C1)c1ccc(-c2c3nc(c(-c4c(F)c(F)c(F)c(F)c4F)c4ccc([nH]4)c(-c4c(F)c(F)c(F)c(F)c4F)c4nc(c(-c5c(F)c(F)c(F)c(F)c5F)c5ccc2[nH]5)C=C4)C=C3)cc1
REMARK SMILES IDX 7 1 6 2 5 3 4 4 3 5 2 6 1 7 30 8 31 9 92 10 32 11 91 12
REMARK SMILES IDX 33 13 34 14 35 15 85 16 36 17 90 18 84 19 86 20 37 21 89 22
REMARK SMILES IDX 83 23 82 24 38 26 70 27 50 28 69 29 51 30 54 31 68 32 87 33
REMARK SMILES IDX 52 34 53 35 67 37 88 38 55 39 39 40 40 41 48 42 41 43 42 44
REMARK SMILES IDX 46 45 49 46 43 47 44 48 47 49 45 50 71 51 72 52 80 53 73 54
REMARK SMILES IDX 74 55 78 56 81 57 75 58 76 59 79 60 77 61 56 62 57 63 65 64
REMARK SMILES IDX 58 65 59 66 63 67 66 68 60 69 61 70 64 71 62 72 8 73 9 74
REMARK SMILES IDX 10 75 11 76 12 77 13 78 16 79 14 80 15 81 17 82 18 83 19 84
REMARK SMILES IDX 20 85 21 86 29 87 22 88 28 89 23 90 27 91 24 92 26 93 25 94
REMARK H PARENT 86 25 54 36
REMARK Flexibility Score: inf
ROOT
ATOM      1  C   UNL A   1      33.553  30.303  27.259  1.00  0.00     0.202 C 
ENDROOT
BRANCH   1   2
ATOM      2  O   UNL A   1      32.123  30.358  27.169  1.00  0.00    -0.374 OA
BRANCH   2   3
ATOM      3  C   UNL A   1      31.526  31.603  26.847  1.00  0.00     0.202 C 
BRANCH   3   4
ATOM      4  C   UNL A   1      32.457  32.806  26.747  1.00  0.00     0.261 C 
BRANCH   4   5
ATOM      5  O   UNL A   1      32.111  33.865  27.654  1.00  0.00    -0.460 OA
BRANCH   5   6
ATOM      6  C   UNL A   1      32.921  34.608  28.442  1.00  0.00     0.338 C 
ATOM      7  O   UNL A   1      32.593  35.726  28.825  1.00  0.00    -0.246 OA
BRANCH   6   8
ATOM      8  C   UNL A   1      34.087  33.955  29.040  1.00  0.00     0.060 A 
ATOM      9  C   UNL A   1      33.966  32.951  29.994  1.00  0.00     0.016 A 
ATOM     10  C   UNL A   1      35.346  34.435  28.653  1.00  0.00     0.016 A 
ATOM     11  C   UNL A   1      35.054  32.637  30.770  1.00  0.00     0.010 A 
ATOM     12  C   UNL A   1      36.476  33.997  29.316  1.00  0.00     0.010 A 
ATOM     13  C   UNL A   1      36.310  33.134  30.402  1.00  0.00    -0.014 A 
BRANCH  13  14
ATOM     14  C   UNL A   1      37.443  32.407  30.979  1.00  0.00     0.031 A 
ATOM     15  C   UNL A   1      37.707  31.146  30.123  1.00  0.00     0.074 A 
ATOM     16  C   UNL A   1      37.951  32.901  32.144  1.00  0.00     0.049 A 
ATOM     17  N   UNL A   1      38.130  29.972  30.470  1.00  0.00    -0.248 NA
ATOM     18  C   UNL A   1      37.322  31.164  28.675  1.00  0.00     0.031 C 
ATOM     19  C   UNL A   1      37.530  34.164  32.789  1.00  0.00     0.029 A 
ATOM     20  N   UNL A   1      38.899  32.451  33.033  1.00  0.00    -0.354 N 
ATOM     21  C   UNL A   1      38.267  29.213  29.285  1.00  0.00     0.074 A 
ATOM     22  C   UNL A   1      37.579  29.925  28.257  1.00  0.00     0.031 C 
ATOM     23  C   UNL A   1      38.147  34.334  33.978  1.00  0.00     0.029 A 
ATOM     24  C   UNL A   1      39.045  33.224  34.219  1.00  0.00     0.049 A 
ATOM     25  H   UNL A   1      39.441  31.648  32.861  1.00  0.00     0.167 HD
ATOM     26  C   UNL A   1      39.112  28.147  29.180  1.00  0.00     0.037 A 
ATOM     27  C   UNL A   1      39.812  32.952  35.322  1.00  0.00     0.037 A 
ATOM     28  C   UNL A   1      39.759  27.931  30.428  1.00  0.00     0.049 A 
ATOM     29  C   UNL A   1      40.609  31.781  34.928  1.00  0.00     0.074 A 
ATOM     30  C   UNL A   1      39.305  27.416  31.612  1.00  0.00     0.029 A 
ATOM     31  N   UNL A   1      40.912  28.647  30.654  1.00  0.00    -0.354 N 
ATOM     32  N   UNL A   1      41.580  31.813  34.064  1.00  0.00    -0.248 NA
ATOM     33  C   UNL A   1      40.223  30.459  35.434  1.00  0.00     0.031 C 
ATOM     34  C   UNL A   1      39.924  28.237  32.575  1.00  0.00     0.029 A 
ATOM     35  C   UNL A   1      40.907  29.031  31.971  1.00  0.00     0.049 A 
ATOM     36  H   UNL A   1      41.612  28.847  29.991  1.00  0.00     0.167 HD
ATOM     37  C   UNL A   1      41.672  30.496  33.685  1.00  0.00     0.074 A 
ATOM     38  C   UNL A   1      41.091  29.715  34.754  1.00  0.00     0.031 C 
ATOM     39  C   UNL A   1      41.691  30.182  32.362  1.00  0.00     0.037 A 
BRANCH  26  40
ATOM     40  C   UNL A   1      39.663  27.414  27.992  1.00  0.00     0.064 A 
ATOM     41  C   UNL A   1      39.746  26.002  28.071  1.00  0.00     0.173 A 
ATOM     42  C   UNL A   1      40.427  28.024  26.990  1.00  0.00     0.173 A 
ATOM     43  F   UNL A   1      39.005  25.321  28.961  1.00  0.00    -0.203 F 
ATOM     44  C   UNL A   1      40.657  25.273  27.312  1.00  0.00     0.198 A 
ATOM     45  C   UNL A   1      41.302  27.281  26.191  1.00  0.00     0.198 A 
ATOM     46  F   UNL A   1      40.434  29.352  26.827  1.00  0.00    -0.203 F 
ATOM     47  F   UNL A   1      40.813  23.960  27.535  1.00  0.00    -0.200 F 
ATOM     48  C   UNL A   1      41.452  25.918  26.387  1.00  0.00     0.200 A 
ATOM     49  F   UNL A   1      42.065  27.909  25.286  1.00  0.00    -0.200 F 
ATOM     50  F   UNL A   1      42.387  25.238  25.710  1.00  0.00    -0.200 F 
ENDBRANCH  26  40
BRANCH  27  51
ATOM     51  C   UNL A   1      39.998  33.444  36.742  1.00  0.00     0.064 A 
ATOM     52  C   UNL A   1      41.081  34.182  37.232  1.00  0.00     0.173 A 
ATOM     53  C   UNL A   1      38.959  33.242  37.700  1.00  0.00     0.173 A 
ATOM     54  F   UNL A   1      42.187  34.355  36.500  1.00  0.00    -0.203 F 
ATOM     55  C   UNL A   1      41.069  34.766  38.516  1.00  0.00     0.198 A 
ATOM     56  C   UNL A   1      38.920  33.864  38.947  1.00  0.00     0.198 A 
ATOM     57  F   UNL A   1      37.924  32.427  37.459  1.00  0.00    -0.203 F 
ATOM     58  F   UNL A   1      42.130  35.471  38.935  1.00  0.00    -0.200 F 
ATOM     59  C   UNL A   1      39.973  34.644  39.352  1.00  0.00     0.200 A 
ATOM     60  F   UNL A   1      37.843  33.710  39.732  1.00  0.00    -0.200 F 
ATOM     61  F   UNL A   1      39.935  35.262  40.541  1.00  0.00    -0.200 F 
ENDBRANCH  27  51
BRANCH  39  62
ATOM     62  C   UNL A   1      42.187  31.310  31.466  1.00  0.00     0.064 A 
ATOM     63  C   UNL A   1      43.531  31.714  31.520  1.00  0.00     0.173 A 
ATOM     64  C   UNL A   1      41.356  32.096  30.651  1.00  0.00     0.173 A 
ATOM     65  F   UNL A   1      44.413  30.999  32.234  1.00  0.00    -0.203 F 
ATOM     66  C   UNL A   1      43.991  32.853  30.847  1.00  0.00     0.198 A 
ATOM     67  C   UNL A   1      41.805  33.240  29.986  1.00  0.00     0.198 A 
ATOM     68  F   UNL A   1      40.087  31.758  30.459  1.00  0.00    -0.203 F 
ATOM     69  F   UNL A   1      45.282  33.199  30.931  1.00  0.00    -0.200 F 
ATOM     70  C   UNL A   1      43.125  33.623  30.091  1.00  0.00     0.200 A 
ATOM     71  F   UNL A   1      40.954  33.960  29.237  1.00  0.00    -0.200 F 
ATOM     72  F   UNL A   1      43.567  34.713  29.445  1.00  0.00    -0.200 F 
ENDBRANCH  39  62
ENDBRANCH  13  14
ENDBRANCH   6   8
ENDBRANCH   5   6
ENDBRANCH   4   5
ENDBRANCH   3   4
ENDBRANCH   2   3
ENDBRANCH   1   2
BRANCH   1  73
ATOM     73  C   UNL A   1      34.291  29.134  26.596  1.00  0.00     0.261 C 
BRANCH  73  74
ATOM     74  O   UNL A   1      33.419  28.254  25.846  1.00  0.00    -0.459 OA
BRANCH  74  75
ATOM     75  C   UNL A   1      33.419  28.410  24.491  1.00  0.00     0.355 C 
ATOM     76  O   UNL A   1      34.389  28.726  23.819  1.00  0.00    -0.244 OA
BRANCH  75  77
ATOM     77  C   UNL A   1      32.121  28.102  23.936  1.00  0.00     0.128 A 
ATOM     78  C   UNL A   1      30.888  28.540  24.399  1.00  0.00     0.035 A 
ATOM     79  N   UNL A   1      31.869  27.416  22.755  1.00  0.00    -0.333 N 
ATOM     80  C   UNL A   1      29.934  28.311  23.379  1.00  0.00     0.020 A 
ATOM     81  C   UNL A   1      30.582  27.672  22.347  1.00  0.00     0.087 A 
BRANCH  79  82
ATOM     82  C   UNL A   1      32.816  26.625  21.986  1.00  0.00     0.222 C 
BRANCH  82  83
ATOM     83  C   UNL A   1      32.973  25.121  22.269  1.00  0.00     0.242 C 
ATOM     84  O   UNL A   1      33.308  24.414  21.306  1.00  0.00    -0.273 OA
BRANCH  83  85
ATOM     85  N   UNL A   1      32.994  24.578  23.551  1.00  0.00    -0.341 N 
ATOM     86  C   UNL A   1      31.865  24.458  24.467  1.00  0.00     0.120 C 
ATOM     87  C   UNL A   1      34.154  23.774  23.967  1.00  0.00     0.123 C 
ATOM     88  C   UNL A   1      32.229  24.867  25.889  1.00  0.00     0.025 C 
ATOM     89  C   UNL A   1      34.633  24.211  25.366  1.00  0.00     0.012 C 
ATOM     90  C   UNL A   1      33.506  24.187  26.415  1.00  0.00    -0.005 C 
ATOM     91  C   UNL A   1      35.842  23.428  25.874  1.00  0.00     0.006 C 
ATOM     92  C   UNL A   1      33.171  22.777  26.927  1.00  0.00     0.004 C 
ATOM     93  C   UNL A   1      35.514  21.975  26.167  1.00  0.00     0.000 C 
ATOM     94  C   UNL A   1      34.342  21.817  27.127  1.00  0.00     0.000 C 
ENDBRANCH  83  85
ENDBRANCH  82  83
ENDBRANCH  79  82
ENDBRANCH  75  77
ENDBRANCH  74  75
ENDBRANCH  73  74
ENDBRANCH   1  73
TORSDOF 17
ENDMDL
MODEL 2
REMARK VINA RESULT:     -11.6      4.857     10.236
REMARK SMILES O=C(OCCOCCOC(=O)c1cccn1CC(=O)N1CC[C@H]2CCCC[C@H]2C1)c1ccc(-c2c3nc(c(-c4c(F)c(F)c(F)c(F)c4F)c4ccc([nH]4)c(-c4c(F)c(F)c(F)c(F)c4F)c4nc(c(-c5c(F)c(F)c(F)c(F)c5F)c5ccc2[nH]5)C=C4)C=C3)cc1
REMARK SMILES IDX 7 1 6 2 5 3 4 4 3 5 2 6 1 7 30 8 31 9 92 10 32 11 91 12
REMARK SMILES IDX 33 13 34 14 35 15 85 16 36 17 90 18 84 19 86 20 37 21 89 22
REMARK SMILES IDX 83 23 82 24 38 26 70 27 50 28 69 29 51 30 54 31 68 32 87 33
REMARK SMILES IDX 52 34 53 35 67 37 88 38 55 39 39 40 40 41 48 42 41 43 42 44
REMARK SMILES IDX 46 45 49 46 43 47 44 48 47 49 45 50 71 51 72 52 80 53 73 54
REMARK SMILES IDX 74 55 78 56 81 57 75 58 76 59 79 60 77 61 56 62 57 63 65 64
REMARK SMILES IDX 58 65 59 66 63 67 66 68 60 69 61 70 64 71 62 72 8 73 9 74
REMARK SMILES IDX 10 75 11 76 12 77 13 78 16 79 14 80 15 81 17 82 18 83 19 84
REMARK SMILES IDX 20 85 21 86 29 87 22 88 28 89 23 90 27 91 24 92 26 93 25 94
REMARK H PARENT 86 25 54 36
REMARK Flexibility Score: inf
ROOT
ATOM      1  C   UNL A   1      37.532  22.733  25.017  1.00  0.00     0.202 C 
ENDROOT
BRANCH   1   2
ATOM      2  O   UNL A   1      38.496  21.749  25.415  1.00  0.00    -0.374 OA
BRANCH   2   3
ATOM      3  C   UNL A   1      38.271  20.405  25.027  1.00  0.00     0.202 C 
BRANCH   3   4
ATOM      4  C   UNL A   1      38.972  19.326  25.845  1.00  0.00     0.261 C 
BRANCH   4   5
ATOM      5  O   UNL A   1      40.320  19.076  25.413  1.00  0.00    -0.460 OA
BRANCH   5   6
ATOM      6  C   UNL A   1      41.477  19.271  26.086  1.00  0.00     0.338 C 
ATOM      7  O   UNL A   1      42.295  18.369  26.228  1.00  0.00    -0.246 OA
BRANCH   6   8
ATOM      8  C   UNL A   1      41.855  20.645  26.422  1.00  0.00     0.060 A 
ATOM      9  C   UNL A   1      42.029  21.624  25.451  1.00  0.00     0.016 A 
ATOM     10  C   UNL A   1      42.098  20.919  27.775  1.00  0.00     0.016 A 
ATOM     11  C   UNL A   1      42.721  22.766  25.774  1.00  0.00     0.010 A 
ATOM     12  C   UNL A   1      42.639  22.137  28.138  1.00  0.00     0.010 A 
ATOM     13  C   UNL A   1      42.987  23.032  27.122  1.00  0.00    -0.014 A 
BRANCH  13  14
ATOM     14  C   UNL A   1      43.299  24.433  27.413  1.00  0.00     0.031 A 
ATOM     15  C   UNL A   1      41.973  25.199  27.623  1.00  0.00     0.074 A 
ATOM     16  C   UNL A   1      44.615  24.787  27.350  1.00  0.00     0.049 A 
ATOM     17  N   UNL A   1      41.659  26.424  27.336  1.00  0.00    -0.248 NA
ATOM     18  C   UNL A   1      40.775  24.447  28.117  1.00  0.00     0.031 C 
ATOM     19  C   UNL A   1      45.740  23.851  27.136  1.00  0.00     0.029 A 
ATOM     20  N   UNL A   1      45.280  25.988  27.432  1.00  0.00    -0.354 N 
ATOM     21  C   UNL A   1      40.342  26.635  27.808  1.00  0.00     0.074 A 
ATOM     22  C   UNL A   1      39.794  25.349  28.092  1.00  0.00     0.031 C 
ATOM     23  C   UNL A   1      46.912  24.514  27.026  1.00  0.00     0.029 A 
ATOM     24  C   UNL A   1      46.679  25.935  27.183  1.00  0.00     0.049 A 
ATOM     25  H   UNL A   1      44.818  26.830  27.650  1.00  0.00     0.167 HD
ATOM     26  C   UNL A   1      39.858  27.870  28.125  1.00  0.00     0.037 A 
ATOM     27  C   UNL A   1      47.565  26.976  27.075  1.00  0.00     0.037 A 
ATOM     28  C   UNL A   1      40.856  28.852  27.868  1.00  0.00     0.049 A 
ATOM     29  C   UNL A   1      46.785  28.156  27.475  1.00  0.00     0.074 A 
ATOM     30  C   UNL A   1      41.338  29.374  26.699  1.00  0.00     0.029 A 
ATOM     31  N   UNL A   1      41.753  29.095  28.882  1.00  0.00    -0.354 N 
ATOM     32  N   UNL A   1      46.399  28.402  28.691  1.00  0.00    -0.248 NA
ATOM     33  C   UNL A   1      46.292  29.064  26.433  1.00  0.00     0.031 C 
ATOM     34  C   UNL A   1      42.721  29.487  26.947  1.00  0.00     0.029 A 
ATOM     35  C   UNL A   1      42.985  29.279  28.307  1.00  0.00     0.049 A 
ATOM     36  H   UNL A   1      41.548  29.129  29.845  1.00  0.00     0.167 HD
ATOM     37  C   UNL A   1      45.358  29.276  28.493  1.00  0.00     0.074 A 
ATOM     38  C   UNL A   1      45.564  29.877  27.194  1.00  0.00     0.031 C 
ATOM     39  C   UNL A   1      44.167  29.047  29.107  1.00  0.00     0.037 A 
BRANCH  26  40
ATOM     40  C   UNL A   1      38.663  28.307  28.921  1.00  0.00     0.064 A 
ATOM     41  C   UNL A   1      37.886  29.376  28.410  1.00  0.00     0.173 A 
ATOM     42  C   UNL A   1      38.479  28.001  30.276  1.00  0.00     0.173 A 
ATOM     43  F   UNL A   1      37.949  29.707  27.109  1.00  0.00    -0.203 F 
ATOM     44  C   UNL A   1      37.110  30.184  29.234  1.00  0.00     0.198 A 
ATOM     45  C   UNL A   1      37.655  28.783  31.090  1.00  0.00     0.198 A 
ATOM     46  F   UNL A   1      39.166  27.018  30.869  1.00  0.00    -0.203 F 
ATOM     47  F   UNL A   1      36.520  31.280  28.733  1.00  0.00    -0.200 F 
ATOM     48  C   UNL A   1      37.013  29.901  30.581  1.00  0.00     0.200 A 
ATOM     49  F   UNL A   1      37.555  28.498  32.396  1.00  0.00    -0.200 F 
ATOM     50  F   UNL A   1      36.334  30.719  31.396  1.00  0.00    -0.200 F 
ENDBRANCH  26  40
BRANCH  27  51
ATOM     51  C   UNL A   1      48.989  27.230  26.629  1.00  0.00     0.064 A 
ATOM     52  C   UNL A   1      49.402  27.631  25.353  1.00  0.00     0.173 A 
ATOM     53  C   UNL A   1      50.051  27.155  27.580  1.00  0.00     0.173 A 
ATOM     54  F   UNL A   1      48.552  27.635  24.321  1.00  0.00    -0.203 F 
ATOM     55  C   UNL A   1      50.726  28.037  25.088  1.00  0.00     0.198 A 
ATOM     56  C   UNL A   1      51.347  27.607  27.335  1.00  0.00     0.198 A 
ATOM     57  F   UNL A   1      49.870  26.636  28.801  1.00  0.00    -0.203 F 
ATOM     58  F   UNL A   1      51.069  28.420  23.850  1.00  0.00    -0.200 F 
ATOM     59  C   UNL A   1      51.684  28.067  26.087  1.00  0.00     0.200 A 
ATOM     60  F   UNL A   1      52.247  27.609  28.329  1.00  0.00    -0.200 F 
ATOM     61  F   UNL A   1      52.921  28.523  25.850  1.00  0.00    -0.200 F 
ENDBRANCH  27  51
BRANCH  39  62
ATOM     62  C   UNL A   1      44.276  28.206  30.373  1.00  0.00     0.064 A 
ATOM     63  C   UNL A   1      44.934  28.716  31.503  1.00  0.00     0.173 A 
ATOM     64  C   UNL A   1      43.871  26.865  30.468  1.00  0.00     0.173 A 
ATOM     65  F   UNL A   1      45.318  30.002  31.527  1.00  0.00    -0.203 F 
ATOM     66  C   UNL A   1      45.209  27.922  32.623  1.00  0.00     0.198 A 
ATOM     67  C   UNL A   1      44.151  26.062  31.577  1.00  0.00     0.198 A 
ATOM     68  F   UNL A   1      43.166  26.303  29.494  1.00  0.00    -0.203 F 
ATOM     69  F   UNL A   1      45.842  28.454  33.677  1.00  0.00    -0.200 F 
ATOM     70  C   UNL A   1      44.830  26.591  32.655  1.00  0.00     0.200 A 
ATOM     71  F   UNL A   1      43.753  24.780  31.598  1.00  0.00    -0.200 F 
ATOM     72  F   UNL A   1      45.093  25.831  33.728  1.00  0.00    -0.200 F 
ENDBRANCH  39  62
ENDBRANCH  13  14
ENDBRANCH   6   8
ENDBRANCH   5   6
ENDBRANCH   4   5
ENDBRANCH   3   4
ENDBRANCH   2   3
ENDBRANCH   1   2
BRANCH   1  73
ATOM     73  C   UNL A   1      36.921  23.645  26.088  1.00  0.00     0.261 C 
BRANCH  73  74
ATOM     74  O   UNL A   1      35.483  23.772  25.985  1.00  0.00    -0.459 OA
BRANCH  74  75
ATOM     75  C   UNL A   1      34.777  22.610  25.877  1.00  0.00     0.355 C 
ATOM     76  O   UNL A   1      34.915  21.634  26.600  1.00  0.00    -0.244 OA
BRANCH  75  77
ATOM     77  C   UNL A   1      33.798  22.696  24.819  1.00  0.00     0.128 A 
ATOM     78  C   UNL A   1      34.043  22.861  23.464  1.00  0.00     0.035 A 
ATOM     79  N   UNL A   1      32.428  22.497  24.942  1.00  0.00    -0.333 N 
ATOM     80  C   UNL A   1      32.857  22.536  22.763  1.00  0.00     0.020 A 
ATOM     81  C   UNL A   1      31.892  22.253  23.702  1.00  0.00     0.087 A 
BRANCH  79  82
ATOM     82  C   UNL A   1      31.661  22.448  26.177  1.00  0.00     0.222 C 
BRANCH  82  83
ATOM     83  C   UNL A   1      30.684  23.584  26.523  1.00  0.00     0.242 C 
ATOM     84  O   UNL A   1      29.831  23.330  27.387  1.00  0.00    -0.273 OA
BRANCH  83  85
ATOM     85  N   UNL A   1      30.857  24.901  26.106  1.00  0.00    -0.341 N 
ATOM     86  C   UNL A   1      29.832  25.791  25.572  1.00  0.00     0.120 C 
ATOM     87  C   UNL A   1      32.090  25.612  26.482  1.00  0.00     0.123 C 
ATOM     88  C   UNL A   1      30.315  26.562  24.350  1.00  0.00     0.025 C 
ATOM     89  C   UNL A   1      32.684  26.336  25.257  1.00  0.00     0.012 C 
ATOM     90  C   UNL A   1      31.669  27.263  24.563  1.00  0.00    -0.005 C 
ATOM     91  C   UNL A   1      33.973  27.098  25.557  1.00  0.00     0.006 C 
ATOM     92  C   UNL A   1      31.454  28.598  25.295  1.00  0.00     0.004 C 
ATOM     93  C   UNL A   1      33.745  28.293  26.464  1.00  0.00     0.000 C 
ATOM     94  C   UNL A   1      32.682  29.245  25.930  1.00  0.00     0.000 C 
ENDBRANCH  83  85
ENDBRANCH  82  83
ENDBRANCH  79  82
ENDBRANCH  75  77
ENDBRANCH  74  75
ENDBRANCH  73  74
ENDBRANCH   1  73
TORSDOF 17
ENDMDL
MODEL 3
REMARK VINA RESULT:     -11.6      1.299      3.341
REMARK SMILES O=C(OCCOCCOC(=O)c1cccn1CC(=O)N1CC[C@H]2CCCC[C@H]2C1)c1ccc(-c2c3nc(c(-c4c(F)c(F)c(F)c(F)c4F)c4ccc([nH]4)c(-c4c(F)c(F)c(F)c(F)c4F)c4nc(c(-c5c(F)c(F)c(F)c(F)c5F)c5ccc2[nH]5)C=C4)C=C3)cc1
REMARK SMILES IDX 7 1 6 2 5 3 4 4 3 5 2 6 1 7 30 8 31 9 92 10 32 11 91 12
REMARK SMILES IDX 33 13 34 14 35 15 85 16 36 17 90 18 84 19 86 20 37 21 89 22
REMARK SMILES IDX 83 23 82 24 38 26 70 27 50 28 69 29 51 30 54 31 68 32 87 33
REMARK SMILES IDX 52 34 53 35 67 37 88 38 55 39 39 40 40 41 48 42 41 43 42 44
REMARK SMILES IDX 46 45 49 46 43 47 44 48 47 49 45 50 71 51 72 52 80 53 73 54
REMARK SMILES IDX 74 55 78 56 81 57 75 58 76 59 79 60 77 61 56 62 57 63 65 64
REMARK SMILES IDX 58 65 59 66 63 67 66 68 60 69 61 70 64 71 62 72 8 73 9 74
REMARK SMILES IDX 10 75 11 76 12 77 13 78 16 79 14 80 15 81 17 82 18 83 19 84
REMARK SMILES IDX 20 85 21 86 29 87 22 88 28 89 23 90 27 91 24 92 26 93 25 94
REMARK H PARENT 86 25 54 36
REMARK Flexibility Score: inf
ROOT
ATOM      1  C   UNL A   1      32.190  30.234  26.811  1.00  0.00     0.202 C 
ENDROOT
BRANCH   1   2
ATOM      2  O   UNL A   1      31.395  31.183  26.086  1.00  0.00    -0.374 OA
BRANCH   2   3
ATOM      3  C   UNL A   1      31.321  32.506  26.588  1.00  0.00     0.202 C 
BRANCH   3   4
ATOM      4  C   UNL A   1      32.536  33.021  27.352  1.00  0.00     0.261 C 
BRANCH   4   5
ATOM      5  O   UNL A   1      32.343  34.335  27.901  1.00  0.00    -0.460 OA
BRANCH   5   6
ATOM      6  C   UNL A   1      33.061  34.972  28.854  1.00  0.00     0.338 C 
ATOM      7  O   UNL A   1      32.646  35.992  29.394  1.00  0.00    -0.246 OA
BRANCH   6   8
ATOM      8  C   UNL A   1      34.226  34.284  29.412  1.00  0.00     0.060 A 
ATOM      9  C   UNL A   1      34.130  33.434  30.508  1.00  0.00     0.016 A 
ATOM     10  C   UNL A   1      35.468  34.571  28.828  1.00  0.00     0.016 A 
ATOM     11  C   UNL A   1      35.271  33.111  31.201  1.00  0.00     0.010 A 
ATOM     12  C   UNL A   1      36.625  34.107  29.423  1.00  0.00     0.010 A 
ATOM     13  C   UNL A   1      36.513  33.418  30.634  1.00  0.00    -0.014 A 
BRANCH  13  14
ATOM     14  C   UNL A   1      37.636  32.658  31.186  1.00  0.00     0.031 A 
ATOM     15  C   UNL A   1      37.809  31.364  30.356  1.00  0.00     0.074 A 
ATOM     16  C   UNL A   1      38.213  33.161  32.314  1.00  0.00     0.049 A 
ATOM     17  N   UNL A   1      38.195  30.181  30.721  1.00  0.00    -0.248 NA
ATOM     18  C   UNL A   1      37.366  31.358  28.925  1.00  0.00     0.031 C 
ATOM     19  C   UNL A   1      37.875  34.458  32.938  1.00  0.00     0.029 A 
ATOM     20  N   UNL A   1      39.177  32.694  33.177  1.00  0.00    -0.354 N 
ATOM     21  C   UNL A   1      38.250  29.385  29.553  1.00  0.00     0.074 A 
ATOM     22  C   UNL A   1      37.551  30.098  28.534  1.00  0.00     0.031 C 
ATOM     23  C   UNL A   1      38.547  34.633  34.096  1.00  0.00     0.029 A 
ATOM     24  C   UNL A   1      39.406  33.491  34.333  1.00  0.00     0.049 A 
ATOM     25  H   UNL A   1      39.676  31.863  33.006  1.00  0.00     0.167 HD
ATOM     26  C   UNL A   1      39.043  28.280  29.446  1.00  0.00     0.037 A 
ATOM     27  C   UNL A   1      40.206  33.216  35.412  1.00  0.00     0.037 A 
ATOM     28  C   UNL A   1      39.732  28.070  30.673  1.00  0.00     0.049 A 
ATOM     29  C   UNL A   1      40.934  32.000  35.020  1.00  0.00     0.074 A 
ATOM     30  C   UNL A   1      39.305  27.608  31.888  1.00  0.00     0.029 A 
ATOM     31  N   UNL A   1      40.923  28.740  30.831  1.00  0.00    -0.354 N 
ATOM     32  N   UNL A   1      41.869  31.965  34.117  1.00  0.00    -0.248 NA
ATOM     33  C   UNL A   1      40.513  30.712  35.579  1.00  0.00     0.031 C 
ATOM     34  C   UNL A   1      39.999  28.427  32.802  1.00  0.00     0.029 A 
ATOM     35  C   UNL A   1      40.990  29.160  32.135  1.00  0.00     0.049 A 
ATOM     36  H   UNL A   1      41.603  28.891  30.134  1.00  0.00     0.167 HD
ATOM     37  C   UNL A   1      41.888  30.636  33.773  1.00  0.00     0.074 A 
ATOM     38  C   UNL A   1      41.319  29.911  34.887  1.00  0.00     0.031 C 
ATOM     39  C   UNL A   1      41.838  30.285  32.461  1.00  0.00     0.037 A 
BRANCH  26  40
ATOM     40  C   UNL A   1      39.512  27.491  28.258  1.00  0.00     0.064 A 
ATOM     41  C   UNL A   1      39.556  26.080  28.382  1.00  0.00     0.173 A 
ATOM     42  C   UNL A   1      40.244  28.043  27.200  1.00  0.00     0.173 A 
ATOM     43  F   UNL A   1      38.840  25.453  29.330  1.00  0.00    -0.203 F 
ATOM     44  C   UNL A   1      40.405  25.298  27.605  1.00  0.00     0.198 A 
ATOM     45  C   UNL A   1      41.054  27.246  26.386  1.00  0.00     0.198 A 
ATOM     46  F   UNL A   1      40.282  29.364  26.991  1.00  0.00    -0.203 F 
ATOM     47  F   UNL A   1      40.533  23.989  27.866  1.00  0.00    -0.200 F 
ATOM     48  C   UNL A   1      41.173  25.886  26.621  1.00  0.00     0.200 A 
ATOM     49  F   UNL A   1      41.790  27.820  25.423  1.00  0.00    -0.200 F 
ATOM     50  F   UNL A   1      42.052  25.154  25.923  1.00  0.00    -0.200 F 
ENDBRANCH  26  40
BRANCH  27  51
ATOM     51  C   UNL A   1      40.471  33.738  36.807  1.00  0.00     0.064 A 
ATOM     52  C   UNL A   1      41.620  34.411  37.240  1.00  0.00     0.173 A 
ATOM     53  C   UNL A   1      39.452  33.642  37.803  1.00  0.00     0.173 A 
ATOM     54  F   UNL A   1      42.711  34.481  36.470  1.00  0.00    -0.203 F 
ATOM     55  C   UNL A   1      41.691  35.035  38.503  1.00  0.00     0.198 A 
ATOM     56  C   UNL A   1      39.498  34.304  39.028  1.00  0.00     0.198 A 
ATOM     57  F   UNL A   1      38.355  32.896  37.620  1.00  0.00    -0.203 F 
ATOM     58  F   UNL A   1      42.812  35.674  38.867  1.00  0.00    -0.200 F 
ATOM     59  C   UNL A   1      40.616  35.019  39.375  1.00  0.00     0.200 A 
ATOM     60  F   UNL A   1      38.439  34.254  39.849  1.00  0.00    -0.200 F 
ATOM     61  F   UNL A   1      40.660  35.675  40.543  1.00  0.00    -0.200 F 
ENDBRANCH  27  51
BRANCH  39  62
ATOM     62  C   UNL A   1      42.344  31.365  31.512  1.00  0.00     0.064 A 
ATOM     63  C   UNL A   1      43.705  31.711  31.501  1.00  0.00     0.173 A 
ATOM     64  C   UNL A   1      41.516  32.163  30.708  1.00  0.00     0.173 A 
ATOM     65  F   UNL A   1      44.585  30.978  32.200  1.00  0.00    -0.203 F 
ATOM     66  C   UNL A   1      44.186  32.809  30.777  1.00  0.00     0.198 A 
ATOM     67  C   UNL A   1      41.985  33.268  29.992  1.00  0.00     0.198 A 
ATOM     68  F   UNL A   1      40.226  31.876  30.576  1.00  0.00    -0.203 F 
ATOM     69  F   UNL A   1      45.493  33.101  30.799  1.00  0.00    -0.200 F 
ATOM     70  C   UNL A   1      43.323  33.596  30.033  1.00  0.00     0.200 A 
ATOM     71  F   UNL A   1      41.135  34.003  29.257  1.00  0.00    -0.200 F 
ATOM     72  F   UNL A   1      43.784  34.647  29.339  1.00  0.00    -0.200 F 
ENDBRANCH  39  62
ENDBRANCH  13  14
ENDBRANCH   6   8
ENDBRANCH   5   6
ENDBRANCH   4   5
ENDBRANCH   3   4
ENDBRANCH   2   3
ENDBRANCH   1   2
BRANCH   1  73
ATOM     73  C   UNL A   1      32.722  29.000  26.074  1.00  0.00     0.261 C 
BRANCH  73  74
ATOM     74  O   UNL A   1      31.684  28.066  25.691  1.00  0.00    -0.459 OA
BRANCH  74  75
ATOM     75  C   UNL A   1      31.857  26.770  26.081  1.00  0.00     0.355 C 
ATOM     76  O   UNL A   1      31.346  26.258  27.065  1.00  0.00    -0.244 OA
BRANCH  75  77
ATOM     77  C   UNL A   1      32.696  26.057  25.146  1.00  0.00     0.128 A 
ATOM     78  C   UNL A   1      34.030  25.717  25.309  1.00  0.00     0.035 A 
ATOM     79  N   UNL A   1      32.287  25.462  23.959  1.00  0.00    -0.333 N 
ATOM     80  C   UNL A   1      34.352  24.736  24.341  1.00  0.00     0.020 A 
ATOM     81  C   UNL A   1      33.235  24.551  23.559  1.00  0.00     0.087 A 
BRANCH  79  82
ATOM     82  C   UNL A   1      31.024  25.667  23.269  1.00  0.00     0.222 C 
BRANCH  82  83
ATOM     83  C   UNL A   1      30.792  26.946  22.448  1.00  0.00     0.242 C 
ATOM     84  O   UNL A   1      31.362  27.002  21.346  1.00  0.00    -0.273 OA
BRANCH  83  85
ATOM     85  N   UNL A   1      29.822  27.895  22.760  1.00  0.00    -0.341 N 
ATOM     86  C   UNL A   1      28.766  27.769  23.758  1.00  0.00     0.120 C 
ATOM     87  C   UNL A   1      29.999  29.278  22.288  1.00  0.00     0.123 C 
ATOM     88  C   UNL A   1      27.420  28.259  23.240  1.00  0.00     0.025 C 
ATOM     89  C   UNL A   1      28.691  29.799  21.659  1.00  0.00     0.012 C 
ATOM     90  C   UNL A   1      27.482  29.659  22.602  1.00  0.00    -0.005 C 
ATOM     91  C   UNL A   1      28.788  31.231  21.136  1.00  0.00     0.006 C 
ATOM     92  C   UNL A   1      27.427  30.734  23.699  1.00  0.00     0.004 C 
ATOM     93  C   UNL A   1      28.949  32.248  22.251  1.00  0.00     0.000 C 
ATOM     94  C   UNL A   1      27.856  32.146  23.307  1.00  0.00     0.000 C 
ENDBRANCH  83  85
ENDBRANCH  82  83
ENDBRANCH  79  82
ENDBRANCH  75  77
ENDBRANCH  74  75
ENDBRANCH  73  74
ENDBRANCH   1  73
TORSDOF 17
ENDMDL
