MODEL 1
REMARK VINA RESULT:     -11.4      0.000      0.000
REMARK SMILES CC(C)C[C@H](CNC(=O)N[C@@H]1CCC[C@@H](C)[C@H]1C)C(=O)OCCOCCOC(=O)c1ccc(-c2c3nc(c(-c4c(F)c(F)c(F)c(F)c4F)c4ccc([nH]4)c(-c4c(F)c(F)c(F)c(F)c4F)c4nc(c(-c5c(F)c(F)c(F)c(F)c5F)c5ccc2[nH]5)C=C4)C=C3)cc1
REMARK SMILES IDX 23 1 22 2 21 3 19 4 20 5 5 6 4 7 2 8 1 9 3 10 6 11 7 12 8 13
REMARK SMILES IDX 9 15 10 16 11 18 12 19 17 20 13 21 15 22 18 23 14 24 16 25
REMARK SMILES IDX 24 26 25 27 26 28 27 29 28 30 29 31 30 32 31 33 92 34 32 35
REMARK SMILES IDX 91 36 33 37 34 38 35 39 85 40 36 41 90 42 84 43 86 44 37 45
REMARK SMILES IDX 89 46 83 47 82 48 38 50 70 51 50 52 69 53 51 54 54 55 68 56
REMARK SMILES IDX 87 57 52 58 53 59 67 61 88 62 55 63 39 64 40 65 48 66 41 67
REMARK SMILES IDX 42 68 46 69 49 70 43 71 44 72 47 73 45 74 71 75 72 76 80 77
REMARK SMILES IDX 73 78 74 79 78 80 81 81 75 82 76 83 79 84 77 85 56 86 57 87
REMARK SMILES IDX 65 88 58 89 59 90 63 91 66 92 60 93 61 94 64 95 62 96
REMARK H PARENT 7 14 10 17 86 49 54 60
REMARK Flexibility Score: inf
ROOT
ATOM      1  C   UNL A   1      33.494  28.429  24.166  1.00  0.00     0.202 C 
ENDROOT
BRANCH   1   2
ATOM      2  C   UNL A   1      33.140  28.286  22.684  1.00  0.00     0.261 C 
BRANCH   2   3
ATOM      3  O   UNL A   1      32.493  27.037  22.344  1.00  0.00    -0.463 OA
BRANCH   3   4
ATOM      4  C   UNL A   1      31.143  27.047  22.483  1.00  0.00     0.310 C 
ATOM      5  O   UNL A   1      30.407  27.892  21.990  1.00  0.00    -0.252 OA
BRANCH   4   6
ATOM      6  C   UNL A   1      30.609  25.927  23.368  1.00  0.00     0.119 C 
BRANCH   6   7
ATOM      7  C   UNL A   1      30.236  26.343  24.781  1.00  0.00     0.020 C 
BRANCH   7   8
ATOM      8  C   UNL A   1      31.152  25.746  25.865  1.00  0.00    -0.017 C 
ATOM      9  C   UNL A   1      31.573  26.745  26.949  1.00  0.00     0.007 C 
ATOM     10  C   UNL A   1      30.449  24.557  26.515  1.00  0.00     0.007 C 
ENDBRANCH   7   8
ENDBRANCH   6   7
BRANCH   6  11
ATOM     11  C   UNL A   1      31.453  24.672  23.230  1.00  0.00     0.133 C 
BRANCH  11  12
ATOM     12  N   UNL A   1      32.075  24.274  22.002  1.00  0.00    -0.337 N 
ATOM     13  C   UNL A   1      33.277  23.699  21.814  1.00  0.00     0.315 C 
ATOM     14  H   UNL A   1      31.552  24.444  21.185  1.00  0.00     0.165 HD
ATOM     15  O   UNL A   1      33.571  23.352  20.667  1.00  0.00    -0.249 OA
ATOM     16  N   UNL A   1      34.176  23.448  22.781  1.00  0.00    -0.335 N 
ATOM     17  H   UNL A   1      34.972  23.026  22.385  1.00  0.00     0.165 HD
BRANCH  16  18
ATOM     18  C   UNL A   1      34.374  23.593  24.256  1.00  0.00     0.087 C 
ATOM     19  C   UNL A   1      35.902  23.620  24.556  1.00  0.00     0.025 C 
ATOM     20  C   UNL A   1      33.788  22.465  25.135  1.00  0.00     0.011 C 
ATOM     21  C   UNL A   1      36.601  22.240  24.452  1.00  0.00     0.002 C 
ATOM     22  C   UNL A   1      34.375  21.147  24.605  1.00  0.00    -0.009 C 
ATOM     23  C   UNL A   1      33.905  22.768  26.641  1.00  0.00     0.010 C 
ATOM     24  C   UNL A   1      35.826  21.046  25.033  1.00  0.00     0.004 C 
ATOM     25  C   UNL A   1      33.519  19.928  24.874  1.00  0.00     0.008 C 
ENDBRANCH  16  18
ENDBRANCH  11  12
ENDBRANCH   6  11
ENDBRANCH   4   6
ENDBRANCH   3   4
ENDBRANCH   2   3
ENDBRANCH   1   2
BRANCH   1  26
ATOM     26  O   UNL A   1      33.205  29.692  24.758  1.00  0.00    -0.374 OA
BRANCH  26  27
ATOM     27  C   UNL A   1      31.917  29.812  25.361  1.00  0.00     0.202 C 
BRANCH  27  28
ATOM     28  C   UNL A   1      31.708  31.113  26.158  1.00  0.00     0.261 C 
BRANCH  28  29
ATOM     29  O   UNL A   1      32.513  31.120  27.358  1.00  0.00    -0.460 OA
BRANCH  29  30
ATOM     30  C   UNL A   1      33.294  32.202  27.552  1.00  0.00     0.338 C 
ATOM     31  O   UNL A   1      32.928  33.369  27.623  1.00  0.00    -0.246 OA
BRANCH  30  32
ATOM     32  C   UNL A   1      34.670  31.776  27.897  1.00  0.00     0.060 A 
ATOM     33  C   UNL A   1      34.893  30.397  28.003  1.00  0.00     0.016 A 
ATOM     34  C   UNL A   1      35.718  32.671  28.137  1.00  0.00     0.016 A 
ATOM     35  C   UNL A   1      36.127  29.912  28.430  1.00  0.00     0.010 A 
ATOM     36  C   UNL A   1      36.963  32.181  28.566  1.00  0.00     0.010 A 
ATOM     37  C   UNL A   1      37.156  30.801  28.767  1.00  0.00    -0.014 A 
BRANCH  37  38
ATOM     38  C   UNL A   1      38.341  30.276  29.501  1.00  0.00     0.031 A 
ATOM     39  C   UNL A   1      38.558  30.701  30.931  1.00  0.00     0.074 A 
ATOM     40  C   UNL A   1      39.161  29.361  28.952  1.00  0.00     0.049 A 
ATOM     41  N   UNL A   1      39.484  30.332  31.780  1.00  0.00    -0.248 NA
ATOM     42  C   UNL A   1      37.596  31.670  31.479  1.00  0.00     0.031 C 
ATOM     43  C   UNL A   1      39.042  28.826  27.598  1.00  0.00     0.029 A 
ATOM     44  N   UNL A   1      40.255  28.712  29.475  1.00  0.00    -0.354 N 
ATOM     45  C   UNL A   1      39.218  31.024  32.956  1.00  0.00     0.074 A 
ATOM     46  C   UNL A   1      38.069  31.865  32.700  1.00  0.00     0.031 C 
ATOM     47  C   UNL A   1      40.023  27.929  27.396  1.00  0.00     0.029 A 
ATOM     48  C   UNL A   1      40.859  27.849  28.594  1.00  0.00     0.049 A 
ATOM     49  H   UNL A   1      40.575  28.855  30.395  1.00  0.00     0.167 HD
ATOM     50  C   UNL A   1      39.860  30.955  34.147  1.00  0.00     0.037 A 
ATOM     51  C   UNL A   1      41.967  27.092  28.732  1.00  0.00     0.037 A 
ATOM     52  C   UNL A   1      41.000  30.116  34.411  1.00  0.00     0.049 A 
ATOM     53  C   UNL A   1      42.713  27.095  30.044  1.00  0.00     0.074 A 
ATOM     54  C   UNL A   1      41.701  29.963  35.595  1.00  0.00     0.029 A 
ATOM     55  N   UNL A   1      41.613  29.297  33.475  1.00  0.00    -0.354 N 
ATOM     56  N   UNL A   1      42.432  27.725  31.159  1.00  0.00    -0.248 NA
ATOM     57  C   UNL A   1      43.931  26.273  30.116  1.00  0.00     0.031 C 
ATOM     58  C   UNL A   1      42.779  29.104  35.358  1.00  0.00     0.029 A 
ATOM     59  C   UNL A   1      42.708  28.665  34.045  1.00  0.00     0.049 A 
ATOM     60  H   UNL A   1      41.317  29.183  32.544  1.00  0.00     0.167 HD
ATOM     61  C   UNL A   1      43.415  27.352  32.069  1.00  0.00     0.074 A 
ATOM     62  C   UNL A   1      44.291  26.428  31.382  1.00  0.00     0.031 C 
ATOM     63  C   UNL A   1      43.574  27.740  33.360  1.00  0.00     0.037 A 
BRANCH  50  64
ATOM     64  C   UNL A   1      39.363  31.839  35.256  1.00  0.00     0.064 A 
ATOM     65  C   UNL A   1      38.533  31.353  36.278  1.00  0.00     0.173 A 
ATOM     66  C   UNL A   1      39.757  33.185  35.317  1.00  0.00     0.173 A 
ATOM     67  F   UNL A   1      38.119  30.077  36.262  1.00  0.00    -0.203 F 
ATOM     68  C   UNL A   1      38.092  32.189  37.301  1.00  0.00     0.198 A 
ATOM     69  C   UNL A   1      39.341  34.009  36.360  1.00  0.00     0.198 A 
ATOM     70  F   UNL A   1      40.555  33.701  34.370  1.00  0.00    -0.203 F 
ATOM     71  F   UNL A   1      37.257  31.716  38.238  1.00  0.00    -0.200 F 
ATOM     72  C   UNL A   1      38.503  33.513  37.346  1.00  0.00     0.200 A 
ATOM     73  F   UNL A   1      39.754  35.283  36.410  1.00  0.00    -0.200 F 
ATOM     74  F   UNL A   1      38.085  34.313  38.336  1.00  0.00    -0.200 F 
ENDBRANCH  50  64
BRANCH  51  75
ATOM     75  C   UNL A   1      42.458  26.277  27.589  1.00  0.00     0.064 A 
ATOM     76  C   UNL A   1      41.984  24.977  27.363  1.00  0.00     0.173 A 
ATOM     77  C   UNL A   1      43.437  26.772  26.714  1.00  0.00     0.173 A 
ATOM     78  F   UNL A   1      41.069  24.444  28.186  1.00  0.00    -0.203 F 
ATOM     79  C   UNL A   1      42.487  24.197  26.321  1.00  0.00     0.198 A 
ATOM     80  C   UNL A   1      43.914  26.005  25.654  1.00  0.00     0.198 A 
ATOM     81  F   UNL A   1      43.929  28.008  26.887  1.00  0.00    -0.203 F 
ATOM     82  F   UNL A   1      42.056  22.937  26.163  1.00  0.00    -0.200 F 
ATOM     83  C   UNL A   1      43.446  24.714  25.464  1.00  0.00     0.200 A 
ATOM     84  F   UNL A   1      44.831  26.515  24.820  1.00  0.00    -0.200 F 
ATOM     85  F   UNL A   1      43.926  23.966  24.461  1.00  0.00    -0.200 F 
ENDBRANCH  51  75
BRANCH  63  86
ATOM     86  C   UNL A   1      44.714  27.139  34.134  1.00  0.00     0.064 A 
ATOM     87  C   UNL A   1      44.585  25.924  34.822  1.00  0.00     0.173 A 
ATOM     88  C   UNL A   1      45.970  27.768  34.148  1.00  0.00     0.173 A 
ATOM     89  F   UNL A   1      43.406  25.286  34.851  1.00  0.00    -0.203 F 
ATOM     90  C   UNL A   1      45.660  25.375  35.518  1.00  0.00     0.198 A 
ATOM     91  C   UNL A   1      47.051  27.199  34.816  1.00  0.00     0.198 A 
ATOM     92  F   UNL A   1      46.153  28.929  33.501  1.00  0.00    -0.203 F 
ATOM     93  F   UNL A   1      45.499  24.239  36.211  1.00  0.00    -0.200 F 
ATOM     94  C   UNL A   1      46.894  26.009  35.507  1.00  0.00     0.200 A 
ATOM     95  F   UNL A   1      48.247  27.805  34.789  1.00  0.00    -0.200 F 
ATOM     96  F   UNL A   1      47.930  25.475  36.169  1.00  0.00    -0.200 F 
ENDBRANCH  63  86
ENDBRANCH  37  38
ENDBRANCH  30  32
ENDBRANCH  29  30
ENDBRANCH  28  29
ENDBRANCH  27  28
ENDBRANCH  26  27
ENDBRANCH   1  26
TORSDOF 19
ENDMDL
MODEL 2
REMARK VINA RESULT:     -11.3      1.399      2.020
REMARK SMILES CC(C)C[C@H](CNC(=O)N[C@@H]1CCC[C@@H](C)[C@H]1C)C(=O)OCCOCCOC(=O)c1ccc(-c2c3nc(c(-c4c(F)c(F)c(F)c(F)c4F)c4ccc([nH]4)c(-c4c(F)c(F)c(F)c(F)c4F)c4nc(c(-c5c(F)c(F)c(F)c(F)c5F)c5ccc2[nH]5)C=C4)C=C3)cc1
REMARK SMILES IDX 23 1 22 2 21 3 19 4 20 5 5 6 4 7 2 8 1 9 3 10 6 11 7 12 8 13
REMARK SMILES IDX 9 15 10 16 11 18 12 19 17 20 13 21 15 22 18 23 14 24 16 25
REMARK SMILES IDX 24 26 25 27 26 28 27 29 28 30 29 31 30 32 31 33 92 34 32 35
REMARK SMILES IDX 91 36 33 37 34 38 35 39 85 40 36 41 90 42 84 43 86 44 37 45
REMARK SMILES IDX 89 46 83 47 82 48 38 50 70 51 50 52 69 53 51 54 54 55 68 56
REMARK SMILES IDX 87 57 52 58 53 59 67 61 88 62 55 63 39 64 40 65 48 66 41 67
REMARK SMILES IDX 42 68 46 69 49 70 43 71 44 72 47 73 45 74 71 75 72 76 80 77
REMARK SMILES IDX 73 78 74 79 78 80 81 81 75 82 76 83 79 84 77 85 56 86 57 87
REMARK SMILES IDX 65 88 58 89 59 90 63 91 66 92 60 93 61 94 64 95 62 96
REMARK H PARENT 7 14 10 17 86 49 54 60
REMARK Flexibility Score: inf
ROOT
ATOM      1  C   UNL A   1      33.252  29.214  26.794  1.00  0.00     0.202 C 
ENDROOT
BRANCH   1   2
ATOM      2  C   UNL A   1      33.078  28.537  25.432  1.00  0.00     0.261 C 
BRANCH   2   3
ATOM      3  O   UNL A   1      32.864  27.108  25.500  1.00  0.00    -0.463 OA
BRANCH   3   4
ATOM      4  C   UNL A   1      31.559  26.736  25.514  1.00  0.00     0.310 C 
ATOM      5  O   UNL A   1      30.793  26.946  26.446  1.00  0.00    -0.252 OA
BRANCH   4   6
ATOM      6  C   UNL A   1      31.126  25.968  24.270  1.00  0.00     0.119 C 
BRANCH   6   7
ATOM      7  C   UNL A   1      30.779  26.830  23.067  1.00  0.00     0.020 C 
BRANCH   7   8
ATOM      8  C   UNL A   1      29.995  28.106  23.425  1.00  0.00    -0.017 C 
ATOM      9  C   UNL A   1      30.366  29.327  22.575  1.00  0.00     0.007 C 
ATOM     10  C   UNL A   1      28.500  27.828  23.291  1.00  0.00     0.007 C 
ENDBRANCH   7   8
ENDBRANCH   6   7
BRANCH   6  11
ATOM     11  C   UNL A   1      30.140  24.868  24.624  1.00  0.00     0.133 C 
BRANCH  11  12
ATOM     12  N   UNL A   1      30.035  24.297  25.934  1.00  0.00    -0.337 N 
ATOM     13  C   UNL A   1      30.650  23.209  26.430  1.00  0.00     0.315 C 
ATOM     14  H   UNL A   1      29.430  24.765  26.555  1.00  0.00     0.165 HD
ATOM     15  O   UNL A   1      30.482  22.953  27.626  1.00  0.00    -0.249 OA
ATOM     16  N   UNL A   1      31.455  22.387  25.735  1.00  0.00    -0.335 N 
ATOM     17  H   UNL A   1      31.775  21.667  26.325  1.00  0.00     0.165 HD
BRANCH  16  18
ATOM     18  C   UNL A   1      32.028  22.200  24.367  1.00  0.00     0.087 C 
ATOM     19  C   UNL A   1      32.544  20.736  24.236  1.00  0.00     0.025 C 
ATOM     20  C   UNL A   1      33.225  23.107  24.001  1.00  0.00     0.011 C 
ATOM     21  C   UNL A   1      33.871  20.454  24.988  1.00  0.00     0.002 C 
ATOM     22  C   UNL A   1      34.282  22.902  25.099  1.00  0.00    -0.009 C 
ATOM     23  C   UNL A   1      33.655  22.953  22.530  1.00  0.00     0.010 C 
ATOM     24  C   UNL A   1      34.943  21.552  24.900  1.00  0.00     0.004 C 
ATOM     25  C   UNL A   1      35.217  24.075  25.293  1.00  0.00     0.008 C 
ENDBRANCH  16  18
ENDBRANCH  11  12
ENDBRANCH   6  11
ENDBRANCH   4   6
ENDBRANCH   3   4
ENDBRANCH   2   3
ENDBRANCH   1   2
BRANCH   1  26
ATOM     26  O   UNL A   1      32.163  30.020  27.234  1.00  0.00    -0.374 OA
BRANCH  26  27
ATOM     27  C   UNL A   1      31.736  31.034  26.323  1.00  0.00     0.202 C 
BRANCH  27  28
ATOM     28  C   UNL A   1      31.872  32.469  26.862  1.00  0.00     0.261 C 
BRANCH  28  29
ATOM     29  O   UNL A   1      32.737  32.507  28.020  1.00  0.00    -0.460 OA
BRANCH  29  30
ATOM     30  C   UNL A   1      33.725  33.425  28.002  1.00  0.00     0.338 C 
ATOM     31  O   UNL A   1      33.598  34.640  27.924  1.00  0.00    -0.246 OA
BRANCH  30  32
ATOM     32  C   UNL A   1      35.020  32.777  28.317  1.00  0.00     0.060 A 
ATOM     33  C   UNL A   1      34.981  31.414  28.632  1.00  0.00     0.016 A 
ATOM     34  C   UNL A   1      36.241  33.461  28.334  1.00  0.00     0.016 A 
ATOM     35  C   UNL A   1      36.134  30.751  29.047  1.00  0.00     0.010 A 
ATOM     36  C   UNL A   1      37.403  32.792  28.751  1.00  0.00     0.010 A 
ATOM     37  C   UNL A   1      37.344  31.446  29.162  1.00  0.00    -0.014 A 
BRANCH  37  38
ATOM     38  C   UNL A   1      38.473  30.800  29.889  1.00  0.00     0.031 A 
ATOM     39  C   UNL A   1      38.679  31.126  31.347  1.00  0.00     0.074 A 
ATOM     40  C   UNL A   1      39.244  29.866  29.305  1.00  0.00     0.049 A 
ATOM     41  N   UNL A   1      39.557  30.646  32.193  1.00  0.00    -0.248 NA
ATOM     42  C   UNL A   1      37.769  32.123  31.931  1.00  0.00     0.031 C 
ATOM     43  C   UNL A   1      39.126  29.421  27.918  1.00  0.00     0.029 A 
ATOM     44  N   UNL A   1      40.279  29.116  29.812  1.00  0.00    -0.354 N 
ATOM     45  C   UNL A   1      39.306  31.284  33.402  1.00  0.00     0.074 A 
ATOM     46  C   UNL A   1      38.222  32.214  33.172  1.00  0.00     0.031 C 
ATOM     47  C   UNL A   1      40.051  28.473  27.685  1.00  0.00     0.029 A 
ATOM     48  C   UNL A   1      40.848  28.267  28.894  1.00  0.00     0.049 A 
ATOM     49  H   UNL A   1      40.584  29.182  30.746  1.00  0.00     0.167 HD
ATOM     50  C   UNL A   1      39.910  31.102  34.601  1.00  0.00     0.037 A 
ATOM     51  C   UNL A   1      41.900  27.431  29.011  1.00  0.00     0.037 A 
ATOM     52  C   UNL A   1      40.985  30.174  34.840  1.00  0.00     0.049 A 
ATOM     53  C   UNL A   1      42.610  27.306  30.337  1.00  0.00     0.074 A 
ATOM     54  C   UNL A   1      41.643  29.905  36.027  1.00  0.00     0.029 A 
ATOM     55  N   UNL A   1      41.567  29.372  33.870  1.00  0.00    -0.354 N 
ATOM     56  N   UNL A   1      42.342  27.887  31.481  1.00  0.00    -0.248 NA
ATOM     57  C   UNL A   1      43.769  26.402  30.386  1.00  0.00     0.031 C 
ATOM     58  C   UNL A   1      42.668  28.991  35.763  1.00  0.00     0.029 A 
ATOM     59  C   UNL A   1      42.603  28.636  34.424  1.00  0.00     0.049 A 
ATOM     60  H   UNL A   1      41.288  29.333  32.927  1.00  0.00     0.167 HD
ATOM     61  C   UNL A   1      43.273  27.396  32.389  1.00  0.00     0.074 A 
ATOM     62  C   UNL A   1      44.105  26.458  31.667  1.00  0.00     0.031 C 
ATOM     63  C   UNL A   1      43.424  27.696  33.704  1.00  0.00     0.037 A 
BRANCH  50  64
ATOM     64  C   UNL A   1      39.444  31.950  35.750  1.00  0.00     0.064 A 
ATOM     65  C   UNL A   1      38.430  31.527  36.623  1.00  0.00     0.173 A 
ATOM     66  C   UNL A   1      40.049  33.192  36.004  1.00  0.00     0.173 A 
ATOM     67  F   UNL A   1      37.810  30.354  36.419  1.00  0.00    -0.203 F 
ATOM     68  C   UNL A   1      38.019  32.326  37.687  1.00  0.00     0.198 A 
ATOM     69  C   UNL A   1      39.660  33.973  37.088  1.00  0.00     0.198 A 
ATOM     70  F   UNL A   1      41.028  33.643  35.205  1.00  0.00    -0.203 F 
ATOM     71  F   UNL A   1      37.013  31.925  38.476  1.00  0.00    -0.200 F 
ATOM     72  C   UNL A   1      38.640  33.544  37.923  1.00  0.00     0.200 A 
ATOM     73  F   UNL A   1      40.273  35.141  37.325  1.00  0.00    -0.200 F 
ATOM     74  F   UNL A   1      38.251  34.308  38.954  1.00  0.00    -0.200 F 
ENDBRANCH  50  64
BRANCH  51  75
ATOM     75  C   UNL A   1      42.366  26.653  27.832  1.00  0.00     0.064 A 
ATOM     76  C   UNL A   1      41.897  25.355  27.582  1.00  0.00     0.173 A 
ATOM     77  C   UNL A   1      43.316  27.182  26.945  1.00  0.00     0.173 A 
ATOM     78  F   UNL A   1      41.009  24.791  28.414  1.00  0.00    -0.203 F 
ATOM     79  C   UNL A   1      42.378  24.610  26.505  1.00  0.00     0.198 A 
ATOM     80  C   UNL A   1      43.770  26.450  25.851  1.00  0.00     0.198 A 
ATOM     81  F   UNL A   1      43.802  28.417  27.140  1.00  0.00    -0.203 F 
ATOM     82  F   UNL A   1      41.953  23.352  26.322  1.00  0.00    -0.200 F 
ATOM     83  C   UNL A   1      43.308  25.161  25.637  1.00  0.00     0.200 A 
ATOM     84  F   UNL A   1      44.659  26.991  25.008  1.00  0.00    -0.200 F 
ATOM     85  F   UNL A   1      43.766  24.445  24.601  1.00  0.00    -0.200 F 
ENDBRANCH  51  75
BRANCH  63  86
ATOM     86  C   UNL A   1      44.501  26.976  34.466  1.00  0.00     0.064 A 
ATOM     87  C   UNL A   1      44.279  25.726  35.063  1.00  0.00     0.173 A 
ATOM     88  C   UNL A   1      45.790  27.525  34.560  1.00  0.00     0.173 A 
ATOM     89  F   UNL A   1      43.064  25.160  35.014  1.00  0.00    -0.203 F 
ATOM     90  C   UNL A   1      45.297  25.066  35.749  1.00  0.00     0.198 A 
ATOM     91  C   UNL A   1      46.815  26.846  35.216  1.00  0.00     0.198 A 
ATOM     92  F   UNL A   1      46.062  28.714  34.001  1.00  0.00    -0.203 F 
ATOM     93  F   UNL A   1      45.047  23.897  36.355  1.00  0.00    -0.200 F 
ATOM     94  C   UNL A   1      46.566  25.623  35.817  1.00  0.00     0.200 A 
ATOM     95  F   UNL A   1      48.044  27.379  35.265  1.00  0.00    -0.200 F 
ATOM     96  F   UNL A   1      47.546  24.983  36.468  1.00  0.00    -0.200 F 
ENDBRANCH  63  86
ENDBRANCH  37  38
ENDBRANCH  30  32
ENDBRANCH  29  30
ENDBRANCH  28  29
ENDBRANCH  27  28
ENDBRANCH  26  27
ENDBRANCH   1  26
TORSDOF 19
ENDMDL
MODEL 3
REMARK VINA RESULT:     -11.1      1.305      7.481
REMARK SMILES CC(C)C[C@H](CNC(=O)N[C@@H]1CCC[C@@H](C)[C@H]1C)C(=O)OCCOCCOC(=O)c1ccc(-c2c3nc(c(-c4c(F)c(F)c(F)c(F)c4F)c4ccc([nH]4)c(-c4c(F)c(F)c(F)c(F)c4F)c4nc(c(-c5c(F)c(F)c(F)c(F)c5F)c5ccc2[nH]5)C=C4)C=C3)cc1
REMARK SMILES IDX 23 1 22 2 21 3 19 4 20 5 5 6 4 7 2 8 1 9 3 10 6 11 7 12 8 13
REMARK SMILES IDX 9 15 10 16 11 18 12 19 17 20 13 21 15 22 18 23 14 24 16 25
REMARK SMILES IDX 24 26 25 27 26 28 27 29 28 30 29 31 30 32 31 33 92 34 32 35
REMARK SMILES IDX 91 36 33 37 34 38 35 39 85 40 36 41 90 42 84 43 86 44 37 45
REMARK SMILES IDX 89 46 83 47 82 48 38 50 70 51 50 52 69 53 51 54 54 55 68 56
REMARK SMILES IDX 87 57 52 58 53 59 67 61 88 62 55 63 39 64 40 65 48 66 41 67
REMARK SMILES IDX 42 68 46 69 49 70 43 71 44 72 47 73 45 74 71 75 72 76 80 77
REMARK SMILES IDX 73 78 74 79 78 80 81 81 75 82 76 83 79 84 77 85 56 86 57 87
REMARK SMILES IDX 65 88 58 89 59 90 63 91 66 92 60 93 61 94 64 95 62 96
REMARK H PARENT 7 14 10 17 86 49 54 60
REMARK Flexibility Score: inf
ROOT
ATOM      1  C   UNL A   1      29.673  29.785  23.171  1.00  0.00     0.202 C 
ENDROOT
BRANCH   1   2
ATOM      2  C   UNL A   1      29.843  28.314  23.560  1.00  0.00     0.261 C 
BRANCH   2   3
ATOM      3  O   UNL A   1      30.236  27.452  22.467  1.00  0.00    -0.463 OA
BRANCH   3   4
ATOM      4  C   UNL A   1      31.401  26.785  22.669  1.00  0.00     0.310 C 
ATOM      5  O   UNL A   1      32.261  26.629  21.811  1.00  0.00    -0.252 OA
BRANCH   4   6
ATOM      6  C   UNL A   1      31.533  26.185  24.064  1.00  0.00     0.119 C 
BRANCH   6   7
ATOM      7  C   UNL A   1      32.957  26.050  24.576  1.00  0.00     0.020 C 
BRANCH   7   8
ATOM      8  C   UNL A   1      33.278  26.974  25.766  1.00  0.00    -0.017 C 
ATOM      9  C   UNL A   1      33.951  28.293  25.370  1.00  0.00     0.007 C 
ATOM     10  C   UNL A   1      31.991  27.269  26.531  1.00  0.00     0.007 C 
ENDBRANCH   7   8
ENDBRANCH   6   7
BRANCH   6  11
ATOM     11  C   UNL A   1      30.636  24.970  24.222  1.00  0.00     0.133 C 
BRANCH  11  12
ATOM     12  N   UNL A   1      30.285  24.411  25.494  1.00  0.00    -0.337 N 
ATOM     13  C   UNL A   1      30.800  23.331  26.109  1.00  0.00     0.315 C 
ATOM     14  H   UNL A   1      29.571  24.880  25.984  1.00  0.00     0.165 HD
ATOM     15  O   UNL A   1      30.408  23.085  27.254  1.00  0.00    -0.249 OA
ATOM     16  N   UNL A   1      31.727  22.508  25.589  1.00  0.00    -0.335 N 
ATOM     17  H   UNL A   1      31.931  21.796  26.236  1.00  0.00     0.165 HD
BRANCH  16  18
ATOM     18  C   UNL A   1      32.551  22.312  24.357  1.00  0.00     0.087 C 
ATOM     19  C   UNL A   1      32.818  20.789  24.170  1.00  0.00     0.025 C 
ATOM     20  C   UNL A   1      33.940  22.992  24.353  1.00  0.00     0.011 C 
ATOM     21  C   UNL A   1      33.871  20.199  25.144  1.00  0.00     0.002 C 
ATOM     22  C   UNL A   1      34.669  22.504  25.615  1.00  0.00    -0.009 C 
ATOM     23  C   UNL A   1      34.655  22.864  22.995  1.00  0.00     0.010 C 
ATOM     24  C   UNL A   1      35.111  21.069  25.405  1.00  0.00     0.004 C 
ATOM     25  C   UNL A   1      35.728  23.453  26.132  1.00  0.00     0.008 C 
ENDBRANCH  16  18
ENDBRANCH  11  12
ENDBRANCH   6  11
ENDBRANCH   4   6
ENDBRANCH   3   4
ENDBRANCH   2   3
ENDBRANCH   1   2
BRANCH   1  26
ATOM     26  O   UNL A   1      29.906  30.736  24.207  1.00  0.00    -0.374 OA
BRANCH  26  27
ATOM     27  C   UNL A   1      31.032  30.473  25.044  1.00  0.00     0.202 C 
BRANCH  27  28
ATOM     28  C   UNL A   1      31.281  31.540  26.126  1.00  0.00     0.261 C 
BRANCH  28  29
ATOM     29  O   UNL A   1      32.464  31.230  26.896  1.00  0.00    -0.460 OA
BRANCH  29  30
ATOM     30  C   UNL A   1      33.167  32.281  27.366  1.00  0.00     0.338 C 
ATOM     31  O   UNL A   1      32.757  33.422  27.537  1.00  0.00    -0.246 OA
BRANCH  30  32
ATOM     32  C   UNL A   1      34.481  31.821  27.875  1.00  0.00     0.060 A 
ATOM     33  C   UNL A   1      34.596  30.460  28.179  1.00  0.00     0.016 A 
ATOM     34  C   UNL A   1      35.571  32.675  28.077  1.00  0.00     0.016 A 
ATOM     35  C   UNL A   1      35.758  29.962  28.764  1.00  0.00     0.010 A 
ATOM     36  C   UNL A   1      36.743  32.172  28.665  1.00  0.00     0.010 A 
ATOM     37  C   UNL A   1      36.822  30.823  29.062  1.00  0.00    -0.014 A 
BRANCH  37  38
ATOM     38  C   UNL A   1      37.911  30.331  29.952  1.00  0.00     0.031 A 
ATOM     39  C   UNL A   1      38.919  29.358  29.396  1.00  0.00     0.074 A 
ATOM     40  C   UNL A   1      38.070  30.809  31.200  1.00  0.00     0.049 A 
ATOM     41  N   UNL A   1      39.979  28.838  29.965  1.00  0.00    -0.248 NA
ATOM     42  C   UNL A   1      38.707  28.914  28.010  1.00  0.00     0.031 C 
ATOM     43  C   UNL A   1      37.199  31.787  31.847  1.00  0.00     0.029 A 
ATOM     44  N   UNL A   1      39.032  30.538  32.144  1.00  0.00    -0.354 N 
ATOM     45  C   UNL A   1      40.554  28.009  29.010  1.00  0.00     0.074 A 
ATOM     46  C   UNL A   1      39.705  28.061  27.840  1.00  0.00     0.031 C 
ATOM     47  C   UNL A   1      37.666  32.036  33.083  1.00  0.00     0.029 A 
ATOM     48  C   UNL A   1      38.850  31.213  33.327  1.00  0.00     0.049 A 
ATOM     49  H   UNL A   1      39.780  29.918  31.988  1.00  0.00     0.167 HD
ATOM     50  C   UNL A   1      41.694  27.281  29.091  1.00  0.00     0.037 A 
ATOM     51  C   UNL A   1      39.549  31.161  34.479  1.00  0.00     0.037 A 
ATOM     52  C   UNL A   1      42.547  27.229  30.250  1.00  0.00     0.049 A 
ATOM     53  C   UNL A   1      40.770  30.279  34.572  1.00  0.00     0.074 A 
ATOM     54  C   UNL A   1      43.735  26.538  30.415  1.00  0.00     0.029 A 
ATOM     55  N   UNL A   1      42.298  27.885  31.446  1.00  0.00    -0.354 N 
ATOM     56  N   UNL A   1      41.324  29.527  33.652  1.00  0.00    -0.248 NA
ATOM     57  C   UNL A   1      41.467  30.245  35.867  1.00  0.00     0.031 C 
ATOM     58  C   UNL A   1      44.169  26.720  31.732  1.00  0.00     0.029 A 
ATOM     59  C   UNL A   1      43.290  27.584  32.366  1.00  0.00     0.049 A 
ATOM     60  H   UNL A   1      41.529  28.476  31.617  1.00  0.00     0.167 HD
ATOM     61  C   UNL A   1      42.446  28.959  34.245  1.00  0.00     0.074 A 
ATOM     62  C   UNL A   1      42.505  29.465  35.599  1.00  0.00     0.031 C 
ATOM     63  C   UNL A   1      43.348  28.097  33.712  1.00  0.00     0.037 A 
BRANCH  50  64
ATOM     64  C   UNL A   1      42.074  26.450  27.899  1.00  0.00     0.064 A 
ATOM     65  C   UNL A   1      43.015  26.889  26.956  1.00  0.00     0.173 A 
ATOM     66  C   UNL A   1      41.513  25.175  27.719  1.00  0.00     0.173 A 
ATOM     67  F   UNL A   1      43.574  28.103  27.075  1.00  0.00    -0.203 F 
ATOM     68  C   UNL A   1      43.359  26.098  25.863  1.00  0.00     0.198 A 
ATOM     69  C   UNL A   1      41.884  24.372  26.643  1.00  0.00     0.198 A 
ATOM     70  F   UNL A   1      40.612  24.702  28.593  1.00  0.00    -0.203 F 
ATOM     71  F   UNL A   1      44.222  26.560  24.947  1.00  0.00    -0.200 F 
ATOM     72  C   UNL A   1      42.799  24.837  25.712  1.00  0.00     0.200 A 
ATOM     73  F   UNL A   1      41.355  23.148  26.509  1.00  0.00    -0.200 F 
ATOM     74  F   UNL A   1      43.138  24.073  24.665  1.00  0.00    -0.200 F 
ENDBRANCH  50  64
BRANCH  51  75
ATOM     75  C   UNL A   1      39.104  31.957  35.655  1.00  0.00     0.064 A 
ATOM     76  C   UNL A   1      39.558  33.267  35.865  1.00  0.00     0.173 A 
ATOM     77  C   UNL A   1      38.238  31.409  36.613  1.00  0.00     0.173 A 
ATOM     78  F   UNL A   1      40.410  33.828  34.994  1.00  0.00    -0.203 F 
ATOM     79  C   UNL A   1      39.179  33.988  36.996  1.00  0.00     0.198 A 
ATOM     80  C   UNL A   1      37.834  32.142  37.726  1.00  0.00     0.198 A 
ATOM     81  F   UNL A   1      37.778  30.157  36.465  1.00  0.00    -0.203 F 
ATOM     82  F   UNL A   1      39.672  35.218  37.199  1.00  0.00    -0.200 F 
ATOM     83  C   UNL A   1      38.313  33.428  37.922  1.00  0.00     0.200 A 
ATOM     84  F   UNL A   1      36.985  31.601  38.611  1.00  0.00    -0.200 F 
ATOM     85  F   UNL A   1      37.947  34.124  39.007  1.00  0.00    -0.200 F 
ENDBRANCH  51  75
BRANCH  63  86
ATOM     86  C   UNL A   1      44.503  27.671  34.575  1.00  0.00     0.064 A 
ATOM     87  C   UNL A   1      44.463  26.499  35.344  1.00  0.00     0.173 A 
ATOM     88  C   UNL A   1      45.688  28.426  34.596  1.00  0.00     0.173 A 
ATOM     89  F   UNL A   1      43.353  25.746  35.371  1.00  0.00    -0.203 F 
ATOM     90  C   UNL A   1      45.553  26.113  36.123  1.00  0.00     0.198 A 
ATOM     91  C   UNL A   1      46.787  28.018  35.348  1.00  0.00     0.198 A 
ATOM     92  F   UNL A   1      45.786  29.552  33.873  1.00  0.00    -0.203 F 
ATOM     93  F   UNL A   1      45.471  25.016  36.889  1.00  0.00    -0.200 F 
ATOM     94  C   UNL A   1      46.716  26.868  36.117  1.00  0.00     0.200 A 
ATOM     95  F   UNL A   1      47.917  28.740  35.326  1.00  0.00    -0.200 F 
ATOM     96  F   UNL A   1      47.766  26.490  36.859  1.00  0.00    -0.200 F 
ENDBRANCH  63  86
ENDBRANCH  37  38
ENDBRANCH  30  32
ENDBRANCH  29  30
ENDBRANCH  28  29
ENDBRANCH  27  28
ENDBRANCH  26  27
ENDBRANCH   1  26
TORSDOF 19
ENDMDL
