MODEL 1
REMARK VINA RESULT:     -12.4      0.000      0.000
REMARK SMILES O=C(OCCOCCOC(=O)C1CC[NH+]([C@H]2CC(=O)N(c3ccc4c(c3)OCCO4)C2=O)CC1)c1ccc(-c2c3nc(c(-c4c(F)c(F)c(F)c(F)c4F)c4ccc([nH]4)c(-c4c(F)c(F)c(F)c(F)c4F)c4nc(c(-c5c(F)c(F)c(F)c(F)c5F)c5ccc2[nH]5)C=C4)C=C3)cc1
REMARK SMILES IDX 6 1 5 2 4 3 3 4 2 5 1 6 35 7 36 8 97 9 37 10 96 11 38 12
REMARK SMILES IDX 39 13 40 14 90 15 41 16 95 17 89 18 91 19 42 20 94 21 88 22
REMARK SMILES IDX 87 23 43 25 75 26 55 27 74 28 56 29 59 30 73 31 92 32 57 33
REMARK SMILES IDX 58 34 72 36 93 37 60 38 44 39 45 40 53 41 46 42 47 43 51 44
REMARK SMILES IDX 54 45 48 46 49 47 52 48 50 49 76 50 77 51 85 52 78 53 79 54
REMARK SMILES IDX 83 55 86 56 80 57 81 58 84 59 82 60 61 61 62 62 70 63 63 64
REMARK SMILES IDX 64 65 68 66 71 67 65 68 66 69 69 70 67 71 7 72 8 73 9 74
REMARK SMILES IDX 10 75 11 76 12 77 13 78 34 79 14 80 33 81 15 82 16 84 17 85
REMARK SMILES IDX 31 86 18 87 20 88 32 89 19 90 21 91 22 92 26 93 23 94 25 95
REMARK SMILES IDX 24 96 27 97 30 98 28 99 29 100
REMARK H PARENT 91 24 59 35 15 83
REMARK Flexibility Score: inf
ROOT
ATOM      1  O   UNL A   1      37.321  20.207  24.826  1.00  0.00    -0.374 OA
ENDROOT
BRANCH   1   2
ATOM      2  C   UNL A   1      38.334  19.218  25.041  1.00  0.00     0.202 C 
BRANCH   2   3
ATOM      3  C   UNL A   1      39.439  19.577  26.038  1.00  0.00     0.261 C 
BRANCH   3   4
ATOM      4  O   UNL A   1      40.662  18.906  25.703  1.00  0.00    -0.460 OA
BRANCH   4   5
ATOM      5  C   UNL A   1      41.913  19.204  26.125  1.00  0.00     0.338 C 
ATOM      6  O   UNL A   1      42.725  18.292  26.254  1.00  0.00    -0.246 OA
BRANCH   5   7
ATOM      7  C   UNL A   1      42.363  20.593  26.449  1.00  0.00     0.060 A 
ATOM      8  C   UNL A   1      42.563  21.082  27.738  1.00  0.00     0.016 A 
ATOM      9  C   UNL A   1      42.687  21.435  25.372  1.00  0.00     0.016 A 
ATOM     10  C   UNL A   1      43.014  22.359  27.974  1.00  0.00     0.010 A 
ATOM     11  C   UNL A   1      43.186  22.723  25.595  1.00  0.00     0.010 A 
ATOM     12  C   UNL A   1      43.340  23.181  26.905  1.00  0.00    -0.014 A 
BRANCH  12  13
ATOM     13  C   UNL A   1      43.708  24.551  27.270  1.00  0.00     0.031 A 
ATOM     14  C   UNL A   1      45.091  25.006  26.945  1.00  0.00     0.074 A 
ATOM     15  C   UNL A   1      42.726  25.403  27.615  1.00  0.00     0.049 A 
ATOM     16  N   UNL A   1      45.631  26.181  27.101  1.00  0.00    -0.248 NA
ATOM     17  C   UNL A   1      45.981  24.008  26.324  1.00  0.00     0.031 C 
ATOM     18  C   UNL A   1      41.309  25.043  27.759  1.00  0.00     0.029 A 
ATOM     19  N   UNL A   1      42.749  26.751  27.838  1.00  0.00    -0.354 N 
ATOM     20  C   UNL A   1      46.924  26.062  26.614  1.00  0.00     0.074 A 
ATOM     21  C   UNL A   1      47.098  24.700  26.165  1.00  0.00     0.031 C 
ATOM     22  C   UNL A   1      40.599  26.149  28.022  1.00  0.00     0.029 A 
ATOM     23  C   UNL A   1      41.516  27.273  28.148  1.00  0.00     0.049 A 
ATOM     24  H   UNL A   1      43.568  27.294  27.783  1.00  0.00     0.167 HD
ATOM     25  C   UNL A   1      47.874  27.020  26.558  1.00  0.00     0.037 A 
ATOM     26  C   UNL A   1      41.192  28.519  28.537  1.00  0.00     0.037 A 
ATOM     27  C   UNL A   1      47.655  28.360  27.027  1.00  0.00     0.049 A 
ATOM     28  C   UNL A   1      42.309  29.527  28.602  1.00  0.00     0.074 A 
ATOM     29  C   UNL A   1      48.555  29.399  27.143  1.00  0.00     0.029 A 
ATOM     30  N   UNL A   1      46.423  28.840  27.462  1.00  0.00    -0.354 N 
ATOM     31  N   UNL A   1      43.568  29.390  28.252  1.00  0.00    -0.248 NA
ATOM     32  C   UNL A   1      41.970  30.853  29.126  1.00  0.00     0.031 C 
ATOM     33  C   UNL A   1      47.879  30.494  27.694  1.00  0.00     0.029 A 
ATOM     34  C   UNL A   1      46.543  30.158  27.862  1.00  0.00     0.049 A 
ATOM     35  H   UNL A   1      45.589  28.317  27.480  1.00  0.00     0.167 HD
ATOM     36  C   UNL A   1      44.169  30.614  28.500  1.00  0.00     0.074 A 
ATOM     37  C   UNL A   1      43.124  31.490  28.995  1.00  0.00     0.031 C 
ATOM     38  C   UNL A   1      45.466  30.986  28.346  1.00  0.00     0.037 A 
BRANCH  25  39
ATOM     39  C   UNL A   1      49.226  26.612  26.056  1.00  0.00     0.064 A 
ATOM     40  C   UNL A   1      50.183  26.019  26.893  1.00  0.00     0.173 A 
ATOM     41  C   UNL A   1      49.584  26.861  24.723  1.00  0.00     0.173 A 
ATOM     42  F   UNL A   1      49.906  25.797  28.186  1.00  0.00    -0.203 F 
ATOM     43  C   UNL A   1      51.458  25.714  26.418  1.00  0.00     0.198 A 
ATOM     44  C   UNL A   1      50.848  26.528  24.245  1.00  0.00     0.198 A 
ATOM     45  F   UNL A   1      48.712  27.442  23.886  1.00  0.00    -0.203 F 
ATOM     46  F   UNL A   1      52.377  25.206  27.251  1.00  0.00    -0.200 F 
ATOM     47  C   UNL A   1      51.787  25.963  25.094  1.00  0.00     0.200 A 
ATOM     48  F   UNL A   1      51.165  26.773  22.966  1.00  0.00    -0.200 F 
ATOM     49  F   UNL A   1      53.015  25.675  24.642  1.00  0.00    -0.200 F 
ENDBRANCH  25  39
BRANCH  26  50
ATOM     50  C   UNL A   1      39.808  28.845  28.976  1.00  0.00     0.064 A 
ATOM     51  C   UNL A   1      39.386  28.647  30.298  1.00  0.00     0.173 A 
ATOM     52  C   UNL A   1      38.854  29.318  28.059  1.00  0.00     0.173 A 
ATOM     53  F   UNL A   1      40.247  28.179  31.214  1.00  0.00    -0.203 F 
ATOM     54  C   UNL A   1      38.060  28.870  30.673  1.00  0.00     0.198 A 
ATOM     55  C   UNL A   1      37.541  29.578  28.444  1.00  0.00     0.198 A 
ATOM     56  F   UNL A   1      39.196  29.525  26.778  1.00  0.00    -0.203 F 
ATOM     57  F   UNL A   1      37.668  28.602  31.926  1.00  0.00    -0.200 F 
ATOM     58  C   UNL A   1      37.141  29.339  29.747  1.00  0.00     0.200 A 
ATOM     59  F   UNL A   1      36.663  30.046  27.546  1.00  0.00    -0.200 F 
ATOM     60  F   UNL A   1      35.866  29.542  30.107  1.00  0.00    -0.200 F 
ENDBRANCH  26  50
BRANCH  38  61
ATOM     61  C   UNL A   1      45.796  32.406  28.692  1.00  0.00     0.064 A 
ATOM     62  C   UNL A   1      45.698  33.436  27.745  1.00  0.00     0.173 A 
ATOM     63  C   UNL A   1      46.191  32.739  29.995  1.00  0.00     0.173 A 
ATOM     64  F   UNL A   1      45.339  33.161  26.481  1.00  0.00    -0.203 F 
ATOM     65  C   UNL A   1      46.023  34.745  28.082  1.00  0.00     0.198 A 
ATOM     66  C   UNL A   1      46.476  34.056  30.338  1.00  0.00     0.198 A 
ATOM     67  F   UNL A   1      46.289  31.790  30.937  1.00  0.00    -0.203 F 
ATOM     68  F   UNL A   1      45.988  35.703  27.146  1.00  0.00    -0.200 F 
ATOM     69  C   UNL A   1      46.404  35.055  29.379  1.00  0.00     0.200 A 
ATOM     70  F   UNL A   1      46.825  34.357  31.596  1.00  0.00    -0.200 F 
ATOM     71  F   UNL A   1      46.711  36.318  29.704  1.00  0.00    -0.200 F 
ENDBRANCH  38  61
ENDBRANCH  12  13
ENDBRANCH   5   7
ENDBRANCH   4   5
ENDBRANCH   3   4
ENDBRANCH   2   3
ENDBRANCH   1   2
BRANCH   1  72
ATOM     72  C   UNL A   1      37.707  21.581  24.967  1.00  0.00     0.202 C 
BRANCH  72  73
ATOM     73  C   UNL A   1      36.504  22.416  25.417  1.00  0.00     0.261 C 
BRANCH  73  74
ATOM     74  O   UNL A   1      35.378  22.016  24.634  1.00  0.00    -0.463 OA
BRANCH  74  75
ATOM     75  C   UNL A   1      34.980  22.942  23.723  1.00  0.00     0.309 C 
ATOM     76  O   UNL A   1      35.637  23.296  22.752  1.00  0.00    -0.252 OA
BRANCH  75  77
ATOM     77  C   UNL A   1      33.562  23.421  23.998  1.00  0.00     0.110 C 
ATOM     78  C   UNL A   1      33.166  24.440  22.937  1.00  0.00     0.077 C 
ATOM     79  C   UNL A   1      33.346  23.947  25.427  1.00  0.00     0.077 C 
ATOM     80  C   UNL A   1      33.807  25.790  23.228  1.00  0.00     0.263 C 
ATOM     81  C   UNL A   1      33.909  25.351  25.624  1.00  0.00     0.263 C 
ATOM     82  N   UNL A   1      33.529  26.290  24.574  1.00  0.00    -0.324 N 
ATOM     83  H   UNL A   1      34.176  27.062  24.732  1.00  0.00     0.348 HD
BRANCH  82  84
ATOM     84  C   UNL A   1      32.249  27.004  24.718  1.00  0.00     0.284 C 
ATOM     85  C   UNL A   1      31.376  26.723  25.927  1.00  0.00     0.176 C 
ATOM     86  C   UNL A   1      32.489  28.507  24.817  1.00  0.00     0.292 C 
ATOM     87  C   UNL A   1      31.610  27.890  26.835  1.00  0.00     0.240 C 
ATOM     88  N   UNL A   1      32.153  28.914  26.092  1.00  0.00    -0.245 N 
ATOM     89  O   UNL A   1      32.987  29.177  23.917  1.00  0.00    -0.267 OA
ATOM     90  O   UNL A   1      31.258  27.886  28.002  1.00  0.00    -0.274 OA
BRANCH  88  91
ATOM     91  C   UNL A   1      32.331  30.231  26.575  1.00  0.00     0.056 A 
ATOM     92  C   UNL A   1      31.370  31.215  26.299  1.00  0.00     0.031 A 
ATOM     93  C   UNL A   1      33.444  30.578  27.354  1.00  0.00     0.077 A 
ATOM     94  C   UNL A   1      31.494  32.505  26.818  1.00  0.00     0.052 A 
ATOM     95  C   UNL A   1      33.587  31.880  27.840  1.00  0.00     0.163 A 
ATOM     96  C   UNL A   1      32.610  32.840  27.574  1.00  0.00     0.161 A 
ATOM     97  O   UNL A   1      34.726  32.146  28.556  1.00  0.00    -0.486 OA
ATOM     98  O   UNL A   1      32.675  34.129  28.030  1.00  0.00    -0.486 OA
ATOM     99  C   UNL A   1      34.616  33.374  29.284  1.00  0.00     0.271 C 
ATOM    100  C   UNL A   1      34.006  34.470  28.427  1.00  0.00     0.271 C 
ENDBRANCH  88  91
ENDBRANCH  82  84
ENDBRANCH  75  77
ENDBRANCH  74  75
ENDBRANCH  73  74
ENDBRANCH  72  73
ENDBRANCH   1  72
TORSDOF 16
ENDMDL
MODEL 2
REMARK VINA RESULT:     -12.1      2.503      9.369
REMARK SMILES O=C(OCCOCCOC(=O)C1CC[NH+]([C@H]2CC(=O)N(c3ccc4c(c3)OCCO4)C2=O)CC1)c1ccc(-c2c3nc(c(-c4c(F)c(F)c(F)c(F)c4F)c4ccc([nH]4)c(-c4c(F)c(F)c(F)c(F)c4F)c4nc(c(-c5c(F)c(F)c(F)c(F)c5F)c5ccc2[nH]5)C=C4)C=C3)cc1
REMARK SMILES IDX 6 1 5 2 4 3 3 4 2 5 1 6 35 7 36 8 97 9 37 10 96 11 38 12
REMARK SMILES IDX 39 13 40 14 90 15 41 16 95 17 89 18 91 19 42 20 94 21 88 22
REMARK SMILES IDX 87 23 43 25 75 26 55 27 74 28 56 29 59 30 73 31 92 32 57 33
REMARK SMILES IDX 58 34 72 36 93 37 60 38 44 39 45 40 53 41 46 42 47 43 51 44
REMARK SMILES IDX 54 45 48 46 49 47 52 48 50 49 76 50 77 51 85 52 78 53 79 54
REMARK SMILES IDX 83 55 86 56 80 57 81 58 84 59 82 60 61 61 62 62 70 63 63 64
REMARK SMILES IDX 64 65 68 66 71 67 65 68 66 69 69 70 67 71 7 72 8 73 9 74
REMARK SMILES IDX 10 75 11 76 12 77 13 78 34 79 14 80 33 81 15 82 16 84 17 85
REMARK SMILES IDX 31 86 18 87 20 88 32 89 19 90 21 91 22 92 26 93 23 94 25 95
REMARK SMILES IDX 24 96 27 97 30 98 28 99 29 100
REMARK H PARENT 91 24 59 35 15 83
REMARK Flexibility Score: inf
ROOT
ATOM      1  O   UNL A   1      34.801  34.118  30.078  1.00  0.00    -0.374 OA
ENDROOT
BRANCH   1   2
ATOM      2  C   UNL A   1      34.415  34.635  31.356  1.00  0.00     0.202 C 
BRANCH   2   3
ATOM      3  C   UNL A   1      33.979  33.609  32.406  1.00  0.00     0.261 C 
BRANCH   3   4
ATOM      4  O   UNL A   1      34.734  32.397  32.273  1.00  0.00    -0.460 OA
BRANCH   4   5
ATOM      5  C   UNL A   1      35.950  32.117  32.799  1.00  0.00     0.338 C 
ATOM      6  O   UNL A   1      36.128  32.297  34.001  1.00  0.00    -0.246 OA
BRANCH   5   7
ATOM      7  C   UNL A   1      37.097  31.599  31.992  1.00  0.00     0.060 A 
ATOM      8  C   UNL A   1      38.212  30.952  32.521  1.00  0.00     0.016 A 
ATOM      9  C   UNL A   1      37.000  31.696  30.594  1.00  0.00     0.016 A 
ATOM     10  C   UNL A   1      39.221  30.464  31.726  1.00  0.00     0.010 A 
ATOM     11  C   UNL A   1      37.998  31.168  29.768  1.00  0.00     0.010 A 
ATOM     12  C   UNL A   1      39.113  30.557  30.346  1.00  0.00    -0.014 A 
BRANCH  12  13
ATOM     13  C   UNL A   1      40.291  30.100  29.603  1.00  0.00     0.031 A 
ATOM     14  C   UNL A   1      41.477  31.004  29.564  1.00  0.00     0.074 A 
ATOM     15  C   UNL A   1      40.350  28.807  29.238  1.00  0.00     0.049 A 
ATOM     16  N   UNL A   1      42.651  30.801  29.038  1.00  0.00    -0.248 NA
ATOM     17  C   UNL A   1      41.334  32.304  30.244  1.00  0.00     0.031 C 
ATOM     18  C   UNL A   1      39.275  27.825  29.433  1.00  0.00     0.029 A 
ATOM     19  N   UNL A   1      41.370  28.077  28.695  1.00  0.00    -0.354 N 
ATOM     20  C   UNL A   1      43.381  31.949  29.308  1.00  0.00     0.074 A 
ATOM     21  C   UNL A   1      42.521  32.852  30.035  1.00  0.00     0.031 C 
ATOM     22  C   UNL A   1      39.705  26.618  29.037  1.00  0.00     0.029 A 
ATOM     23  C   UNL A   1      41.046  26.758  28.486  1.00  0.00     0.049 A 
ATOM     24  H   UNL A   1      42.251  28.459  28.475  1.00  0.00     0.167 HD
ATOM     25  C   UNL A   1      44.661  32.210  28.966  1.00  0.00     0.037 A 
ATOM     26  C   UNL A   1      41.753  25.795  27.871  1.00  0.00     0.037 A 
ATOM     27  C   UNL A   1      45.474  31.280  28.232  1.00  0.00     0.049 A 
ATOM     28  C   UNL A   1      43.124  26.166  27.372  1.00  0.00     0.074 A 
ATOM     29  C   UNL A   1      46.741  31.454  27.714  1.00  0.00     0.029 A 
ATOM     30  N   UNL A   1      45.080  29.985  27.914  1.00  0.00    -0.354 N 
ATOM     31  N   UNL A   1      43.781  27.294  27.521  1.00  0.00    -0.248 NA
ATOM     32  C   UNL A   1      43.847  25.144  26.610  1.00  0.00     0.031 C 
ATOM     33  C   UNL A   1      47.094  30.279  27.040  1.00  0.00     0.029 A 
ATOM     34  C   UNL A   1      46.074  29.350  27.192  1.00  0.00     0.049 A 
ATOM     35  H   UNL A   1      44.219  29.579  28.167  1.00  0.00     0.167 HD
ATOM     36  C   UNL A   1      45.000  27.115  26.885  1.00  0.00     0.074 A 
ATOM     37  C   UNL A   1      45.001  25.754  26.381  1.00  0.00     0.031 C 
ATOM     38  C   UNL A   1      46.023  27.990  26.717  1.00  0.00     0.037 A 
BRANCH  25  39
ATOM     39  C   UNL A   1      45.195  33.567  29.310  1.00  0.00     0.064 A 
ATOM     40  C   UNL A   1      45.036  34.669  28.456  1.00  0.00     0.173 A 
ATOM     41  C   UNL A   1      45.920  33.756  30.495  1.00  0.00     0.173 A 
ATOM     42  F   UNL A   1      44.386  34.532  27.290  1.00  0.00    -0.203 F 
ATOM     43  C   UNL A   1      45.605  35.903  28.766  1.00  0.00     0.198 A 
ATOM     44  C   UNL A   1      46.462  34.998  30.816  1.00  0.00     0.198 A 
ATOM     45  F   UNL A   1      46.118  32.731  31.338  1.00  0.00    -0.203 F 
ATOM     46  F   UNL A   1      45.492  36.925  27.907  1.00  0.00    -0.200 F 
ATOM     47  C   UNL A   1      46.312  36.068  29.948  1.00  0.00     0.200 A 
ATOM     48  F   UNL A   1      47.147  35.153  31.957  1.00  0.00    -0.200 F 
ATOM     49  F   UNL A   1      46.862  37.254  30.241  1.00  0.00    -0.200 F 
ENDBRANCH  25  39
BRANCH  26  50
ATOM     50  C   UNL A   1      41.154  24.457  27.611  1.00  0.00     0.064 A 
ATOM     51  C   UNL A   1      41.671  23.290  28.192  1.00  0.00     0.173 A 
ATOM     52  C   UNL A   1      40.073  24.312  26.725  1.00  0.00     0.173 A 
ATOM     53  F   UNL A   1      42.715  23.364  29.031  1.00  0.00    -0.203 F 
ATOM     54  C   UNL A   1      41.157  22.034  27.867  1.00  0.00     0.198 A 
ATOM     55  C   UNL A   1      39.535  23.061  26.432  1.00  0.00     0.198 A 
ATOM     56  F   UNL A   1      39.536  25.391  26.136  1.00  0.00    -0.203 F 
ATOM     57  F   UNL A   1      41.718  20.931  28.380  1.00  0.00    -0.200 F 
ATOM     58  C   UNL A   1      40.088  21.921  26.991  1.00  0.00     0.200 A 
ATOM     59  F   UNL A   1      38.492  22.962  25.597  1.00  0.00    -0.200 F 
ATOM     60  F   UNL A   1      39.603  20.713  26.671  1.00  0.00    -0.200 F 
ENDBRANCH  26  50
BRANCH  38  61
ATOM     61  C   UNL A   1      47.226  27.475  25.987  1.00  0.00     0.064 A 
ATOM     62  C   UNL A   1      48.285  26.848  26.661  1.00  0.00     0.173 A 
ATOM     63  C   UNL A   1      47.305  27.589  24.591  1.00  0.00     0.173 A 
ATOM     64  F   UNL A   1      48.260  26.730  27.997  1.00  0.00    -0.203 F 
ATOM     65  C   UNL A   1      49.398  26.390  25.966  1.00  0.00     0.198 A 
ATOM     66  C   UNL A   1      48.402  27.094  23.896  1.00  0.00     0.198 A 
ATOM     67  F   UNL A   1      46.313  28.172  23.903  1.00  0.00    -0.203 F 
ATOM     68  F   UNL A   1      50.429  25.856  26.636  1.00  0.00    -0.200 F 
ATOM     69  C   UNL A   1      49.453  26.506  24.586  1.00  0.00     0.200 A 
ATOM     70  F   UNL A   1      48.444  27.189  22.561  1.00  0.00    -0.200 F 
ATOM     71  F   UNL A   1      50.524  26.059  23.916  1.00  0.00    -0.200 F 
ENDBRANCH  38  61
ENDBRANCH  12  13
ENDBRANCH   5   7
ENDBRANCH   4   5
ENDBRANCH   3   4
ENDBRANCH   2   3
ENDBRANCH   1   2
BRANCH   1  72
ATOM     72  C   UNL A   1      33.756  33.873  29.128  1.00  0.00     0.202 C 
BRANCH  72  73
ATOM     73  C   UNL A   1      34.269  32.954  28.014  1.00  0.00     0.261 C 
BRANCH  73  74
ATOM     74  O   UNL A   1      33.189  32.107  27.615  1.00  0.00    -0.463 OA
BRANCH  74  75
ATOM     75  C   UNL A   1      33.567  30.840  27.302  1.00  0.00     0.309 C 
ATOM     76  O   UNL A   1      34.551  30.270  27.757  1.00  0.00    -0.252 OA
BRANCH  75  77
ATOM     77  C   UNL A   1      32.554  30.167  26.388  1.00  0.00     0.110 C 
ATOM     78  C   UNL A   1      31.857  29.049  27.153  1.00  0.00     0.077 C 
ATOM     79  C   UNL A   1      33.143  29.684  25.051  1.00  0.00     0.077 C 
ATOM     80  C   UNL A   1      32.759  27.827  27.254  1.00  0.00     0.263 C 
ATOM     81  C   UNL A   1      33.941  28.393  25.197  1.00  0.00     0.263 C 
ATOM     82  N   UNL A   1      33.251  27.357  25.959  1.00  0.00    -0.324 N 
ATOM     83  H   UNL A   1      34.004  26.700  26.160  1.00  0.00     0.348 HD
BRANCH  82  84
ATOM     84  C   UNL A   1      32.330  26.466  25.233  1.00  0.00     0.284 C 
ATOM     85  C   UNL A   1      32.381  26.425  23.717  1.00  0.00     0.176 C 
ATOM     86  C   UNL A   1      32.585  25.013  25.619  1.00  0.00     0.292 C 
ATOM     87  C   UNL A   1      33.125  25.165  23.403  1.00  0.00     0.240 C 
ATOM     88  N   UNL A   1      33.102  24.359  24.519  1.00  0.00    -0.245 N 
ATOM     89  O   UNL A   1      32.429  24.573  26.754  1.00  0.00    -0.267 OA
ATOM     90  O   UNL A   1      33.563  24.929  22.290  1.00  0.00    -0.274 OA
BRANCH  88  91
ATOM     91  C   UNL A   1      33.543  23.015  24.532  1.00  0.00     0.056 A 
ATOM     92  C   UNL A   1      34.917  22.729  24.551  1.00  0.00     0.031 A 
ATOM     93  C   UNL A   1      32.634  21.949  24.554  1.00  0.00     0.077 A 
ATOM     94  C   UNL A   1      35.374  21.413  24.626  1.00  0.00     0.052 A 
ATOM     95  C   UNL A   1      33.093  20.630  24.591  1.00  0.00     0.163 A 
ATOM     96  C   UNL A   1      34.462  20.364  24.630  1.00  0.00     0.161 A 
ATOM     97  O   UNL A   1      32.138  19.646  24.565  1.00  0.00    -0.486 OA
ATOM     98  O   UNL A   1      34.985  19.100  24.683  1.00  0.00    -0.486 OA
ATOM     99  C   UNL A   1      32.679  18.376  24.947  1.00  0.00     0.271 C 
ATOM    100  C   UNL A   1      34.020  18.125  24.279  1.00  0.00     0.271 C 
ENDBRANCH  88  91
ENDBRANCH  82  84
ENDBRANCH  75  77
ENDBRANCH  74  75
ENDBRANCH  73  74
ENDBRANCH  72  73
ENDBRANCH   1  72
TORSDOF 16
ENDMDL
MODEL 3
REMARK VINA RESULT:     -12.1      2.488      7.811
REMARK SMILES O=C(OCCOCCOC(=O)C1CC[NH+]([C@H]2CC(=O)N(c3ccc4c(c3)OCCO4)C2=O)CC1)c1ccc(-c2c3nc(c(-c4c(F)c(F)c(F)c(F)c4F)c4ccc([nH]4)c(-c4c(F)c(F)c(F)c(F)c4F)c4nc(c(-c5c(F)c(F)c(F)c(F)c5F)c5ccc2[nH]5)C=C4)C=C3)cc1
REMARK SMILES IDX 6 1 5 2 4 3 3 4 2 5 1 6 35 7 36 8 97 9 37 10 96 11 38 12
REMARK SMILES IDX 39 13 40 14 90 15 41 16 95 17 89 18 91 19 42 20 94 21 88 22
REMARK SMILES IDX 87 23 43 25 75 26 55 27 74 28 56 29 59 30 73 31 92 32 57 33
REMARK SMILES IDX 58 34 72 36 93 37 60 38 44 39 45 40 53 41 46 42 47 43 51 44
REMARK SMILES IDX 54 45 48 46 49 47 52 48 50 49 76 50 77 51 85 52 78 53 79 54
REMARK SMILES IDX 83 55 86 56 80 57 81 58 84 59 82 60 61 61 62 62 70 63 63 64
REMARK SMILES IDX 64 65 68 66 71 67 65 68 66 69 69 70 67 71 7 72 8 73 9 74
REMARK SMILES IDX 10 75 11 76 12 77 13 78 34 79 14 80 33 81 15 82 16 84 17 85
REMARK SMILES IDX 31 86 18 87 20 88 32 89 19 90 21 91 22 92 26 93 23 94 25 95
REMARK SMILES IDX 24 96 27 97 30 98 28 99 29 100
REMARK H PARENT 91 24 59 35 15 83
REMARK Flexibility Score: inf
ROOT
ATOM      1  O   UNL A   1      41.253  21.241  26.612  1.00  0.00    -0.374 OA
ENDROOT
BRANCH   1   2
ATOM      2  C   UNL A   1      41.085  19.905  26.127  1.00  0.00     0.202 C 
BRANCH   2   3
ATOM      3  C   UNL A   1      42.346  19.039  26.063  1.00  0.00     0.261 C 
BRANCH   3   4
ATOM      4  O   UNL A   1      43.023  19.222  24.811  1.00  0.00    -0.460 OA
BRANCH   4   5
ATOM      5  C   UNL A   1      44.199  19.856  24.591  1.00  0.00     0.338 C 
ATOM      6  O   UNL A   1      45.111  19.237  24.048  1.00  0.00    -0.246 OA
BRANCH   5   7
ATOM      7  C   UNL A   1      44.451  21.278  24.977  1.00  0.00     0.060 A 
ATOM      8  C   UNL A   1      44.178  22.381  24.169  1.00  0.00     0.016 A 
ATOM      9  C   UNL A   1      44.917  21.522  26.280  1.00  0.00     0.016 A 
ATOM     10  C   UNL A   1      44.397  23.670  24.592  1.00  0.00     0.010 A 
ATOM     11  C   UNL A   1      45.107  22.830  26.740  1.00  0.00     0.010 A 
ATOM     12  C   UNL A   1      44.849  23.902  25.882  1.00  0.00    -0.014 A 
BRANCH  12  13
ATOM     13  C   UNL A   1      45.148  25.303  26.189  1.00  0.00     0.031 A 
ATOM     14  C   UNL A   1      44.086  26.105  26.864  1.00  0.00     0.074 A 
ATOM     15  C   UNL A   1      46.426  25.714  26.107  1.00  0.00     0.049 A 
ATOM     16  N   UNL A   1      44.130  27.332  27.299  1.00  0.00    -0.248 NA
ATOM     17  C   UNL A   1      42.806  25.417  27.118  1.00  0.00     0.031 C 
ATOM     18  C   UNL A   1      47.547  24.893  25.630  1.00  0.00     0.029 A 
ATOM     19  N   UNL A   1      47.014  26.889  26.484  1.00  0.00    -0.354 N 
ATOM     20  C   UNL A   1      42.884  27.570  27.862  1.00  0.00     0.074 A 
ATOM     21  C   UNL A   1      42.099  26.368  27.708  1.00  0.00     0.031 C 
ATOM     22  C   UNL A   1      48.688  25.584  25.767  1.00  0.00     0.029 A 
ATOM     23  C   UNL A   1      48.369  26.918  26.259  1.00  0.00     0.049 A 
ATOM     24  H   UNL A   1      46.515  27.641  26.877  1.00  0.00     0.167 HD
ATOM     25  C   UNL A   1      42.451  28.705  28.450  1.00  0.00     0.037 A 
ATOM     26  C   UNL A   1      49.233  27.937  26.396  1.00  0.00     0.037 A 
ATOM     27  C   UNL A   1      43.270  29.880  28.569  1.00  0.00     0.049 A 
ATOM     28  C   UNL A   1      48.681  29.236  26.920  1.00  0.00     0.074 A 
ATOM     29  C   UNL A   1      42.928  31.135  29.031  1.00  0.00     0.029 A 
ATOM     30  N   UNL A   1      44.614  29.931  28.215  1.00  0.00    -0.354 N 
ATOM     31  N   UNL A   1      47.468  29.506  27.348  1.00  0.00    -0.248 NA
ATOM     32  C   UNL A   1      49.604  30.374  26.968  1.00  0.00     0.031 C 
ATOM     33  C   UNL A   1      44.053  31.958  28.910  1.00  0.00     0.029 A 
ATOM     34  C   UNL A   1      45.114  31.201  28.433  1.00  0.00     0.049 A 
ATOM     35  H   UNL A   1      45.132  29.173  27.861  1.00  0.00     0.167 HD
ATOM     36  C   UNL A   1      47.485  30.839  27.730  1.00  0.00     0.074 A 
ATOM     37  C   UNL A   1      48.841  31.308  27.514  1.00  0.00     0.031 C 
ATOM     38  C   UNL A   1      46.477  31.614  28.204  1.00  0.00     0.037 A 
BRANCH  25  39
ATOM     39  C   UNL A   1      41.026  28.732  28.912  1.00  0.00     0.064 A 
ATOM     40  C   UNL A   1      40.658  28.370  30.217  1.00  0.00     0.173 A 
ATOM     41  C   UNL A   1      40.005  29.083  28.017  1.00  0.00     0.173 A 
ATOM     42  F   UNL A   1      41.592  27.986  31.100  1.00  0.00    -0.203 F 
ATOM     43  C   UNL A   1      39.319  28.335  30.599  1.00  0.00     0.198 A 
ATOM     44  C   UNL A   1      38.670  29.075  28.411  1.00  0.00     0.198 A 
ATOM     45  F   UNL A   1      40.300  29.420  26.753  1.00  0.00    -0.203 F 
ATOM     46  F   UNL A   1      38.986  27.926  31.832  1.00  0.00    -0.200 F 
ATOM     47  C   UNL A   1      38.327  28.693  29.699  1.00  0.00     0.200 A 
ATOM     48  F   UNL A   1      37.713  29.419  27.538  1.00  0.00    -0.200 F 
ATOM     49  F   UNL A   1      37.039  28.653  30.067  1.00  0.00    -0.200 F 
ENDBRANCH  25  39
BRANCH  26  50
ATOM     50  C   UNL A   1      50.647  27.804  25.950  1.00  0.00     0.064 A 
ATOM     51  C   UNL A   1      51.011  27.907  24.600  1.00  0.00     0.173 A 
ATOM     52  C   UNL A   1      51.668  27.515  26.872  1.00  0.00     0.173 A 
ATOM     53  F   UNL A   1      50.076  28.163  23.672  1.00  0.00    -0.203 F 
ATOM     54  C   UNL A   1      52.326  27.688  24.188  1.00  0.00     0.198 A 
ATOM     55  C   UNL A   1      52.987  27.335  26.464  1.00  0.00     0.198 A 
ATOM     56  F   UNL A   1      51.383  27.400  28.178  1.00  0.00    -0.203 F 
ATOM     57  F   UNL A   1      52.630  27.721  22.884  1.00  0.00    -0.200 F 
ATOM     58  C   UNL A   1      53.313  27.407  25.120  1.00  0.00     0.200 A 
ATOM     59  F   UNL A   1      53.938  27.079  27.373  1.00  0.00    -0.200 F 
ATOM     60  F   UNL A   1      54.573  27.185  24.722  1.00  0.00    -0.200 F 
ENDBRANCH  26  50
BRANCH  38  61
ATOM     61  C   UNL A   1      46.829  33.030  28.543  1.00  0.00     0.064 A 
ATOM     62  C   UNL A   1      47.303  33.386  29.815  1.00  0.00     0.173 A 
ATOM     63  C   UNL A   1      46.714  34.036  27.574  1.00  0.00     0.173 A 
ATOM     64  F   UNL A   1      47.414  32.459  30.779  1.00  0.00    -0.203 F 
ATOM     65  C   UNL A   1      47.610  34.708  30.114  1.00  0.00     0.198 A 
ATOM     66  C   UNL A   1      47.062  35.350  27.866  1.00  0.00     0.198 A 
ATOM     67  F   UNL A   1      46.276  33.742  26.341  1.00  0.00    -0.203 F 
ATOM     68  F   UNL A   1      47.996  35.039  31.355  1.00  0.00    -0.200 F 
ATOM     69  C   UNL A   1      47.498  35.687  29.139  1.00  0.00     0.200 A 
ATOM     70  F   UNL A   1      46.971  36.291  26.916  1.00  0.00    -0.200 F 
ATOM     71  F   UNL A   1      47.800  36.960  29.427  1.00  0.00    -0.200 F 
ENDBRANCH  38  61
ENDBRANCH  12  13
ENDBRANCH   5   7
ENDBRANCH   4   5
ENDBRANCH   3   4
ENDBRANCH   2   3
ENDBRANCH   1   2
BRANCH   1  72
ATOM     72  C   UNL A   1      40.070  22.041  26.748  1.00  0.00     0.202 C 
BRANCH  72  73
ATOM     73  C   UNL A   1      38.973  21.511  25.818  1.00  0.00     0.261 C 
BRANCH  73  74
ATOM     74  O   UNL A   1      37.894  22.447  25.839  1.00  0.00    -0.463 OA
BRANCH  74  75
ATOM     75  C   UNL A   1      36.885  22.147  24.979  1.00  0.00     0.309 C 
ATOM     76  O   UNL A   1      37.025  21.943  23.779  1.00  0.00    -0.252 OA
BRANCH  75  77
ATOM     77  C   UNL A   1      35.559  21.990  25.709  1.00  0.00     0.110 C 
ATOM     78  C   UNL A   1      34.492  21.552  24.715  1.00  0.00     0.077 C 
ATOM     79  C   UNL A   1      35.138  23.232  26.513  1.00  0.00     0.077 C 
ATOM     80  C   UNL A   1      34.028  22.733  23.873  1.00  0.00     0.263 C 
ATOM     81  C   UNL A   1      34.574  24.338  25.626  1.00  0.00     0.263 C 
ATOM     82  N   UNL A   1      33.575  23.873  24.670  1.00  0.00    -0.324 N 
ATOM     83  H   UNL A   1      33.509  24.663  24.027  1.00  0.00     0.348 HD
BRANCH  82  84
ATOM     84  C   UNL A   1      32.174  23.799  25.118  1.00  0.00     0.284 C 
ATOM     85  C   UNL A   1      31.789  24.418  26.449  1.00  0.00     0.176 C 
ATOM     86  C   UNL A   1      31.264  24.524  24.133  1.00  0.00     0.292 C 
ATOM     87  C   UNL A   1      31.128  25.710  26.082  1.00  0.00     0.240 C 
ATOM     88  N   UNL A   1      30.758  25.646  24.758  1.00  0.00    -0.245 N 
ATOM     89  O   UNL A   1      31.114  24.179  22.964  1.00  0.00    -0.267 OA
ATOM     90  O   UNL A   1      30.905  26.582  26.904  1.00  0.00    -0.274 OA
BRANCH  88  91
ATOM     91  C   UNL A   1      29.944  26.610  24.118  1.00  0.00     0.056 A 
ATOM     92  C   UNL A   1      28.547  26.486  24.160  1.00  0.00     0.031 A 
ATOM     93  C   UNL A   1      30.502  27.713  23.458  1.00  0.00     0.077 A 
ATOM     94  C   UNL A   1      27.724  27.458  23.589  1.00  0.00     0.052 A 
ATOM     95  C   UNL A   1      29.678  28.665  22.854  1.00  0.00     0.163 A 
ATOM     96  C   UNL A   1      28.290  28.538  22.923  1.00  0.00     0.161 A 
ATOM     97  O   UNL A   1      30.305  29.689  22.191  1.00  0.00    -0.486 OA
ATOM     98  O   UNL A   1      27.420  29.438  22.369  1.00  0.00    -0.486 OA
ATOM     99  C   UNL A   1      29.405  30.767  21.913  1.00  0.00     0.271 C 
ATOM    100  C   UNL A   1      28.073  30.253  21.392  1.00  0.00     0.271 C 
ENDBRANCH  88  91
ENDBRANCH  82  84
ENDBRANCH  75  77
ENDBRANCH  74  75
ENDBRANCH  73  74
ENDBRANCH  72  73
ENDBRANCH   1  72
TORSDOF 16
ENDMDL
