MODEL 1
REMARK VINA RESULT:     -11.0      0.000      0.000
REMARK SMILES C[C@H]1[C@H](C(=O)OCCOCCOC(=O)c2ccc(-c3c4nc(c(-c5c(F)c(F)c(F)c(F)c5F)c5ccc([nH]5)c(-c5c(F)c(F)c(F)c(F)c5F)c5nc(c(-c6c(F)c(F)c(F)c(F)c6F)c6ccc3[nH]6)C=C5)C=C4)cc2)CC[N@@H+]1Cc1cscn1
REMARK SMILES IDX 9 1 8 2 7 3 6 4 4 5 5 6 3 7 1 8 2 9 80 10 78 11 79 12 81 14
REMARK SMILES IDX 82 15 83 16 86 17 84 18 85 19 10 20 11 21 12 22 13 23 14 24
REMARK SMILES IDX 15 25 16 26 77 27 17 28 76 29 18 30 19 31 20 32 70 33 21 34
REMARK SMILES IDX 75 35 69 36 71 37 22 38 74 39 68 40 67 41 23 43 55 44 35 45
REMARK SMILES IDX 54 46 36 47 39 48 53 49 72 50 37 51 38 52 52 54 73 55 40 56
REMARK SMILES IDX 24 57 25 58 33 59 26 60 27 61 31 62 34 63 28 64 29 65 32 66
REMARK SMILES IDX 30 67 56 68 57 69 65 70 58 71 59 72 63 73 66 74 60 75 61 76
REMARK SMILES IDX 64 77 62 78 41 79 42 80 50 81 43 82 44 83 48 84 51 85 45 86
REMARK SMILES IDX 46 87 49 88 47 89
REMARK H PARENT 80 13 71 42 39 53
REMARK Flexibility Score: inf
ROOT
ATOM      1  O   UNL A   1      31.921  28.358  25.955  1.00  0.00    -0.374 OA
ENDROOT
BRANCH   1   2
ATOM      2  C   UNL A   1      31.492  27.187  25.254  1.00  0.00     0.202 C 
BRANCH   2   3
ATOM      3  C   UNL A   1      30.949  26.062  26.139  1.00  0.00     0.261 C 
BRANCH   3   4
ATOM      4  O   UNL A   1      31.641  24.833  25.851  1.00  0.00    -0.463 OA
BRANCH   4   5
ATOM      5  C   UNL A   1      31.262  23.738  26.552  1.00  0.00     0.315 C 
ATOM      6  O   UNL A   1      30.257  23.672  27.252  1.00  0.00    -0.252 OA
BRANCH   5   7
ATOM      7  C   UNL A   1      32.234  22.583  26.428  1.00  0.00     0.162 C 
ATOM      8  C   UNL A   1      32.820  21.426  24.251  1.00  0.00     0.076 C 
ATOM      9  C   UNL A   1      33.172  22.573  25.208  1.00  0.00     0.195 C 
ATOM     10  N   UNL A   1      34.525  22.311  25.724  1.00  0.00    -0.327 N 
ATOM     11  C   UNL A   1      33.146  22.556  27.644  1.00  0.00     0.083 C 
ATOM     12  C   UNL A   1      34.435  21.952  27.132  1.00  0.00     0.263 C 
ATOM     13  H   UNL A   1      34.907  21.506  25.228  1.00  0.00     0.348 HD
BRANCH  10  14
ATOM     14  C   UNL A   1      35.538  23.314  25.374  1.00  0.00     0.320 C 
BRANCH  14  15
ATOM     15  C   UNL A   1      36.952  22.963  25.749  1.00  0.00     0.105 A 
ATOM     16  C   UNL A   1      37.588  21.746  25.576  1.00  0.00     0.096 A 
ATOM     17  N   UNL A   1      37.767  23.962  26.279  1.00  0.00    -0.244 NA
ATOM     18  S   UNL A   1      39.210  21.833  26.126  1.00  0.00    -0.130 S 
ATOM     19  C   UNL A   1      38.968  23.482  26.510  1.00  0.00     0.176 A 
ENDBRANCH  14  15
ENDBRANCH  10  14
ENDBRANCH   5   7
ENDBRANCH   4   5
ENDBRANCH   3   4
ENDBRANCH   2   3
ENDBRANCH   1   2
BRANCH   1  20
ATOM     20  C   UNL A   1      31.554  29.615  25.389  1.00  0.00     0.202 C 
BRANCH  20  21
ATOM     21  C   UNL A   1      31.780  30.838  26.284  1.00  0.00     0.261 C 
BRANCH  21  22
ATOM     22  O   UNL A   1      32.791  30.600  27.281  1.00  0.00    -0.460 OA
BRANCH  22  23
ATOM     23  C   UNL A   1      33.549  31.679  27.573  1.00  0.00     0.338 C 
ATOM     24  O   UNL A   1      33.165  32.831  27.733  1.00  0.00    -0.246 OA
BRANCH  23  25
ATOM     25  C   UNL A   1      34.952  31.296  27.825  1.00  0.00     0.060 A 
ATOM     26  C   UNL A   1      35.211  29.931  28.000  1.00  0.00     0.016 A 
ATOM     27  C   UNL A   1      35.969  32.235  28.006  1.00  0.00     0.016 A 
ATOM     28  C   UNL A   1      36.460  29.508  28.443  1.00  0.00     0.010 A 
ATOM     29  C   UNL A   1      37.227  31.809  28.454  1.00  0.00     0.010 A 
ATOM     30  C   UNL A   1      37.458  30.448  28.727  1.00  0.00    -0.014 A 
BRANCH  30  31
ATOM     31  C   UNL A   1      38.655  30.000  29.483  1.00  0.00     0.031 A 
ATOM     32  C   UNL A   1      38.854  30.495  30.891  1.00  0.00     0.074 A 
ATOM     33  C   UNL A   1      39.499  29.091  28.963  1.00  0.00     0.049 A 
ATOM     34  N   UNL A   1      39.766  30.159  31.770  1.00  0.00    -0.248 NA
ATOM     35  C   UNL A   1      37.891  31.497  31.376  1.00  0.00     0.031 C 
ATOM     36  C   UNL A   1      39.398  28.512  27.626  1.00  0.00     0.029 A 
ATOM     37  N   UNL A   1      40.603  28.487  29.512  1.00  0.00    -0.354 N 
ATOM     38  C   UNL A   1      39.482  30.902  32.909  1.00  0.00     0.074 A 
ATOM     39  C   UNL A   1      38.340  31.735  32.599  1.00  0.00     0.031 C 
ATOM     40  C   UNL A   1      40.400  27.632  27.456  1.00  0.00     0.029 A 
ATOM     41  C   UNL A   1      41.217  27.595  28.669  1.00  0.00     0.049 A 
ATOM     42  H   UNL A   1      40.925  28.676  30.423  1.00  0.00     0.167 HD
ATOM     43  C   UNL A   1      40.104  30.879  34.111  1.00  0.00     0.037 A 
ATOM     44  C   UNL A   1      42.312  26.834  28.857  1.00  0.00     0.037 A 
ATOM     45  C   UNL A   1      41.239  30.052  34.425  1.00  0.00     0.049 A 
ATOM     46  C   UNL A   1      43.016  26.862  30.188  1.00  0.00     0.074 A 
ATOM     47  C   UNL A   1      41.931  29.951  35.619  1.00  0.00     0.029 A 
ATOM     48  N   UNL A   1      41.852  29.187  33.532  1.00  0.00    -0.354 N 
ATOM     49  N   UNL A   1      42.716  27.537  31.272  1.00  0.00    -0.248 NA
ATOM     50  C   UNL A   1      44.205  26.008  30.327  1.00  0.00     0.031 C 
ATOM     51  C   UNL A   1      42.990  29.053  35.436  1.00  0.00     0.029 A 
ATOM     52  C   UNL A   1      42.928  28.562  34.142  1.00  0.00     0.049 A 
ATOM     53  H   UNL A   1      41.566  29.038  32.602  1.00  0.00     0.167 HD
ATOM     54  C   UNL A   1      43.656  27.169  32.225  1.00  0.00     0.074 A 
ATOM     55  C   UNL A   1      44.529  26.200  31.598  1.00  0.00     0.031 C 
ATOM     56  C   UNL A   1      43.784  27.594  33.507  1.00  0.00     0.037 A 
BRANCH  43  57
ATOM     57  C   UNL A   1      39.576  31.794  35.178  1.00  0.00     0.064 A 
ATOM     58  C   UNL A   1      40.005  33.126  35.281  1.00  0.00     0.173 A 
ATOM     59  C   UNL A   1      38.610  31.342  36.088  1.00  0.00     0.173 A 
ATOM     60  F   UNL A   1      40.938  33.602  34.443  1.00  0.00    -0.203 F 
ATOM     61  C   UNL A   1      39.502  33.965  36.273  1.00  0.00     0.198 A 
ATOM     62  C   UNL A   1      38.091  32.191  37.061  1.00  0.00     0.198 A 
ATOM     63  F   UNL A   1      38.164  30.078  36.029  1.00  0.00    -0.203 F 
ATOM     64  F   UNL A   1      39.957  35.221  36.381  1.00  0.00    -0.200 F 
ATOM     65  C   UNL A   1      38.542  33.498  37.158  1.00  0.00     0.200 A 
ATOM     66  F   UNL A   1      37.155  31.742  37.910  1.00  0.00    -0.200 F 
ATOM     67  F   UNL A   1      38.056  34.308  38.109  1.00  0.00    -0.200 F 
ENDBRANCH  43  57
BRANCH  44  68
ATOM     68  C   UNL A   1      42.808  25.965  27.759  1.00  0.00     0.064 A 
ATOM     69  C   UNL A   1      43.680  26.459  26.779  1.00  0.00     0.173 A 
ATOM     70  C   UNL A   1      42.404  24.626  27.659  1.00  0.00     0.173 A 
ATOM     71  F   UNL A   1      44.074  27.739  26.820  1.00  0.00    -0.203 F 
ATOM     72  C   UNL A   1      44.114  25.651  25.729  1.00  0.00     0.198 A 
ATOM     73  C   UNL A   1      42.858  23.812  26.624  1.00  0.00     0.198 A 
ATOM     74  F   UNL A   1      41.569  24.106  28.571  1.00  0.00    -0.203 F 
ATOM     75  F   UNL A   1      44.910  26.161  24.780  1.00  0.00    -0.200 F 
ATOM     76  C   UNL A   1      43.706  24.327  25.655  1.00  0.00     0.200 A 
ATOM     77  F   UNL A   1      42.470  22.531  26.562  1.00  0.00    -0.200 F 
ATOM     78  F   UNL A   1      44.125  23.552  24.646  1.00  0.00    -0.200 F 
ENDBRANCH  44  68
BRANCH  56  79
ATOM     79  C   UNL A   1      44.888  26.989  34.324  1.00  0.00     0.064 A 
ATOM     80  C   UNL A   1      44.696  25.815  35.066  1.00  0.00     0.173 A 
ATOM     81  C   UNL A   1      46.162  27.578  34.343  1.00  0.00     0.173 A 
ATOM     82  F   UNL A   1      43.493  25.221  35.092  1.00  0.00    -0.203 F 
ATOM     83  C   UNL A   1      45.731  25.269  35.822  1.00  0.00     0.198 A 
ATOM     84  C   UNL A   1      47.201  27.013  35.077  1.00  0.00     0.198 A 
ATOM     85  F   UNL A   1      46.399  28.697  33.645  1.00  0.00    -0.203 F 
ATOM     86  F   UNL A   1      45.511  24.174  36.564  1.00  0.00    -0.200 F 
ATOM     87  C   UNL A   1      46.983  25.865  35.822  1.00  0.00     0.200 A 
ATOM     88  F   UNL A   1      48.414  27.584  35.066  1.00  0.00    -0.200 F 
ATOM     89  F   UNL A   1      47.978  25.337  36.548  1.00  0.00    -0.200 F 
ENDBRANCH  56  79
ENDBRANCH  30  31
ENDBRANCH  23  25
ENDBRANCH  22  23
ENDBRANCH  21  22
ENDBRANCH  20  21
ENDBRANCH   1  20
TORSDOF 16
ENDMDL
MODEL 2
REMARK VINA RESULT:     -10.9      4.634     10.020
REMARK SMILES C[C@H]1[C@H](C(=O)OCCOCCOC(=O)c2ccc(-c3c4nc(c(-c5c(F)c(F)c(F)c(F)c5F)c5ccc([nH]5)c(-c5c(F)c(F)c(F)c(F)c5F)c5nc(c(-c6c(F)c(F)c(F)c(F)c6F)c6ccc3[nH]6)C=C5)C=C4)cc2)CC[N@@H+]1Cc1cscn1
REMARK SMILES IDX 9 1 8 2 7 3 6 4 4 5 5 6 3 7 1 8 2 9 80 10 78 11 79 12 81 14
REMARK SMILES IDX 82 15 83 16 86 17 84 18 85 19 10 20 11 21 12 22 13 23 14 24
REMARK SMILES IDX 15 25 16 26 77 27 17 28 76 29 18 30 19 31 20 32 70 33 21 34
REMARK SMILES IDX 75 35 69 36 71 37 22 38 74 39 68 40 67 41 23 43 55 44 35 45
REMARK SMILES IDX 54 46 36 47 39 48 53 49 72 50 37 51 38 52 52 54 73 55 40 56
REMARK SMILES IDX 24 57 25 58 33 59 26 60 27 61 31 62 34 63 28 64 29 65 32 66
REMARK SMILES IDX 30 67 56 68 57 69 65 70 58 71 59 72 63 73 66 74 60 75 61 76
REMARK SMILES IDX 64 77 62 78 41 79 42 80 50 81 43 82 44 83 48 84 51 85 45 86
REMARK SMILES IDX 46 87 49 88 47 89
REMARK H PARENT 80 13 71 42 39 53
REMARK Flexibility Score: inf
ROOT
ATOM      1  O   UNL A   1      37.599  21.425  24.731  1.00  0.00    -0.374 OA
ENDROOT
BRANCH   1   2
ATOM      2  C   UNL A   1      36.263  21.935  24.691  1.00  0.00     0.202 C 
BRANCH   2   3
ATOM      3  C   UNL A   1      36.077  23.208  23.860  1.00  0.00     0.261 C 
BRANCH   3   4
ATOM      4  O   UNL A   1      34.807  23.811  24.164  1.00  0.00    -0.463 OA
BRANCH   4   5
ATOM      5  C   UNL A   1      33.870  23.790  23.187  1.00  0.00     0.315 C 
ATOM      6  O   UNL A   1      33.956  24.394  22.124  1.00  0.00    -0.252 OA
BRANCH   5   7
ATOM      7  C   UNL A   1      32.651  22.964  23.546  1.00  0.00     0.162 C 
ATOM      8  C   UNL A   1      32.001  20.794  22.410  1.00  0.00     0.076 C 
ATOM      9  C   UNL A   1      32.807  21.433  23.548  1.00  0.00     0.195 C 
ATOM     10  N   UNL A   1      32.228  20.956  24.814  1.00  0.00    -0.327 N 
ATOM     11  C   UNL A   1      32.187  23.328  24.947  1.00  0.00     0.083 C 
ATOM     12  C   UNL A   1      31.546  22.063  25.471  1.00  0.00     0.263 C 
ATOM     13  H   UNL A   1      31.524  20.250  24.599  1.00  0.00     0.348 HD
BRANCH  10  14
ATOM     14  C   UNL A   1      33.126  20.156  25.656  1.00  0.00     0.320 C 
BRANCH  14  15
ATOM     15  C   UNL A   1      33.342  18.737  25.204  1.00  0.00     0.105 A 
ATOM     16  C   UNL A   1      32.532  17.643  25.460  1.00  0.00     0.096 A 
ATOM     17  N   UNL A   1      34.434  18.458  24.386  1.00  0.00    -0.244 NA
ATOM     18  S   UNL A   1      33.168  16.238  24.711  1.00  0.00    -0.130 S 
ATOM     19  C   UNL A   1      34.440  17.184  24.066  1.00  0.00     0.176 A 
ENDBRANCH  14  15
ENDBRANCH  10  14
ENDBRANCH   5   7
ENDBRANCH   4   5
ENDBRANCH   3   4
ENDBRANCH   2   3
ENDBRANCH   1   2
BRANCH   1  20
ATOM     20  C   UNL A   1      37.742  20.008  24.815  1.00  0.00     0.202 C 
BRANCH  20  21
ATOM     21  C   UNL A   1      39.059  19.508  25.418  1.00  0.00     0.261 C 
BRANCH  21  22
ATOM     22  O   UNL A   1      39.469  20.295  26.552  1.00  0.00    -0.460 OA
BRANCH  22  23
ATOM     23  C   UNL A   1      40.754  20.706  26.508  1.00  0.00     0.338 C 
ATOM     24  O   UNL A   1      41.682  20.168  25.917  1.00  0.00    -0.246 OA
BRANCH  23  25
ATOM     25  C   UNL A   1      40.922  22.015  27.170  1.00  0.00     0.060 A 
ATOM     26  C   UNL A   1      40.290  23.110  26.569  1.00  0.00     0.016 A 
ATOM     27  C   UNL A   1      41.760  22.201  28.272  1.00  0.00     0.016 A 
ATOM     28  C   UNL A   1      40.564  24.402  27.008  1.00  0.00     0.010 A 
ATOM     29  C   UNL A   1      42.037  23.503  28.712  1.00  0.00     0.010 A 
ATOM     30  C   UNL A   1      41.483  24.609  28.045  1.00  0.00    -0.014 A 
BRANCH  30  31
ATOM     31  C   UNL A   1      41.983  25.988  28.278  1.00  0.00     0.031 A 
ATOM     32  C   UNL A   1      43.317  26.385  27.703  1.00  0.00     0.074 A 
ATOM     33  C   UNL A   1      41.222  26.902  28.906  1.00  0.00     0.049 A 
ATOM     34  N   UNL A   1      43.904  27.556  27.694  1.00  0.00    -0.248 NA
ATOM     35  C   UNL A   1      44.089  25.320  27.044  1.00  0.00     0.031 C 
ATOM     36  C   UNL A   1      39.902  26.652  29.478  1.00  0.00     0.029 A 
ATOM     37  N   UNL A   1      41.451  28.233  29.151  1.00  0.00    -0.354 N 
ATOM     38  C   UNL A   1      45.107  27.369  27.024  1.00  0.00     0.074 A 
ATOM     39  C   UNL A   1      45.186  25.966  26.678  1.00  0.00     0.031 C 
ATOM     40  C   UNL A   1      39.434  27.795  30.009  1.00  0.00     0.029 A 
ATOM     41  C   UNL A   1      40.427  28.853  29.822  1.00  0.00     0.049 A 
ATOM     42  H   UNL A   1      42.273  28.699  28.874  1.00  0.00     0.167 HD
ATOM     43  C   UNL A   1      46.052  28.286  26.709  1.00  0.00     0.037 A 
ATOM     44  C   UNL A   1      40.305  30.128  30.235  1.00  0.00     0.037 A 
ATOM     45  C   UNL A   1      45.977  29.682  27.050  1.00  0.00     0.049 A 
ATOM     46  C   UNL A   1      41.393  31.120  29.914  1.00  0.00     0.074 A 
ATOM     47  C   UNL A   1      46.880  30.691  26.764  1.00  0.00     0.029 A 
ATOM     48  N   UNL A   1      44.938  30.264  27.760  1.00  0.00    -0.354 N 
ATOM     49  N   UNL A   1      42.507  30.943  29.245  1.00  0.00    -0.248 NA
ATOM     50  C   UNL A   1      41.197  32.496  30.394  1.00  0.00     0.031 C 
ATOM     51  C   UNL A   1      46.406  31.877  27.338  1.00  0.00     0.029 A 
ATOM     52  C   UNL A   1      45.187  31.614  27.941  1.00  0.00     0.049 A 
ATOM     53  H   UNL A   1      44.141  29.787  28.089  1.00  0.00     0.167 HD
ATOM     54  C   UNL A   1      43.128  32.183  29.199  1.00  0.00     0.074 A 
ATOM     55  C   UNL A   1      42.261  33.110  29.895  1.00  0.00     0.031 C 
ATOM     56  C   UNL A   1      44.310  32.526  28.630  1.00  0.00     0.037 A 
BRANCH  43  57
ATOM     57  C   UNL A   1      47.263  27.800  25.968  1.00  0.00     0.064 A 
ATOM     58  C   UNL A   1      47.280  27.711  24.567  1.00  0.00     0.173 A 
ATOM     59  C   UNL A   1      48.428  27.446  26.663  1.00  0.00     0.173 A 
ATOM     60  F   UNL A   1      46.185  28.024  23.858  1.00  0.00    -0.203 F 
ATOM     61  C   UNL A   1      48.413  27.263  23.892  1.00  0.00     0.198 A 
ATOM     62  C   UNL A   1      49.567  27.024  25.983  1.00  0.00     0.198 A 
ATOM     63  F   UNL A   1      48.464  27.518  28.002  1.00  0.00    -0.203 F 
ATOM     64  F   UNL A   1      48.393  27.144  22.558  1.00  0.00    -0.200 F 
ATOM     65  C   UNL A   1      49.557  26.925  24.600  1.00  0.00     0.200 A 
ATOM     66  F   UNL A   1      50.676  26.707  26.668  1.00  0.00    -0.200 F 
ATOM     67  F   UNL A   1      50.647  26.499  23.949  1.00  0.00    -0.200 F 
ENDBRANCH  43  57
BRANCH  44  68
ATOM     68  C   UNL A   1      39.097  30.551  30.988  1.00  0.00     0.064 A 
ATOM     69  C   UNL A   1      37.985  31.099  30.330  1.00  0.00     0.173 A 
ATOM     70  C   UNL A   1      39.037  30.433  32.383  1.00  0.00     0.173 A 
ATOM     71  F   UNL A   1      38.007  31.254  28.999  1.00  0.00    -0.203 F 
ATOM     72  C   UNL A   1      36.868  31.528  31.043  1.00  0.00     0.198 A 
ATOM     73  C   UNL A   1      37.909  30.839  33.093  1.00  0.00     0.198 A 
ATOM     74  F   UNL A   1      40.074  29.917  33.059  1.00  0.00    -0.203 F 
ATOM     75  F   UNL A   1      35.839  32.090  30.395  1.00  0.00    -0.200 F 
ATOM     76  C   UNL A   1      36.828  31.394  32.423  1.00  0.00     0.200 A 
ATOM     77  F   UNL A   1      37.871  30.698  34.424  1.00  0.00    -0.200 F 
ATOM     78  F   UNL A   1      35.753  31.808  33.108  1.00  0.00    -0.200 F 
ENDBRANCH  44  68
BRANCH  56  79
ATOM     79  C   UNL A   1      44.718  33.968  28.707  1.00  0.00     0.064 A 
ATOM     80  C   UNL A   1      45.517  34.452  29.753  1.00  0.00     0.173 A 
ATOM     81  C   UNL A   1      44.329  34.871  27.705  1.00  0.00     0.173 A 
ATOM     82  F   UNL A   1      45.905  33.632  30.742  1.00  0.00    -0.203 F 
ATOM     83  C   UNL A   1      45.884  35.795  29.811  1.00  0.00     0.198 A 
ATOM     84  C   UNL A   1      44.722  36.206  27.752  1.00  0.00     0.198 A 
ATOM     85  F   UNL A   1      43.571  34.457  26.680  1.00  0.00    -0.203 F 
ATOM     86  F   UNL A   1      46.605  36.246  30.846  1.00  0.00    -0.200 F 
ATOM     87  C   UNL A   1      45.491  36.668  28.808  1.00  0.00     0.200 A 
ATOM     88  F   UNL A   1      44.351  37.046  26.775  1.00  0.00    -0.200 F 
ATOM     89  F   UNL A   1      45.847  37.959  28.864  1.00  0.00    -0.200 F 
ENDBRANCH  56  79
ENDBRANCH  30  31
ENDBRANCH  23  25
ENDBRANCH  22  23
ENDBRANCH  21  22
ENDBRANCH  20  21
ENDBRANCH   1  20
TORSDOF 16
ENDMDL
MODEL 3
REMARK VINA RESULT:     -10.9      4.653     10.051
REMARK SMILES C[C@H]1[C@H](C(=O)OCCOCCOC(=O)c2ccc(-c3c4nc(c(-c5c(F)c(F)c(F)c(F)c5F)c5ccc([nH]5)c(-c5c(F)c(F)c(F)c(F)c5F)c5nc(c(-c6c(F)c(F)c(F)c(F)c6F)c6ccc3[nH]6)C=C5)C=C4)cc2)CC[N@@H+]1Cc1cscn1
REMARK SMILES IDX 9 1 8 2 7 3 6 4 4 5 5 6 3 7 1 8 2 9 80 10 78 11 79 12 81 14
REMARK SMILES IDX 82 15 83 16 86 17 84 18 85 19 10 20 11 21 12 22 13 23 14 24
REMARK SMILES IDX 15 25 16 26 77 27 17 28 76 29 18 30 19 31 20 32 70 33 21 34
REMARK SMILES IDX 75 35 69 36 71 37 22 38 74 39 68 40 67 41 23 43 55 44 35 45
REMARK SMILES IDX 54 46 36 47 39 48 53 49 72 50 37 51 38 52 52 54 73 55 40 56
REMARK SMILES IDX 24 57 25 58 33 59 26 60 27 61 31 62 34 63 28 64 29 65 32 66
REMARK SMILES IDX 30 67 56 68 57 69 65 70 58 71 59 72 63 73 66 74 60 75 61 76
REMARK SMILES IDX 64 77 62 78 41 79 42 80 50 81 43 82 44 83 48 84 51 85 45 86
REMARK SMILES IDX 46 87 49 88 47 89
REMARK H PARENT 80 13 71 42 39 53
REMARK Flexibility Score: inf
ROOT
ATOM      1  O   UNL A   1      35.402  21.707  25.716  1.00  0.00    -0.374 OA
ENDROOT
BRANCH   1   2
ATOM      2  C   UNL A   1      34.321  22.408  25.095  1.00  0.00     0.202 C 
BRANCH   2   3
ATOM      3  C   UNL A   1      33.036  22.486  25.924  1.00  0.00     0.261 C 
BRANCH   3   4
ATOM      4  O   UNL A   1      33.041  23.681  26.725  1.00  0.00    -0.463 OA
BRANCH   4   5
ATOM      5  C   UNL A   1      31.988  24.521  26.580  1.00  0.00     0.315 C 
ATOM      6  O   UNL A   1      30.852  24.290  26.978  1.00  0.00    -0.252 OA
BRANCH   5   7
ATOM      7  C   UNL A   1      32.334  25.787  25.823  1.00  0.00     0.162 C 
ATOM      8  C   UNL A   1      33.280  25.844  23.473  1.00  0.00     0.076 C 
ATOM      9  C   UNL A   1      32.001  25.828  24.321  1.00  0.00     0.195 C 
ATOM     10  N   UNL A   1      31.305  27.102  24.082  1.00  0.00    -0.327 N 
ATOM     11  C   UNL A   1      31.590  26.962  26.437  1.00  0.00     0.083 C 
ATOM     12  C   UNL A   1      31.384  27.920  25.285  1.00  0.00     0.263 C 
ATOM     13  H   UNL A   1      31.796  27.603  23.341  1.00  0.00     0.348 HD
BRANCH  10  14
ATOM     14  C   UNL A   1      29.979  26.989  23.462  1.00  0.00     0.320 C 
BRANCH  14  15
ATOM     15  C   UNL A   1      29.429  28.262  22.876  1.00  0.00     0.105 A 
ATOM     16  C   UNL A   1      28.206  28.850  23.150  1.00  0.00     0.096 A 
ATOM     17  N   UNL A   1      30.230  28.993  22.002  1.00  0.00    -0.244 NA
ATOM     18  S   UNL A   1      28.032  30.310  22.267  1.00  0.00    -0.130 S 
ATOM     19  C   UNL A   1      29.601  30.083  21.625  1.00  0.00     0.176 A 
ENDBRANCH  14  15
ENDBRANCH  10  14
ENDBRANCH   5   7
ENDBRANCH   4   5
ENDBRANCH   3   4
ENDBRANCH   2   3
ENDBRANCH   1   2
BRANCH   1  20
ATOM     20  C   UNL A   1      35.940  20.595  25.002  1.00  0.00     0.202 C 
BRANCH  20  21
ATOM     21  C   UNL A   1      37.468  20.481  25.001  1.00  0.00     0.261 C 
BRANCH  21  22
ATOM     22  O   UNL A   1      38.099  21.677  25.494  1.00  0.00    -0.460 OA
BRANCH  22  23
ATOM     23  C   UNL A   1      39.294  21.469  26.091  1.00  0.00     0.338 C 
ATOM     24  O   UNL A   1      40.035  20.505  25.944  1.00  0.00    -0.246 OA
BRANCH  23  25
ATOM     25  C   UNL A   1      39.710  22.643  26.882  1.00  0.00     0.060 A 
ATOM     26  C   UNL A   1      39.030  23.843  26.635  1.00  0.00     0.016 A 
ATOM     27  C   UNL A   1      40.801  22.618  27.753  1.00  0.00     0.016 A 
ATOM     28  C   UNL A   1      39.493  25.034  27.184  1.00  0.00     0.010 A 
ATOM     29  C   UNL A   1      41.269  23.819  28.304  1.00  0.00     0.010 A 
ATOM     30  C   UNL A   1      40.649  25.038  27.975  1.00  0.00    -0.014 A 
BRANCH  30  31
ATOM     31  C   UNL A   1      41.288  26.342  28.285  1.00  0.00     0.031 A 
ATOM     32  C   UNL A   1      42.683  26.606  27.785  1.00  0.00     0.074 A 
ATOM     33  C   UNL A   1      40.604  27.314  28.914  1.00  0.00     0.049 A 
ATOM     34  N   UNL A   1      43.397  27.702  27.847  1.00  0.00    -0.248 NA
ATOM     35  C   UNL A   1      43.363  25.483  27.117  1.00  0.00     0.031 C 
ATOM     36  C   UNL A   1      39.238  27.195  29.418  1.00  0.00     0.029 A 
ATOM     37  N   UNL A   1      40.968  28.602  29.221  1.00  0.00    -0.354 N 
ATOM     38  C   UNL A   1      44.602  27.404  27.223  1.00  0.00     0.074 A 
ATOM     39  C   UNL A   1      44.541  26.014  26.826  1.00  0.00     0.031 C 
ATOM     40  C   UNL A   1      38.876  28.365  29.973  1.00  0.00     0.029 A 
ATOM     41  C   UNL A   1      39.988  29.310  29.871  1.00  0.00     0.049 A 
ATOM     42  H   UNL A   1      41.849  28.981  28.999  1.00  0.00     0.167 HD
ATOM     43  C   UNL A   1      45.657  28.219  26.986  1.00  0.00     0.037 A 
ATOM     44  C   UNL A   1      39.989  30.576  30.328  1.00  0.00     0.037 A 
ATOM     45  C   UNL A   1      45.722  29.602  27.379  1.00  0.00     0.049 A 
ATOM     46  C   UNL A   1      41.194  31.449  30.094  1.00  0.00     0.074 A 
ATOM     47  C   UNL A   1      46.744  30.512  27.172  1.00  0.00     0.029 A 
ATOM     48  N   UNL A   1      44.721  30.272  28.065  1.00  0.00    -0.354 N 
ATOM     49  N   UNL A   1      42.313  31.170  29.468  1.00  0.00    -0.248 NA
ATOM     50  C   UNL A   1      41.130  32.821  30.619  1.00  0.00     0.031 C 
ATOM     51  C   UNL A   1      46.378  31.723  27.771  1.00  0.00     0.029 A 
ATOM     52  C   UNL A   1      45.110  31.579  28.309  1.00  0.00     0.049 A 
ATOM     53  H   UNL A   1      43.862  29.877  28.339  1.00  0.00     0.167 HD
ATOM     54  C   UNL A   1      43.069  32.334  29.498  1.00  0.00     0.074 A 
ATOM     55  C   UNL A   1      42.278  33.328  30.192  1.00  0.00     0.031 C 
ATOM     56  C   UNL A   1      44.308  32.560  28.995  1.00  0.00     0.037 A 
BRANCH  43  57
ATOM     57  C   UNL A   1      46.840  27.625  26.280  1.00  0.00     0.064 A 
ATOM     58  C   UNL A   1      47.854  26.954  26.980  1.00  0.00     0.173 A 
ATOM     59  C   UNL A   1      46.948  27.703  24.884  1.00  0.00     0.173 A 
ATOM     60  F   UNL A   1      47.805  26.866  28.318  1.00  0.00    -0.203 F 
ATOM     61  C   UNL A   1      48.944  26.404  26.311  1.00  0.00     0.198 A 
ATOM     62  C   UNL A   1      48.025  27.129  24.215  1.00  0.00     0.198 A 
ATOM     63  F   UNL A   1      46.003  28.330  24.167  1.00  0.00    -0.203 F 
ATOM     64  F   UNL A   1      49.923  25.806  27.003  1.00  0.00    -0.200 F 
ATOM     65  C   UNL A   1      49.026  26.487  24.928  1.00  0.00     0.200 A 
ATOM     66  F   UNL A   1      48.098  27.201  22.878  1.00  0.00    -0.200 F 
ATOM     67  F   UNL A   1      50.073  25.953  24.284  1.00  0.00    -0.200 F 
ENDBRANCH  43  57
BRANCH  44  68
ATOM     68  C   UNL A   1      38.801  31.106  31.044  1.00  0.00     0.064 A 
ATOM     69  C   UNL A   1      38.664  30.961  32.432  1.00  0.00     0.173 A 
ATOM     70  C   UNL A   1      37.769  31.754  30.350  1.00  0.00     0.173 A 
ATOM     71  F   UNL A   1      39.614  30.328  33.134  1.00  0.00    -0.203 F 
ATOM     72  C   UNL A   1      37.530  31.427  33.095  1.00  0.00     0.198 A 
ATOM     73  C   UNL A   1      36.648  32.242  31.018  1.00  0.00     0.198 A 
ATOM     74  F   UNL A   1      37.851  31.917  29.021  1.00  0.00    -0.203 F 
ATOM     75  F   UNL A   1      37.404  31.234  34.415  1.00  0.00    -0.200 F 
ATOM     76  C   UNL A   1      36.525  32.071  32.389  1.00  0.00     0.200 A 
ATOM     77  F   UNL A   1      35.684  32.872  30.333  1.00  0.00    -0.200 F 
ATOM     78  F   UNL A   1      35.436  32.519  33.028  1.00  0.00    -0.200 F 
ENDBRANCH  44  68
BRANCH  56  79
ATOM     79  C   UNL A   1      44.870  33.944  29.147  1.00  0.00     0.064 A 
ATOM     80  C   UNL A   1      44.637  34.942  28.189  1.00  0.00     0.173 A 
ATOM     81  C   UNL A   1      45.626  34.282  30.279  1.00  0.00     0.173 A 
ATOM     82  F   UNL A   1      43.931  34.665  27.082  1.00  0.00    -0.203 F 
ATOM     83  C   UNL A   1      45.169  36.220  28.345  1.00  0.00     0.198 A 
ATOM     84  C   UNL A   1      46.131  35.569  30.445  1.00  0.00     0.198 A 
ATOM     85  F   UNL A   1      45.870  33.366  31.228  1.00  0.00    -0.203 F 
ATOM     86  F   UNL A   1      44.977  37.143  27.393  1.00  0.00    -0.200 F 
ATOM     87  C   UNL A   1      45.910  36.534  29.474  1.00  0.00     0.200 A 
ATOM     88  F   UNL A   1      46.837  35.873  31.543  1.00  0.00    -0.200 F 
ATOM     89  F   UNL A   1      46.419  37.764  29.623  1.00  0.00    -0.200 F 
ENDBRANCH  56  79
ENDBRANCH  30  31
ENDBRANCH  23  25
ENDBRANCH  22  23
ENDBRANCH  21  22
ENDBRANCH  20  21
ENDBRANCH   1  20
TORSDOF 16
ENDMDL
