MODEL 1
REMARK VINA RESULT:     -10.9      0.000      0.000
REMARK SMILES O=C(OCCOCCOC(=O)[C@@H]1C[C@@H](O)CN1C(=O)c1ccccc1)c1ccc(-c2c3nc(c(-c4c(F)c(F)c(F)c(F)c4F)c4ccc([nH]4)c(-c4c(F)c(F)c(F)c(F)c4F)c4nc(c(-c5c(F)c(F)c(F)c(F)c5F)c5ccc2[nH]5)C=C4)C=C3)cc1
REMARK SMILES IDX 6 1 5 2 4 3 3 4 2 5 1 6 26 7 27 8 88 9 28 10 87 11 29 12
REMARK SMILES IDX 30 13 31 14 81 15 32 16 86 17 80 18 82 19 33 20 85 21 79 22
REMARK SMILES IDX 78 23 34 25 66 26 46 27 65 28 47 29 50 30 64 31 83 32 48 33
REMARK SMILES IDX 49 34 63 36 84 37 51 38 35 39 36 40 44 41 37 42 38 43 42 44
REMARK SMILES IDX 45 45 39 46 40 47 43 48 41 49 67 50 68 51 76 52 69 53 70 54
REMARK SMILES IDX 74 55 77 56 71 57 72 58 75 59 73 60 52 61 53 62 61 63 54 64
REMARK SMILES IDX 55 65 59 66 62 67 56 68 57 69 60 70 58 71 7 72 8 73 9 74
REMARK SMILES IDX 10 75 11 76 12 77 13 78 17 79 14 80 16 81 18 82 19 83 20 84
REMARK SMILES IDX 21 85 25 86 22 87 24 88 23 89 15 90
REMARK H PARENT 82 24 50 35 15 91
REMARK Flexibility Score: inf
ROOT
ATOM      1  O   UNL A   1      32.522  30.796  26.639  1.00  0.00    -0.374 OA
ENDROOT
BRANCH   1   2
ATOM      2  C   UNL A   1      31.518  31.778  26.876  1.00  0.00     0.202 C 
BRANCH   2   3
ATOM      3  C   UNL A   1      32.038  33.202  26.685  1.00  0.00     0.261 C 
BRANCH   3   4
ATOM      4  O   UNL A   1      32.181  33.844  27.958  1.00  0.00    -0.460 OA
BRANCH   4   5
ATOM      5  C   UNL A   1      33.290  34.471  28.420  1.00  0.00     0.338 C 
ATOM      6  O   UNL A   1      33.344  35.698  28.375  1.00  0.00    -0.246 OA
BRANCH   5   7
ATOM      7  C   UNL A   1      34.422  33.748  29.076  1.00  0.00     0.060 A 
ATOM      8  C   UNL A   1      34.305  32.552  29.788  1.00  0.00     0.016 A 
ATOM      9  C   UNL A   1      35.711  34.273  28.882  1.00  0.00     0.016 A 
ATOM     10  C   UNL A   1      35.404  31.908  30.320  1.00  0.00     0.010 A 
ATOM     11  C   UNL A   1      36.836  33.609  29.382  1.00  0.00     0.010 A 
ATOM     12  C   UNL A   1      36.676  32.421  30.101  1.00  0.00    -0.014 A 
BRANCH  12  13
ATOM     13  C   UNL A   1      37.794  31.705  30.727  1.00  0.00     0.031 A 
ATOM     14  C   UNL A   1      38.037  31.909  32.184  1.00  0.00     0.074 A 
ATOM     15  C   UNL A   1      38.444  30.765  30.016  1.00  0.00     0.049 A 
ATOM     16  N   UNL A   1      38.977  31.421  32.943  1.00  0.00    -0.248 NA
ATOM     17  C   UNL A   1      37.074  32.772  32.890  1.00  0.00     0.031 C 
ATOM     18  C   UNL A   1      38.143  30.402  28.628  1.00  0.00     0.029 A 
ATOM     19  N   UNL A   1      39.453  29.914  30.371  1.00  0.00    -0.354 N 
ATOM     20  C   UNL A   1      38.746  31.948  34.205  1.00  0.00     0.074 A 
ATOM     21  C   UNL A   1      37.573  32.787  34.115  1.00  0.00     0.031 C 
ATOM     22  C   UNL A   1      38.928  29.378  28.262  1.00  0.00     0.029 A 
ATOM     23  C   UNL A   1      39.841  29.074  29.356  1.00  0.00     0.049 A 
ATOM     24  H   UNL A   1      39.862  29.904  31.266  1.00  0.00     0.167 HD
ATOM     25  C   UNL A   1      39.473  31.750  35.328  1.00  0.00     0.037 A 
ATOM     26  C   UNL A   1      40.853  28.189  29.318  1.00  0.00     0.037 A 
ATOM     27  C   UNL A   1      40.632  30.899  35.365  1.00  0.00     0.049 A 
ATOM     28  C   UNL A   1      41.707  28.065  30.550  1.00  0.00     0.074 A 
ATOM     29  C   UNL A   1      41.511  30.673  36.407  1.00  0.00     0.029 A 
ATOM     30  N   UNL A   1      41.065  30.125  34.295  1.00  0.00    -0.354 N 
ATOM     31  N   UNL A   1      41.560  28.644  31.720  1.00  0.00    -0.248 NA
ATOM     32  C   UNL A   1      42.879  27.187  30.456  1.00  0.00     0.031 C 
ATOM     33  C   UNL A   1      42.500  29.792  35.949  1.00  0.00     0.029 A 
ATOM     34  C   UNL A   1      42.208  29.430  34.643  1.00  0.00     0.049 A 
ATOM     35  H   UNL A   1      40.622  30.079  33.416  1.00  0.00     0.167 HD
ATOM     36  C   UNL A   1      42.609  28.194  32.507  1.00  0.00     0.074 A 
ATOM     37  C   UNL A   1      43.372  27.273  31.684  1.00  0.00     0.031 C 
ATOM     38  C   UNL A   1      42.924  28.515  33.787  1.00  0.00     0.037 A 
BRANCH  25  39
ATOM     39  C   UNL A   1      39.080  32.540  36.540  1.00  0.00     0.064 A 
ATOM     40  C   UNL A   1      39.621  33.803  36.817  1.00  0.00     0.173 A 
ATOM     41  C   UNL A   1      38.190  31.989  37.475  1.00  0.00     0.173 A 
ATOM     42  F   UNL A   1      40.504  34.360  35.975  1.00  0.00    -0.203 F 
ATOM     43  C   UNL A   1      39.314  34.470  38.002  1.00  0.00     0.198 A 
ATOM     44  C   UNL A   1      37.864  32.670  38.644  1.00  0.00     0.198 A 
ATOM     45  F   UNL A   1      37.653  30.778  37.265  1.00  0.00    -0.203 F 
ATOM     46  F   UNL A   1      39.899  35.643  38.281  1.00  0.00    -0.200 F 
ATOM     47  C   UNL A   1      38.434  33.904  38.913  1.00  0.00     0.200 A 
ATOM     48  F   UNL A   1      37.014  32.119  39.522  1.00  0.00    -0.200 F 
ATOM     49  F   UNL A   1      38.153  34.539  40.059  1.00  0.00    -0.200 F 
ENDBRANCH  25  39
BRANCH  26  50
ATOM     50  C   UNL A   1      41.144  27.423  28.077  1.00  0.00     0.064 A 
ATOM     51  C   UNL A   1      40.569  26.166  27.844  1.00  0.00     0.173 A 
ATOM     52  C   UNL A   1      42.016  27.927  27.097  1.00  0.00     0.173 A 
ATOM     53  F   UNL A   1      39.748  25.626  28.755  1.00  0.00    -0.203 F 
ATOM     54  C   UNL A   1      40.867  25.438  26.691  1.00  0.00     0.198 A 
ATOM     55  C   UNL A   1      42.286  27.213  25.932  1.00  0.00     0.198 A 
ATOM     56  F   UNL A   1      42.601  29.121  27.268  1.00  0.00    -0.203 F 
ATOM     57  F   UNL A   1      40.343  24.217  26.519  1.00  0.00    -0.200 F 
ATOM     58  C   UNL A   1      41.720  25.966  25.733  1.00  0.00     0.200 A 
ATOM     59  F   UNL A   1      43.101  27.735  25.004  1.00  0.00    -0.200 F 
ATOM     60  F   UNL A   1      42.004  25.266  24.626  1.00  0.00    -0.200 F 
ENDBRANCH  26  50
BRANCH  38  61
ATOM     61  C   UNL A   1      44.120  27.830  34.372  1.00  0.00     0.064 A 
ATOM     62  C   UNL A   1      45.395  28.411  34.325  1.00  0.00     0.173 A 
ATOM     63  C   UNL A   1      43.976  26.595  35.022  1.00  0.00     0.173 A 
ATOM     64  F   UNL A   1      45.581  29.583  33.698  1.00  0.00    -0.203 F 
ATOM     65  C   UNL A   1      46.490  27.767  34.891  1.00  0.00     0.198 A 
ATOM     66  C   UNL A   1      45.067  25.970  35.613  1.00  0.00     0.198 A 
ATOM     67  F   UNL A   1      42.773  26.006  35.096  1.00  0.00    -0.203 F 
ATOM     68  F   UNL A   1      47.709  28.314  34.795  1.00  0.00    -0.200 F 
ATOM     69  C   UNL A   1      46.324  26.551  35.541  1.00  0.00     0.200 A 
ATOM     70  F   UNL A   1      44.903  24.804  36.252  1.00  0.00    -0.200 F 
ATOM     71  F   UNL A   1      47.379  25.937  36.092  1.00  0.00    -0.200 F 
ENDBRANCH  38  61
ENDBRANCH  12  13
ENDBRANCH   5   7
ENDBRANCH   4   5
ENDBRANCH   3   4
ENDBRANCH   2   3
ENDBRANCH   1   2
BRANCH   1  72
ATOM     72  C   UNL A   1      32.236  29.475  27.079  1.00  0.00     0.202 C 
BRANCH  72  73
ATOM     73  C   UNL A   1      33.529  28.661  27.159  1.00  0.00     0.261 C 
BRANCH  73  74
ATOM     74  O   UNL A   1      33.351  27.410  26.473  1.00  0.00    -0.462 OA
BRANCH  74  75
ATOM     75  C   UNL A   1      33.325  27.454  25.106  1.00  0.00     0.329 C 
ATOM     76  O   UNL A   1      34.032  28.197  24.438  1.00  0.00    -0.250 OA
BRANCH  75  77
ATOM     77  C   UNL A   1      32.342  26.399  24.533  1.00  0.00     0.198 C 
ATOM     78  C   UNL A   1      31.089  26.237  25.423  1.00  0.00     0.071 C 
ATOM     79  N   UNL A   1      32.837  25.002  24.389  1.00  0.00    -0.322 N 
ATOM     80  C   UNL A   1      30.626  24.818  25.160  1.00  0.00     0.136 C 
ATOM     81  C   UNL A   1      31.941  24.055  25.058  1.00  0.00     0.152 C 
BRANCH  79  82
ATOM     82  C   UNL A   1      33.874  24.658  23.535  1.00  0.00     0.254 C 
ATOM     83  O   UNL A   1      33.883  24.902  22.335  1.00  0.00    -0.269 OA
BRANCH  82  84
ATOM     84  C   UNL A   1      35.061  23.982  24.113  1.00  0.00     0.040 A 
ATOM     85  C   UNL A   1      35.534  24.354  25.376  1.00  0.00     0.014 A 
ATOM     86  C   UNL A   1      35.728  23.002  23.371  1.00  0.00     0.014 A 
ATOM     87  C   UNL A   1      36.643  23.702  25.920  1.00  0.00     0.001 A 
ATOM     88  C   UNL A   1      36.835  22.353  23.920  1.00  0.00     0.001 A 
ATOM     89  C   UNL A   1      37.287  22.698  25.194  1.00  0.00     0.000 A 
ENDBRANCH  82  84
ENDBRANCH  79  82
BRANCH  80  90
ATOM     90  O   UNL A   1      29.903  24.763  23.934  1.00  0.00    -0.391 OA
ATOM     91  H   UNL A   1      29.147  25.369  23.976  1.00  0.00     0.211 HD
ENDBRANCH  80  90
ENDBRANCH  75  77
ENDBRANCH  74  75
ENDBRANCH  73  74
ENDBRANCH  72  73
ENDBRANCH   1  72
TORSDOF 17
ENDMDL
MODEL 2
REMARK VINA RESULT:     -10.9      1.497      3.038
REMARK SMILES O=C(OCCOCCOC(=O)[C@@H]1C[C@@H](O)CN1C(=O)c1ccccc1)c1ccc(-c2c3nc(c(-c4c(F)c(F)c(F)c(F)c4F)c4ccc([nH]4)c(-c4c(F)c(F)c(F)c(F)c4F)c4nc(c(-c5c(F)c(F)c(F)c(F)c5F)c5ccc2[nH]5)C=C4)C=C3)cc1
REMARK SMILES IDX 6 1 5 2 4 3 3 4 2 5 1 6 26 7 27 8 88 9 28 10 87 11 29 12
REMARK SMILES IDX 30 13 31 14 81 15 32 16 86 17 80 18 82 19 33 20 85 21 79 22
REMARK SMILES IDX 78 23 34 25 66 26 46 27 65 28 47 29 50 30 64 31 83 32 48 33
REMARK SMILES IDX 49 34 63 36 84 37 51 38 35 39 36 40 44 41 37 42 38 43 42 44
REMARK SMILES IDX 45 45 39 46 40 47 43 48 41 49 67 50 68 51 76 52 69 53 70 54
REMARK SMILES IDX 74 55 77 56 71 57 72 58 75 59 73 60 52 61 53 62 61 63 54 64
REMARK SMILES IDX 55 65 59 66 62 67 56 68 57 69 60 70 58 71 7 72 8 73 9 74
REMARK SMILES IDX 10 75 11 76 12 77 13 78 17 79 14 80 16 81 18 82 19 83 20 84
REMARK SMILES IDX 21 85 25 86 22 87 24 88 23 89 15 90
REMARK H PARENT 82 24 50 35 15 91
REMARK Flexibility Score: inf
ROOT
ATOM      1  O   UNL A   1      32.740  30.787  26.377  1.00  0.00    -0.374 OA
ENDROOT
BRANCH   1   2
ATOM      2  C   UNL A   1      31.880  31.631  27.136  1.00  0.00     0.202 C 
BRANCH   2   3
ATOM      3  C   UNL A   1      32.059  33.109  26.790  1.00  0.00     0.261 C 
BRANCH   3   4
ATOM      4  O   UNL A   1      32.181  33.880  27.992  1.00  0.00    -0.460 OA
BRANCH   4   5
ATOM      5  C   UNL A   1      33.299  34.505  28.433  1.00  0.00     0.338 C 
ATOM      6  O   UNL A   1      33.362  35.731  28.369  1.00  0.00    -0.246 OA
BRANCH   5   7
ATOM      7  C   UNL A   1      34.432  33.784  29.089  1.00  0.00     0.060 A 
ATOM      8  C   UNL A   1      34.310  32.616  29.845  1.00  0.00     0.016 A 
ATOM      9  C   UNL A   1      35.726  34.276  28.847  1.00  0.00     0.016 A 
ATOM     10  C   UNL A   1      35.409  31.969  30.374  1.00  0.00     0.010 A 
ATOM     11  C   UNL A   1      36.849  33.608  29.344  1.00  0.00     0.010 A 
ATOM     12  C   UNL A   1      36.684  32.449  30.108  1.00  0.00    -0.014 A 
BRANCH  12  13
ATOM     13  C   UNL A   1      37.803  31.733  30.734  1.00  0.00     0.031 A 
ATOM     14  C   UNL A   1      38.045  31.937  32.191  1.00  0.00     0.074 A 
ATOM     15  C   UNL A   1      38.454  30.796  30.022  1.00  0.00     0.049 A 
ATOM     16  N   UNL A   1      38.986  31.449  32.950  1.00  0.00    -0.248 NA
ATOM     17  C   UNL A   1      37.081  32.798  32.898  1.00  0.00     0.031 C 
ATOM     18  C   UNL A   1      38.154  30.434  28.633  1.00  0.00     0.029 A 
ATOM     19  N   UNL A   1      39.464  29.945  30.377  1.00  0.00    -0.354 N 
ATOM     20  C   UNL A   1      38.753  31.974  34.213  1.00  0.00     0.074 A 
ATOM     21  C   UNL A   1      37.579  32.811  34.124  1.00  0.00     0.031 C 
ATOM     22  C   UNL A   1      38.940  29.411  28.266  1.00  0.00     0.029 A 
ATOM     23  C   UNL A   1      39.852  29.106  29.361  1.00  0.00     0.049 A 
ATOM     24  H   UNL A   1      39.872  29.934  31.272  1.00  0.00     0.167 HD
ATOM     25  C   UNL A   1      39.481  31.775  35.335  1.00  0.00     0.037 A 
ATOM     26  C   UNL A   1      40.866  28.223  29.322  1.00  0.00     0.037 A 
ATOM     27  C   UNL A   1      40.640  30.926  35.372  1.00  0.00     0.049 A 
ATOM     28  C   UNL A   1      41.720  28.098  30.555  1.00  0.00     0.074 A 
ATOM     29  C   UNL A   1      41.519  30.699  36.414  1.00  0.00     0.029 A 
ATOM     30  N   UNL A   1      41.074  30.154  34.301  1.00  0.00    -0.354 N 
ATOM     31  N   UNL A   1      41.572  28.676  31.724  1.00  0.00    -0.248 NA
ATOM     32  C   UNL A   1      42.892  27.222  30.460  1.00  0.00     0.031 C 
ATOM     33  C   UNL A   1      42.510  29.820  35.956  1.00  0.00     0.029 A 
ATOM     34  C   UNL A   1      42.218  29.460  34.648  1.00  0.00     0.049 A 
ATOM     35  H   UNL A   1      40.631  30.108  33.422  1.00  0.00     0.167 HD
ATOM     36  C   UNL A   1      42.620  28.226  32.511  1.00  0.00     0.074 A 
ATOM     37  C   UNL A   1      43.385  27.307  31.688  1.00  0.00     0.031 C 
ATOM     38  C   UNL A   1      42.935  28.546  33.792  1.00  0.00     0.037 A 
BRANCH  25  39
ATOM     39  C   UNL A   1      39.086  32.563  36.548  1.00  0.00     0.064 A 
ATOM     40  C   UNL A   1      39.638  33.820  36.835  1.00  0.00     0.173 A 
ATOM     41  C   UNL A   1      38.184  32.017  37.474  1.00  0.00     0.173 A 
ATOM     42  F   UNL A   1      40.532  34.372  36.002  1.00  0.00    -0.203 F 
ATOM     43  C   UNL A   1      39.328  34.485  38.021  1.00  0.00     0.198 A 
ATOM     44  C   UNL A   1      37.856  32.696  38.644  1.00  0.00     0.198 A 
ATOM     45  F   UNL A   1      37.636  30.812  37.255  1.00  0.00    -0.203 F 
ATOM     46  F   UNL A   1      39.922  35.651  38.310  1.00  0.00    -0.200 F 
ATOM     47  C   UNL A   1      38.436  33.923  38.923  1.00  0.00     0.200 A 
ATOM     48  F   UNL A   1      36.994  32.150  39.514  1.00  0.00    -0.200 F 
ATOM     49  F   UNL A   1      38.152  34.555  40.070  1.00  0.00    -0.200 F 
ENDBRANCH  25  39
BRANCH  26  50
ATOM     50  C   UNL A   1      41.158  27.458  28.081  1.00  0.00     0.064 A 
ATOM     51  C   UNL A   1      40.634  26.175  27.873  1.00  0.00     0.173 A 
ATOM     52  C   UNL A   1      41.980  27.991  27.073  1.00  0.00     0.173 A 
ATOM     53  F   UNL A   1      39.862  25.607  28.811  1.00  0.00    -0.203 F 
ATOM     54  C   UNL A   1      40.934  25.449  26.720  1.00  0.00     0.198 A 
ATOM     55  C   UNL A   1      42.251  27.279  25.907  1.00  0.00     0.198 A 
ATOM     56  F   UNL A   1      42.515  29.211  27.218  1.00  0.00    -0.203 F 
ATOM     57  F   UNL A   1      40.460  24.205  26.572  1.00  0.00    -0.200 F 
ATOM     58  C   UNL A   1      41.737  26.005  25.735  1.00  0.00     0.200 A 
ATOM     59  F   UNL A   1      43.017  27.827  24.953  1.00  0.00    -0.200 F 
ATOM     60  F   UNL A   1      42.022  25.308  24.626  1.00  0.00    -0.200 F 
ENDBRANCH  26  50
BRANCH  38  61
ATOM     61  C   UNL A   1      44.132  27.861  34.377  1.00  0.00     0.064 A 
ATOM     62  C   UNL A   1      44.030  26.611  35.002  1.00  0.00     0.173 A 
ATOM     63  C   UNL A   1      45.401  28.451  34.270  1.00  0.00     0.173 A 
ATOM     64  F   UNL A   1      42.834  26.020  35.141  1.00  0.00    -0.203 F 
ATOM     65  C   UNL A   1      45.157  25.984  35.523  1.00  0.00     0.198 A 
ATOM     66  C   UNL A   1      46.528  27.805  34.764  1.00  0.00     0.198 A 
ATOM     67  F   UNL A   1      45.545  29.643  33.673  1.00  0.00    -0.203 F 
ATOM     68  F   UNL A   1      45.034  24.812  36.159  1.00  0.00    -0.200 F 
ATOM     69  C   UNL A   1      46.406  26.578  35.396  1.00  0.00     0.200 A 
ATOM     70  F   UNL A   1      47.735  28.372  34.628  1.00  0.00    -0.200 F 
ATOM     71  F   UNL A   1      47.490  25.967  35.891  1.00  0.00    -0.200 F 
ENDBRANCH  38  61
ENDBRANCH  12  13
ENDBRANCH   5   7
ENDBRANCH   4   5
ENDBRANCH   3   4
ENDBRANCH   2   3
ENDBRANCH   1   2
BRANCH   1  72
ATOM     72  C   UNL A   1      33.920  30.332  27.026  1.00  0.00     0.202 C 
BRANCH  72  73
ATOM     73  C   UNL A   1      33.776  28.855  27.395  1.00  0.00     0.261 C 
BRANCH  73  74
ATOM     74  O   UNL A   1      32.971  28.190  26.406  1.00  0.00    -0.462 OA
BRANCH  74  75
ATOM     75  C   UNL A   1      31.765  27.697  26.823  1.00  0.00     0.329 C 
ATOM     76  O   UNL A   1      31.339  27.820  27.964  1.00  0.00    -0.250 OA
BRANCH  75  77
ATOM     77  C   UNL A   1      30.998  27.033  25.649  1.00  0.00     0.198 C 
ATOM     78  C   UNL A   1      31.044  25.489  25.733  1.00  0.00     0.071 C 
ATOM     79  N   UNL A   1      31.477  27.310  24.267  1.00  0.00    -0.322 N 
ATOM     80  C   UNL A   1      30.897  25.034  24.294  1.00  0.00     0.136 C 
ATOM     81  C   UNL A   1      31.724  26.065  23.535  1.00  0.00     0.152 C 
BRANCH  79  82
ATOM     82  C   UNL A   1      31.454  28.579  23.707  1.00  0.00     0.254 C 
ATOM     83  O   UNL A   1      32.453  29.188  23.348  1.00  0.00    -0.269 OA
BRANCH  82  84
ATOM     84  C   UNL A   1      30.136  29.227  23.501  1.00  0.00     0.040 A 
ATOM     85  C   UNL A   1      29.942  30.559  23.884  1.00  0.00     0.014 A 
ATOM     86  C   UNL A   1      29.079  28.488  22.962  1.00  0.00     0.014 A 
ATOM     87  C   UNL A   1      28.702  31.167  23.674  1.00  0.00     0.001 A 
ATOM     88  C   UNL A   1      27.842  29.101  22.752  1.00  0.00     0.001 A 
ATOM     89  C   UNL A   1      27.657  30.440  23.101  1.00  0.00     0.000 A 
ENDBRANCH  82  84
ENDBRANCH  79  82
BRANCH  80  90
ATOM     90  O   UNL A   1      29.528  25.088  23.905  1.00  0.00    -0.391 OA
ATOM     91  H   UNL A   1      29.469  25.207  22.944  1.00  0.00     0.211 HD
ENDBRANCH  80  90
ENDBRANCH  75  77
ENDBRANCH  74  75
ENDBRANCH  73  74
ENDBRANCH  72  73
ENDBRANCH   1  72
TORSDOF 17
ENDMDL
MODEL 3
REMARK VINA RESULT:     -10.8      1.307      2.583
REMARK SMILES O=C(OCCOCCOC(=O)[C@@H]1C[C@@H](O)CN1C(=O)c1ccccc1)c1ccc(-c2c3nc(c(-c4c(F)c(F)c(F)c(F)c4F)c4ccc([nH]4)c(-c4c(F)c(F)c(F)c(F)c4F)c4nc(c(-c5c(F)c(F)c(F)c(F)c5F)c5ccc2[nH]5)C=C4)C=C3)cc1
REMARK SMILES IDX 6 1 5 2 4 3 3 4 2 5 1 6 26 7 27 8 88 9 28 10 87 11 29 12
REMARK SMILES IDX 30 13 31 14 81 15 32 16 86 17 80 18 82 19 33 20 85 21 79 22
REMARK SMILES IDX 78 23 34 25 66 26 46 27 65 28 47 29 50 30 64 31 83 32 48 33
REMARK SMILES IDX 49 34 63 36 84 37 51 38 35 39 36 40 44 41 37 42 38 43 42 44
REMARK SMILES IDX 45 45 39 46 40 47 43 48 41 49 67 50 68 51 76 52 69 53 70 54
REMARK SMILES IDX 74 55 77 56 71 57 72 58 75 59 73 60 52 61 53 62 61 63 54 64
REMARK SMILES IDX 55 65 59 66 62 67 56 68 57 69 60 70 58 71 7 72 8 73 9 74
REMARK SMILES IDX 10 75 11 76 12 77 13 78 17 79 14 80 16 81 18 82 19 83 20 84
REMARK SMILES IDX 21 85 25 86 22 87 24 88 23 89 15 90
REMARK H PARENT 82 24 50 35 15 91
REMARK Flexibility Score: inf
ROOT
ATOM      1  O   UNL A   1      31.338  31.235  26.591  1.00  0.00    -0.374 OA
ENDROOT
BRANCH   1   2
ATOM      2  C   UNL A   1      31.384  32.655  26.682  1.00  0.00     0.202 C 
BRANCH   2   3
ATOM      3  C   UNL A   1      32.679  33.157  27.318  1.00  0.00     0.261 C 
BRANCH   3   4
ATOM      4  O   UNL A   1      32.424  34.353  28.066  1.00  0.00    -0.460 OA
BRANCH   4   5
ATOM      5  C   UNL A   1      33.242  34.910  28.991  1.00  0.00     0.338 C 
ATOM      6  O   UNL A   1      32.978  36.030  29.423  1.00  0.00    -0.246 OA
BRANCH   5   7
ATOM      7  C   UNL A   1      34.407  34.190  29.590  1.00  0.00     0.060 A 
ATOM      8  C   UNL A   1      34.316  33.119  30.481  1.00  0.00     0.016 A 
ATOM      9  C   UNL A   1      35.686  34.569  29.149  1.00  0.00     0.016 A 
ATOM     10  C   UNL A   1      35.435  32.461  30.950  1.00  0.00     0.010 A 
ATOM     11  C   UNL A   1      36.825  33.887  29.587  1.00  0.00     0.010 A 
ATOM     12  C   UNL A   1      36.692  32.827  30.489  1.00  0.00    -0.014 A 
BRANCH  12  13
ATOM     13  C   UNL A   1      37.840  32.110  31.059  1.00  0.00     0.031 A 
ATOM     14  C   UNL A   1      38.201  32.373  32.482  1.00  0.00     0.074 A 
ATOM     15  C   UNL A   1      38.410  31.123  30.345  1.00  0.00     0.049 A 
ATOM     16  N   UNL A   1      39.186  31.894  33.188  1.00  0.00    -0.248 NA
ATOM     17  C   UNL A   1      37.316  33.291  33.220  1.00  0.00     0.031 C 
ATOM     18  C   UNL A   1      37.993  30.707  29.002  1.00  0.00     0.029 A 
ATOM     19  N   UNL A   1      39.424  30.262  30.660  1.00  0.00    -0.354 N 
ATOM     20  C   UNL A   1      39.067  32.483  34.439  1.00  0.00     0.074 A 
ATOM     21  C   UNL A   1      37.910  33.347  34.401  1.00  0.00     0.031 C 
ATOM     22  C   UNL A   1      38.723  29.647  28.625  1.00  0.00     0.029 A 
ATOM     23  C   UNL A   1      39.711  29.367  29.658  1.00  0.00     0.049 A 
ATOM     24  H   UNL A   1      39.901  30.281  31.520  1.00  0.00     0.167 HD
ATOM     25  C   UNL A   1      39.875  32.315  35.510  1.00  0.00     0.037 A 
ATOM     26  C   UNL A   1      40.697  28.456  29.583  1.00  0.00     0.037 A 
ATOM     27  C   UNL A   1      41.013  31.437  35.497  1.00  0.00     0.049 A 
ATOM     28  C   UNL A   1      41.642  28.363  30.750  1.00  0.00     0.074 A 
ATOM     29  C   UNL A   1      41.966  31.233  36.477  1.00  0.00     0.029 A 
ATOM     30  N   UNL A   1      41.343  30.605  34.433  1.00  0.00    -0.354 N 
ATOM     31  N   UNL A   1      41.601  28.998  31.899  1.00  0.00    -0.248 NA
ATOM     32  C   UNL A   1      42.783  27.452  30.607  1.00  0.00     0.031 C 
ATOM     33  C   UNL A   1      42.896  30.308  35.986  1.00  0.00     0.029 A 
ATOM     34  C   UNL A   1      42.494  29.896  34.723  1.00  0.00     0.049 A 
ATOM     35  H   UNL A   1      40.832  30.531  33.594  1.00  0.00     0.167 HD
ATOM     36  C   UNL A   1      42.697  28.556  32.623  1.00  0.00     0.074 A 
ATOM     37  C   UNL A   1      43.372  27.579  31.788  1.00  0.00     0.031 C 
ATOM     38  C   UNL A   1      43.119  28.925  33.858  1.00  0.00     0.037 A 
BRANCH  25  39
ATOM     39  C   UNL A   1      39.596  33.168  36.711  1.00  0.00     0.064 A 
ATOM     40  C   UNL A   1      38.671  32.793  37.696  1.00  0.00     0.173 A 
ATOM     41  C   UNL A   1      40.222  34.417  36.842  1.00  0.00     0.173 A 
ATOM     42  F   UNL A   1      38.017  31.626  37.600  1.00  0.00    -0.203 F 
ATOM     43  C   UNL A   1      38.357  33.652  38.748  1.00  0.00     0.198 A 
ATOM     44  C   UNL A   1      39.927  35.260  37.909  1.00  0.00     0.198 A 
ATOM     45  F   UNL A   1      41.106  34.830  35.921  1.00  0.00    -0.203 F 
ATOM     46  F   UNL A   1      37.417  33.304  39.638  1.00  0.00    -0.200 F 
ATOM     47  C   UNL A   1      38.987  34.883  38.855  1.00  0.00     0.200 A 
ATOM     48  F   UNL A   1      40.536  36.450  38.009  1.00  0.00    -0.200 F 
ATOM     49  F   UNL A   1      38.672  35.714  39.858  1.00  0.00    -0.200 F 
ENDBRANCH  25  39
BRANCH  26  50
ATOM     50  C   UNL A   1      40.872  27.627  28.361  1.00  0.00     0.064 A 
ATOM     51  C   UNL A   1      41.671  28.059  27.293  1.00  0.00     0.173 A 
ATOM     52  C   UNL A   1      40.234  26.383  28.227  1.00  0.00     0.173 A 
ATOM     53  F   UNL A   1      42.286  29.249  27.356  1.00  0.00    -0.203 F 
ATOM     54  C   UNL A   1      41.810  27.291  26.137  1.00  0.00     0.198 A 
ATOM     55  C   UNL A   1      40.400  25.601  27.085  1.00  0.00     0.198 A 
ATOM     56  F   UNL A   1      39.452  25.918  29.212  1.00  0.00    -0.203 F 
ATOM     57  F   UNL A   1      42.539  27.753  25.112  1.00  0.00    -0.200 F 
ATOM     58  C   UNL A   1      41.180  26.059  26.037  1.00  0.00     0.200 A 
ATOM     59  F   UNL A   1      39.799  24.406  27.002  1.00  0.00    -0.200 F 
ATOM     60  F   UNL A   1      41.316  25.322  24.927  1.00  0.00    -0.200 F 
ENDBRANCH  26  50
BRANCH  38  61
ATOM     61  C   UNL A   1      44.342  28.235  34.380  1.00  0.00     0.064 A 
ATOM     62  C   UNL A   1      44.259  27.021  35.075  1.00  0.00     0.173 A 
ATOM     63  C   UNL A   1      45.612  28.780  34.143  1.00  0.00     0.173 A 
ATOM     64  F   UNL A   1      43.063  26.473  35.340  1.00  0.00    -0.203 F 
ATOM     65  C   UNL A   1      45.408  26.387  35.536  1.00  0.00     0.198 A 
ATOM     66  C   UNL A   1      46.759  28.127  34.578  1.00  0.00     0.198 A 
ATOM     67  F   UNL A   1      45.738  29.937  33.475  1.00  0.00    -0.203 F 
ATOM     68  F   UNL A   1      45.307  25.251  36.241  1.00  0.00    -0.200 F 
ATOM     69  C   UNL A   1      46.657  26.936  35.280  1.00  0.00     0.200 A 
ATOM     70  F   UNL A   1      47.965  28.651  34.317  1.00  0.00    -0.200 F 
ATOM     71  F   UNL A   1      47.762  26.319  35.718  1.00  0.00    -0.200 F 
ENDBRANCH  38  61
ENDBRANCH  12  13
ENDBRANCH   5   7
ENDBRANCH   4   5
ENDBRANCH   3   4
ENDBRANCH   2   3
ENDBRANCH   1   2
BRANCH   1  72
ATOM     72  C   UNL A   1      32.508  30.533  26.988  1.00  0.00     0.202 C 
BRANCH  72  73
ATOM     73  C   UNL A   1      32.167  29.069  27.271  1.00  0.00     0.261 C 
BRANCH  73  74
ATOM     74  O   UNL A   1      31.958  28.376  26.028  1.00  0.00    -0.462 OA
BRANCH  74  75
ATOM     75  C   UNL A   1      32.923  28.522  25.070  1.00  0.00     0.329 C 
ATOM     76  O   UNL A   1      34.121  28.393  25.288  1.00  0.00    -0.250 OA
BRANCH  75  77
ATOM     77  C   UNL A   1      32.292  28.800  23.680  1.00  0.00     0.198 C 
ATOM     78  C   UNL A   1      30.844  29.328  23.801  1.00  0.00     0.071 C 
ATOM     79  N   UNL A   1      32.155  27.651  22.743  1.00  0.00    -0.322 N 
ATOM     80  C   UNL A   1      30.184  28.905  22.504  1.00  0.00     0.136 C 
ATOM     81  C   UNL A   1      30.776  27.521  22.267  1.00  0.00     0.152 C 
BRANCH  79  82
ATOM     82  C   UNL A   1      33.248  26.968  22.230  1.00  0.00     0.254 C 
ATOM     83  O   UNL A   1      34.090  27.472  21.499  1.00  0.00    -0.269 OA
BRANCH  82  84
ATOM     84  C   UNL A   1      33.427  25.547  22.615  1.00  0.00     0.040 A 
ATOM     85  C   UNL A   1      33.040  24.528  21.736  1.00  0.00     0.014 A 
ATOM     86  C   UNL A   1      33.944  25.232  23.875  1.00  0.00     0.014 A 
ATOM     87  C   UNL A   1      33.225  23.193  22.101  1.00  0.00     0.001 A 
ATOM     88  C   UNL A   1      34.129  23.895  24.233  1.00  0.00     0.001 A 
ATOM     89  C   UNL A   1      33.776  22.878  23.345  1.00  0.00     0.000 A 
ENDBRANCH  82  84
ENDBRANCH  79  82
BRANCH  80  90
ATOM     90  O   UNL A   1      30.547  29.804  21.460  1.00  0.00    -0.391 OA
ATOM     91  H   UNL A   1      30.180  30.683  21.647  1.00  0.00     0.211 HD
ENDBRANCH  80  90
ENDBRANCH  75  77
ENDBRANCH  74  75
ENDBRANCH  73  74
ENDBRANCH  72  73
ENDBRANCH   1  72
TORSDOF 17
ENDMDL
