MODEL 1
REMARK VINA RESULT:     -11.2      0.000      0.000
REMARK SMILES CC(C)[NH2+][C@](C)(C[N@H+]1CCC(C)(C)C1)C(=O)OCCOCCOC(=O)c1ccc(-c2c3nc(c(-c4c(F)c(F)c(F)c(F)c4F)c4ccc([nH]4)c(-c4c(F)c(F)c(F)c(F)c4F)c4nc(c(-c5c(F)c(F)c(F)c(F)c5F)c5ccc2[nH]5)C=C4)C=C3)cc1
REMARK SMILES IDX 20 1 19 2 18 3 17 4 15 5 16 6 5 7 6 8 4 9 2 12 1 13 3 14
REMARK SMILES IDX 7 15 8 16 9 17 14 18 10 20 11 21 12 22 13 23 21 24 22 25
REMARK SMILES IDX 23 26 24 27 25 28 26 29 27 30 88 31 28 32 87 33 29 34 30 35
REMARK SMILES IDX 31 36 81 37 32 38 86 39 80 40 82 41 33 42 85 43 79 44 78 45
REMARK SMILES IDX 34 47 66 48 46 49 65 50 47 51 50 52 64 53 83 54 48 55 49 56
REMARK SMILES IDX 63 58 84 59 51 60 35 61 36 62 44 63 37 64 38 65 42 66 45 67
REMARK SMILES IDX 39 68 40 69 43 70 41 71 67 72 68 73 76 74 69 75 70 76 74 77
REMARK SMILES IDX 77 78 71 79 72 80 75 81 73 82 52 83 53 84 61 85 54 86 55 87
REMARK SMILES IDX 59 88 62 89 56 90 57 91 60 92 58 93
REMARK H PARENT 4 10 4 11 8 19 82 46 50 57
REMARK Flexibility Score: inf
ROOT
ATOM      1  O   UNL A   1      31.960  28.393  26.317  1.00  0.00    -0.374 OA
ENDROOT
BRANCH   1   2
ATOM      2  C   UNL A   1      32.901  27.347  26.091  1.00  0.00     0.202 C 
BRANCH   2   3
ATOM      3  C   UNL A   1      32.351  25.968  25.700  1.00  0.00     0.261 C 
BRANCH   3   4
ATOM      4  O   UNL A   1      33.039  24.818  26.235  1.00  0.00    -0.458 OA
BRANCH   4   5
ATOM      5  C   UNL A   1      32.802  23.655  25.553  1.00  0.00     0.373 C 
ATOM      6  O   UNL A   1      31.684  23.342  25.148  1.00  0.00    -0.244 OA
BRANCH   5   7
ATOM      7  C   UNL A   1      34.036  22.703  25.466  1.00  0.00     0.240 C 
ATOM      8  C   UNL A   1      34.227  22.130  26.893  1.00  0.00     0.099 C 
BRANCH   7   9
ATOM      9  N   UNL A   1      35.257  23.544  25.216  1.00  0.00    -0.326 N 
ATOM     10  H   UNL A   1      35.048  24.158  24.429  1.00  0.00     0.347 HD
ATOM     11  H   UNL A   1      35.432  24.010  26.107  1.00  0.00     0.347 HD
BRANCH   9  12
ATOM     12  C   UNL A   1      36.516  22.859  24.910  1.00  0.00     0.177 C 
ATOM     13  C   UNL A   1      36.789  23.082  23.419  1.00  0.00     0.075 C 
ATOM     14  C   UNL A   1      37.706  23.402  25.711  1.00  0.00     0.075 C 
ENDBRANCH   9  12
ENDBRANCH   7   9
BRANCH   7  15
ATOM     15  C   UNL A   1      33.966  21.510  24.460  1.00  0.00     0.343 C 
BRANCH  15  16
ATOM     16  N   UNL A   1      33.399  20.222  24.920  1.00  0.00    -0.329 N 
ATOM     17  C   UNL A   1      32.146  19.903  24.226  1.00  0.00     0.263 C 
ATOM     18  C   UNL A   1      34.329  19.094  24.667  1.00  0.00     0.269 C 
ATOM     19  H   UNL A   1      33.235  20.337  25.920  1.00  0.00     0.348 HD
ATOM     20  C   UNL A   1      32.405  18.666  23.386  1.00  0.00     0.073 C 
ATOM     21  C   UNL A   1      33.471  17.920  24.175  1.00  0.00     0.019 C 
ATOM     22  C   UNL A   1      32.841  17.132  25.337  1.00  0.00     0.017 C 
ATOM     23  C   UNL A   1      34.260  16.961  23.281  1.00  0.00     0.017 C 
ENDBRANCH  15  16
ENDBRANCH   7  15
ENDBRANCH   5   7
ENDBRANCH   4   5
ENDBRANCH   3   4
ENDBRANCH   2   3
ENDBRANCH   1   2
BRANCH   1  24
ATOM     24  C   UNL A   1      32.155  29.620  25.615  1.00  0.00     0.202 C 
BRANCH  24  25
ATOM     25  C   UNL A   1      31.911  30.884  26.446  1.00  0.00     0.261 C 
BRANCH  25  26
ATOM     26  O   UNL A   1      32.826  30.905  27.555  1.00  0.00    -0.460 OA
BRANCH  26  27
ATOM     27  C   UNL A   1      33.527  32.042  27.703  1.00  0.00     0.338 C 
ATOM     28  O   UNL A   1      33.100  33.171  27.841  1.00  0.00    -0.246 OA
BRANCH  27  29
ATOM     29  C   UNL A   1      34.944  31.669  27.842  1.00  0.00     0.060 A 
ATOM     30  C   UNL A   1      35.253  30.306  27.855  1.00  0.00     0.016 A 
ATOM     31  C   UNL A   1      35.927  32.630  28.078  1.00  0.00     0.016 A 
ATOM     32  C   UNL A   1      36.535  29.897  28.216  1.00  0.00     0.010 A 
ATOM     33  C   UNL A   1      37.223  32.218  28.411  1.00  0.00     0.010 A 
ATOM     34  C   UNL A   1      37.509  30.849  28.558  1.00  0.00    -0.014 A 
BRANCH  34  35
ATOM     35  C   UNL A   1      38.718  30.385  29.286  1.00  0.00     0.031 A 
ATOM     36  C   UNL A   1      38.911  30.821  30.718  1.00  0.00     0.074 A 
ATOM     37  C   UNL A   1      39.571  29.505  28.734  1.00  0.00     0.049 A 
ATOM     38  N   UNL A   1      39.792  30.416  31.599  1.00  0.00    -0.248 NA
ATOM     39  C   UNL A   1      37.987  31.848  31.226  1.00  0.00     0.031 C 
ATOM     40  C   UNL A   1      39.497  29.001  27.366  1.00  0.00     0.029 A 
ATOM     41  N   UNL A   1      40.655  28.859  29.275  1.00  0.00    -0.354 N 
ATOM     42  C   UNL A   1      39.519  31.128  32.760  1.00  0.00     0.074 A 
ATOM     43  C   UNL A   1      38.429  32.029  32.460  1.00  0.00     0.031 C 
ATOM     44  C   UNL A   1      40.483  28.106  27.178  1.00  0.00     0.029 A 
ATOM     45  C   UNL A   1      41.255  27.975  28.413  1.00  0.00     0.049 A 
ATOM     46  H   UNL A   1      40.972  29.015  30.194  1.00  0.00     0.167 HD
ATOM     47  C   UNL A   1      40.101  31.024  33.978  1.00  0.00     0.037 A 
ATOM     48  C   UNL A   1      42.296  27.141  28.607  1.00  0.00     0.037 A 
ATOM     49  C   UNL A   1      41.177  30.124  34.291  1.00  0.00     0.049 A 
ATOM     50  C   UNL A   1      42.938  27.053  29.968  1.00  0.00     0.074 A 
ATOM     51  C   UNL A   1      41.824  29.937  35.500  1.00  0.00     0.029 A 
ATOM     52  N   UNL A   1      41.764  29.257  33.383  1.00  0.00    -0.354 N 
ATOM     53  N   UNL A   1      42.632  27.689  31.073  1.00  0.00    -0.248 NA
ATOM     54  C   UNL A   1      44.057  26.110  30.112  1.00  0.00     0.031 C 
ATOM     55  C   UNL A   1      42.827  28.979  35.315  1.00  0.00     0.029 A 
ATOM     56  C   UNL A   1      42.775  28.540  34.002  1.00  0.00     0.049 A 
ATOM     57  H   UNL A   1      41.502  29.163  32.439  1.00  0.00     0.167 HD
ATOM     58  C   UNL A   1      43.494  27.199  32.047  1.00  0.00     0.074 A 
ATOM     59  C   UNL A   1      44.330  26.207  31.405  1.00  0.00     0.031 C 
ATOM     60  C   UNL A   1      43.585  27.541  33.355  1.00  0.00     0.037 A 
BRANCH  47  61
ATOM     61  C   UNL A   1      39.581  31.914  35.067  1.00  0.00     0.064 A 
ATOM     62  C   UNL A   1      38.640  31.453  36.000  1.00  0.00     0.173 A 
ATOM     63  C   UNL A   1      40.046  33.230  35.194  1.00  0.00     0.173 A 
ATOM     64  F   UNL A   1      38.152  30.207  35.909  1.00  0.00    -0.203 F 
ATOM     65  C   UNL A   1      38.168  32.287  37.010  1.00  0.00     0.198 A 
ATOM     66  C   UNL A   1      39.590  34.053  36.220  1.00  0.00     0.198 A 
ATOM     67  F   UNL A   1      40.946  33.716  34.327  1.00  0.00    -0.203 F 
ATOM     68  F   UNL A   1      37.237  31.840  37.866  1.00  0.00    -0.200 F 
ATOM     69  C   UNL A   1      38.648  33.583  37.123  1.00  0.00     0.200 A 
ATOM     70  F   UNL A   1      40.060  35.303  36.334  1.00  0.00    -0.200 F 
ATOM     71  F   UNL A   1      38.196  34.384  38.099  1.00  0.00    -0.200 F 
ENDBRANCH  47  61
BRANCH  48  72
ATOM     72  C   UNL A   1      42.774  26.284  27.493  1.00  0.00     0.064 A 
ATOM     73  C   UNL A   1      43.812  26.704  26.650  1.00  0.00     0.173 A 
ATOM     74  C   UNL A   1      42.186  25.038  27.235  1.00  0.00     0.173 A 
ATOM     75  F   UNL A   1      44.390  27.900  26.843  1.00  0.00    -0.203 F 
ATOM     76  C   UNL A   1      44.230  25.918  25.577  1.00  0.00     0.198 A 
ATOM     77  C   UNL A   1      42.621  24.243  26.177  1.00  0.00     0.198 A 
ATOM     78  F   UNL A   1      41.188  24.593  28.012  1.00  0.00    -0.203 F 
ATOM     79  F   UNL A   1      45.193  26.364  24.760  1.00  0.00    -0.200 F 
ATOM     80  C   UNL A   1      43.637  24.688  25.345  1.00  0.00     0.200 A 
ATOM     81  F   UNL A   1      42.051  23.050  25.960  1.00  0.00    -0.200 F 
ATOM     82  F   UNL A   1      44.039  23.932  24.313  1.00  0.00    -0.200 F 
ENDBRANCH  48  72
BRANCH  60  83
ATOM     83  C   UNL A   1      44.589  26.808  34.194  1.00  0.00     0.064 A 
ATOM     84  C   UNL A   1      44.257  25.630  34.879  1.00  0.00     0.173 A 
ATOM     85  C   UNL A   1      45.911  27.270  34.282  1.00  0.00     0.173 A 
ATOM     86  F   UNL A   1      43.003  25.155  34.835  1.00  0.00    -0.203 F 
ATOM     87  C   UNL A   1      45.205  24.957  35.646  1.00  0.00     0.198 A 
ATOM     88  C   UNL A   1      46.862  26.580  35.027  1.00  0.00     0.198 A 
ATOM     89  F   UNL A   1      46.282  28.386  33.637  1.00  0.00    -0.203 F 
ATOM     90  F   UNL A   1      44.855  23.859  36.329  1.00  0.00    -0.200 F 
ATOM     91  C   UNL A   1      46.507  25.430  35.715  1.00  0.00     0.200 A 
ATOM     92  F   UNL A   1      48.124  27.031  35.083  1.00  0.00    -0.200 F 
ATOM     93  F   UNL A   1      47.419  24.779  36.451  1.00  0.00    -0.200 F 
ENDBRANCH  60  83
ENDBRANCH  34  35
ENDBRANCH  27  29
ENDBRANCH  26  27
ENDBRANCH  25  26
ENDBRANCH  24  25
ENDBRANCH   1  24
TORSDOF 18
ENDMDL
MODEL 2
REMARK VINA RESULT:     -10.9      4.224     10.110
REMARK SMILES CC(C)[NH2+][C@](C)(C[N@H+]1CCC(C)(C)C1)C(=O)OCCOCCOC(=O)c1ccc(-c2c3nc(c(-c4c(F)c(F)c(F)c(F)c4F)c4ccc([nH]4)c(-c4c(F)c(F)c(F)c(F)c4F)c4nc(c(-c5c(F)c(F)c(F)c(F)c5F)c5ccc2[nH]5)C=C4)C=C3)cc1
REMARK SMILES IDX 20 1 19 2 18 3 17 4 15 5 16 6 5 7 6 8 4 9 2 12 1 13 3 14
REMARK SMILES IDX 7 15 8 16 9 17 14 18 10 20 11 21 12 22 13 23 21 24 22 25
REMARK SMILES IDX 23 26 24 27 25 28 26 29 27 30 88 31 28 32 87 33 29 34 30 35
REMARK SMILES IDX 31 36 81 37 32 38 86 39 80 40 82 41 33 42 85 43 79 44 78 45
REMARK SMILES IDX 34 47 66 48 46 49 65 50 47 51 50 52 64 53 83 54 48 55 49 56
REMARK SMILES IDX 63 58 84 59 51 60 35 61 36 62 44 63 37 64 38 65 42 66 45 67
REMARK SMILES IDX 39 68 40 69 43 70 41 71 67 72 68 73 76 74 69 75 70 76 74 77
REMARK SMILES IDX 77 78 71 79 72 80 75 81 73 82 52 83 53 84 61 85 54 86 55 87
REMARK SMILES IDX 59 88 62 89 56 90 57 91 60 92 58 93
REMARK H PARENT 4 10 4 11 8 19 82 46 50 57
REMARK Flexibility Score: inf
ROOT
ATOM      1  O   UNL A   1      35.727  21.763  26.168  1.00  0.00    -0.374 OA
ENDROOT
BRANCH   1   2
ATOM      2  C   UNL A   1      34.946  22.939  25.976  1.00  0.00     0.202 C 
BRANCH   2   3
ATOM      3  C   UNL A   1      34.881  23.526  24.559  1.00  0.00     0.261 C 
BRANCH   3   4
ATOM      4  O   UNL A   1      34.763  24.961  24.455  1.00  0.00    -0.458 OA
BRANCH   4   5
ATOM      5  C   UNL A   1      33.779  25.382  23.603  1.00  0.00     0.373 C 
ATOM      6  O   UNL A   1      33.756  25.070  22.413  1.00  0.00    -0.244 OA
BRANCH   5   7
ATOM      7  C   UNL A   1      32.782  26.403  24.234  1.00  0.00     0.240 C 
ATOM      8  C   UNL A   1      33.650  27.587  24.730  1.00  0.00     0.099 C 
BRANCH   7   9
ATOM      9  N   UNL A   1      32.210  25.787  25.481  1.00  0.00    -0.326 N 
ATOM     10  H   UNL A   1      32.950  25.233  25.913  1.00  0.00     0.347 HD
ATOM     11  H   UNL A   1      31.876  26.582  26.027  1.00  0.00     0.347 HD
BRANCH   9  12
ATOM     12  C   UNL A   1      31.038  24.918  25.346  1.00  0.00     0.177 C 
ATOM     13  C   UNL A   1      31.372  23.611  26.072  1.00  0.00     0.075 C 
ATOM     14  C   UNL A   1      29.772  25.515  25.973  1.00  0.00     0.075 C 
ENDBRANCH   9  12
ENDBRANCH   7   9
BRANCH   7  15
ATOM     15  C   UNL A   1      31.646  26.971  23.323  1.00  0.00     0.343 C 
BRANCH  15  16
ATOM     16  N   UNL A   1      31.176  28.357  23.550  1.00  0.00    -0.329 N 
ATOM     17  C   UNL A   1      31.464  29.222  22.402  1.00  0.00     0.263 C 
ATOM     18  C   UNL A   1      29.709  28.407  23.769  1.00  0.00     0.269 C 
ATOM     19  H   UNL A   1      31.675  28.683  24.378  1.00  0.00     0.348 HD
ATOM     20  C   UNL A   1      30.130  29.632  21.806  1.00  0.00     0.073 C 
ATOM     21  C   UNL A   1      29.194  29.637  23.008  1.00  0.00     0.019 C 
ATOM     22  C   UNL A   1      29.354  30.933  23.820  1.00  0.00     0.017 C 
ATOM     23  C   UNL A   1      27.734  29.483  22.579  1.00  0.00     0.017 C 
ENDBRANCH  15  16
ENDBRANCH   7  15
ENDBRANCH   5   7
ENDBRANCH   4   5
ENDBRANCH   3   4
ENDBRANCH   2   3
ENDBRANCH   1   2
BRANCH   1  24
ATOM     24  C   UNL A   1      35.957  20.929  25.032  1.00  0.00     0.202 C 
BRANCH  24  25
ATOM     25  C   UNL A   1      37.434  20.690  24.697  1.00  0.00     0.261 C 
BRANCH  25  26
ATOM     26  O   UNL A   1      38.219  21.777  25.215  1.00  0.00    -0.460 OA
BRANCH  26  27
ATOM     27  C   UNL A   1      39.282  21.419  25.954  1.00  0.00     0.338 C 
ATOM     28  O   UNL A   1      39.961  20.417  25.850  1.00  0.00    -0.246 OA
BRANCH  27  29
ATOM     29  C   UNL A   1      39.608  22.553  26.833  1.00  0.00     0.060 A 
ATOM     30  C   UNL A   1      38.919  23.751  26.622  1.00  0.00     0.016 A 
ATOM     31  C   UNL A   1      40.649  22.479  27.758  1.00  0.00     0.016 A 
ATOM     32  C   UNL A   1      39.348  24.911  27.262  1.00  0.00     0.010 A 
ATOM     33  C   UNL A   1      41.060  23.639  28.424  1.00  0.00     0.010 A 
ATOM     34  C   UNL A   1      40.461  24.874  28.118  1.00  0.00    -0.014 A 
BRANCH  34  35
ATOM     35  C   UNL A   1      41.112  26.160  28.478  1.00  0.00     0.031 A 
ATOM     36  C   UNL A   1      42.508  26.430  27.975  1.00  0.00     0.074 A 
ATOM     37  C   UNL A   1      40.442  27.120  29.140  1.00  0.00     0.049 A 
ATOM     38  N   UNL A   1      43.210  27.535  28.020  1.00  0.00    -0.248 NA
ATOM     39  C   UNL A   1      43.207  25.304  27.333  1.00  0.00     0.031 C 
ATOM     40  C   UNL A   1      39.090  26.992  29.676  1.00  0.00     0.029 A 
ATOM     41  N   UNL A   1      40.808  28.407  29.449  1.00  0.00    -0.354 N 
ATOM     42  C   UNL A   1      44.420  27.239  27.405  1.00  0.00     0.074 A 
ATOM     43  C   UNL A   1      44.382  25.840  27.043  1.00  0.00     0.031 C 
ATOM     44  C   UNL A   1      38.729  28.161  30.232  1.00  0.00     0.029 A 
ATOM     45  C   UNL A   1      39.825  29.119  30.088  1.00  0.00     0.049 A 
ATOM     46  H   UNL A   1      41.691  28.783  29.231  1.00  0.00     0.167 HD
ATOM     47  C   UNL A   1      45.460  28.063  27.136  1.00  0.00     0.037 A 
ATOM     48  C   UNL A   1      39.805  30.405  30.494  1.00  0.00     0.037 A 
ATOM     49  C   UNL A   1      45.504  29.457  27.480  1.00  0.00     0.049 A 
ATOM     50  C   UNL A   1      40.983  31.299  30.197  1.00  0.00     0.074 A 
ATOM     51  C   UNL A   1      46.510  30.377  27.238  1.00  0.00     0.029 A 
ATOM     52  N   UNL A   1      44.492  30.135  28.142  1.00  0.00    -0.354 N 
ATOM     53  N   UNL A   1      42.095  31.022  29.563  1.00  0.00    -0.248 NA
ATOM     54  C   UNL A   1      40.886  32.693  30.655  1.00  0.00     0.031 C 
ATOM     55  C   UNL A   1      46.120  31.605  27.784  1.00  0.00     0.029 A 
ATOM     56  C   UNL A   1      44.854  31.459  28.328  1.00  0.00     0.049 A 
ATOM     57  H   UNL A   1      43.641  29.735  28.436  1.00  0.00     0.167 HD
ATOM     58  C   UNL A   1      42.813  32.211  29.514  1.00  0.00     0.074 A 
ATOM     59  C   UNL A   1      42.006  33.214  30.175  1.00  0.00     0.031 C 
ATOM     60  C   UNL A   1      44.031  32.450  28.970  1.00  0.00     0.037 A 
BRANCH  47  61
ATOM     61  C   UNL A   1      46.643  27.468  26.432  1.00  0.00     0.064 A 
ATOM     62  C   UNL A   1      46.775  27.538  25.038  1.00  0.00     0.173 A 
ATOM     63  C   UNL A   1      47.667  26.845  27.161  1.00  0.00     0.173 A 
ATOM     64  F   UNL A   1      45.813  28.108  24.296  1.00  0.00    -0.203 F 
ATOM     65  C   UNL A   1      47.881  26.987  24.395  1.00  0.00     0.198 A 
ATOM     66  C   UNL A   1      48.782  26.318  26.518  1.00  0.00     0.198 A 
ATOM     67  F   UNL A   1      47.587  26.755  28.497  1.00  0.00    -0.203 F 
ATOM     68  F   UNL A   1      47.966  27.027  23.058  1.00  0.00    -0.200 F 
ATOM     69  C   UNL A   1      48.886  26.383  25.136  1.00  0.00     0.200 A 
ATOM     70  F   UNL A   1      49.757  25.741  27.234  1.00  0.00    -0.200 F 
ATOM     71  F   UNL A   1      49.952  25.857  24.517  1.00  0.00    -0.200 F 
ENDBRANCH  47  61
BRANCH  48  72
ATOM     72  C   UNL A   1      38.610  30.942  31.191  1.00  0.00     0.064 A 
ATOM     73  C   UNL A   1      38.541  30.975  32.591  1.00  0.00     0.173 A 
ATOM     74  C   UNL A   1      37.503  31.411  30.471  1.00  0.00     0.173 A 
ATOM     75  F   UNL A   1      39.566  30.515  33.323  1.00  0.00    -0.203 F 
ATOM     76  C   UNL A   1      37.400  31.439  33.244  1.00  0.00     0.198 A 
ATOM     77  C   UNL A   1      36.373  31.896  31.125  1.00  0.00     0.198 A 
ATOM     78  F   UNL A   1      37.520  31.398  29.130  1.00  0.00    -0.203 F 
ATOM     79  F   UNL A   1      37.342  31.417  34.582  1.00  0.00    -0.200 F 
ATOM     80  C   UNL A   1      36.320  31.902  32.510  1.00  0.00     0.200 A 
ATOM     81  F   UNL A   1      35.332  32.352  30.413  1.00  0.00    -0.200 F 
ATOM     82  F   UNL A   1      35.222  32.347  33.139  1.00  0.00    -0.200 F 
ENDBRANCH  48  72
BRANCH  60  83
ATOM     83  C   UNL A   1      44.549  33.857  29.023  1.00  0.00     0.064 A 
ATOM     84  C   UNL A   1      44.260  34.787  28.013  1.00  0.00     0.173 A 
ATOM     85  C   UNL A   1      45.313  34.290  30.118  1.00  0.00     0.173 A 
ATOM     86  F   UNL A   1      43.543  34.417  26.941  1.00  0.00    -0.203 F 
ATOM     87  C   UNL A   1      44.741  36.092  28.084  1.00  0.00     0.198 A 
ATOM     88  C   UNL A   1      45.769  35.602  30.198  1.00  0.00     0.198 A 
ATOM     89  F   UNL A   1      45.608  33.442  31.114  1.00  0.00    -0.203 F 
ATOM     90  F   UNL A   1      44.492  36.951  27.086  1.00  0.00    -0.200 F 
ATOM     91  C   UNL A   1      45.490  36.499  29.178  1.00  0.00     0.200 A 
ATOM     92  F   UNL A   1      46.483  35.998  31.261  1.00  0.00    -0.200 F 
ATOM     93  F   UNL A   1      45.950  37.757  29.246  1.00  0.00    -0.200 F 
ENDBRANCH  60  83
ENDBRANCH  34  35
ENDBRANCH  27  29
ENDBRANCH  26  27
ENDBRANCH  25  26
ENDBRANCH  24  25
ENDBRANCH   1  24
TORSDOF 18
ENDMDL
MODEL 3
REMARK VINA RESULT:     -10.8      1.077      7.360
REMARK SMILES CC(C)[NH2+][C@](C)(C[N@H+]1CCC(C)(C)C1)C(=O)OCCOCCOC(=O)c1ccc(-c2c3nc(c(-c4c(F)c(F)c(F)c(F)c4F)c4ccc([nH]4)c(-c4c(F)c(F)c(F)c(F)c4F)c4nc(c(-c5c(F)c(F)c(F)c(F)c5F)c5ccc2[nH]5)C=C4)C=C3)cc1
REMARK SMILES IDX 20 1 19 2 18 3 17 4 15 5 16 6 5 7 6 8 4 9 2 12 1 13 3 14
REMARK SMILES IDX 7 15 8 16 9 17 14 18 10 20 11 21 12 22 13 23 21 24 22 25
REMARK SMILES IDX 23 26 24 27 25 28 26 29 27 30 88 31 28 32 87 33 29 34 30 35
REMARK SMILES IDX 31 36 81 37 32 38 86 39 80 40 82 41 33 42 85 43 79 44 78 45
REMARK SMILES IDX 34 47 66 48 46 49 65 50 47 51 50 52 64 53 83 54 48 55 49 56
REMARK SMILES IDX 63 58 84 59 51 60 35 61 36 62 44 63 37 64 38 65 42 66 45 67
REMARK SMILES IDX 39 68 40 69 43 70 41 71 67 72 68 73 76 74 69 75 70 76 74 77
REMARK SMILES IDX 77 78 71 79 72 80 75 81 73 82 52 83 53 84 61 85 54 86 55 87
REMARK SMILES IDX 59 88 62 89 56 90 57 91 60 92 58 93
REMARK H PARENT 4 10 4 11 8 19 82 46 50 57
REMARK Flexibility Score: inf
ROOT
ATOM      1  O   UNL A   1      32.312  27.601  25.472  1.00  0.00    -0.374 OA
ENDROOT
BRANCH   1   2
ATOM      2  C   UNL A   1      32.019  26.634  26.477  1.00  0.00     0.202 C 
BRANCH   2   3
ATOM      3  C   UNL A   1      31.666  25.214  26.016  1.00  0.00     0.261 C 
BRANCH   3   4
ATOM      4  O   UNL A   1      32.746  24.258  25.970  1.00  0.00    -0.458 OA
BRANCH   4   5
ATOM      5  C   UNL A   1      32.437  23.036  26.505  1.00  0.00     0.373 C 
ATOM      6  O   UNL A   1      31.528  22.881  27.319  1.00  0.00    -0.244 OA
BRANCH   5   7
ATOM      7  C   UNL A   1      33.425  21.896  26.106  1.00  0.00     0.240 C 
ATOM      8  C   UNL A   1      34.171  21.511  27.408  1.00  0.00     0.099 C 
BRANCH   7   9
ATOM      9  N   UNL A   1      34.480  22.486  25.212  1.00  0.00    -0.326 N 
ATOM     10  H   UNL A   1      34.416  22.012  24.311  1.00  0.00     0.347 HD
ATOM     11  H   UNL A   1      34.276  23.486  25.202  1.00  0.00     0.347 HD
BRANCH   9  12
ATOM     12  C   UNL A   1      35.878  22.404  25.647  1.00  0.00     0.177 C 
ATOM     13  C   UNL A   1      36.608  21.529  24.623  1.00  0.00     0.075 C 
ATOM     14  C   UNL A   1      36.570  23.771  25.703  1.00  0.00     0.075 C 
ENDBRANCH   9  12
ENDBRANCH   7   9
BRANCH   7  15
ATOM     15  C   UNL A   1      32.825  20.598  25.477  1.00  0.00     0.343 C 
BRANCH  15  16
ATOM     16  N   UNL A   1      33.546  19.318  25.661  1.00  0.00    -0.329 N 
ATOM     17  C   UNL A   1      32.640  18.237  26.061  1.00  0.00     0.263 C 
ATOM     18  C   UNL A   1      34.210  18.880  24.407  1.00  0.00     0.269 C 
ATOM     19  H   UNL A   1      34.237  19.495  26.391  1.00  0.00     0.348 HD
ATOM     20  C   UNL A   1      32.615  17.232  24.924  1.00  0.00     0.073 C 
ATOM     21  C   UNL A   1      34.000  17.363  24.307  1.00  0.00     0.019 C 
ATOM     22  C   UNL A   1      35.040  16.576  25.124  1.00  0.00     0.017 C 
ATOM     23  C   UNL A   1      34.016  16.871  22.858  1.00  0.00     0.017 C 
ENDBRANCH  15  16
ENDBRANCH   7  15
ENDBRANCH   5   7
ENDBRANCH   4   5
ENDBRANCH   3   4
ENDBRANCH   2   3
ENDBRANCH   1   2
BRANCH   1  24
ATOM     24  C   UNL A   1      31.501  28.775  25.427  1.00  0.00     0.202 C 
BRANCH  24  25
ATOM     25  C   UNL A   1      32.266  30.093  25.585  1.00  0.00     0.261 C 
BRANCH  25  26
ATOM     26  O   UNL A   1      32.538  30.318  26.978  1.00  0.00    -0.460 OA
BRANCH  26  27
ATOM     27  C   UNL A   1      33.196  31.456  27.261  1.00  0.00     0.338 C 
ATOM     28  O   UNL A   1      32.745  32.582  27.330  1.00  0.00    -0.246 OA
BRANCH  27  29
ATOM     29  C   UNL A   1      34.565  31.086  27.650  1.00  0.00     0.060 A 
ATOM     30  C   UNL A   1      34.852  29.724  27.784  1.00  0.00     0.016 A 
ATOM     31  C   UNL A   1      35.508  32.054  27.996  1.00  0.00     0.016 A 
ATOM     32  C   UNL A   1      36.052  29.331  28.371  1.00  0.00     0.010 A 
ATOM     33  C   UNL A   1      36.727  31.656  28.557  1.00  0.00     0.010 A 
ATOM     34  C   UNL A   1      36.969  30.296  28.819  1.00  0.00    -0.014 A 
BRANCH  34  35
ATOM     35  C   UNL A   1      38.036  29.866  29.760  1.00  0.00     0.031 A 
ATOM     36  C   UNL A   1      39.105  28.926  29.260  1.00  0.00     0.074 A 
ATOM     37  C   UNL A   1      38.126  30.384  30.997  1.00  0.00     0.049 A 
ATOM     38  N   UNL A   1      40.217  28.547  29.840  1.00  0.00    -0.248 NA
ATOM     39  C   UNL A   1      38.895  28.337  27.927  1.00  0.00     0.031 C 
ATOM     40  C   UNL A   1      37.165  31.304  31.601  1.00  0.00     0.029 A 
ATOM     41  N   UNL A   1      39.093  30.226  31.959  1.00  0.00    -0.354 N 
ATOM     42  C   UNL A   1      40.838  27.690  28.941  1.00  0.00     0.074 A 
ATOM     43  C   UNL A   1      39.959  27.559  27.801  1.00  0.00     0.031 C 
ATOM     44  C   UNL A   1      37.600  31.646  32.826  1.00  0.00     0.029 A 
ATOM     45  C   UNL A   1      38.870  30.971  33.090  1.00  0.00     0.049 A 
ATOM     46  H   UNL A   1      39.872  29.635  31.847  1.00  0.00     0.167 HD
ATOM     47  C   UNL A   1      42.045  27.086  29.038  1.00  0.00     0.037 A 
ATOM     48  C   UNL A   1      39.617  31.106  34.204  1.00  0.00     0.037 A 
ATOM     49  C   UNL A   1      42.933  27.218  30.161  1.00  0.00     0.049 A 
ATOM     50  C   UNL A   1      40.953  30.411  34.295  1.00  0.00     0.074 A 
ATOM     51  C   UNL A   1      44.184  26.655  30.345  1.00  0.00     0.029 A 
ATOM     52  N   UNL A   1      42.660  27.970  31.293  1.00  0.00    -0.354 N 
ATOM     53  N   UNL A   1      41.555  29.651  33.414  1.00  0.00    -0.248 NA
ATOM     54  C   UNL A   1      41.721  30.617  35.532  1.00  0.00     0.031 C 
ATOM     55  C   UNL A   1      44.655  27.040  31.605  1.00  0.00     0.029 A 
ATOM     56  C   UNL A   1      43.715  27.876  32.186  1.00  0.00     0.049 A 
ATOM     57  H   UNL A   1      41.840  28.494  31.440  1.00  0.00     0.167 HD
ATOM     58  C   UNL A   1      42.783  29.317  33.973  1.00  0.00     0.074 A 
ATOM     59  C   UNL A   1      42.844  29.965  35.265  1.00  0.00     0.031 C 
ATOM     60  C   UNL A   1      43.771  28.544  33.460  1.00  0.00     0.037 A 
BRANCH  47  61
ATOM     61  C   UNL A   1      42.476  26.222  27.891  1.00  0.00     0.064 A 
ATOM     62  C   UNL A   1      42.055  24.888  27.781  1.00  0.00     0.173 A 
ATOM     63  C   UNL A   1      43.297  26.739  26.878  1.00  0.00     0.173 A 
ATOM     64  F   UNL A   1      41.283  24.343  28.734  1.00  0.00    -0.203 F 
ATOM     65  C   UNL A   1      42.458  24.097  26.708  1.00  0.00     0.198 A 
ATOM     66  C   UNL A   1      43.677  25.952  25.795  1.00  0.00     0.198 A 
ATOM     67  F   UNL A   1      43.725  28.008  26.938  1.00  0.00    -0.203 F 
ATOM     68  F   UNL A   1      42.078  22.812  26.645  1.00  0.00    -0.200 F 
ATOM     69  C   UNL A   1      43.262  24.631  25.714  1.00  0.00     0.200 A 
ATOM     70  F   UNL A   1      44.449  26.471  24.830  1.00  0.00    -0.200 F 
ATOM     71  F   UNL A   1      43.646  23.870  24.679  1.00  0.00    -0.200 F 
ENDBRANCH  47  61
BRANCH  48  72
ATOM     72  C   UNL A   1      39.142  31.971  35.313  1.00  0.00     0.064 A 
ATOM     73  C   UNL A   1      39.435  33.342  35.339  1.00  0.00     0.173 A 
ATOM     74  C   UNL A   1      38.408  31.439  36.381  1.00  0.00     0.173 A 
ATOM     75  F   UNL A   1      40.157  33.892  34.350  1.00  0.00    -0.203 F 
ATOM     76  C   UNL A   1      39.027  34.145  36.402  1.00  0.00     0.198 A 
ATOM     77  C   UNL A   1      37.979  32.247  37.432  1.00  0.00     0.198 A 
ATOM     78  F   UNL A   1      38.104  30.134  36.402  1.00  0.00    -0.203 F 
ATOM     79  F   UNL A   1      39.359  35.442  36.425  1.00  0.00    -0.200 F 
ATOM     80  C   UNL A   1      38.297  33.597  37.445  1.00  0.00     0.200 A 
ATOM     81  F   UNL A   1      37.266  31.717  38.435  1.00  0.00    -0.200 F 
ATOM     82  F   UNL A   1      37.905  34.369  38.469  1.00  0.00    -0.200 F 
ENDBRANCH  48  72
BRANCH  60  83
ATOM     83  C   UNL A   1      45.022  28.391  34.273  1.00  0.00     0.064 A 
ATOM     84  C   UNL A   1      45.158  27.375  35.230  1.00  0.00     0.173 A 
ATOM     85  C   UNL A   1      46.113  29.249  34.064  1.00  0.00     0.173 A 
ATOM     86  F   UNL A   1      44.139  26.537  35.474  1.00  0.00    -0.203 F 
ATOM     87  C   UNL A   1      46.331  27.241  35.969  1.00  0.00     0.198 A 
ATOM     88  C   UNL A   1      47.293  29.095  34.785  1.00  0.00     0.198 A 
ATOM     89  F   UNL A   1      46.036  30.230  33.152  1.00  0.00    -0.203 F 
ATOM     90  F   UNL A   1      46.423  26.293  36.911  1.00  0.00    -0.200 F 
ATOM     91  C   UNL A   1      47.398  28.098  35.742  1.00  0.00     0.200 A 
ATOM     92  F   UNL A   1      48.328  29.916  34.557  1.00  0.00    -0.200 F 
ATOM     93  F   UNL A   1      48.527  27.966  36.453  1.00  0.00    -0.200 F 
ENDBRANCH  60  83
ENDBRANCH  34  35
ENDBRANCH  27  29
ENDBRANCH  26  27
ENDBRANCH  25  26
ENDBRANCH  24  25
ENDBRANCH   1  24
TORSDOF 18
ENDMDL
