MODEL 1
REMARK VINA RESULT:     -11.6      0.000      0.000
REMARK SMILES O=C(OCCOCCOC(=O)[C@@H]1CCCN(C(=O)/C=C/c2c(F)cccc2Cl)C1)c1ccc(-c2c3nc(c(-c4c(F)c(F)c(F)c(F)c4F)c4ccc([nH]4)c(-c4c(F)c(F)c(F)c(F)c4F)c4nc(c(-c5c(F)c(F)c(F)c(F)c5F)c5ccc2[nH]5)C=C4)C=C3)cc1
REMARK SMILES IDX 7 1 6 2 5 3 4 4 3 5 2 6 1 7 30 8 31 9 92 10 32 11 91 12
REMARK SMILES IDX 33 13 34 14 35 15 85 16 36 17 90 18 84 19 86 20 37 21 89 22
REMARK SMILES IDX 83 23 82 24 38 26 70 27 50 28 69 29 51 30 54 31 68 32 87 33
REMARK SMILES IDX 52 34 53 35 67 37 88 38 55 39 39 40 40 41 48 42 41 43 42 44
REMARK SMILES IDX 46 45 49 46 43 47 44 48 47 49 45 50 71 51 72 52 80 53 73 54
REMARK SMILES IDX 74 55 78 56 81 57 75 58 76 59 79 60 77 61 56 62 57 63 65 64
REMARK SMILES IDX 58 65 59 66 63 67 66 68 60 69 61 70 64 71 62 72 8 73 9 74
REMARK SMILES IDX 10 75 11 76 12 77 13 78 29 79 14 80 16 81 15 82 17 83 18 84
REMARK SMILES IDX 19 85 20 86 21 87 22 88 27 89 23 90 24 91 26 92 28 93 25 94
REMARK H PARENT 86 25 54 36
REMARK Flexibility Score: inf
ROOT
ATOM      1  C   UNL A   1      32.242  29.688  26.047  1.00  0.00     0.202 C 
ENDROOT
BRANCH   1   2
ATOM      2  O   UNL A   1      32.438  30.760  26.978  1.00  0.00    -0.374 OA
BRANCH   2   3
ATOM      3  C   UNL A   1      31.465  31.805  26.914  1.00  0.00     0.202 C 
BRANCH   3   4
ATOM      4  C   UNL A   1      32.092  33.181  26.682  1.00  0.00     0.261 C 
BRANCH   4   5
ATOM      5  O   UNL A   1      32.212  33.902  27.917  1.00  0.00    -0.460 OA
BRANCH   5   6
ATOM      6  C   UNL A   1      33.310  34.481  28.456  1.00  0.00     0.338 C 
ATOM      7  O   UNL A   1      33.357  35.711  28.487  1.00  0.00    -0.246 OA
BRANCH   6   8
ATOM      8  C   UNL A   1      34.464  33.734  29.056  1.00  0.00     0.060 A 
ATOM      9  C   UNL A   1      34.383  32.555  29.799  1.00  0.00     0.016 A 
ATOM     10  C   UNL A   1      35.750  34.235  28.773  1.00  0.00     0.016 A 
ATOM     11  C   UNL A   1      35.517  31.905  30.263  1.00  0.00     0.010 A 
ATOM     12  C   UNL A   1      36.902  33.581  29.223  1.00  0.00     0.010 A 
ATOM     13  C   UNL A   1      36.780  32.414  29.979  1.00  0.00    -0.014 A 
BRANCH  13  14
ATOM     14  C   UNL A   1      37.931  31.734  30.594  1.00  0.00     0.031 A 
ATOM     15  C   UNL A   1      38.195  31.970  32.047  1.00  0.00     0.074 A 
ATOM     16  C   UNL A   1      38.584  30.789  29.896  1.00  0.00     0.049 A 
ATOM     17  N   UNL A   1      39.110  31.446  32.817  1.00  0.00    -0.248 NA
ATOM     18  C   UNL A   1      37.287  32.904  32.735  1.00  0.00     0.031 C 
ATOM     19  C   UNL A   1      38.288  30.413  28.511  1.00  0.00     0.029 A 
ATOM     20  N   UNL A   1      39.595  29.943  30.263  1.00  0.00    -0.354 N 
ATOM     21  C   UNL A   1      38.892  31.989  34.075  1.00  0.00     0.074 A 
ATOM     22  C   UNL A   1      37.764  32.887  33.970  1.00  0.00     0.031 C 
ATOM     23  C   UNL A   1      39.082  29.391  28.155  1.00  0.00     0.029 A 
ATOM     24  C   UNL A   1      39.979  29.082  29.265  1.00  0.00     0.049 A 
ATOM     25  H   UNL A   1      40.006  29.950  31.158  1.00  0.00     0.167 HD
ATOM     26  C   UNL A   1      39.582  31.752  35.213  1.00  0.00     0.037 A 
ATOM     27  C   UNL A   1      40.966  28.168  29.253  1.00  0.00     0.037 A 
ATOM     28  C   UNL A   1      40.712  30.867  35.281  1.00  0.00     0.049 A 
ATOM     29  C   UNL A   1      41.784  28.004  30.507  1.00  0.00     0.074 A 
ATOM     30  C   UNL A   1      41.566  30.626  36.339  1.00  0.00     0.029 A 
ATOM     31  N   UNL A   1      41.141  30.073  34.224  1.00  0.00    -0.354 N 
ATOM     32  N   UNL A   1      41.632  28.583  31.675  1.00  0.00    -0.248 NA
ATOM     33  C   UNL A   1      42.918  27.075  30.440  1.00  0.00     0.031 C 
ATOM     34  C   UNL A   1      42.532  29.707  35.913  1.00  0.00     0.029 A 
ATOM     35  C   UNL A   1      42.255  29.345  34.602  1.00  0.00     0.049 A 
ATOM     36  H   UNL A   1      40.714  30.031  33.338  1.00  0.00     0.167 HD
ATOM     37  C   UNL A   1      42.646  28.090  32.483  1.00  0.00     0.074 A 
ATOM     38  C   UNL A   1      43.385  27.135  31.680  1.00  0.00     0.031 C 
ATOM     39  C   UNL A   1      42.955  28.404  33.765  1.00  0.00     0.037 A 
BRANCH  26  40
ATOM     40  C   UNL A   1      39.165  32.513  36.433  1.00  0.00     0.064 A 
ATOM     41  C   UNL A   1      39.702  33.773  36.738  1.00  0.00     0.173 A 
ATOM     42  C   UNL A   1      38.237  31.960  37.328  1.00  0.00     0.173 A 
ATOM     43  F   UNL A   1      40.617  34.330  35.931  1.00  0.00    -0.203 F 
ATOM     44  C   UNL A   1      39.340  34.442  37.906  1.00  0.00     0.198 A 
ATOM     45  C   UNL A   1      37.862  32.640  38.484  1.00  0.00     0.198 A 
ATOM     46  F   UNL A   1      37.704  30.752  37.089  1.00  0.00    -0.203 F 
ATOM     47  F   UNL A   1      39.903  35.621  38.204  1.00  0.00    -0.200 F 
ATOM     48  C   UNL A   1      38.418  33.876  38.775  1.00  0.00     0.200 A 
ATOM     49  F   UNL A   1      36.973  32.091  39.323  1.00  0.00    -0.200 F 
ATOM     50  F   UNL A   1      38.077  34.517  39.902  1.00  0.00    -0.200 F 
ENDBRANCH  26  40
BRANCH  27  51
ATOM     51  C   UNL A   1      41.270  27.395  28.018  1.00  0.00     0.064 A 
ATOM     52  C   UNL A   1      40.735  26.118  27.800  1.00  0.00     0.173 A 
ATOM     53  C   UNL A   1      42.138  27.908  27.040  1.00  0.00     0.173 A 
ATOM     54  F   UNL A   1      39.921  25.568  28.713  1.00  0.00    -0.203 F 
ATOM     55  C   UNL A   1      41.073  25.377  26.668  1.00  0.00     0.198 A 
ATOM     56  C   UNL A   1      42.449  27.181  25.893  1.00  0.00     0.198 A 
ATOM     57  F   UNL A   1      42.686  29.122  27.197  1.00  0.00    -0.203 F 
ATOM     58  F   UNL A   1      40.594  24.135  26.513  1.00  0.00    -0.200 F 
ATOM     59  C   UNL A   1      41.925  25.911  25.713  1.00  0.00     0.200 A 
ATOM     60  F   UNL A   1      43.263  27.708  24.969  1.00  0.00    -0.200 F 
ATOM     61  F   UNL A   1      42.253  25.197  24.627  1.00  0.00    -0.200 F 
ENDBRANCH  27  51
BRANCH  39  62
ATOM     62  C   UNL A   1      44.132  27.696  34.362  1.00  0.00     0.064 A 
ATOM     63  C   UNL A   1      43.991  26.450  34.991  1.00  0.00     0.173 A 
ATOM     64  C   UNL A   1      45.415  28.255  34.276  1.00  0.00     0.173 A 
ATOM     65  F   UNL A   1      42.779  25.887  35.110  1.00  0.00    -0.203 F 
ATOM     66  C   UNL A   1      45.093  25.802  35.539  1.00  0.00     0.198 A 
ATOM     67  C   UNL A   1      46.518  27.590  34.799  1.00  0.00     0.198 A 
ATOM     68  F   UNL A   1      45.598  29.441  33.676  1.00  0.00    -0.203 F 
ATOM     69  F   UNL A   1      44.930  24.637  36.180  1.00  0.00    -0.200 F 
ATOM     70  C   UNL A   1      46.355  26.368  35.437  1.00  0.00     0.200 A 
ATOM     71  F   UNL A   1      47.739  28.132  34.692  1.00  0.00    -0.200 F 
ATOM     72  F   UNL A   1      47.415  25.741  35.963  1.00  0.00    -0.200 F 
ENDBRANCH  39  62
ENDBRANCH  13  14
ENDBRANCH   6   8
ENDBRANCH   5   6
ENDBRANCH   4   5
ENDBRANCH   3   4
ENDBRANCH   2   3
ENDBRANCH   1   2
BRANCH   1  73
ATOM     73  C   UNL A   1      32.827  28.404  26.624  1.00  0.00     0.261 C 
BRANCH  73  74
ATOM     74  O   UNL A   1      32.332  27.314  25.838  1.00  0.00    -0.463 OA
BRANCH  74  75
ATOM     75  C   UNL A   1      32.467  27.428  24.490  1.00  0.00     0.310 C 
ATOM     76  O   UNL A   1      33.534  27.470  23.889  1.00  0.00    -0.252 OA
BRANCH  75  77
ATOM     77  C   UNL A   1      31.109  27.361  23.803  1.00  0.00     0.119 C 
ATOM     78  C   UNL A   1      30.117  26.526  24.627  1.00  0.00     0.019 C 
ATOM     79  C   UNL A   1      31.201  26.812  22.378  1.00  0.00     0.135 C 
ATOM     80  C   UNL A   1      30.448  25.032  24.576  1.00  0.00     0.022 C 
ATOM     81  N   UNL A   1      31.582  25.406  22.421  1.00  0.00    -0.338 N 
ATOM     82  C   UNL A   1      30.638  24.548  23.138  1.00  0.00     0.120 C 
BRANCH  81  83
ATOM     83  C   UNL A   1      32.779  25.030  21.839  1.00  0.00     0.246 C 
ATOM     84  O   UNL A   1      33.277  25.607  20.874  1.00  0.00    -0.270 OA
BRANCH  83  85
ATOM     85  C   UNL A   1      33.504  23.866  22.394  1.00  0.00     0.072 C 
ATOM     86  C   UNL A   1      33.953  23.844  23.657  1.00  0.00     0.018 C 
BRANCH  86  87
ATOM     87  C   UNL A   1      34.745  22.716  24.158  1.00  0.00     0.029 A 
ATOM     88  C   UNL A   1      36.121  22.691  23.903  1.00  0.00     0.131 A 
ATOM     89  C   UNL A   1      34.184  21.639  24.863  1.00  0.00     0.051 A 
ATOM     90  F   UNL A   1      36.704  23.704  23.243  1.00  0.00    -0.206 F 
ATOM     91  C   UNL A   1      36.920  21.626  24.315  1.00  0.00     0.040 A 
ATOM     92  C   UNL A   1      34.982  20.567  25.279  1.00  0.00     0.021 A 
ATOM     93  Cl  UNL A   1      32.502  21.576  25.261  1.00  0.00    -0.084 Cl
ATOM     94  C   UNL A   1      36.350  20.558  25.001  1.00  0.00     0.005 A 
ENDBRANCH  86  87
ENDBRANCH  83  85
ENDBRANCH  81  83
ENDBRANCH  75  77
ENDBRANCH  74  75
ENDBRANCH  73  74
ENDBRANCH   1  73
TORSDOF 17
ENDMDL
MODEL 2
REMARK VINA RESULT:     -11.4      5.017     10.605
REMARK SMILES O=C(OCCOCCOC(=O)[C@@H]1CCCN(C(=O)/C=C/c2c(F)cccc2Cl)C1)c1ccc(-c2c3nc(c(-c4c(F)c(F)c(F)c(F)c4F)c4ccc([nH]4)c(-c4c(F)c(F)c(F)c(F)c4F)c4nc(c(-c5c(F)c(F)c(F)c(F)c5F)c5ccc2[nH]5)C=C4)C=C3)cc1
REMARK SMILES IDX 7 1 6 2 5 3 4 4 3 5 2 6 1 7 30 8 31 9 92 10 32 11 91 12
REMARK SMILES IDX 33 13 34 14 35 15 85 16 36 17 90 18 84 19 86 20 37 21 89 22
REMARK SMILES IDX 83 23 82 24 38 26 70 27 50 28 69 29 51 30 54 31 68 32 87 33
REMARK SMILES IDX 52 34 53 35 67 37 88 38 55 39 39 40 40 41 48 42 41 43 42 44
REMARK SMILES IDX 46 45 49 46 43 47 44 48 47 49 45 50 71 51 72 52 80 53 73 54
REMARK SMILES IDX 74 55 78 56 81 57 75 58 76 59 79 60 77 61 56 62 57 63 65 64
REMARK SMILES IDX 58 65 59 66 63 67 66 68 60 69 61 70 64 71 62 72 8 73 9 74
REMARK SMILES IDX 10 75 11 76 12 77 13 78 29 79 14 80 16 81 15 82 17 83 18 84
REMARK SMILES IDX 19 85 20 86 21 87 22 88 27 89 23 90 24 91 26 92 28 93 25 94
REMARK H PARENT 86 25 54 36
REMARK Flexibility Score: inf
ROOT
ATOM      1  C   UNL A   1      37.497  22.074  25.200  1.00  0.00     0.202 C 
ENDROOT
BRANCH   1   2
ATOM      2  O   UNL A   1      37.234  20.942  24.361  1.00  0.00    -0.374 OA
BRANCH   2   3
ATOM      3  C   UNL A   1      37.956  19.756  24.696  1.00  0.00     0.202 C 
BRANCH   3   4
ATOM      4  C   UNL A   1      38.904  19.958  25.881  1.00  0.00     0.261 C 
BRANCH   4   5
ATOM      5  O   UNL A   1      40.092  19.169  25.723  1.00  0.00    -0.460 OA
BRANCH   5   6
ATOM      6  C   UNL A   1      41.370  19.492  26.035  1.00  0.00     0.338 C 
ATOM      7  O   UNL A   1      42.233  18.625  25.899  1.00  0.00    -0.246 OA
BRANCH   6   8
ATOM      8  C   UNL A   1      41.821  20.846  26.498  1.00  0.00     0.060 A 
ATOM      9  C   UNL A   1      42.174  21.193  27.803  1.00  0.00     0.016 A 
ATOM     10  C   UNL A   1      41.972  21.830  25.501  1.00  0.00     0.016 A 
ATOM     11  C   UNL A   1      42.637  22.461  28.121  1.00  0.00     0.010 A 
ATOM     12  C   UNL A   1      42.453  23.108  25.807  1.00  0.00     0.010 A 
ATOM     13  C   UNL A   1      42.778  23.424  27.127  1.00  0.00    -0.014 A 
BRANCH  13  14
ATOM     14  C   UNL A   1      43.169  24.776  27.554  1.00  0.00     0.031 A 
ATOM     15  C   UNL A   1      44.554  25.243  27.239  1.00  0.00     0.074 A 
ATOM     16  C   UNL A   1      42.230  25.610  28.033  1.00  0.00     0.049 A 
ATOM     17  N   UNL A   1      45.108  26.404  27.464  1.00  0.00    -0.248 NA
ATOM     18  C   UNL A   1      45.429  24.279  26.549  1.00  0.00     0.031 C 
ATOM     19  C   UNL A   1      40.822  25.258  28.241  1.00  0.00     0.029 A 
ATOM     20  N   UNL A   1      42.300  26.930  28.388  1.00  0.00    -0.354 N 
ATOM     21  C   UNL A   1      46.394  26.307  26.950  1.00  0.00     0.074 A 
ATOM     22  C   UNL A   1      46.545  24.977  26.407  1.00  0.00     0.031 C 
ATOM     23  C   UNL A   1      40.156  26.346  28.661  1.00  0.00     0.029 A 
ATOM     24  C   UNL A   1      41.100  27.449  28.807  1.00  0.00     0.049 A 
ATOM     25  H   UNL A   1      43.131  27.456  28.347  1.00  0.00     0.167 HD
ATOM     26  C   UNL A   1      47.358  27.255  26.942  1.00  0.00     0.037 A 
ATOM     27  C   UNL A   1      40.815  28.677  29.280  1.00  0.00     0.037 A 
ATOM     28  C   UNL A   1      47.181  28.564  27.508  1.00  0.00     0.049 A 
ATOM     29  C   UNL A   1      41.938  29.677  29.354  1.00  0.00     0.074 A 
ATOM     30  C   UNL A   1      48.109  29.576  27.667  1.00  0.00     0.029 A 
ATOM     31  N   UNL A   1      45.976  29.037  28.014  1.00  0.00    -0.354 N 
ATOM     32  N   UNL A   1      43.180  29.557  28.948  1.00  0.00    -0.248 NA
ATOM     33  C   UNL A   1      41.629  30.975  29.965  1.00  0.00     0.031 C 
ATOM     34  C   UNL A   1      47.472  30.651  28.298  1.00  0.00     0.029 A 
ATOM     35  C   UNL A   1      46.137  30.324  28.494  1.00  0.00     0.049 A 
ATOM     36  H   UNL A   1      45.131  28.531  28.027  1.00  0.00     0.167 HD
ATOM     37  C   UNL A   1      43.801  30.760  29.249  1.00  0.00     0.074 A 
ATOM     38  C   UNL A   1      42.785  31.610  29.840  1.00  0.00     0.031 C 
ATOM     39  C   UNL A   1      45.093  31.131  29.073  1.00  0.00     0.037 A 
BRANCH  26  40
ATOM     40  C   UNL A   1      48.684  26.872  26.364  1.00  0.00     0.064 A 
ATOM     41  C   UNL A   1      49.003  27.118  25.020  1.00  0.00     0.173 A 
ATOM     42  C   UNL A   1      49.639  26.220  27.158  1.00  0.00     0.173 A 
ATOM     43  F   UNL A   1      48.112  27.709  24.211  1.00  0.00    -0.203 F 
ATOM     44  C   UNL A   1      50.224  26.705  24.487  1.00  0.00     0.198 A 
ATOM     45  C   UNL A   1      50.865  25.828  26.628  1.00  0.00     0.198 A 
ATOM     46  F   UNL A   1      49.377  25.951  28.446  1.00  0.00    -0.203 F 
ATOM     47  F   UNL A   1      50.489  26.905  23.189  1.00  0.00    -0.200 F 
ATOM     48  C   UNL A   1      51.154  26.065  25.293  1.00  0.00     0.200 A 
ATOM     49  F   UNL A   1      51.762  25.208  27.407  1.00  0.00    -0.200 F 
ATOM     50  F   UNL A   1      52.324  25.662  24.777  1.00  0.00    -0.200 F 
ENDBRANCH  26  40
BRANCH  27  51
ATOM     51  C   UNL A   1      39.447  29.003  29.767  1.00  0.00     0.064 A 
ATOM     52  C   UNL A   1      38.493  29.602  28.932  1.00  0.00     0.173 A 
ATOM     53  C   UNL A   1      39.076  28.755  31.098  1.00  0.00     0.173 A 
ATOM     54  F   UNL A   1      38.801  29.885  27.657  1.00  0.00    -0.203 F 
ATOM     55  C   UNL A   1      37.234  29.959  29.414  1.00  0.00     0.198 A 
ATOM     56  C   UNL A   1      37.807  29.081  31.570  1.00  0.00     0.198 A 
ATOM     57  F   UNL A   1      39.949  28.191  31.946  1.00  0.00    -0.203 F 
ATOM     58  F   UNL A   1      36.362  30.582  28.610  1.00  0.00    -0.200 F 
ATOM     59  C   UNL A   1      36.890  29.693  30.731  1.00  0.00     0.200 A 
ATOM     60  F   UNL A   1      37.477  28.811  32.841  1.00  0.00    -0.200 F 
ATOM     61  F   UNL A   1      35.681  30.040  31.195  1.00  0.00    -0.200 F 
ENDBRANCH  27  51
BRANCH  39  62
ATOM     62  C   UNL A   1      45.460  32.513  29.519  1.00  0.00     0.064 A 
ATOM     63  C   UNL A   1      45.335  33.613  28.658  1.00  0.00     0.173 A 
ATOM     64  C   UNL A   1      45.909  32.741  30.827  1.00  0.00     0.173 A 
ATOM     65  F   UNL A   1      44.925  33.438  27.393  1.00  0.00    -0.203 F 
ATOM     66  C   UNL A   1      45.676  34.892  29.085  1.00  0.00     0.198 A 
ATOM     67  C   UNL A   1      46.221  34.025  31.259  1.00  0.00     0.198 A 
ATOM     68  F   UNL A   1      46.036  31.719  31.687  1.00  0.00    -0.203 F 
ATOM     69  F   UNL A   1      45.598  35.922  28.233  1.00  0.00    -0.200 F 
ATOM     70  C   UNL A   1      46.112  35.098  30.386  1.00  0.00     0.200 A 
ATOM     71  F   UNL A   1      46.632  34.225  32.519  1.00  0.00    -0.200 F 
ATOM     72  F   UNL A   1      46.437  36.331  30.796  1.00  0.00    -0.200 F 
ENDBRANCH  39  62
ENDBRANCH  13  14
ENDBRANCH   6   8
ENDBRANCH   5   6
ENDBRANCH   4   5
ENDBRANCH   3   4
ENDBRANCH   2   3
ENDBRANCH   1   2
BRANCH   1  73
ATOM     73  C   UNL A   1      36.192  22.552  25.828  1.00  0.00     0.261 C 
BRANCH  73  74
ATOM     74  O   UNL A   1      35.130  21.786  25.249  1.00  0.00    -0.463 OA
BRANCH  74  75
ATOM     75  C   UNL A   1      33.934  21.820  25.894  1.00  0.00     0.310 C 
ATOM     76  O   UNL A   1      33.735  22.351  26.982  1.00  0.00    -0.252 OA
BRANCH  75  77
ATOM     77  C   UNL A   1      32.833  21.226  25.026  1.00  0.00     0.119 C 
ATOM     78  C   UNL A   1      33.026  21.613  23.552  1.00  0.00     0.019 C 
ATOM     79  C   UNL A   1      31.435  21.631  25.497  1.00  0.00     0.135 C 
ATOM     80  C   UNL A   1      32.710  23.090  23.304  1.00  0.00     0.022 C 
ATOM     81  N   UNL A   1      31.243  23.060  25.283  1.00  0.00    -0.338 N 
ATOM     82  C   UNL A   1      31.350  23.479  23.886  1.00  0.00     0.120 C 
BRANCH  81  83
ATOM     83  C   UNL A   1      31.029  23.868  26.385  1.00  0.00     0.246 C 
ATOM     84  O   UNL A   1      30.297  23.559  27.323  1.00  0.00    -0.270 OA
BRANCH  83  85
ATOM     85  C   UNL A   1      31.705  25.182  26.446  1.00  0.00     0.072 C 
ATOM     86  C   UNL A   1      31.109  26.308  26.028  1.00  0.00     0.018 C 
BRANCH  86  87
ATOM     87  C   UNL A   1      31.830  27.585  26.017  1.00  0.00     0.029 A 
ATOM     88  C   UNL A   1      31.664  28.464  27.094  1.00  0.00     0.131 A 
ATOM     89  C   UNL A   1      32.667  27.984  24.963  1.00  0.00     0.051 A 
ATOM     90  F   UNL A   1      30.883  28.121  28.130  1.00  0.00    -0.206 F 
ATOM     91  C   UNL A   1      32.288  29.709  27.122  1.00  0.00     0.040 A 
ATOM     92  C   UNL A   1      33.296  29.234  24.986  1.00  0.00     0.021 A 
ATOM     93  Cl  UNL A   1      32.971  26.969  23.595  1.00  0.00    -0.084 Cl
ATOM     94  C   UNL A   1      33.104  30.099  26.064  1.00  0.00     0.005 A 
ENDBRANCH  86  87
ENDBRANCH  83  85
ENDBRANCH  81  83
ENDBRANCH  75  77
ENDBRANCH  74  75
ENDBRANCH  73  74
ENDBRANCH   1  73
TORSDOF 17
ENDMDL
MODEL 3
REMARK VINA RESULT:     -11.4      1.899      2.647
REMARK SMILES O=C(OCCOCCOC(=O)[C@@H]1CCCN(C(=O)/C=C/c2c(F)cccc2Cl)C1)c1ccc(-c2c3nc(c(-c4c(F)c(F)c(F)c(F)c4F)c4ccc([nH]4)c(-c4c(F)c(F)c(F)c(F)c4F)c4nc(c(-c5c(F)c(F)c(F)c(F)c5F)c5ccc2[nH]5)C=C4)C=C3)cc1
REMARK SMILES IDX 7 1 6 2 5 3 4 4 3 5 2 6 1 7 30 8 31 9 92 10 32 11 91 12
REMARK SMILES IDX 33 13 34 14 35 15 85 16 36 17 90 18 84 19 86 20 37 21 89 22
REMARK SMILES IDX 83 23 82 24 38 26 70 27 50 28 69 29 51 30 54 31 68 32 87 33
REMARK SMILES IDX 52 34 53 35 67 37 88 38 55 39 39 40 40 41 48 42 41 43 42 44
REMARK SMILES IDX 46 45 49 46 43 47 44 48 47 49 45 50 71 51 72 52 80 53 73 54
REMARK SMILES IDX 74 55 78 56 81 57 75 58 76 59 79 60 77 61 56 62 57 63 65 64
REMARK SMILES IDX 58 65 59 66 63 67 66 68 60 69 61 70 64 71 62 72 8 73 9 74
REMARK SMILES IDX 10 75 11 76 12 77 13 78 29 79 14 80 16 81 15 82 17 83 18 84
REMARK SMILES IDX 19 85 20 86 21 87 22 88 27 89 23 90 24 91 26 92 28 93 25 94
REMARK H PARENT 86 25 54 36
REMARK Flexibility Score: inf
ROOT
ATOM      1  C   UNL A   1      32.867  27.226  24.906  1.00  0.00     0.202 C 
ENDROOT
BRANCH   1   2
ATOM      2  O   UNL A   1      31.741  27.814  24.241  1.00  0.00    -0.374 OA
BRANCH   2   3
ATOM      3  C   UNL A   1      31.407  29.137  24.667  1.00  0.00     0.202 C 
BRANCH   3   4
ATOM      4  C   UNL A   1      31.941  29.459  26.065  1.00  0.00     0.261 C 
BRANCH   4   5
ATOM      5  O   UNL A   1      33.015  30.409  25.993  1.00  0.00    -0.460 OA
BRANCH   5   6
ATOM      6  C   UNL A   1      33.509  31.201  26.973  1.00  0.00     0.338 C 
ATOM      7  O   UNL A   1      32.843  32.179  27.314  1.00  0.00    -0.246 OA
BRANCH   6   8
ATOM      8  C   UNL A   1      34.795  30.956  27.704  1.00  0.00     0.060 A 
ATOM      9  C   UNL A   1      35.804  31.893  27.933  1.00  0.00     0.016 A 
ATOM     10  C   UNL A   1      34.957  29.678  28.276  1.00  0.00     0.016 A 
ATOM     11  C   UNL A   1      36.934  31.584  28.675  1.00  0.00     0.010 A 
ATOM     12  C   UNL A   1      36.085  29.358  29.038  1.00  0.00     0.010 A 
ATOM     13  C   UNL A   1      37.081  30.316  29.230  1.00  0.00    -0.014 A 
BRANCH  13  14
ATOM     14  C   UNL A   1      38.353  30.025  29.910  1.00  0.00     0.031 A 
ATOM     15  C   UNL A   1      38.543  30.541  31.300  1.00  0.00     0.074 A 
ATOM     16  C   UNL A   1      39.212  29.158  29.348  1.00  0.00     0.049 A 
ATOM     17  N   UNL A   1      39.548  30.369  32.116  1.00  0.00    -0.248 NA
ATOM     18  C   UNL A   1      37.438  31.337  31.861  1.00  0.00     0.031 C 
ATOM     19  C   UNL A   1      39.023  28.511  28.047  1.00  0.00     0.029 A 
ATOM     20  N   UNL A   1      40.388  28.635  29.813  1.00  0.00    -0.354 N 
ATOM     21  C   UNL A   1      39.199  31.039  33.281  1.00  0.00     0.074 A 
ATOM     22  C   UNL A   1      37.896  31.625  33.070  1.00  0.00     0.031 C 
ATOM     23  C   UNL A   1      40.036  27.656  27.832  1.00  0.00     0.029 A 
ATOM     24  C   UNL A   1      40.970  27.740  28.949  1.00  0.00     0.049 A 
ATOM     25  H   UNL A   1      40.780  28.878  30.684  1.00  0.00     0.167 HD
ATOM     26  C   UNL A   1      39.916  31.149  34.422  1.00  0.00     0.037 A 
ATOM     27  C   UNL A   1      42.142  27.087  29.051  1.00  0.00     0.037 A 
ATOM     28  C   UNL A   1      41.220  30.569  34.593  1.00  0.00     0.049 A 
ATOM     29  C   UNL A   1      42.965  27.315  30.292  1.00  0.00     0.074 A 
ATOM     30  C   UNL A   1      42.098  30.700  35.652  1.00  0.00     0.029 A 
ATOM     31  N   UNL A   1      41.830  29.738  33.661  1.00  0.00    -0.354 N 
ATOM     32  N   UNL A   1      42.674  28.020  31.360  1.00  0.00    -0.248 NA
ATOM     33  C   UNL A   1      44.284  26.673  30.338  1.00  0.00     0.031 C 
ATOM     34  C   UNL A   1      43.254  29.972  35.345  1.00  0.00     0.029 A 
ATOM     35  C   UNL A   1      43.079  29.355  34.115  1.00  0.00     0.049 A 
ATOM     36  H   UNL A   1      41.432  29.461  32.804  1.00  0.00     0.167 HD
ATOM     37  C   UNL A   1      43.768  27.906  32.205  1.00  0.00     0.074 A 
ATOM     38  C   UNL A   1      44.714  27.032  31.539  1.00  0.00     0.031 C 
ATOM     39  C   UNL A   1      43.985  28.480  33.414  1.00  0.00     0.037 A 
BRANCH  26  40
ATOM     40  C   UNL A   1      39.324  31.975  35.520  1.00  0.00     0.064 A 
ATOM     41  C   UNL A   1      39.623  33.338  35.663  1.00  0.00     0.173 A 
ATOM     42  C   UNL A   1      38.470  31.388  36.465  1.00  0.00     0.173 A 
ATOM     43  F   UNL A   1      40.460  33.939  34.804  1.00  0.00    -0.203 F 
ATOM     44  C   UNL A   1      39.103  34.079  36.723  1.00  0.00     0.198 A 
ATOM     45  C   UNL A   1      37.936  32.135  37.511  1.00  0.00     0.198 A 
ATOM     46  F   UNL A   1      38.164  30.084  36.380  1.00  0.00    -0.203 F 
ATOM     47  F   UNL A   1      39.441  35.367  36.869  1.00  0.00    -0.200 F 
ATOM     48  C   UNL A   1      38.258  33.477  37.644  1.00  0.00     0.200 A 
ATOM     49  F   UNL A   1      37.121  31.551  38.400  1.00  0.00    -0.200 F 
ATOM     50  F   UNL A   1      37.765  34.187  38.667  1.00  0.00    -0.200 F 
ENDBRANCH  26  40
BRANCH  27  51
ATOM     51  C   UNL A   1      42.627  26.220  27.943  1.00  0.00     0.064 A 
ATOM     52  C   UNL A   1      42.298  24.859  27.877  1.00  0.00     0.173 A 
ATOM     53  C   UNL A   1      43.466  26.733  26.939  1.00  0.00     0.173 A 
ATOM     54  F   UNL A   1      41.521  24.311  28.822  1.00  0.00    -0.203 F 
ATOM     55  C   UNL A   1      42.806  24.042  26.867  1.00  0.00     0.198 A 
ATOM     56  C   UNL A   1      43.945  25.923  25.912  1.00  0.00     0.198 A 
ATOM     57  F   UNL A   1      43.820  28.026  26.955  1.00  0.00    -0.203 F 
ATOM     58  F   UNL A   1      42.523  22.732  26.861  1.00  0.00    -0.200 F 
ATOM     59  C   UNL A   1      43.624  24.576  25.883  1.00  0.00     0.200 A 
ATOM     60  F   UNL A   1      44.726  26.448  24.958  1.00  0.00    -0.200 F 
ATOM     61  F   UNL A   1      44.116  23.789  24.915  1.00  0.00    -0.200 F 
ENDBRANCH  27  51
BRANCH  39  62
ATOM     62  C   UNL A   1      45.289  28.166  34.079  1.00  0.00     0.064 A 
ATOM     63  C   UNL A   1      45.421  27.065  34.939  1.00  0.00     0.173 A 
ATOM     64  C   UNL A   1      46.422  28.952  33.830  1.00  0.00     0.173 A 
ATOM     65  F   UNL A   1      44.359  26.295  35.219  1.00  0.00    -0.203 F 
ATOM     66  C   UNL A   1      46.639  26.781  35.549  1.00  0.00     0.198 A 
ATOM     67  C   UNL A   1      47.644  28.649  34.419  1.00  0.00     0.198 A 
ATOM     68  F   UNL A   1      46.343  30.010  33.008  1.00  0.00    -0.203 F 
ATOM     69  F   UNL A   1      46.732  25.756  36.406  1.00  0.00    -0.200 F 
ATOM     70  C   UNL A   1      47.750  27.568  35.284  1.00  0.00     0.200 A 
ATOM     71  F   UNL A   1      48.720  29.403  34.154  1.00  0.00    -0.200 F 
ATOM     72  F   UNL A   1      48.922  27.291  35.870  1.00  0.00    -0.200 F 
ENDBRANCH  39  62
ENDBRANCH  13  14
ENDBRANCH   6   8
ENDBRANCH   5   6
ENDBRANCH   4   5
ENDBRANCH   3   4
ENDBRANCH   2   3
ENDBRANCH   1   2
BRANCH   1  73
ATOM     73  C   UNL A   1      33.647  26.369  23.915  1.00  0.00     0.261 C 
BRANCH  73  74
ATOM     74  O   UNL A   1      33.375  24.998  24.225  1.00  0.00    -0.463 OA
BRANCH  74  75
ATOM     75  C   UNL A   1      33.188  24.161  23.170  1.00  0.00     0.310 C 
ATOM     76  O   UNL A   1      34.056  23.831  22.370  1.00  0.00    -0.252 OA
BRANCH  75  77
ATOM     77  C   UNL A   1      31.781  23.577  23.186  1.00  0.00     0.119 C 
ATOM     78  C   UNL A   1      30.972  24.124  24.372  1.00  0.00     0.019 C 
ATOM     79  C   UNL A   1      31.785  22.047  23.213  1.00  0.00     0.135 C 
ATOM     80  C   UNL A   1      31.452  23.545  25.705  1.00  0.00     0.022 C 
ATOM     81  N   UNL A   1      32.314  21.583  24.489  1.00  0.00    -0.338 N 
ATOM     82  C   UNL A   1      31.544  22.019  25.655  1.00  0.00     0.120 C 
BRANCH  81  83
ATOM     83  C   UNL A   1      33.478  20.837  24.488  1.00  0.00     0.246 C 
ATOM     84  O   UNL A   1      33.583  19.742  23.939  1.00  0.00    -0.270 OA
BRANCH  83  85
ATOM     85  C   UNL A   1      34.667  21.371  25.188  1.00  0.00     0.072 C 
ATOM     86  C   UNL A   1      35.742  21.819  24.523  1.00  0.00     0.018 C 
BRANCH  86  87
ATOM     87  C   UNL A   1      36.942  22.262  25.240  1.00  0.00     0.029 A 
ATOM     88  C   UNL A   1      37.007  23.585  25.694  1.00  0.00     0.131 A 
ATOM     89  C   UNL A   1      38.047  21.429  25.474  1.00  0.00     0.051 A 
ATOM     90  F   UNL A   1      35.971  24.416  25.504  1.00  0.00    -0.206 F 
ATOM     91  C   UNL A   1      38.137  24.078  26.344  1.00  0.00     0.040 A 
ATOM     92  C   UNL A   1      39.184  21.919  26.126  1.00  0.00     0.021 A 
ATOM     93  Cl  UNL A   1      38.068  19.770  24.985  1.00  0.00    -0.084 Cl
ATOM     94  C   UNL A   1      39.232  23.245  26.557  1.00  0.00     0.005 A 
ENDBRANCH  86  87
ENDBRANCH  83  85
ENDBRANCH  81  83
ENDBRANCH  75  77
ENDBRANCH  74  75
ENDBRANCH  73  74
ENDBRANCH   1  73
TORSDOF 17
ENDMDL
