MODEL 1
REMARK VINA RESULT:      -9.9      0.000      0.000
REMARK SMILES CCCC[C@H](C(=O)OCCOCCOC(=O)c1ccc(-c2c3nc(c(-c4c(F)c(F)c(F)c(F)c4F)c4ccc([nH]4)c(-c4c(F)c(F)c(F)c(F)c4F)c4nc(c(-c5c(F)c(F)c(F)c(F)c5F)c5ccc2[nH]5)C=C4)C=C3)cc1)c1ccnn1C
REMARK SMILES IDX 10 1 9 2 8 3 6 4 7 5 5 6 4 7 3 8 2 9 1 10 80 11 81 12 84 13
REMARK SMILES IDX 82 14 83 15 85 16 11 17 12 18 13 19 14 20 15 21 16 22 17 23
REMARK SMILES IDX 18 24 79 25 19 26 78 27 20 28 21 29 22 30 72 31 23 32 77 33
REMARK SMILES IDX 71 34 73 35 24 36 76 37 70 38 69 39 25 41 57 42 37 43 56 44
REMARK SMILES IDX 38 45 41 46 55 47 74 48 39 49 40 50 54 52 75 53 42 54 26 55
REMARK SMILES IDX 27 56 35 57 28 58 29 59 33 60 36 61 30 62 31 63 34 64 32 65
REMARK SMILES IDX 58 66 59 67 67 68 60 69 61 70 65 71 68 72 62 73 63 74 66 75
REMARK SMILES IDX 64 76 43 77 44 78 52 79 45 80 46 81 50 82 53 83 47 84 48 85
REMARK SMILES IDX 51 86 49 87
REMARK H PARENT 73 40 41 51
REMARK Flexibility Score: inf
ROOT
ATOM      1  C   UNL A   1      32.247  28.535  22.864  1.00  0.00     0.202 C 
ENDROOT
BRANCH   1   2
ATOM      2  C   UNL A   1      33.526  27.813  22.433  1.00  0.00     0.261 C 
BRANCH   2   3
ATOM      3  O   UNL A   1      33.961  26.841  23.399  1.00  0.00    -0.463 OA
BRANCH   3   4
ATOM      4  C   UNL A   1      33.689  25.541  23.079  1.00  0.00     0.315 C 
ATOM      5  O   UNL A   1      33.661  25.093  21.940  1.00  0.00    -0.251 OA
BRANCH   4   6
ATOM      6  C   UNL A   1      33.438  24.715  24.341  1.00  0.00     0.148 C 
BRANCH   6   7
ATOM      7  C   UNL A   1      34.684  24.794  25.250  1.00  0.00     0.022 C 
BRANCH   7   8
ATOM      8  C   UNL A   1      35.114  23.449  25.855  1.00  0.00     0.001 C 
BRANCH   8   9
ATOM      9  C   UNL A   1      36.431  22.846  25.357  1.00  0.00    -0.003 C 
ATOM     10  C   UNL A   1      36.753  23.149  23.905  1.00  0.00     0.004 C 
ENDBRANCH   8   9
ENDBRANCH   7   8
ENDBRANCH   6   7
BRANCH   6  11
ATOM     11  C   UNL A   1      32.191  25.243  25.010  1.00  0.00     0.052 A 
ATOM     12  C   UNL A   1      32.047  26.096  26.090  1.00  0.00     0.046 A 
ATOM     13  N   UNL A   1      30.907  24.986  24.584  1.00  0.00    -0.272 N 
ATOM     14  C   UNL A   1      30.665  26.279  26.240  1.00  0.00     0.135 A 
ATOM     15  N   UNL A   1      29.969  25.613  25.318  1.00  0.00    -0.182 NA
ATOM     16  C   UNL A   1      30.458  24.187  23.466  1.00  0.00     0.174 C 
ENDBRANCH   6  11
ENDBRANCH   4   6
ENDBRANCH   3   4
ENDBRANCH   2   3
ENDBRANCH   1   2
BRANCH   1  17
ATOM     17  O   UNL A   1      32.395  29.541  23.862  1.00  0.00    -0.374 OA
BRANCH  17  18
ATOM     18  C   UNL A   1      31.405  29.581  24.893  1.00  0.00     0.202 C 
BRANCH  18  19
ATOM     19  C   UNL A   1      31.717  30.511  26.071  1.00  0.00     0.261 C 
BRANCH  19  20
ATOM     20  O   UNL A   1      33.083  30.354  26.505  1.00  0.00    -0.460 OA
BRANCH  20  21
ATOM     21  C   UNL A   1      33.585  31.400  27.200  1.00  0.00     0.338 C 
ATOM     22  O   UNL A   1      33.018  32.447  27.486  1.00  0.00    -0.246 OA
BRANCH  21  23
ATOM     23  C   UNL A   1      34.901  31.049  27.758  1.00  0.00     0.060 A 
ATOM     24  C   UNL A   1      35.122  29.706  28.094  1.00  0.00     0.016 A 
ATOM     25  C   UNL A   1      35.877  32.013  28.018  1.00  0.00     0.016 A 
ATOM     26  C   UNL A   1      36.302  29.328  28.731  1.00  0.00     0.010 A 
ATOM     27  C   UNL A   1      37.057  31.635  28.668  1.00  0.00     0.010 A 
ATOM     28  C   UNL A   1      37.262  30.297  29.054  1.00  0.00    -0.014 A 
BRANCH  28  29
ATOM     29  C   UNL A   1      38.411  29.930  29.916  1.00  0.00     0.031 A 
ATOM     30  C   UNL A   1      39.445  28.976  29.388  1.00  0.00     0.074 A 
ATOM     31  C   UNL A   1      38.552  30.466  31.140  1.00  0.00     0.049 A 
ATOM     32  N   UNL A   1      40.506  28.487  29.981  1.00  0.00    -0.248 NA
ATOM     33  C   UNL A   1      39.261  28.514  28.004  1.00  0.00     0.031 C 
ATOM     34  C   UNL A   1      37.652  31.449  31.738  1.00  0.00     0.029 A 
ATOM     35  N   UNL A   1      39.509  30.254  32.102  1.00  0.00    -0.354 N 
ATOM     36  C   UNL A   1      41.116  27.664  29.044  1.00  0.00     0.074 A 
ATOM     37  C   UNL A   1      40.292  27.695  27.853  1.00  0.00     0.031 C 
ATOM     38  C   UNL A   1      38.094  31.750  32.971  1.00  0.00     0.029 A 
ATOM     39  C   UNL A   1      39.286  30.954  33.261  1.00  0.00     0.049 A 
ATOM     40  H   UNL A   1      40.280  29.657  31.971  1.00  0.00     0.167 HD
ATOM     41  C   UNL A   1      42.263  26.955  29.162  1.00  0.00     0.037 A 
ATOM     42  C   UNL A   1      39.955  30.931  34.430  1.00  0.00     0.037 A 
ATOM     43  C   UNL A   1      43.076  26.918  30.349  1.00  0.00     0.049 A 
ATOM     44  C   UNL A   1      41.162  30.042  34.577  1.00  0.00     0.074 A 
ATOM     45  C   UNL A   1      44.263  26.239  30.563  1.00  0.00     0.029 A 
ATOM     46  N   UNL A   1      42.778  27.583  31.529  1.00  0.00    -0.354 N 
ATOM     47  N   UNL A   1      41.740  29.276  33.684  1.00  0.00    -0.248 NA
ATOM     48  C   UNL A   1      41.804  30.008  35.900  1.00  0.00     0.031 C 
ATOM     49  C   UNL A   1      44.656  26.452  31.888  1.00  0.00     0.029 A 
ATOM     50  C   UNL A   1      43.740  27.302  32.486  1.00  0.00     0.049 A 
ATOM     51  H   UNL A   1      41.998  28.168  31.667  1.00  0.00     0.167 HD
ATOM     52  C   UNL A   1      42.822  28.689  34.326  1.00  0.00     0.074 A 
ATOM     53  C   UNL A   1      42.828  29.194  35.683  1.00  0.00     0.031 C 
ATOM     54  C   UNL A   1      43.732  27.813  33.834  1.00  0.00     0.037 A 
BRANCH  41  55
ATOM     55  C   UNL A   1      42.692  26.134  27.981  1.00  0.00     0.064 A 
ATOM     56  C   UNL A   1      43.523  26.662  26.983  1.00  0.00     0.173 A 
ATOM     57  C   UNL A   1      42.286  24.798  27.861  1.00  0.00     0.173 A 
ATOM     58  F   UNL A   1      43.927  27.939  27.045  1.00  0.00    -0.203 F 
ATOM     59  C   UNL A   1      43.911  25.887  25.892  1.00  0.00     0.198 A 
ATOM     60  C   UNL A   1      42.696  24.018  26.783  1.00  0.00     0.198 A 
ATOM     61  F   UNL A   1      41.493  24.244  28.793  1.00  0.00    -0.203 F 
ATOM     62  F   UNL A   1      44.668  26.425  24.926  1.00  0.00    -0.200 F 
ATOM     63  C   UNL A   1      43.502  24.565  25.796  1.00  0.00     0.200 A 
ATOM     64  F   UNL A   1      42.309  22.737  26.698  1.00  0.00    -0.200 F 
ATOM     65  F   UNL A   1      43.878  23.820  24.748  1.00  0.00    -0.200 F 
ENDBRANCH  41  55
BRANCH  42  66
ATOM     66  C   UNL A   1      39.485  31.764  35.567  1.00  0.00     0.064 A 
ATOM     67  C   UNL A   1      38.508  31.291  36.453  1.00  0.00     0.173 A 
ATOM     68  C   UNL A   1      39.997  33.052  35.786  1.00  0.00     0.173 A 
ATOM     69  F   UNL A   1      37.968  30.078  36.268  1.00  0.00    -0.203 F 
ATOM     70  C   UNL A   1      38.053  32.078  37.509  1.00  0.00     0.198 A 
ATOM     71  C   UNL A   1      39.560  33.828  36.856  1.00  0.00     0.198 A 
ATOM     72  F   UNL A   1      40.930  33.552  34.963  1.00  0.00    -0.203 F 
ATOM     73  F   UNL A   1      37.089  31.618  38.319  1.00  0.00    -0.200 F 
ATOM     74  C   UNL A   1      38.584  33.343  37.714  1.00  0.00     0.200 A 
ATOM     75  F   UNL A   1      40.084  35.045  37.056  1.00  0.00    -0.200 F 
ATOM     76  F   UNL A   1      38.151  34.097  38.733  1.00  0.00    -0.200 F 
ENDBRANCH  42  66
BRANCH  54  77
ATOM     77  C   UNL A   1      44.824  27.357  34.758  1.00  0.00     0.064 A 
ATOM     78  C   UNL A   1      46.014  28.083  34.900  1.00  0.00     0.173 A 
ATOM     79  C   UNL A   1      44.654  26.209  35.547  1.00  0.00     0.173 A 
ATOM     80  F   UNL A   1      46.230  29.178  34.155  1.00  0.00    -0.203 F 
ATOM     81  C   UNL A   1      47.003  27.669  35.790  1.00  0.00     0.198 A 
ATOM     82  C   UNL A   1      45.633  25.813  36.455  1.00  0.00     0.198 A 
ATOM     83  F   UNL A   1      43.531  25.482  35.451  1.00  0.00    -0.203 F 
ATOM     84  F   UNL A   1      48.148  28.358  35.884  1.00  0.00    -0.200 F 
ATOM     85  C   UNL A   1      46.807  26.541  36.571  1.00  0.00     0.200 A 
ATOM     86  F   UNL A   1      45.437  24.729  37.217  1.00  0.00    -0.200 F 
ATOM     87  F   UNL A   1      47.755  26.150  37.435  1.00  0.00    -0.200 F 
ENDBRANCH  54  77
ENDBRANCH  28  29
ENDBRANCH  21  23
ENDBRANCH  20  21
ENDBRANCH  19  20
ENDBRANCH  18  19
ENDBRANCH  17  18
ENDBRANCH   1  17
TORSDOF 18
ENDMDL
MODEL 2
REMARK VINA RESULT:      -9.8      4.104      9.671
REMARK SMILES CCCC[C@H](C(=O)OCCOCCOC(=O)c1ccc(-c2c3nc(c(-c4c(F)c(F)c(F)c(F)c4F)c4ccc([nH]4)c(-c4c(F)c(F)c(F)c(F)c4F)c4nc(c(-c5c(F)c(F)c(F)c(F)c5F)c5ccc2[nH]5)C=C4)C=C3)cc1)c1ccnn1C
REMARK SMILES IDX 10 1 9 2 8 3 6 4 7 5 5 6 4 7 3 8 2 9 1 10 80 11 81 12 84 13
REMARK SMILES IDX 82 14 83 15 85 16 11 17 12 18 13 19 14 20 15 21 16 22 17 23
REMARK SMILES IDX 18 24 79 25 19 26 78 27 20 28 21 29 22 30 72 31 23 32 77 33
REMARK SMILES IDX 71 34 73 35 24 36 76 37 70 38 69 39 25 41 57 42 37 43 56 44
REMARK SMILES IDX 38 45 41 46 55 47 74 48 39 49 40 50 54 52 75 53 42 54 26 55
REMARK SMILES IDX 27 56 35 57 28 58 29 59 33 60 36 61 30 62 31 63 34 64 32 65
REMARK SMILES IDX 58 66 59 67 67 68 60 69 61 70 65 71 68 72 62 73 63 74 66 75
REMARK SMILES IDX 64 76 43 77 44 78 52 79 45 80 46 81 50 82 53 83 47 84 48 85
REMARK SMILES IDX 51 86 49 87
REMARK H PARENT 73 40 41 51
REMARK Flexibility Score: inf
ROOT
ATOM      1  C   UNL A   1      33.801  35.084  29.978  1.00  0.00     0.202 C 
ENDROOT
BRANCH   1   2
ATOM      2  C   UNL A   1      34.024  34.598  31.413  1.00  0.00     0.261 C 
BRANCH   2   3
ATOM      3  O   UNL A   1      35.418  34.452  31.734  1.00  0.00    -0.463 OA
BRANCH   3   4
ATOM      4  C   UNL A   1      35.716  33.414  32.571  1.00  0.00     0.315 C 
ATOM      5  O   UNL A   1      34.888  32.743  33.174  1.00  0.00    -0.251 OA
BRANCH   4   6
ATOM      6  C   UNL A   1      37.228  33.193  32.642  1.00  0.00     0.148 C 
BRANCH   6   7
ATOM      7  C   UNL A   1      37.946  34.515  32.292  1.00  0.00     0.022 C 
BRANCH   7   8
ATOM      8  C   UNL A   1      38.893  34.422  31.087  1.00  0.00     0.001 C 
BRANCH   8   9
ATOM      9  C   UNL A   1      38.261  34.474  29.693  1.00  0.00    -0.003 C 
ATOM     10  C   UNL A   1      37.864  33.120  29.131  1.00  0.00     0.004 C 
ENDBRANCH   8   9
ENDBRANCH   7   8
ENDBRANCH   6   7
BRANCH   6  11
ATOM     11  C   UNL A   1      37.566  32.691  34.025  1.00  0.00     0.052 A 
ATOM     12  C   UNL A   1      37.591  33.357  35.238  1.00  0.00     0.046 A 
ATOM     13  N   UNL A   1      37.869  31.383  34.329  1.00  0.00    -0.272 N 
ATOM     14  C   UNL A   1      37.925  32.384  36.191  1.00  0.00     0.135 A 
ATOM     15  N   UNL A   1      38.084  31.179  35.643  1.00  0.00    -0.182 NA
ATOM     16  C   UNL A   1      37.945  30.236  33.453  1.00  0.00     0.174 C 
ENDBRANCH   6  11
ENDBRANCH   4   6
ENDBRANCH   3   4
ENDBRANCH   2   3
ENDBRANCH   1   2
BRANCH   1  17
ATOM     17  O   UNL A   1      33.063  34.215  29.124  1.00  0.00    -0.374 OA
BRANCH  17  18
ATOM     18  C   UNL A   1      33.808  33.469  28.158  1.00  0.00     0.202 C 
BRANCH  18  19
ATOM     19  C   UNL A   1      34.267  32.078  28.610  1.00  0.00     0.261 C 
BRANCH  19  20
ATOM     20  O   UNL A   1      34.532  31.228  27.475  1.00  0.00    -0.460 OA
BRANCH  20  21
ATOM     21  C   UNL A   1      34.784  29.934  27.779  1.00  0.00     0.338 C 
ATOM     22  O   UNL A   1      34.072  28.963  27.558  1.00  0.00    -0.246 OA
BRANCH  21  23
ATOM     23  C   UNL A   1      36.164  29.793  28.272  1.00  0.00     0.060 A 
ATOM     24  C   UNL A   1      37.202  30.009  27.355  1.00  0.00     0.016 A 
ATOM     25  C   UNL A   1      36.446  29.390  29.579  1.00  0.00     0.016 A 
ATOM     26  C   UNL A   1      38.525  29.780  27.728  1.00  0.00     0.010 A 
ATOM     27  C   UNL A   1      37.774  29.149  29.949  1.00  0.00     0.010 A 
ATOM     28  C   UNL A   1      38.816  29.313  29.017  1.00  0.00    -0.014 A 
BRANCH  28  29
ATOM     29  C   UNL A   1      40.192  28.869  29.343  1.00  0.00     0.031 A 
ATOM     30  C   UNL A   1      41.060  29.746  30.202  1.00  0.00     0.074 A 
ATOM     31  C   UNL A   1      40.655  27.685  28.907  1.00  0.00     0.049 A 
ATOM     32  N   UNL A   1      42.303  29.575  30.576  1.00  0.00    -0.248 NA
ATOM     33  C   UNL A   1      40.440  30.978  30.712  1.00  0.00     0.031 C 
ATOM     34  C   UNL A   1      39.890  26.720  28.121  1.00  0.00     0.029 A 
ATOM     35  N   UNL A   1      41.884  27.094  29.065  1.00  0.00    -0.354 N 
ATOM     36  C   UNL A   1      42.613  30.675  31.366  1.00  0.00     0.074 A 
ATOM     37  C   UNL A   1      41.438  31.521  31.394  1.00  0.00     0.031 C 
ATOM     38  C   UNL A   1      40.671  25.659  27.857  1.00  0.00     0.029 A 
ATOM     39  C   UNL A   1      41.999  25.887  28.423  1.00  0.00     0.049 A 
ATOM     40  H   UNL A   1      42.612  27.499  29.589  1.00  0.00     0.167 HD
ATOM     41  C   UNL A   1      43.768  30.948  32.016  1.00  0.00     0.037 A 
ATOM     42  C   UNL A   1      43.065  25.075  28.288  1.00  0.00     0.037 A 
ATOM     43  C   UNL A   1      44.938  30.110  31.981  1.00  0.00     0.049 A 
ATOM     44  C   UNL A   1      44.376  25.460  28.923  1.00  0.00     0.074 A 
ATOM     45  C   UNL A   1      46.153  30.296  32.617  1.00  0.00     0.029 A 
ATOM     46  N   UNL A   1      45.041  28.931  31.259  1.00  0.00    -0.354 N 
ATOM     47  N   UNL A   1      44.659  26.493  29.677  1.00  0.00    -0.248 NA
ATOM     48  C   UNL A   1      45.519  24.567  28.677  1.00  0.00     0.031 C 
ATOM     49  C   UNL A   1      47.008  29.254  32.239  1.00  0.00     0.029 A 
ATOM     50  C   UNL A   1      46.310  28.395  31.406  1.00  0.00     0.049 A 
ATOM     51  H   UNL A   1      44.318  28.532  30.721  1.00  0.00     0.167 HD
ATOM     52  C   UNL A   1      46.000  26.365  30.016  1.00  0.00     0.074 A 
ATOM     53  C   UNL A   1      46.474  25.147  29.392  1.00  0.00     0.031 C 
ATOM     54  C   UNL A   1      46.768  27.181  30.778  1.00  0.00     0.037 A 
BRANCH  41  55
ATOM     55  C   UNL A   1      43.833  32.225  32.801  1.00  0.00     0.064 A 
ATOM     56  C   UNL A   1      44.200  33.438  32.202  1.00  0.00     0.173 A 
ATOM     57  C   UNL A   1      43.498  32.239  34.162  1.00  0.00     0.173 A 
ATOM     58  F   UNL A   1      44.542  33.475  30.906  1.00  0.00    -0.203 F 
ATOM     59  C   UNL A   1      44.256  34.616  32.945  1.00  0.00     0.198 A 
ATOM     60  C   UNL A   1      43.530  33.422  34.897  1.00  0.00     0.198 A 
ATOM     61  F   UNL A   1      43.135  31.105  34.782  1.00  0.00    -0.203 F 
ATOM     62  F   UNL A   1      44.654  35.755  32.363  1.00  0.00    -0.200 F 
ATOM     63  C   UNL A   1      43.916  34.607  34.289  1.00  0.00     0.200 A 
ATOM     64  F   UNL A   1      43.190  33.414  36.193  1.00  0.00    -0.200 F 
ATOM     65  F   UNL A   1      43.967  35.740  35.002  1.00  0.00    -0.200 F 
ENDBRANCH  41  55
BRANCH  42  66
ATOM     66  C   UNL A   1      42.945  23.822  27.499  1.00  0.00     0.064 A 
ATOM     67  C   UNL A   1      43.248  23.798  26.131  1.00  0.00     0.173 A 
ATOM     68  C   UNL A   1      42.517  22.626  28.094  1.00  0.00     0.173 A 
ATOM     69  F   UNL A   1      43.634  24.923  25.511  1.00  0.00    -0.203 F 
ATOM     70  C   UNL A   1      43.118  22.628  25.386  1.00  0.00     0.198 A 
ATOM     71  C   UNL A   1      42.411  21.451  27.354  1.00  0.00     0.198 A 
ATOM     72  F   UNL A   1      42.210  22.597  29.399  1.00  0.00    -0.203 F 
ATOM     73  F   UNL A   1      43.377  22.641  24.070  1.00  0.00    -0.200 F 
ATOM     74  C   UNL A   1      42.707  21.454  25.999  1.00  0.00     0.200 A 
ATOM     75  F   UNL A   1      42.024  20.317  27.953  1.00  0.00    -0.200 F 
ATOM     76  F   UNL A   1      42.587  20.327  25.283  1.00  0.00    -0.200 F 
ENDBRANCH  42  66
BRANCH  54  77
ATOM     77  C   UNL A   1      48.197  26.779  30.999  1.00  0.00     0.064 A 
ATOM     78  C   UNL A   1      49.229  27.267  30.186  1.00  0.00     0.173 A 
ATOM     79  C   UNL A   1      48.542  25.940  32.069  1.00  0.00     0.173 A 
ATOM     80  F   UNL A   1      48.949  28.059  29.141  1.00  0.00    -0.203 F 
ATOM     81  C   UNL A   1      50.556  26.916  30.427  1.00  0.00     0.198 A 
ATOM     82  C   UNL A   1      49.871  25.612  32.324  1.00  0.00     0.198 A 
ATOM     83  F   UNL A   1      47.591  25.451  32.879  1.00  0.00    -0.203 F 
ATOM     84  F   UNL A   1      51.524  27.364  29.616  1.00  0.00    -0.200 F 
ATOM     85  C   UNL A   1      50.875  26.097  31.500  1.00  0.00     0.200 A 
ATOM     86  F   UNL A   1      50.179  24.830  33.367  1.00  0.00    -0.200 F 
ATOM     87  F   UNL A   1      52.153  25.769  31.736  1.00  0.00    -0.200 F 
ENDBRANCH  54  77
ENDBRANCH  28  29
ENDBRANCH  21  23
ENDBRANCH  20  21
ENDBRANCH  19  20
ENDBRANCH  18  19
ENDBRANCH  17  18
ENDBRANCH   1  17
TORSDOF 18
ENDMDL
MODEL 3
REMARK VINA RESULT:      -9.8      4.040      6.373
REMARK SMILES CCCC[C@H](C(=O)OCCOCCOC(=O)c1ccc(-c2c3nc(c(-c4c(F)c(F)c(F)c(F)c4F)c4ccc([nH]4)c(-c4c(F)c(F)c(F)c(F)c4F)c4nc(c(-c5c(F)c(F)c(F)c(F)c5F)c5ccc2[nH]5)C=C4)C=C3)cc1)c1ccnn1C
REMARK SMILES IDX 10 1 9 2 8 3 6 4 7 5 5 6 4 7 3 8 2 9 1 10 80 11 81 12 84 13
REMARK SMILES IDX 82 14 83 15 85 16 11 17 12 18 13 19 14 20 15 21 16 22 17 23
REMARK SMILES IDX 18 24 79 25 19 26 78 27 20 28 21 29 22 30 72 31 23 32 77 33
REMARK SMILES IDX 71 34 73 35 24 36 76 37 70 38 69 39 25 41 57 42 37 43 56 44
REMARK SMILES IDX 38 45 41 46 55 47 74 48 39 49 40 50 54 52 75 53 42 54 26 55
REMARK SMILES IDX 27 56 35 57 28 58 29 59 33 60 36 61 30 62 31 63 34 64 32 65
REMARK SMILES IDX 58 66 59 67 67 68 60 69 61 70 65 71 68 72 62 73 63 74 66 75
REMARK SMILES IDX 64 76 43 77 44 78 52 79 45 80 46 81 50 82 53 83 47 84 48 85
REMARK SMILES IDX 51 86 49 87
REMARK H PARENT 73 40 41 51
REMARK Flexibility Score: inf
ROOT
ATOM      1  C   UNL A   1      33.754  35.315  29.688  1.00  0.00     0.202 C 
ENDROOT
BRANCH   1   2
ATOM      2  C   UNL A   1      33.491  35.221  31.193  1.00  0.00     0.261 C 
BRANCH   2   3
ATOM      3  O   UNL A   1      34.673  34.874  31.937  1.00  0.00    -0.463 OA
BRANCH   3   4
ATOM      4  C   UNL A   1      34.876  33.535  32.114  1.00  0.00     0.315 C 
ATOM      5  O   UNL A   1      34.025  32.671  31.946  1.00  0.00    -0.251 OA
BRANCH   4   6
ATOM      6  C   UNL A   1      36.320  33.259  32.536  1.00  0.00     0.148 C 
BRANCH   6   7
ATOM      7  C   UNL A   1      36.485  31.747  32.806  1.00  0.00     0.022 C 
BRANCH   7   8
ATOM      8  C   UNL A   1      37.364  31.412  34.020  1.00  0.00     0.001 C 
BRANCH   8   9
ATOM      9  C   UNL A   1      38.843  31.117  33.754  1.00  0.00    -0.003 C 
ATOM     10  C   UNL A   1      39.143  29.671  33.401  1.00  0.00     0.004 C 
ENDBRANCH   8   9
ENDBRANCH   7   8
ENDBRANCH   6   7
BRANCH   6  11
ATOM     11  C   UNL A   1      37.234  33.762  31.444  1.00  0.00     0.052 A 
ATOM     12  C   UNL A   1      37.073  33.759  30.069  1.00  0.00     0.046 A 
ATOM     13  N   UNL A   1      38.433  34.402  31.662  1.00  0.00    -0.272 N 
ATOM     14  C   UNL A   1      38.213  34.396  29.559  1.00  0.00     0.135 A 
ATOM     15  N   UNL A   1      39.037  34.799  30.525  1.00  0.00    -0.182 NA
ATOM     16  C   UNL A   1      39.083  34.724  32.912  1.00  0.00     0.174 C 
ENDBRANCH   6  11
ENDBRANCH   4   6
ENDBRANCH   3   4
ENDBRANCH   2   3
ENDBRANCH   1   2
BRANCH   1  17
ATOM     17  O   UNL A   1      32.726  34.821  28.835  1.00  0.00    -0.374 OA
BRANCH  17  18
ATOM     18  C   UNL A   1      33.064  33.727  27.979  1.00  0.00     0.202 C 
BRANCH  18  19
ATOM     19  C   UNL A   1      34.174  32.805  28.495  1.00  0.00     0.261 C 
BRANCH  19  20
ATOM     20  O   UNL A   1      34.672  31.956  27.441  1.00  0.00    -0.460 OA
BRANCH  20  21
ATOM     21  C   UNL A   1      34.597  30.629  27.694  1.00  0.00     0.338 C 
ATOM     22  O   UNL A   1      33.621  29.900  27.572  1.00  0.00    -0.246 OA
BRANCH  21  23
ATOM     23  C   UNL A   1      35.939  30.095  27.980  1.00  0.00     0.060 A 
ATOM     24  C   UNL A   1      36.198  29.667  29.289  1.00  0.00     0.016 A 
ATOM     25  C   UNL A   1      36.950  30.077  27.016  1.00  0.00     0.016 A 
ATOM     26  C   UNL A   1      37.480  29.259  29.652  1.00  0.00     0.010 A 
ATOM     27  C   UNL A   1      38.239  29.679  27.384  1.00  0.00     0.010 A 
ATOM     28  C   UNL A   1      38.517  29.298  28.711  1.00  0.00    -0.014 A 
BRANCH  28  29
ATOM     29  C   UNL A   1      39.914  29.070  29.151  1.00  0.00     0.031 A 
ATOM     30  C   UNL A   1      40.617  27.809  28.730  1.00  0.00     0.074 A 
ATOM     31  C   UNL A   1      40.563  29.989  29.887  1.00  0.00     0.049 A 
ATOM     32  N   UNL A   1      41.819  27.387  29.032  1.00  0.00    -0.248 NA
ATOM     33  C   UNL A   1      39.865  26.906  27.847  1.00  0.00     0.031 C 
ATOM     34  C   UNL A   1      40.012  31.276  30.304  1.00  0.00     0.029 A 
ATOM     35  N   UNL A   1      41.829  29.975  30.416  1.00  0.00    -0.354 N 
ATOM     36  C   UNL A   1      41.968  26.173  28.376  1.00  0.00     0.074 A 
ATOM     37  C   UNL A   1      40.724  25.911  27.683  1.00  0.00     0.031 C 
ATOM     38  C   UNL A   1      40.933  31.927  31.033  1.00  0.00     0.029 A 
ATOM     39  C   UNL A   1      42.122  31.087  31.165  1.00  0.00     0.049 A 
ATOM     40  H   UNL A   1      42.465  29.239  30.272  1.00  0.00     0.167 HD
ATOM     41  C   UNL A   1      43.047  25.356  28.346  1.00  0.00     0.037 A 
ATOM     42  C   UNL A   1      43.218  31.379  31.894  1.00  0.00     0.037 A 
ATOM     43  C   UNL A   1      44.281  25.614  29.041  1.00  0.00     0.049 A 
ATOM     44  C   UNL A   1      44.360  30.397  31.940  1.00  0.00     0.074 A 
ATOM     45  C   UNL A   1      45.436  24.852  29.062  1.00  0.00     0.029 A 
ATOM     46  N   UNL A   1      44.514  26.716  29.849  1.00  0.00    -0.354 N 
ATOM     47  N   UNL A   1      44.499  29.258  31.308  1.00  0.00    -0.248 NA
ATOM     48  C   UNL A   1      45.494  30.741  32.812  1.00  0.00     0.031 C 
ATOM     49  C   UNL A   1      46.350  25.469  29.924  1.00  0.00     0.029 A 
ATOM     50  C   UNL A   1      45.782  26.638  30.402  1.00  0.00     0.049 A 
ATOM     51  H   UNL A   1      43.873  27.447  30.007  1.00  0.00     0.167 HD
ATOM     52  C   UNL A   1      45.740  28.761  31.683  1.00  0.00     0.074 A 
ATOM     53  C   UNL A   1      46.320  29.727  32.593  1.00  0.00     0.031 C 
ATOM     54  C   UNL A   1      46.346  27.608  31.306  1.00  0.00     0.037 A 
BRANCH  41  55
ATOM     55  C   UNL A   1      42.930  24.087  27.553  1.00  0.00     0.064 A 
ATOM     56  C   UNL A   1      43.242  24.042  26.187  1.00  0.00     0.173 A 
ATOM     57  C   UNL A   1      42.524  22.898  28.174  1.00  0.00     0.173 A 
ATOM     58  F   UNL A   1      43.622  25.156  25.544  1.00  0.00    -0.203 F 
ATOM     59  C   UNL A   1      43.127  22.856  25.465  1.00  0.00     0.198 A 
ATOM     60  C   UNL A   1      42.434  21.708  27.456  1.00  0.00     0.198 A 
ATOM     61  F   UNL A   1      42.218  22.887  29.481  1.00  0.00    -0.203 F 
ATOM     62  F   UNL A   1      43.387  22.846  24.151  1.00  0.00    -0.200 F 
ATOM     63  C   UNL A   1      42.728  21.690  26.102  1.00  0.00     0.200 A 
ATOM     64  F   UNL A   1      42.059  20.580  28.075  1.00  0.00    -0.200 F 
ATOM     65  F   UNL A   1      42.621  20.549  25.407  1.00  0.00    -0.200 F 
ENDBRANCH  41  55
BRANCH  42  66
ATOM     66  C   UNL A   1      43.280  32.650  32.660  1.00  0.00     0.064 A 
ATOM     67  C   UNL A   1      42.740  32.743  33.950  1.00  0.00     0.173 A 
ATOM     68  C   UNL A   1      43.872  33.799  32.115  1.00  0.00     0.173 A 
ATOM     69  F   UNL A   1      42.139  31.679  34.502  1.00  0.00    -0.203 F 
ATOM     70  C   UNL A   1      42.781  33.940  34.662  1.00  0.00     0.198 A 
ATOM     71  C   UNL A   1      43.935  34.988  32.838  1.00  0.00     0.198 A 
ATOM     72  F   UNL A   1      44.398  33.763  30.883  1.00  0.00    -0.203 F 
ATOM     73  F   UNL A   1      42.223  34.013  35.879  1.00  0.00    -0.200 F 
ATOM     74  C   UNL A   1      43.385  35.059  34.109  1.00  0.00     0.200 A 
ATOM     75  F   UNL A   1      44.529  36.063  32.303  1.00  0.00    -0.200 F 
ATOM     76  F   UNL A   1      43.429  36.208  34.797  1.00  0.00    -0.200 F 
ENDBRANCH  42  66
BRANCH  54  77
ATOM     77  C   UNL A   1      47.715  27.333  31.857  1.00  0.00     0.064 A 
ATOM     78  C   UNL A   1      48.872  27.738  31.178  1.00  0.00     0.173 A 
ATOM     79  C   UNL A   1      47.868  26.706  33.103  1.00  0.00     0.173 A 
ATOM     80  F   UNL A   1      48.779  28.327  29.976  1.00  0.00    -0.203 F 
ATOM     81  C   UNL A   1      50.136  27.511  31.719  1.00  0.00     0.198 A 
ATOM     82  C   UNL A   1      49.131  26.504  33.653  1.00  0.00     0.198 A 
ATOM     83  F   UNL A   1      46.791  26.304  33.794  1.00  0.00    -0.203 F 
ATOM     84  F   UNL A   1      51.230  27.873  31.036  1.00  0.00    -0.200 F 
ATOM     85  C   UNL A   1      50.263  26.903  32.958  1.00  0.00     0.200 A 
ATOM     86  F   UNL A   1      49.251  25.927  34.856  1.00  0.00    -0.200 F 
ATOM     87  F   UNL A   1      51.479  26.695  33.483  1.00  0.00    -0.200 F 
ENDBRANCH  54  77
ENDBRANCH  28  29
ENDBRANCH  21  23
ENDBRANCH  20  21
ENDBRANCH  19  20
ENDBRANCH  18  19
ENDBRANCH  17  18
ENDBRANCH   1  17
TORSDOF 18
ENDMDL
