MODEL 1
REMARK VINA RESULT:     -12.0      0.000      0.000
REMARK SMILES Cc1cc(C(=O)OCCOCCOC(=O)c2ccc(-c3c4nc(c(-c5c(F)c(F)c(F)c(F)c5F)c5ccc([nH]5)c(-c5c(F)c(F)c(F)c(F)c5F)c5nc(c(-c6c(F)c(F)c(F)c(F)c6F)c6ccc3[nH]6)C=C5)C=C4)cc2)nc(N2CCN(c3ccccc3Cl)CC2)n1
REMARK SMILES IDX 10 1 9 2 8 3 7 4 5 5 6 6 4 7 1 8 2 9 3 10 94 11 80 12 79 13
REMARK SMILES IDX 81 14 82 15 93 16 83 17 92 18 84 19 85 20 86 21 90 22 87 23
REMARK SMILES IDX 89 24 91 25 88 26 11 27 12 28 13 29 14 30 15 31 16 32 17 33
REMARK SMILES IDX 78 34 18 35 77 36 19 37 20 38 21 39 71 40 22 41 76 42 70 43
REMARK SMILES IDX 72 44 23 45 75 46 69 47 68 48 24 50 56 51 36 52 55 53 37 54
REMARK SMILES IDX 40 55 54 56 73 57 38 58 39 59 53 61 74 62 41 63 25 64 26 65
REMARK SMILES IDX 34 66 27 67 28 68 32 69 35 70 29 71 30 72 33 73 31 74 57 75
REMARK SMILES IDX 58 76 66 77 59 78 60 79 64 80 67 81 61 82 62 83 65 84 63 85
REMARK SMILES IDX 42 86 43 87 51 88 44 89 45 90 49 91 52 92 46 93 47 94 50 95
REMARK SMILES IDX 48 96
REMARK H PARENT 72 49 40 60
REMARK Flexibility Score: inf
ROOT
ATOM      1  O   UNL A   1      40.353  20.489  26.808  1.00  0.00    -0.374 OA
ENDROOT
BRANCH   1   2
ATOM      2  C   UNL A   1      39.640  21.665  26.425  1.00  0.00     0.202 C 
BRANCH   2   3
ATOM      3  C   UNL A   1      38.529  21.464  25.392  1.00  0.00     0.261 C 
BRANCH   3   4
ATOM      4  O   UNL A   1      37.236  21.593  26.006  1.00  0.00    -0.459 OA
BRANCH   4   5
ATOM      5  C   UNL A   1      36.591  22.753  25.716  1.00  0.00     0.357 C 
ATOM      6  O   UNL A   1      37.045  23.881  25.824  1.00  0.00    -0.244 OA
BRANCH   5   7
ATOM      7  C   UNL A   1      35.276  22.449  25.098  1.00  0.00     0.154 A 
ATOM      8  C   UNL A   1      32.881  19.726  24.256  1.00  0.00     0.067 C 
ATOM      9  C   UNL A   1      33.537  21.063  24.436  1.00  0.00     0.044 A 
ATOM     10  C   UNL A   1      34.806  21.164  24.964  1.00  0.00     0.059 A 
ATOM     11  N   UNL A   1      32.803  22.150  24.107  1.00  0.00    -0.218 NA
ATOM     12  C   UNL A   1      33.371  23.357  24.232  1.00  0.00     0.226 A 
ATOM     13  N   UNL A   1      34.601  23.540  24.698  1.00  0.00    -0.206 NA
BRANCH  12  14
ATOM     14  N   UNL A   1      32.692  24.492  23.905  1.00  0.00    -0.337 N 
ATOM     15  C   UNL A   1      32.205  25.378  24.955  1.00  0.00     0.141 C 
ATOM     16  C   UNL A   1      31.923  24.460  22.661  1.00  0.00     0.141 C 
ATOM     17  C   UNL A   1      32.092  26.816  24.387  1.00  0.00     0.138 C 
ATOM     18  C   UNL A   1      31.743  25.888  22.101  1.00  0.00     0.138 C 
ATOM     19  N   UNL A   1      31.280  26.796  23.163  1.00  0.00    -0.367 N 
BRANCH  19  20
ATOM     20  C   UNL A   1      30.393  27.812  22.871  1.00  0.00     0.056 A 
ATOM     21  C   UNL A   1      30.834  28.978  22.227  1.00  0.00     0.027 A 
ATOM     22  C   UNL A   1      29.028  27.741  23.225  1.00  0.00     0.064 A 
ATOM     23  C   UNL A   1      29.958  30.033  21.950  1.00  0.00     0.002 A 
ATOM     24  C   UNL A   1      28.153  28.798  22.957  1.00  0.00     0.023 A 
ATOM     25  Cl  UNL A   1      28.381  26.379  24.084  1.00  0.00    -0.082 Cl
ATOM     26  C   UNL A   1      28.619  29.945  22.319  1.00  0.00     0.002 A 
ENDBRANCH  19  20
ENDBRANCH  12  14
ENDBRANCH   5   7
ENDBRANCH   4   5
ENDBRANCH   3   4
ENDBRANCH   2   3
ENDBRANCH   1   2
BRANCH   1  27
ATOM     27  C   UNL A   1      41.777  20.588  26.886  1.00  0.00     0.202 C 
BRANCH  27  28
ATOM     28  C   UNL A   1      42.446  21.429  25.792  1.00  0.00     0.261 C 
BRANCH  28  29
ATOM     29  O   UNL A   1      43.286  22.460  26.348  1.00  0.00    -0.460 OA
BRANCH  29  30
ATOM     30  C   UNL A   1      43.266  23.636  25.680  1.00  0.00     0.338 C 
ATOM     31  O   UNL A   1      43.550  23.830  24.505  1.00  0.00    -0.246 OA
BRANCH  30  32
ATOM     32  C   UNL A   1      42.669  24.687  26.526  1.00  0.00     0.060 A 
ATOM     33  C   UNL A   1      43.300  25.937  26.547  1.00  0.00     0.016 A 
ATOM     34  C   UNL A   1      41.557  24.440  27.334  1.00  0.00     0.016 A 
ATOM     35  C   UNL A   1      42.850  26.934  27.411  1.00  0.00     0.010 A 
ATOM     36  C   UNL A   1      41.111  25.439  28.208  1.00  0.00     0.010 A 
ATOM     37  C   UNL A   1      41.776  26.678  28.274  1.00  0.00    -0.014 A 
BRANCH  37  38
ATOM     38  C   UNL A   1      41.442  27.656  29.337  1.00  0.00     0.031 A 
ATOM     39  C   UNL A   1      42.270  27.683  30.592  1.00  0.00     0.074 A 
ATOM     40  C   UNL A   1      40.431  28.530  29.177  1.00  0.00     0.049 A 
ATOM     41  N   UNL A   1      42.136  28.426  31.662  1.00  0.00    -0.248 NA
ATOM     42  C   UNL A   1      43.403  26.745  30.649  1.00  0.00     0.031 C 
ATOM     43  C   UNL A   1      39.581  28.629  27.993  1.00  0.00     0.029 A 
ATOM     44  N   UNL A   1      39.948  29.497  30.023  1.00  0.00    -0.354 N 
ATOM     45  C   UNL A   1      43.162  28.045  32.516  1.00  0.00     0.074 A 
ATOM     46  C   UNL A   1      43.892  26.983  31.857  1.00  0.00     0.031 C 
ATOM     47  C   UNL A   1      38.670  29.597  28.192  1.00  0.00     0.029 A 
ATOM     48  C   UNL A   1      38.854  30.163  29.528  1.00  0.00     0.049 A 
ATOM     49  H   UNL A   1      40.345  29.694  30.902  1.00  0.00     0.167 HD
ATOM     50  C   UNL A   1      43.473  28.542  33.737  1.00  0.00     0.037 A 
ATOM     51  C   UNL A   1      38.079  31.105  30.098  1.00  0.00     0.037 A 
ATOM     52  C   UNL A   1      42.750  29.600  34.393  1.00  0.00     0.049 A 
ATOM     53  C   UNL A   1      38.405  31.592  31.487  1.00  0.00     0.074 A 
ATOM     54  C   UNL A   1      42.998  30.182  35.623  1.00  0.00     0.029 A 
ATOM     55  N   UNL A   1      41.630  30.230  33.870  1.00  0.00    -0.354 N 
ATOM     56  N   UNL A   1      39.390  31.243  32.278  1.00  0.00    -0.248 NA
ATOM     57  C   UNL A   1      37.509  32.608  32.061  1.00  0.00     0.031 C 
ATOM     58  C   UNL A   1      42.002  31.133  35.867  1.00  0.00     0.029 A 
ATOM     59  C   UNL A   1      41.163  31.179  34.765  1.00  0.00     0.049 A 
ATOM     60  H   UNL A   1      41.228  30.033  32.994  1.00  0.00     0.167 HD
ATOM     61  C   UNL A   1      39.252  32.013  33.425  1.00  0.00     0.074 A 
ATOM     62  C   UNL A   1      38.094  32.859  33.223  1.00  0.00     0.031 C 
ATOM     63  C   UNL A   1      40.015  32.021  34.546  1.00  0.00     0.037 A 
BRANCH  50  64
ATOM     64  C   UNL A   1      44.641  27.936  34.457  1.00  0.00     0.064 A 
ATOM     65  C   UNL A   1      45.934  28.469  34.342  1.00  0.00     0.173 A 
ATOM     66  C   UNL A   1      44.457  26.838  35.310  1.00  0.00     0.173 A 
ATOM     67  F   UNL A   1      46.164  29.511  33.528  1.00  0.00    -0.203 F 
ATOM     68  C   UNL A   1      47.002  27.913  35.041  1.00  0.00     0.198 A 
ATOM     69  C   UNL A   1      45.523  26.301  36.027  1.00  0.00     0.198 A 
ATOM     70  F   UNL A   1      43.240  26.293  35.458  1.00  0.00    -0.203 F 
ATOM     71  F   UNL A   1      48.235  28.416  34.887  1.00  0.00    -0.200 F 
ATOM     72  C   UNL A   1      46.794  26.836  35.889  1.00  0.00     0.200 A 
ATOM     73  F   UNL A   1      45.319  25.267  36.856  1.00  0.00    -0.200 F 
ATOM     74  F   UNL A   1      47.822  26.309  36.569  1.00  0.00    -0.200 F 
ENDBRANCH  50  64
BRANCH  51  75
ATOM     75  C   UNL A   1      36.903  31.646  29.366  1.00  0.00     0.064 A 
ATOM     76  C   UNL A   1      36.873  32.976  28.924  1.00  0.00     0.173 A 
ATOM     77  C   UNL A   1      35.772  30.853  29.123  1.00  0.00     0.173 A 
ATOM     78  F   UNL A   1      37.919  33.782  29.158  1.00  0.00    -0.203 F 
ATOM     79  C   UNL A   1      35.748  33.498  28.288  1.00  0.00     0.198 A 
ATOM     80  C   UNL A   1      34.660  31.367  28.460  1.00  0.00     0.198 A 
ATOM     81  F   UNL A   1      35.749  29.574  29.527  1.00  0.00    -0.203 F 
ATOM     82  F   UNL A   1      35.726  34.787  27.924  1.00  0.00    -0.200 F 
ATOM     83  C   UNL A   1      34.645  32.691  28.052  1.00  0.00     0.200 A 
ATOM     84  F   UNL A   1      33.600  30.581  28.226  1.00  0.00    -0.200 F 
ATOM     85  F   UNL A   1      33.563  33.194  27.442  1.00  0.00    -0.200 F 
ENDBRANCH  51  75
BRANCH  63  86
ATOM     86  C   UNL A   1      39.648  32.998  35.625  1.00  0.00     0.064 A 
ATOM     87  C   UNL A   1      38.756  32.658  36.653  1.00  0.00     0.173 A 
ATOM     88  C   UNL A   1      40.230  34.275  35.655  1.00  0.00     0.173 A 
ATOM     89  F   UNL A   1      38.162  31.455  36.662  1.00  0.00    -0.203 F 
ATOM     90  C   UNL A   1      38.442  33.570  37.657  1.00  0.00     0.198 A 
ATOM     91  C   UNL A   1      39.935  35.173  36.675  1.00  0.00     0.198 A 
ATOM     92  F   UNL A   1      41.095  34.646  34.699  1.00  0.00    -0.203 F 
ATOM     93  F   UNL A   1      37.552  33.242  38.604  1.00  0.00    -0.200 F 
ATOM     94  C   UNL A   1      39.036  34.823  37.672  1.00  0.00     0.200 A 
ATOM     95  F   UNL A   1      40.521  36.378  36.696  1.00  0.00    -0.200 F 
ATOM     96  F   UNL A   1      38.738  35.697  38.643  1.00  0.00    -0.200 F 
ENDBRANCH  63  86
ENDBRANCH  37  38
ENDBRANCH  30  32
ENDBRANCH  29  30
ENDBRANCH  28  29
ENDBRANCH  27  28
ENDBRANCH   1  27
TORSDOF 16
ENDMDL
MODEL 2
REMARK VINA RESULT:     -11.9      5.208      7.368
REMARK SMILES Cc1cc(C(=O)OCCOCCOC(=O)c2ccc(-c3c4nc(c(-c5c(F)c(F)c(F)c(F)c5F)c5ccc([nH]5)c(-c5c(F)c(F)c(F)c(F)c5F)c5nc(c(-c6c(F)c(F)c(F)c(F)c6F)c6ccc3[nH]6)C=C5)C=C4)cc2)nc(N2CCN(c3ccccc3Cl)CC2)n1
REMARK SMILES IDX 10 1 9 2 8 3 7 4 5 5 6 6 4 7 1 8 2 9 3 10 94 11 80 12 79 13
REMARK SMILES IDX 81 14 82 15 93 16 83 17 92 18 84 19 85 20 86 21 90 22 87 23
REMARK SMILES IDX 89 24 91 25 88 26 11 27 12 28 13 29 14 30 15 31 16 32 17 33
REMARK SMILES IDX 78 34 18 35 77 36 19 37 20 38 21 39 71 40 22 41 76 42 70 43
REMARK SMILES IDX 72 44 23 45 75 46 69 47 68 48 24 50 56 51 36 52 55 53 37 54
REMARK SMILES IDX 40 55 54 56 73 57 38 58 39 59 53 61 74 62 41 63 25 64 26 65
REMARK SMILES IDX 34 66 27 67 28 68 32 69 35 70 29 71 30 72 33 73 31 74 57 75
REMARK SMILES IDX 58 76 66 77 59 78 60 79 64 80 67 81 61 82 62 83 65 84 63 85
REMARK SMILES IDX 42 86 43 87 51 88 44 89 45 90 49 91 52 92 46 93 47 94 50 95
REMARK SMILES IDX 48 96
REMARK H PARENT 72 49 40 60
REMARK Flexibility Score: inf
ROOT
ATOM      1  O   UNL A   1      41.970  21.231  27.060  1.00  0.00    -0.374 OA
ENDROOT
BRANCH   1   2
ATOM      2  C   UNL A   1      41.001  21.706  26.126  1.00  0.00     0.202 C 
BRANCH   2   3
ATOM      3  C   UNL A   1      39.646  22.105  26.716  1.00  0.00     0.261 C 
BRANCH   3   4
ATOM      4  O   UNL A   1      38.588  21.848  25.777  1.00  0.00    -0.459 OA
BRANCH   4   5
ATOM      5  C   UNL A   1      37.702  22.867  25.639  1.00  0.00     0.357 C 
ATOM      6  O   UNL A   1      37.943  24.058  25.756  1.00  0.00    -0.244 OA
BRANCH   5   7
ATOM      7  C   UNL A   1      36.398  22.332  25.171  1.00  0.00     0.154 A 
ATOM      8  C   UNL A   1      34.417  19.228  24.628  1.00  0.00     0.067 C 
ATOM      9  C   UNL A   1      34.856  20.659  24.720  1.00  0.00     0.044 A 
ATOM     10  C   UNL A   1      36.138  20.984  25.105  1.00  0.00     0.059 A 
ATOM     11  N   UNL A   1      33.920  21.600  24.459  1.00  0.00    -0.218 NA
ATOM     12  C   UNL A   1      34.288  22.887  24.507  1.00  0.00     0.226 A 
ATOM     13  N   UNL A   1      35.513  23.284  24.834  1.00  0.00    -0.206 NA
BRANCH  12  14
ATOM     14  N   UNL A   1      33.398  23.884  24.241  1.00  0.00    -0.337 N 
ATOM     15  C   UNL A   1      32.726  23.934  22.949  1.00  0.00     0.141 C 
ATOM     16  C   UNL A   1      33.624  25.162  24.917  1.00  0.00     0.141 C 
ATOM     17  C   UNL A   1      31.372  24.670  23.115  1.00  0.00     0.138 C 
ATOM     18  C   UNL A   1      32.299  25.946  25.045  1.00  0.00     0.138 C 
ATOM     19  N   UNL A   1      31.599  25.976  23.750  1.00  0.00    -0.367 N 
BRANCH  19  20
ATOM     20  C   UNL A   1      30.886  27.094  23.371  1.00  0.00     0.056 A 
ATOM     21  C   UNL A   1      29.492  27.137  23.532  1.00  0.00     0.027 A 
ATOM     22  C   UNL A   1      31.508  28.219  22.788  1.00  0.00     0.064 A 
ATOM     23  C   UNL A   1      28.746  28.248  23.126  1.00  0.00     0.002 A 
ATOM     24  C   UNL A   1      30.762  29.327  22.374  1.00  0.00     0.023 A 
ATOM     25  Cl  UNL A   1      33.215  28.256  22.478  1.00  0.00    -0.082 Cl
ATOM     26  C   UNL A   1      29.380  29.342  22.543  1.00  0.00     0.002 A 
ENDBRANCH  19  20
ENDBRANCH  12  14
ENDBRANCH   5   7
ENDBRANCH   4   5
ENDBRANCH   3   4
ENDBRANCH   2   3
ENDBRANCH   1   2
BRANCH   1  27
ATOM     27  C   UNL A   1      42.194  19.819  27.106  1.00  0.00     0.202 C 
BRANCH  27  28
ATOM     28  C   UNL A   1      42.528  19.157  25.764  1.00  0.00     0.261 C 
BRANCH  28  29
ATOM     29  O   UNL A   1      43.949  18.986  25.591  1.00  0.00    -0.460 OA
BRANCH  29  30
ATOM     30  C   UNL A   1      44.462  19.559  24.479  1.00  0.00     0.338 C 
ATOM     31  O   UNL A   1      44.485  19.098  23.345  1.00  0.00    -0.246 OA
BRANCH  30  32
ATOM     32  C   UNL A   1      44.862  20.949  24.767  1.00  0.00     0.060 A 
ATOM     33  C   UNL A   1      45.365  21.227  26.044  1.00  0.00     0.016 A 
ATOM     34  C   UNL A   1      44.689  21.975  23.835  1.00  0.00     0.016 A 
ATOM     35  C   UNL A   1      45.654  22.540  26.413  1.00  0.00     0.010 A 
ATOM     36  C   UNL A   1      44.971  23.294  24.209  1.00  0.00     0.010 A 
ATOM     37  C   UNL A   1      45.422  23.586  25.510  1.00  0.00    -0.014 A 
BRANCH  37  38
ATOM     38  C   UNL A   1      45.522  24.991  25.974  1.00  0.00     0.031 A 
ATOM     39  C   UNL A   1      46.848  25.696  25.887  1.00  0.00     0.074 A 
ATOM     40  C   UNL A   1      44.441  25.641  26.442  1.00  0.00     0.049 A 
ATOM     41  N   UNL A   1      47.172  26.907  26.266  1.00  0.00    -0.248 NA
ATOM     42  C   UNL A   1      47.957  24.935  25.291  1.00  0.00     0.031 C 
ATOM     43  C   UNL A   1      43.096  25.080  26.540  1.00  0.00     0.029 A 
ATOM     44  N   UNL A   1      44.312  26.918  26.928  1.00  0.00    -0.354 N 
ATOM     45  C   UNL A   1      48.519  27.050  25.958  1.00  0.00     0.074 A 
ATOM     46  C   UNL A   1      48.960  25.794  25.390  1.00  0.00     0.031 C 
ATOM     47  C   UNL A   1      42.276  26.006  27.067  1.00  0.00     0.029 A 
ATOM     48  C   UNL A   1      43.045  27.211  27.371  1.00  0.00     0.049 A 
ATOM     49  H   UNL A   1      45.055  27.563  26.959  1.00  0.00     0.167 HD
ATOM     50  C   UNL A   1      49.312  28.134  26.126  1.00  0.00     0.037 A 
ATOM     51  C   UNL A   1      42.570  28.319  27.972  1.00  0.00     0.037 A 
ATOM     52  C   UNL A   1      48.874  29.384  26.689  1.00  0.00     0.049 A 
ATOM     53  C   UNL A   1      43.493  29.486  28.211  1.00  0.00     0.074 A 
ATOM     54  C   UNL A   1      49.601  30.545  26.884  1.00  0.00     0.029 A 
ATOM     55  N   UNL A   1      47.590  29.633  27.151  1.00  0.00    -0.354 N 
ATOM     56  N   UNL A   1      44.758  29.622  27.895  1.00  0.00    -0.248 NA
ATOM     57  C   UNL A   1      42.917  30.658  28.889  1.00  0.00     0.031 C 
ATOM     58  C   UNL A   1      48.770  31.482  27.508  1.00  0.00     0.029 A 
ATOM     59  C   UNL A   1      47.512  30.922  27.653  1.00  0.00     0.049 A 
ATOM     60  H   UNL A   1      46.846  28.990  27.126  1.00  0.00     0.167 HD
ATOM     61  C   UNL A   1      45.121  30.897  28.306  1.00  0.00     0.074 A 
ATOM     62  C   UNL A   1      43.939  31.503  28.884  1.00  0.00     0.031 C 
ATOM     63  C   UNL A   1      46.325  31.514  28.215  1.00  0.00     0.037 A 
BRANCH  50  64
ATOM     64  C   UNL A   1      50.749  28.014  25.710  1.00  0.00     0.064 A 
ATOM     65  C   UNL A   1      51.769  27.779  26.645  1.00  0.00     0.173 A 
ATOM     66  C   UNL A   1      51.105  28.084  24.355  1.00  0.00     0.173 A 
ATOM     67  F   UNL A   1      51.482  27.717  27.955  1.00  0.00    -0.203 F 
ATOM     68  C   UNL A   1      53.093  27.640  26.240  1.00  0.00     0.198 A 
ATOM     69  C   UNL A   1      52.426  27.918  23.951  1.00  0.00     0.198 A 
ATOM     70  F   UNL A   1      50.166  28.302  23.421  1.00  0.00    -0.203 F 
ATOM     71  F   UNL A   1      54.056  27.454  27.154  1.00  0.00    -0.200 F 
ATOM     72  C   UNL A   1      53.419  27.700  24.893  1.00  0.00     0.200 A 
ATOM     73  F   UNL A   1      52.738  27.965  22.648  1.00  0.00    -0.200 F 
ATOM     74  F   UNL A   1      54.694  27.554  24.505  1.00  0.00    -0.200 F 
ENDBRANCH  50  64
BRANCH  51  75
ATOM     75  C   UNL A   1      41.149  28.378  28.410  1.00  0.00     0.064 A 
ATOM     76  C   UNL A   1      40.152  28.889  27.568  1.00  0.00     0.173 A 
ATOM     77  C   UNL A   1      40.768  27.955  29.691  1.00  0.00     0.173 A 
ATOM     78  F   UNL A   1      40.473  29.332  26.343  1.00  0.00    -0.203 F 
ATOM     79  C   UNL A   1      38.832  28.996  28.000  1.00  0.00     0.198 A 
ATOM     80  C   UNL A   1      39.442  28.034  30.111  1.00  0.00     0.198 A 
ATOM     81  F   UNL A   1      41.684  27.460  30.537  1.00  0.00    -0.203 F 
ATOM     82  F   UNL A   1      37.908  29.537  27.193  1.00  0.00    -0.200 F 
ATOM     83  C   UNL A   1      38.477  28.564  29.268  1.00  0.00     0.200 A 
ATOM     84  F   UNL A   1      39.102  27.607  31.334  1.00  0.00    -0.200 F 
ATOM     85  F   UNL A   1      37.207  28.668  29.684  1.00  0.00    -0.200 F 
ENDBRANCH  51  75
BRANCH  63  86
ATOM     86  C   UNL A   1      46.418  32.927  28.715  1.00  0.00     0.064 A 
ATOM     87  C   UNL A   1      46.792  33.217  30.035  1.00  0.00     0.173 A 
ATOM     88  C   UNL A   1      46.172  34.004  27.849  1.00  0.00     0.173 A 
ATOM     89  F   UNL A   1      47.025  32.224  30.905  1.00  0.00    -0.203 F 
ATOM     90  C   UNL A   1      46.892  34.534  30.476  1.00  0.00     0.198 A 
ATOM     91  C   UNL A   1      46.300  35.318  28.285  1.00  0.00     0.198 A 
ATOM     92  F   UNL A   1      45.818  33.779  26.574  1.00  0.00    -0.203 F 
ATOM     93  F   UNL A   1      47.206  34.789  31.753  1.00  0.00    -0.200 F 
ATOM     94  C   UNL A   1      46.654  35.583  29.600  1.00  0.00     0.200 A 
ATOM     95  F   UNL A   1      46.083  36.330  27.434  1.00  0.00    -0.200 F 
ATOM     96  F   UNL A   1      46.757  36.850  30.024  1.00  0.00    -0.200 F 
ENDBRANCH  63  86
ENDBRANCH  37  38
ENDBRANCH  30  32
ENDBRANCH  29  30
ENDBRANCH  28  29
ENDBRANCH  27  28
ENDBRANCH   1  27
TORSDOF 16
ENDMDL
MODEL 3
REMARK VINA RESULT:     -11.8      5.900     12.123
REMARK SMILES Cc1cc(C(=O)OCCOCCOC(=O)c2ccc(-c3c4nc(c(-c5c(F)c(F)c(F)c(F)c5F)c5ccc([nH]5)c(-c5c(F)c(F)c(F)c(F)c5F)c5nc(c(-c6c(F)c(F)c(F)c(F)c6F)c6ccc3[nH]6)C=C5)C=C4)cc2)nc(N2CCN(c3ccccc3Cl)CC2)n1
REMARK SMILES IDX 10 1 9 2 8 3 7 4 5 5 6 6 4 7 1 8 2 9 3 10 94 11 80 12 79 13
REMARK SMILES IDX 81 14 82 15 93 16 83 17 92 18 84 19 85 20 86 21 90 22 87 23
REMARK SMILES IDX 89 24 91 25 88 26 11 27 12 28 13 29 14 30 15 31 16 32 17 33
REMARK SMILES IDX 78 34 18 35 77 36 19 37 20 38 21 39 71 40 22 41 76 42 70 43
REMARK SMILES IDX 72 44 23 45 75 46 69 47 68 48 24 50 56 51 36 52 55 53 37 54
REMARK SMILES IDX 40 55 54 56 73 57 38 58 39 59 53 61 74 62 41 63 25 64 26 65
REMARK SMILES IDX 34 66 27 67 28 68 32 69 35 70 29 71 30 72 33 73 31 74 57 75
REMARK SMILES IDX 58 76 66 77 59 78 60 79 64 80 67 81 61 82 62 83 65 84 63 85
REMARK SMILES IDX 42 86 43 87 51 88 44 89 45 90 49 91 52 92 46 93 47 94 50 95
REMARK SMILES IDX 48 96
REMARK H PARENT 72 49 40 60
REMARK Flexibility Score: inf
ROOT
ATOM      1  O   UNL A   1      33.803  34.000  31.813  1.00  0.00    -0.374 OA
ENDROOT
BRANCH   1   2
ATOM      2  C   UNL A   1      34.637  34.441  32.884  1.00  0.00     0.202 C 
BRANCH   2   3
ATOM      3  C   UNL A   1      35.235  33.337  33.760  1.00  0.00     0.261 C 
BRANCH   3   4
ATOM      4  O   UNL A   1      36.654  33.241  33.555  1.00  0.00    -0.459 OA
BRANCH   4   5
ATOM      5  C   UNL A   1      37.144  31.975  33.608  1.00  0.00     0.357 C 
ATOM      6  O   UNL A   1      36.709  31.005  33.007  1.00  0.00    -0.244 OA
BRANCH   5   7
ATOM      7  C   UNL A   1      38.397  31.960  34.403  1.00  0.00     0.154 A 
ATOM      8  C   UNL A   1      40.368  33.774  36.987  1.00  0.00     0.067 C 
ATOM      9  C   UNL A   1      39.892  32.767  35.983  1.00  0.00     0.044 A 
ATOM     10  C   UNL A   1      38.731  32.973  35.270  1.00  0.00     0.059 A 
ATOM     11  N   UNL A   1      40.626  31.638  35.858  1.00  0.00    -0.218 NA
ATOM     12  C   UNL A   1      40.241  30.732  34.949  1.00  0.00     0.226 A 
ATOM     13  N   UNL A   1      39.155  30.869  34.196  1.00  0.00    -0.206 NA
BRANCH  12  14
ATOM     14  N   UNL A   1      40.944  29.580  34.762  1.00  0.00    -0.337 N 
ATOM     15  C   UNL A   1      40.610  28.696  33.653  1.00  0.00     0.141 C 
ATOM     16  C   UNL A   1      41.506  28.953  35.959  1.00  0.00     0.141 C 
ATOM     17  C   UNL A   1      41.872  27.884  33.259  1.00  0.00     0.138 C 
ATOM     18  C   UNL A   1      42.732  28.090  35.589  1.00  0.00     0.138 C 
ATOM     19  N   UNL A   1      42.412  27.214  34.450  1.00  0.00    -0.367 N 
BRANCH  19  20
ATOM     20  C   UNL A   1      42.942  25.941  34.381  1.00  0.00     0.056 A 
ATOM     21  C   UNL A   1      44.025  25.667  33.532  1.00  0.00     0.027 A 
ATOM     22  C   UNL A   1      42.411  24.867  35.127  1.00  0.00     0.064 A 
ATOM     23  C   UNL A   1      44.557  24.378  33.423  1.00  0.00     0.002 A 
ATOM     24  C   UNL A   1      42.936  23.576  35.013  1.00  0.00     0.023 A 
ATOM     25  Cl  UNL A   1      41.031  25.070  36.159  1.00  0.00    -0.082 Cl
ATOM     26  C   UNL A   1      44.009  23.331  34.160  1.00  0.00     0.002 A 
ENDBRANCH  19  20
ENDBRANCH  12  14
ENDBRANCH   5   7
ENDBRANCH   4   5
ENDBRANCH   3   4
ENDBRANCH   2   3
ENDBRANCH   1   2
BRANCH   1  27
ATOM     27  C   UNL A   1      34.427  33.799  30.542  1.00  0.00     0.202 C 
BRANCH  27  28
ATOM     28  C   UNL A   1      34.768  32.346  30.192  1.00  0.00     0.261 C 
BRANCH  28  29
ATOM     29  O   UNL A   1      35.008  32.179  28.780  1.00  0.00    -0.460 OA
BRANCH  29  30
ATOM     30  C   UNL A   1      34.907  30.907  28.331  1.00  0.00     0.338 C 
ATOM     31  O   UNL A   1      33.946  30.386  27.778  1.00  0.00    -0.246 OA
BRANCH  30  32
ATOM     32  C   UNL A   1      36.213  30.230  28.434  1.00  0.00     0.060 A 
ATOM     33  C   UNL A   1      36.503  29.562  29.631  1.00  0.00     0.016 A 
ATOM     34  C   UNL A   1      37.163  30.299  27.412  1.00  0.00     0.016 A 
ATOM     35  C   UNL A   1      37.763  29.001  29.831  1.00  0.00     0.010 A 
ATOM     36  C   UNL A   1      38.430  29.742  27.618  1.00  0.00     0.010 A 
ATOM     37  C   UNL A   1      38.747  29.120  28.840  1.00  0.00    -0.014 A 
BRANCH  37  38
ATOM     38  C   UNL A   1      40.142  28.716  29.141  1.00  0.00     0.031 A 
ATOM     39  C   UNL A   1      41.013  29.641  29.946  1.00  0.00     0.074 A 
ATOM     40  C   UNL A   1      40.620  27.529  28.727  1.00  0.00     0.049 A 
ATOM     41  N   UNL A   1      42.268  29.508  30.295  1.00  0.00    -0.248 NA
ATOM     42  C   UNL A   1      40.383  30.883  30.423  1.00  0.00     0.031 C 
ATOM     43  C   UNL A   1      39.864  26.531  27.975  1.00  0.00     0.029 A 
ATOM     44  N   UNL A   1      41.864  26.967  28.880  1.00  0.00    -0.354 N 
ATOM     45  C   UNL A   1      42.577  30.647  31.028  1.00  0.00     0.074 A 
ATOM     46  C   UNL A   1      41.391  31.475  31.048  1.00  0.00     0.031 C 
ATOM     47  C   UNL A   1      40.664  25.481  27.720  1.00  0.00     0.029 A 
ATOM     48  C   UNL A   1      41.995  25.747  28.264  1.00  0.00     0.049 A 
ATOM     49  H   UNL A   1      42.593  27.398  29.382  1.00  0.00     0.167 HD
ATOM     50  C   UNL A   1      43.744  30.967  31.636  1.00  0.00     0.037 A 
ATOM     51  C   UNL A   1      43.072  24.949  28.137  1.00  0.00     0.037 A 
ATOM     52  C   UNL A   1      44.924  30.143  31.619  1.00  0.00     0.049 A 
ATOM     53  C   UNL A   1      44.379  25.364  28.765  1.00  0.00     0.074 A 
ATOM     54  C   UNL A   1      46.148  30.376  32.220  1.00  0.00     0.029 A 
ATOM     55  N   UNL A   1      45.026  28.927  30.960  1.00  0.00    -0.354 N 
ATOM     56  N   UNL A   1      44.656  26.430  29.475  1.00  0.00    -0.248 NA
ATOM     57  C   UNL A   1      45.523  24.458  28.574  1.00  0.00     0.031 C 
ATOM     58  C   UNL A   1      47.007  29.323  31.887  1.00  0.00     0.029 A 
ATOM     59  C   UNL A   1      46.301  28.409  31.122  1.00  0.00     0.049 A 
ATOM     60  H   UNL A   1      44.300  28.496  30.455  1.00  0.00     0.167 HD
ATOM     61  C   UNL A   1      45.991  26.311  29.840  1.00  0.00     0.074 A 
ATOM     62  C   UNL A   1      46.466  25.061  29.284  1.00  0.00     0.031 C 
ATOM     63  C   UNL A   1      46.756  27.159  30.571  1.00  0.00     0.037 A 
BRANCH  50  64
ATOM     64  C   UNL A   1      43.810  32.279  32.362  1.00  0.00     0.064 A 
ATOM     65  C   UNL A   1      43.966  33.493  31.676  1.00  0.00     0.173 A 
ATOM     66  C   UNL A   1      43.668  32.326  33.757  1.00  0.00     0.173 A 
ATOM     67  F   UNL A   1      44.120  33.500  30.343  1.00  0.00    -0.203 F 
ATOM     68  C   UNL A   1      43.995  34.703  32.362  1.00  0.00     0.198 A 
ATOM     69  C   UNL A   1      43.671  33.540  34.437  1.00  0.00     0.198 A 
ATOM     70  F   UNL A   1      43.512  31.193  34.459  1.00  0.00    -0.203 F 
ATOM     71  F   UNL A   1      44.182  35.848  31.690  1.00  0.00    -0.200 F 
ATOM     72  C   UNL A   1      43.838  34.727  33.740  1.00  0.00     0.200 A 
ATOM     73  F   UNL A   1      43.508  33.563  35.767  1.00  0.00    -0.200 F 
ATOM     74  F   UNL A   1      43.856  35.895  34.397  1.00  0.00    -0.200 F 
ENDBRANCH  50  64
BRANCH  51  75
ATOM     75  C   UNL A   1      42.973  23.680  27.369  1.00  0.00     0.064 A 
ATOM     76  C   UNL A   1      42.484  22.509  27.964  1.00  0.00     0.173 A 
ATOM     77  C   UNL A   1      43.398  23.605  26.035  1.00  0.00     0.173 A 
ATOM     78  F   UNL A   1      42.093  22.524  29.247  1.00  0.00    -0.203 F 
ATOM     79  C   UNL A   1      42.445  21.307  27.261  1.00  0.00     0.198 A 
ATOM     80  C   UNL A   1      43.330  22.409  25.323  1.00  0.00     0.198 A 
ATOM     81  F   UNL A   1      43.877  24.697  25.419  1.00  0.00    -0.203 F 
ATOM     82  F   UNL A   1      42.022  20.191  27.871  1.00  0.00    -0.200 F 
ATOM     83  C   UNL A   1      42.863  21.259  25.940  1.00  0.00     0.200 A 
ATOM     84  F   UNL A   1      43.726  22.371  24.044  1.00  0.00    -0.200 F 
ATOM     85  F   UNL A   1      42.826  20.102  25.264  1.00  0.00    -0.200 F 
ENDBRANCH  51  75
BRANCH  63  86
ATOM     86  C   UNL A   1      48.174  26.749  30.844  1.00  0.00     0.064 A 
ATOM     87  C   UNL A   1      49.233  27.171  30.026  1.00  0.00     0.173 A 
ATOM     88  C   UNL A   1      48.483  25.961  31.963  1.00  0.00     0.173 A 
ATOM     89  F   UNL A   1      48.989  27.914  28.936  1.00  0.00    -0.203 F 
ATOM     90  C   UNL A   1      50.545  26.798  30.305  1.00  0.00     0.198 A 
ATOM     91  C   UNL A   1      49.797  25.614  32.255  1.00  0.00     0.198 A 
ATOM     92  F   UNL A   1      47.507  25.538  32.781  1.00  0.00    -0.203 F 
ATOM     93  F   UNL A   1      51.536  27.173  29.484  1.00  0.00    -0.200 F 
ATOM     94  C   UNL A   1      50.827  26.026  31.422  1.00  0.00     0.200 A 
ATOM     95  F   UNL A   1      50.070  24.880  33.343  1.00  0.00    -0.200 F 
ATOM     96  F   UNL A   1      52.091  25.674  31.694  1.00  0.00    -0.200 F 
ENDBRANCH  63  86
ENDBRANCH  37  38
ENDBRANCH  30  32
ENDBRANCH  29  30
ENDBRANCH  28  29
ENDBRANCH  27  28
ENDBRANCH   1  27
TORSDOF 16
ENDMDL
