MODEL 1
REMARK VINA RESULT:     -11.7      0.000      0.000
REMARK SMILES CC[NH2+][C@]1(C(=O)OCCOCCOC(=O)c2ccc(-c3c4nc(c(-c5c(F)c(F)c(F)c(F)c5F)c5ccc([nH]5)c(-c5c(F)c(F)c(F)c(F)c5F)c5nc(c(-c6c(F)c(F)c(F)c(F)c6F)c6ccc3[nH]6)C=C5)C=C4)cc2)CCC[C@@H]1CCSc1ccc(C)cc1
REMARK SMILES IDX 9 1 8 2 7 3 5 4 6 5 4 6 79 7 82 8 80 9 81 10 3 11 2 14 1 15
REMARK SMILES IDX 83 16 84 17 85 18 86 19 87 20 92 21 88 22 91 23 89 24 90 25
REMARK SMILES IDX 10 26 11 27 12 28 13 29 14 30 15 31 16 32 17 33 78 34 18 35
REMARK SMILES IDX 77 36 19 37 20 38 21 39 71 40 22 41 76 42 70 43 72 44 23 45
REMARK SMILES IDX 75 46 69 47 68 48 24 50 56 51 36 52 55 53 37 54 40 55 54 56
REMARK SMILES IDX 73 57 38 58 39 59 53 61 74 62 41 63 25 64 26 65 34 66 27 67
REMARK SMILES IDX 28 68 32 69 35 70 29 71 30 72 33 73 31 74 57 75 58 76 66 77
REMARK SMILES IDX 59 78 60 79 64 80 67 81 61 82 62 83 65 84 63 85 42 86 43 87
REMARK SMILES IDX 51 88 44 89 45 90 49 91 52 92 46 93 47 94 50 95 48 96
REMARK H PARENT 3 12 3 13 72 49 40 60
REMARK Flexibility Score: inf
ROOT
ATOM      1  C   UNL A   1      29.558  31.238  23.491  1.00  0.00     0.202 C 
ENDROOT
BRANCH   1   2
ATOM      2  C   UNL A   1      29.481  29.841  22.816  1.00  0.00     0.261 C 
BRANCH   2   3
ATOM      3  O   UNL A   1      29.703  28.601  23.558  1.00  0.00    -0.459 OA
BRANCH   3   4
ATOM      4  C   UNL A   1      30.780  27.925  23.045  1.00  0.00     0.368 C 
ATOM      5  O   UNL A   1      30.650  27.556  21.895  1.00  0.00    -0.245 OA
BRANCH   4   6
ATOM      6  C   UNL A   1      31.965  27.464  24.058  1.00  0.00     0.197 C 
ATOM      7  C   UNL A   1      33.053  28.513  24.231  1.00  0.00     0.081 C 
ATOM      8  C   UNL A   1      31.246  27.399  25.360  1.00  0.00     0.063 C 
ATOM      9  C   UNL A   1      33.614  28.164  25.600  1.00  0.00     0.008 C 
ATOM     10  C   UNL A   1      32.399  27.593  26.394  1.00  0.00     0.011 C 
BRANCH   6  11
ATOM     11  N   UNL A   1      32.651  26.085  23.854  1.00  0.00    -0.332 N 
ATOM     12  H   UNL A   1      33.300  26.002  24.635  1.00  0.00     0.347 HD
ATOM     13  H   UNL A   1      31.813  25.517  23.729  1.00  0.00     0.347 HD
BRANCH  11  14
ATOM     14  C   UNL A   1      33.412  25.612  22.687  1.00  0.00     0.257 C 
ATOM     15  C   UNL A   1      33.226  24.112  22.408  1.00  0.00     0.071 C 
ENDBRANCH  11  14
ENDBRANCH   6  11
BRANCH   8  16
ATOM     16  C   UNL A   1      30.249  26.192  25.217  1.00  0.00     0.022 C 
BRANCH  16  17
ATOM     17  C   UNL A   1      30.315  24.779  26.174  1.00  0.00     0.075 C 
BRANCH  17  18
ATOM     18  S   UNL A   1      31.391  22.952  26.489  1.00  0.00    -0.126 SA
BRANCH  18  19
ATOM     19  C   UNL A   1      33.230  22.767  26.052  1.00  0.00     0.007 A 
ATOM     20  C   UNL A   1      34.231  23.754  26.055  1.00  0.00     0.015 A 
ATOM     21  C   UNL A   1      33.737  21.504  25.717  1.00  0.00     0.015 A 
ATOM     22  C   UNL A   1      35.557  23.610  25.636  1.00  0.00     0.004 A 
ATOM     23  C   UNL A   1      35.100  21.317  25.309  1.00  0.00     0.004 A 
ATOM     24  C   UNL A   1      36.009  22.381  25.231  1.00  0.00    -0.051 A 
ATOM     25  C   UNL A   1      37.379  22.314  24.625  1.00  0.00     0.044 C 
ENDBRANCH  18  19
ENDBRANCH  17  18
ENDBRANCH  16  17
ENDBRANCH   8  16
ENDBRANCH   4   6
ENDBRANCH   3   4
ENDBRANCH   2   3
ENDBRANCH   1   2
BRANCH   1  26
ATOM     26  O   UNL A   1      29.734  31.469  24.877  1.00  0.00    -0.374 OA
BRANCH  26  27
ATOM     27  C   UNL A   1      30.985  31.198  25.495  1.00  0.00     0.202 C 
BRANCH  27  28
ATOM     28  C   UNL A   1      31.430  32.029  26.696  1.00  0.00     0.261 C 
BRANCH  28  29
ATOM     29  O   UNL A   1      32.666  31.548  27.234  1.00  0.00    -0.460 OA
BRANCH  29  30
ATOM     30  C   UNL A   1      33.478  32.541  27.675  1.00  0.00     0.338 C 
ATOM     31  O   UNL A   1      33.172  33.672  27.984  1.00  0.00    -0.246 OA
BRANCH  30  32
ATOM     32  C   UNL A   1      34.796  31.968  27.998  1.00  0.00     0.060 A 
ATOM     33  C   UNL A   1      34.825  30.580  28.203  1.00  0.00     0.016 A 
ATOM     34  C   UNL A   1      35.955  32.739  28.099  1.00  0.00     0.016 A 
ATOM     35  C   UNL A   1      35.990  29.971  28.623  1.00  0.00     0.010 A 
ATOM     36  C   UNL A   1      37.124  32.133  28.562  1.00  0.00     0.010 A 
ATOM     37  C   UNL A   1      37.106  30.768  28.899  1.00  0.00    -0.014 A 
BRANCH  37  38
ATOM     38  C   UNL A   1      38.076  30.201  29.855  1.00  0.00     0.031 A 
ATOM     39  C   UNL A   1      39.089  29.229  29.310  1.00  0.00     0.074 A 
ATOM     40  C   UNL A   1      38.168  30.692  31.099  1.00  0.00     0.049 A 
ATOM     41  N   UNL A   1      40.125  28.689  29.893  1.00  0.00    -0.248 NA
ATOM     42  C   UNL A   1      38.919  28.826  27.901  1.00  0.00     0.031 C 
ATOM     43  C   UNL A   1      37.283  31.705  31.671  1.00  0.00     0.029 A 
ATOM     44  N   UNL A   1      39.072  30.428  32.091  1.00  0.00    -0.354 N 
ATOM     45  C   UNL A   1      40.723  27.888  28.928  1.00  0.00     0.074 A 
ATOM     46  C   UNL A   1      39.921  27.980  27.731  1.00  0.00     0.031 C 
ATOM     47  C   UNL A   1      37.696  31.986  32.918  1.00  0.00     0.029 A 
ATOM     48  C   UNL A   1      38.853  31.151  33.235  1.00  0.00     0.049 A 
ATOM     49  H   UNL A   1      39.807  29.781  31.993  1.00  0.00     0.167 HD
ATOM     50  C   UNL A   1      41.852  27.152  29.032  1.00  0.00     0.037 A 
ATOM     51  C   UNL A   1      39.515  31.123  34.405  1.00  0.00     0.037 A 
ATOM     52  C   UNL A   1      42.637  27.079  30.233  1.00  0.00     0.049 A 
ATOM     53  C   UNL A   1      40.721  30.227  34.521  1.00  0.00     0.074 A 
ATOM     54  C   UNL A   1      43.790  26.356  30.472  1.00  0.00     0.029 A 
ATOM     55  N   UNL A   1      42.337  27.760  31.406  1.00  0.00    -0.354 N 
ATOM     56  N   UNL A   1      41.279  29.461  33.612  1.00  0.00    -0.248 NA
ATOM     57  C   UNL A   1      41.396  30.199  35.824  1.00  0.00     0.031 C 
ATOM     58  C   UNL A   1      44.152  26.550  31.809  1.00  0.00     0.029 A 
ATOM     59  C   UNL A   1      43.266  27.449  32.384  1.00  0.00     0.049 A 
ATOM     60  H   UNL A   1      41.575  28.373  31.525  1.00  0.00     0.167 HD
ATOM     61  C   UNL A   1      42.380  28.878  34.222  1.00  0.00     0.074 A 
ATOM     62  C   UNL A   1      42.426  29.404  35.574  1.00  0.00     0.031 C 
ATOM     63  C   UNL A   1      43.273  27.987  33.722  1.00  0.00     0.037 A 
BRANCH  50  64
ATOM     64  C   UNL A   1      42.261  26.334  27.840  1.00  0.00     0.064 A 
ATOM     65  C   UNL A   1      41.696  25.078  27.564  1.00  0.00     0.173 A 
ATOM     66  C   UNL A   1      43.236  26.818  26.955  1.00  0.00     0.173 A 
ATOM     67  F   UNL A   1      40.778  24.554  28.391  1.00  0.00    -0.203 F 
ATOM     68  C   UNL A   1      42.112  24.330  26.464  1.00  0.00     0.198 A 
ATOM     69  C   UNL A   1      43.625  26.083  25.839  1.00  0.00     0.198 A 
ATOM     70  F   UNL A   1      43.815  28.009  27.175  1.00  0.00    -0.203 F 
ATOM     71  F   UNL A   1      41.599  23.110  26.252  1.00  0.00    -0.200 F 
ATOM     72  C   UNL A   1      43.069  24.837  25.598  1.00  0.00     0.200 A 
ATOM     73  F   UNL A   1      44.544  26.579  24.999  1.00  0.00    -0.200 F 
ATOM     74  F   UNL A   1      43.464  24.119  24.538  1.00  0.00    -0.200 F 
ENDBRANCH  50  64
BRANCH  51  75
ATOM     75  C   UNL A   1      39.041  31.945  35.548  1.00  0.00     0.064 A 
ATOM     76  C   UNL A   1      39.389  33.295  35.676  1.00  0.00     0.173 A 
ATOM     77  C   UNL A   1      38.230  31.386  36.549  1.00  0.00     0.173 A 
ATOM     78  F   UNL A   1      40.177  33.875  34.758  1.00  0.00    -0.203 F 
ATOM     79  C   UNL A   1      38.963  34.049  36.769  1.00  0.00     0.198 A 
ATOM     80  C   UNL A   1      37.776  32.147  37.623  1.00  0.00     0.198 A 
ATOM     81  F   UNL A   1      37.865  30.096  36.476  1.00  0.00    -0.203 F 
ATOM     82  F   UNL A   1      39.351  35.326  36.892  1.00  0.00    -0.200 F 
ATOM     83  C   UNL A   1      38.151  33.476  37.737  1.00  0.00     0.200 A 
ATOM     84  F   UNL A   1      36.979  31.592  38.545  1.00  0.00    -0.200 F 
ATOM     85  F   UNL A   1      37.738  34.202  38.785  1.00  0.00    -0.200 F 
ENDBRANCH  51  75
BRANCH  63  86
ATOM     86  C   UNL A   1      44.382  27.553  34.637  1.00  0.00     0.064 A 
ATOM     87  C   UNL A   1      45.611  28.229  34.679  1.00  0.00     0.173 A 
ATOM     88  C   UNL A   1      44.206  26.454  35.492  1.00  0.00     0.173 A 
ATOM     89  F   UNL A   1      45.832  29.278  33.874  1.00  0.00    -0.203 F 
ATOM     90  C   UNL A   1      46.638  27.791  35.509  1.00  0.00     0.198 A 
ATOM     91  C   UNL A   1      45.222  26.044  36.350  1.00  0.00     0.198 A 
ATOM     92  F   UNL A   1      43.045  25.782  35.501  1.00  0.00    -0.203 F 
ATOM     93  F   UNL A   1      47.829  28.406  35.478  1.00  0.00    -0.200 F 
ATOM     94  C   UNL A   1      46.441  26.703  36.347  1.00  0.00     0.200 A 
ATOM     95  F   UNL A   1      45.022  25.007  37.174  1.00  0.00    -0.200 F 
ATOM     96  F   UNL A   1      47.432  26.283  37.145  1.00  0.00    -0.200 F 
ENDBRANCH  63  86
ENDBRANCH  37  38
ENDBRANCH  30  32
ENDBRANCH  29  30
ENDBRANCH  28  29
ENDBRANCH  27  28
ENDBRANCH  26  27
ENDBRANCH   1  26
TORSDOF 20
ENDMDL
MODEL 2
REMARK VINA RESULT:     -11.5      1.480      7.646
REMARK SMILES CC[NH2+][C@]1(C(=O)OCCOCCOC(=O)c2ccc(-c3c4nc(c(-c5c(F)c(F)c(F)c(F)c5F)c5ccc([nH]5)c(-c5c(F)c(F)c(F)c(F)c5F)c5nc(c(-c6c(F)c(F)c(F)c(F)c6F)c6ccc3[nH]6)C=C5)C=C4)cc2)CCC[C@@H]1CCSc1ccc(C)cc1
REMARK SMILES IDX 9 1 8 2 7 3 5 4 6 5 4 6 79 7 82 8 80 9 81 10 3 11 2 14 1 15
REMARK SMILES IDX 83 16 84 17 85 18 86 19 87 20 92 21 88 22 91 23 89 24 90 25
REMARK SMILES IDX 10 26 11 27 12 28 13 29 14 30 15 31 16 32 17 33 78 34 18 35
REMARK SMILES IDX 77 36 19 37 20 38 21 39 71 40 22 41 76 42 70 43 72 44 23 45
REMARK SMILES IDX 75 46 69 47 68 48 24 50 56 51 36 52 55 53 37 54 40 55 54 56
REMARK SMILES IDX 73 57 38 58 39 59 53 61 74 62 41 63 25 64 26 65 34 66 27 67
REMARK SMILES IDX 28 68 32 69 35 70 29 71 30 72 33 73 31 74 57 75 58 76 66 77
REMARK SMILES IDX 59 78 60 79 64 80 67 81 61 82 62 83 65 84 63 85 42 86 43 87
REMARK SMILES IDX 51 88 44 89 45 90 49 91 52 92 46 93 47 94 50 95 48 96
REMARK H PARENT 3 12 3 13 72 49 40 60
REMARK Flexibility Score: inf
ROOT
ATOM      1  C   UNL A   1      31.762  29.287  26.773  1.00  0.00     0.202 C 
ENDROOT
BRANCH   1   2
ATOM      2  C   UNL A   1      32.716  28.069  26.909  1.00  0.00     0.261 C 
BRANCH   2   3
ATOM      3  O   UNL A   1      32.662  26.927  25.997  1.00  0.00    -0.459 OA
BRANCH   3   4
ATOM      4  C   UNL A   1      31.630  27.079  25.105  1.00  0.00     0.368 C 
ATOM      5  O   UNL A   1      30.542  26.734  25.520  1.00  0.00    -0.245 OA
BRANCH   4   6
ATOM      6  C   UNL A   1      31.985  27.432  23.558  1.00  0.00     0.197 C 
ATOM      7  C   UNL A   1      33.105  28.451  23.414  1.00  0.00     0.081 C 
ATOM      8  C   UNL A   1      32.539  26.140  23.069  1.00  0.00     0.063 C 
ATOM      9  C   UNL A   1      33.654  28.125  22.034  1.00  0.00     0.008 C 
ATOM     10  C   UNL A   1      33.438  26.589  21.874  1.00  0.00     0.011 C 
BRANCH   6  11
ATOM     11  N   UNL A   1      30.842  27.830  22.585  1.00  0.00    -0.332 N 
ATOM     12  H   UNL A   1      31.320  28.181  21.756  1.00  0.00     0.347 HD
ATOM     13  H   UNL A   1      30.302  26.965  22.624  1.00  0.00     0.347 HD
BRANCH  11  14
ATOM     14  C   UNL A   1      29.744  28.782  22.812  1.00  0.00     0.257 C 
ATOM     15  C   UNL A   1      29.889  30.081  22.002  1.00  0.00     0.071 C 
ENDBRANCH  11  14
ENDBRANCH   6  11
BRANCH   8  16
ATOM     16  C   UNL A   1      31.319  25.149  23.060  1.00  0.00     0.022 C 
BRANCH  16  17
ATOM     17  C   UNL A   1      31.425  23.497  23.479  1.00  0.00     0.075 C 
BRANCH  17  18
ATOM     18  S   UNL A   1      32.290  22.119  24.876  1.00  0.00    -0.126 SA
BRANCH  18  19
ATOM     19  C   UNL A   1      32.880  20.389  24.364  1.00  0.00     0.007 A 
ATOM     20  C   UNL A   1      32.269  19.486  23.475  1.00  0.00     0.015 A 
ATOM     21  C   UNL A   1      34.096  19.898  24.859  1.00  0.00     0.015 A 
ATOM     22  C   UNL A   1      32.676  18.179  23.189  1.00  0.00     0.004 A 
ATOM     23  C   UNL A   1      34.556  18.572  24.563  1.00  0.00     0.004 A 
ATOM     24  C   UNL A   1      33.826  17.690  23.754  1.00  0.00    -0.051 A 
ATOM     25  C   UNL A   1      34.125  16.234  23.561  1.00  0.00     0.044 C 
ENDBRANCH  18  19
ENDBRANCH  17  18
ENDBRANCH  16  17
ENDBRANCH   8  16
ENDBRANCH   4   6
ENDBRANCH   3   4
ENDBRANCH   2   3
ENDBRANCH   1   2
BRANCH   1  26
ATOM     26  O   UNL A   1      32.085  30.513  26.142  1.00  0.00    -0.374 OA
BRANCH  26  27
ATOM     27  C   UNL A   1      31.395  31.704  26.497  1.00  0.00     0.202 C 
BRANCH  27  28
ATOM     28  C   UNL A   1      32.152  32.838  27.185  1.00  0.00     0.261 C 
BRANCH  28  29
ATOM     29  O   UNL A   1      33.145  32.332  28.083  1.00  0.00    -0.460 OA
BRANCH  29  30
ATOM     30  C   UNL A   1      34.009  33.285  28.512  1.00  0.00     0.338 C 
ATOM     31  O   UNL A   1      33.749  34.363  29.002  1.00  0.00    -0.246 OA
BRANCH  30  32
ATOM     32  C   UNL A   1      35.366  32.710  28.555  1.00  0.00     0.060 A 
ATOM     33  C   UNL A   1      35.433  31.311  28.642  1.00  0.00     0.016 A 
ATOM     34  C   UNL A   1      36.522  33.491  28.513  1.00  0.00     0.016 A 
ATOM     35  C   UNL A   1      36.655  30.691  28.804  1.00  0.00     0.010 A 
ATOM     36  C   UNL A   1      37.755  32.870  28.718  1.00  0.00     0.010 A 
ATOM     37  C   UNL A   1      37.801  31.482  28.944  1.00  0.00    -0.014 A 
BRANCH  37  38
ATOM     38  C   UNL A   1      38.924  30.859  29.669  1.00  0.00     0.031 A 
ATOM     39  C   UNL A   1      39.061  31.185  31.132  1.00  0.00     0.074 A 
ATOM     40  C   UNL A   1      39.655  29.896  29.088  1.00  0.00     0.049 A 
ATOM     41  N   UNL A   1      39.867  30.680  32.027  1.00  0.00    -0.248 NA
ATOM     42  C   UNL A   1      38.145  32.211  31.665  1.00  0.00     0.031 C 
ATOM     43  C   UNL A   1      39.517  29.457  27.700  1.00  0.00     0.029 A 
ATOM     44  N   UNL A   1      40.630  29.090  29.607  1.00  0.00    -0.354 N 
ATOM     45  C   UNL A   1      39.555  31.325  33.218  1.00  0.00     0.074 A 
ATOM     46  C   UNL A   1      38.515  32.282  32.932  1.00  0.00     0.031 C 
ATOM     47  C   UNL A   1      40.377  28.448  27.479  1.00  0.00     0.029 A 
ATOM     48  C   UNL A   1      41.138  28.196  28.701  1.00  0.00     0.049 A 
ATOM     49  H   UNL A   1      40.938  29.148  30.541  1.00  0.00     0.167 HD
ATOM     50  C   UNL A   1      40.087  31.121  34.445  1.00  0.00     0.037 A 
ATOM     51  C   UNL A   1      42.119  27.288  28.852  1.00  0.00     0.037 A 
ATOM     52  C   UNL A   1      41.120  30.158  34.707  1.00  0.00     0.049 A 
ATOM     53  C   UNL A   1      42.753  27.142  30.211  1.00  0.00     0.074 A 
ATOM     54  C   UNL A   1      41.753  29.869  35.900  1.00  0.00     0.029 A 
ATOM     55  N   UNL A   1      41.675  29.325  33.742  1.00  0.00    -0.354 N 
ATOM     56  N   UNL A   1      42.466  27.761  31.333  1.00  0.00    -0.248 NA
ATOM     57  C   UNL A   1      43.841  26.165  30.327  1.00  0.00     0.031 C 
ATOM     58  C   UNL A   1      42.735  28.907  35.646  1.00  0.00     0.029 A 
ATOM     59  C   UNL A   1      42.667  28.544  34.309  1.00  0.00     0.049 A 
ATOM     60  H   UNL A   1      41.404  29.296  32.797  1.00  0.00     0.167 HD
ATOM     61  C   UNL A   1      43.320  27.234  32.292  1.00  0.00     0.074 A 
ATOM     62  C   UNL A   1      44.116  26.224  31.622  1.00  0.00     0.031 C 
ATOM     63  C   UNL A   1      43.444  27.553  33.606  1.00  0.00     0.037 A 
BRANCH  50  64
ATOM     64  C   UNL A   1      39.597  31.992  35.567  1.00  0.00     0.064 A 
ATOM     65  C   UNL A   1      40.139  33.264  35.818  1.00  0.00     0.173 A 
ATOM     66  C   UNL A   1      38.565  31.546  36.405  1.00  0.00     0.173 A 
ATOM     67  F   UNL A   1      41.146  33.731  35.064  1.00  0.00    -0.203 F 
ATOM     68  C   UNL A   1      39.682  34.041  36.881  1.00  0.00     0.198 A 
ATOM     69  C   UNL A   1      38.088  32.339  37.446  1.00  0.00     0.198 A 
ATOM     70  F   UNL A   1      38.017  30.336  36.216  1.00  0.00    -0.203 F 
ATOM     71  F   UNL A   1      40.251  35.227  37.136  1.00  0.00    -0.200 F 
ATOM     72  C   UNL A   1      38.652  33.582  37.688  1.00  0.00     0.200 A 
ATOM     73  F   UNL A   1      37.087  31.896  38.218  1.00  0.00    -0.200 F 
ATOM     74  F   UNL A   1      38.210  34.332  38.707  1.00  0.00    -0.200 F 
ENDBRANCH  50  64
BRANCH  51  75
ATOM     75  C   UNL A   1      42.565  26.475  27.692  1.00  0.00     0.064 A 
ATOM     76  C   UNL A   1      43.582  26.913  26.835  1.00  0.00     0.173 A 
ATOM     77  C   UNL A   1      41.968  25.235  27.410  1.00  0.00     0.173 A 
ATOM     78  F   UNL A   1      44.174  28.098  27.047  1.00  0.00    -0.203 F 
ATOM     79  C   UNL A   1      43.972  26.155  25.732  1.00  0.00     0.198 A 
ATOM     80  C   UNL A   1      42.380  24.462  26.328  1.00  0.00     0.198 A 
ATOM     81  F   UNL A   1      40.989  24.766  28.199  1.00  0.00    -0.203 F 
ATOM     82  F   UNL A   1      44.914  26.621  24.900  1.00  0.00    -0.200 F 
ATOM     83  C   UNL A   1      43.375  24.927  25.483  1.00  0.00     0.200 A 
ATOM     84  F   UNL A   1      41.812  23.270  26.104  1.00  0.00    -0.200 F 
ATOM     85  F   UNL A   1      43.754  24.197  24.425  1.00  0.00    -0.200 F 
ENDBRANCH  51  75
BRANCH  63  86
ATOM     86  C   UNL A   1      44.460  26.780  34.397  1.00  0.00     0.064 A 
ATOM     87  C   UNL A   1      44.138  25.567  35.024  1.00  0.00     0.173 A 
ATOM     88  C   UNL A   1      45.775  27.254  34.517  1.00  0.00     0.173 A 
ATOM     89  F   UNL A   1      42.892  25.077  34.948  1.00  0.00    -0.203 F 
ATOM     90  C   UNL A   1      45.083  24.882  35.782  1.00  0.00     0.198 A 
ATOM     91  C   UNL A   1      46.729  26.545  35.241  1.00  0.00     0.198 A 
ATOM     92  F   UNL A   1      46.139  28.402  33.925  1.00  0.00    -0.203 F 
ATOM     93  F   UNL A   1      44.734  23.764  36.433  1.00  0.00    -0.200 F 
ATOM     94  C   UNL A   1      46.379  25.369  35.885  1.00  0.00     0.200 A 
ATOM     95  F   UNL A   1      47.984  27.006  35.322  1.00  0.00    -0.200 F 
ATOM     96  F   UNL A   1      47.287  24.708  36.615  1.00  0.00    -0.200 F 
ENDBRANCH  63  86
ENDBRANCH  37  38
ENDBRANCH  30  32
ENDBRANCH  29  30
ENDBRANCH  28  29
ENDBRANCH  27  28
ENDBRANCH  26  27
ENDBRANCH   1  26
TORSDOF 20
ENDMDL
MODEL 3
REMARK VINA RESULT:     -11.4      0.710      2.117
REMARK SMILES CC[NH2+][C@]1(C(=O)OCCOCCOC(=O)c2ccc(-c3c4nc(c(-c5c(F)c(F)c(F)c(F)c5F)c5ccc([nH]5)c(-c5c(F)c(F)c(F)c(F)c5F)c5nc(c(-c6c(F)c(F)c(F)c(F)c6F)c6ccc3[nH]6)C=C5)C=C4)cc2)CCC[C@@H]1CCSc1ccc(C)cc1
REMARK SMILES IDX 9 1 8 2 7 3 5 4 6 5 4 6 79 7 82 8 80 9 81 10 3 11 2 14 1 15
REMARK SMILES IDX 83 16 84 17 85 18 86 19 87 20 92 21 88 22 91 23 89 24 90 25
REMARK SMILES IDX 10 26 11 27 12 28 13 29 14 30 15 31 16 32 17 33 78 34 18 35
REMARK SMILES IDX 77 36 19 37 20 38 21 39 71 40 22 41 76 42 70 43 72 44 23 45
REMARK SMILES IDX 75 46 69 47 68 48 24 50 56 51 36 52 55 53 37 54 40 55 54 56
REMARK SMILES IDX 73 57 38 58 39 59 53 61 74 62 41 63 25 64 26 65 34 66 27 67
REMARK SMILES IDX 28 68 32 69 35 70 29 71 30 72 33 73 31 74 57 75 58 76 66 77
REMARK SMILES IDX 59 78 60 79 64 80 67 81 61 82 62 83 65 84 63 85 42 86 43 87
REMARK SMILES IDX 51 88 44 89 45 90 49 91 52 92 46 93 47 94 50 95 48 96
REMARK H PARENT 3 12 3 13 72 49 40 60
REMARK Flexibility Score: inf
ROOT
ATOM      1  C   UNL A   1      30.455  29.788  23.337  1.00  0.00     0.202 C 
ENDROOT
BRANCH   1   2
ATOM      2  C   UNL A   1      30.187  28.555  22.429  1.00  0.00     0.261 C 
BRANCH   2   3
ATOM      3  O   UNL A   1      30.206  27.187  22.943  1.00  0.00    -0.459 OA
BRANCH   3   4
ATOM      4  C   UNL A   1      31.418  26.599  22.686  1.00  0.00     0.368 C 
ATOM      5  O   UNL A   1      31.548  26.171  21.557  1.00  0.00    -0.245 OA
BRANCH   4   6
ATOM      6  C   UNL A   1      32.418  26.299  23.934  1.00  0.00     0.197 C 
ATOM      7  C   UNL A   1      33.481  27.370  24.125  1.00  0.00     0.081 C 
ATOM      8  C   UNL A   1      31.498  26.420  25.097  1.00  0.00     0.063 C 
ATOM      9  C   UNL A   1      33.810  27.229  25.603  1.00  0.00     0.008 C 
ATOM     10  C   UNL A   1      32.474  26.771  26.264  1.00  0.00     0.011 C 
BRANCH   6  11
ATOM     11  N   UNL A   1      33.105  24.910  24.044  1.00  0.00    -0.332 N 
ATOM     12  H   UNL A   1      33.723  24.993  24.850  1.00  0.00     0.347 HD
ATOM     13  H   UNL A   1      32.270  24.325  24.008  1.00  0.00     0.347 HD
BRANCH  11  14
ATOM     14  C   UNL A   1      33.907  24.210  23.030  1.00  0.00     0.257 C 
ATOM     15  C   UNL A   1      33.183  23.006  22.407  1.00  0.00     0.071 C 
ENDBRANCH  11  14
ENDBRANCH   6  11
BRANCH   8  16
ATOM     16  C   UNL A   1      30.518  25.197  24.973  1.00  0.00     0.022 C 
BRANCH  16  17
ATOM     17  C   UNL A   1      30.841  23.644  25.606  1.00  0.00     0.075 C 
BRANCH  17  18
ATOM     18  S   UNL A   1      32.233  22.507  26.774  1.00  0.00    -0.126 SA
BRANCH  18  19
ATOM     19  C   UNL A   1      33.968  22.066  26.142  1.00  0.00     0.007 A 
ATOM     20  C   UNL A   1      34.371  20.926  25.422  1.00  0.00     0.015 A 
ATOM     21  C   UNL A   1      35.025  22.964  26.340  1.00  0.00     0.015 A 
ATOM     22  C   UNL A   1      35.674  20.581  25.053  1.00  0.00     0.004 A 
ATOM     23  C   UNL A   1      36.370  22.653  25.948  1.00  0.00     0.004 A 
ATOM     24  C   UNL A   1      36.707  21.438  25.334  1.00  0.00    -0.051 A 
ATOM     25  C   UNL A   1      38.101  20.948  25.080  1.00  0.00     0.044 C 
ENDBRANCH  18  19
ENDBRANCH  17  18
ENDBRANCH  16  17
ENDBRANCH   8  16
ENDBRANCH   4   6
ENDBRANCH   3   4
ENDBRANCH   2   3
ENDBRANCH   1   2
BRANCH   1  26
ATOM     26  O   UNL A   1      30.627  29.747  24.742  1.00  0.00    -0.374 OA
BRANCH  26  27
ATOM     27  C   UNL A   1      31.813  30.262  25.333  1.00  0.00     0.202 C 
BRANCH  27  28
ATOM     28  C   UNL A   1      31.712  31.199  26.534  1.00  0.00     0.261 C 
BRANCH  28  29
ATOM     29  O   UNL A   1      32.787  30.983  27.455  1.00  0.00    -0.460 OA
BRANCH  29  30
ATOM     30  C   UNL A   1      33.583  32.070  27.608  1.00  0.00     0.338 C 
ATOM     31  O   UNL A   1      33.252  33.232  27.691  1.00  0.00    -0.246 OA
BRANCH  30  32
ATOM     32  C   UNL A   1      34.945  31.616  27.942  1.00  0.00     0.060 A 
ATOM     33  C   UNL A   1      35.116  30.228  28.052  1.00  0.00     0.016 A 
ATOM     34  C   UNL A   1      36.010  32.496  28.142  1.00  0.00     0.016 A 
ATOM     35  C   UNL A   1      36.326  29.716  28.475  1.00  0.00     0.010 A 
ATOM     36  C   UNL A   1      37.222  31.984  28.608  1.00  0.00     0.010 A 
ATOM     37  C   UNL A   1      37.341  30.603  28.849  1.00  0.00    -0.014 A 
BRANCH  37  38
ATOM     38  C   UNL A   1      38.336  30.073  29.801  1.00  0.00     0.031 A 
ATOM     39  C   UNL A   1      39.356  29.108  29.260  1.00  0.00     0.074 A 
ATOM     40  C   UNL A   1      38.438  30.592  31.033  1.00  0.00     0.049 A 
ATOM     41  N   UNL A   1      40.410  28.598  29.838  1.00  0.00    -0.248 NA
ATOM     42  C   UNL A   1      39.172  28.672  27.863  1.00  0.00     0.031 C 
ATOM     43  C   UNL A   1      37.544  31.602  31.598  1.00  0.00     0.029 A 
ATOM     44  N   UNL A   1      39.361  30.364  32.016  1.00  0.00    -0.354 N 
ATOM     45  C   UNL A   1      41.008  27.787  28.880  1.00  0.00     0.074 A 
ATOM     46  C   UNL A   1      40.186  27.840  27.695  1.00  0.00     0.031 C 
ATOM     47  C   UNL A   1      37.972  31.916  32.832  1.00  0.00     0.029 A 
ATOM     48  C   UNL A   1      39.148  31.107  33.148  1.00  0.00     0.049 A 
ATOM     49  H   UNL A   1      40.106  29.728  31.920  1.00  0.00     0.167 HD
ATOM     50  C   UNL A   1      42.151  27.072  28.982  1.00  0.00     0.037 A 
ATOM     51  C   UNL A   1      39.828  31.115  34.308  1.00  0.00     0.037 A 
ATOM     52  C   UNL A   1      42.956  27.038  30.172  1.00  0.00     0.049 A 
ATOM     53  C   UNL A   1      41.052  30.243  34.424  1.00  0.00     0.074 A 
ATOM     54  C   UNL A   1      44.125  26.341  30.407  1.00  0.00     0.029 A 
ATOM     55  N   UNL A   1      42.662  27.739  31.335  1.00  0.00    -0.354 N 
ATOM     56  N   UNL A   1      41.608  29.468  33.521  1.00  0.00    -0.248 NA
ATOM     57  C   UNL A   1      41.746  30.254  35.715  1.00  0.00     0.031 C 
ATOM     58  C   UNL A   1      44.504  26.569  31.734  1.00  0.00     0.029 A 
ATOM     59  C   UNL A   1      43.611  27.465  32.304  1.00  0.00     0.049 A 
ATOM     60  H   UNL A   1      41.892  28.341  31.453  1.00  0.00     0.167 HD
ATOM     61  C   UNL A   1      42.729  28.917  34.126  1.00  0.00     0.074 A 
ATOM     62  C   UNL A   1      42.786  29.471  35.465  1.00  0.00     0.031 C 
ATOM     63  C   UNL A   1      43.629  28.031  33.630  1.00  0.00     0.037 A 
BRANCH  50  64
ATOM     64  C   UNL A   1      42.556  26.237  27.801  1.00  0.00     0.064 A 
ATOM     65  C   UNL A   1      43.487  26.686  26.850  1.00  0.00     0.173 A 
ATOM     66  C   UNL A   1      42.003  24.961  27.619  1.00  0.00     0.173 A 
ATOM     67  F   UNL A   1      44.029  27.909  26.960  1.00  0.00    -0.203 F 
ATOM     68  C   UNL A   1      43.826  25.899  25.751  1.00  0.00     0.198 A 
ATOM     69  C   UNL A   1      42.370  24.164  26.538  1.00  0.00     0.198 A 
ATOM     70  F   UNL A   1      41.103  24.484  28.493  1.00  0.00    -0.203 F 
ATOM     71  F   UNL A   1      44.675  26.371  24.827  1.00  0.00    -0.200 F 
ATOM     72  C   UNL A   1      43.274  24.636  25.600  1.00  0.00     0.200 A 
ATOM     73  F   UNL A   1      41.841  22.940  26.401  1.00  0.00    -0.200 F 
ATOM     74  F   UNL A   1      43.606  23.879  24.546  1.00  0.00    -0.200 F 
ENDBRANCH  50  64
BRANCH  51  75
ATOM     75  C   UNL A   1      39.357  31.952  35.441  1.00  0.00     0.064 A 
ATOM     76  C   UNL A   1      38.520  31.436  36.438  1.00  0.00     0.173 A 
ATOM     77  C   UNL A   1      39.733  33.302  35.543  1.00  0.00     0.173 A 
ATOM     78  F   UNL A   1      38.116  30.158  36.379  1.00  0.00    -0.203 F 
ATOM     79  C   UNL A   1      38.060  32.239  37.480  1.00  0.00     0.198 A 
ATOM     80  C   UNL A   1      39.301  34.095  36.602  1.00  0.00     0.198 A 
ATOM     81  F   UNL A   1      40.534  33.848  34.616  1.00  0.00    -0.203 F 
ATOM     82  F   UNL A   1      37.220  31.733  38.394  1.00  0.00    -0.200 F 
ATOM     83  C   UNL A   1      38.456  33.567  37.565  1.00  0.00     0.200 A 
ATOM     84  F   UNL A   1      39.702  35.370  36.687  1.00  0.00    -0.200 F 
ATOM     85  F   UNL A   1      38.018  34.337  38.570  1.00  0.00    -0.200 F 
ENDBRANCH  51  75
BRANCH  63  86
ATOM     86  C   UNL A   1      44.760  27.635  34.537  1.00  0.00     0.064 A 
ATOM     87  C   UNL A   1      44.672  26.515  35.378  1.00  0.00     0.173 A 
ATOM     88  C   UNL A   1      45.948  28.380  34.555  1.00  0.00     0.173 A 
ATOM     89  F   UNL A   1      43.553  25.777  35.405  1.00  0.00    -0.203 F 
ATOM     90  C   UNL A   1      45.716  26.184  36.236  1.00  0.00     0.198 A 
ATOM     91  C   UNL A   1      47.006  28.022  35.386  1.00  0.00     0.198 A 
ATOM     92  F   UNL A   1      46.088  29.452  33.761  1.00  0.00    -0.203 F 
ATOM     93  F   UNL A   1      45.582  25.154  37.083  1.00  0.00    -0.200 F 
ATOM     94  C   UNL A   1      46.883  26.934  36.235  1.00  0.00     0.200 A 
ATOM     95  F   UNL A   1      48.140  28.735  35.368  1.00  0.00    -0.200 F 
ATOM     96  F   UNL A   1      47.887  26.613  37.064  1.00  0.00    -0.200 F 
ENDBRANCH  63  86
ENDBRANCH  37  38
ENDBRANCH  30  32
ENDBRANCH  29  30
ENDBRANCH  28  29
ENDBRANCH  27  28
ENDBRANCH  26  27
ENDBRANCH   1  26
TORSDOF 20
ENDMDL
