MODEL 1
REMARK VINA RESULT:     -13.9      0.000      0.000
REMARK SMILES C[C@]12C(=O)N(c3ccc(C(=O)OCCOCCOC(=O)c4ccc(-c5c6nc(c(-c7c(F)c(F)c(F)c(F)c7F)c7ccc([nH]7)c(-c7c(F)c(F)c(F)c(F)c7F)c7nc(c(-c8c(F)c(F)c(F)c(F)c8F)c8ccc5[nH]8)C=C7)C=C6)cc4)cc3)C(=O)[C@H]1[C@H]1c3ccccc3[C@@H]2c2ccccc21
REMARK SMILES IDX 16 1 15 2 14 3 13 4 12 5 10 6 11 7 9 8 6 9 7 10 85 11 8 12
REMARK SMILES IDX 84 13 5 14 1 15 2 16 3 17 88 18 96 19 4 20 86 21 89 22 95 23
REMARK SMILES IDX 97 24 87 25 90 26 102 27 94 28 98 29 91 30 101 31 93 32
REMARK SMILES IDX 99 33 92 34 100 35 17 36 18 37 19 38 20 39 21 40 22 41 83 42
REMARK SMILES IDX 23 43 82 44 24 45 25 46 26 47 76 48 27 49 81 50 75 51 77 52
REMARK SMILES IDX 28 53 80 54 74 55 73 56 29 58 61 59 41 60 60 61 42 62 45 63
REMARK SMILES IDX 59 64 78 65 43 66 44 67 58 69 79 70 46 71 30 72 31 73 39 74
REMARK SMILES IDX 32 75 33 76 37 77 40 78 34 79 35 80 38 81 36 82 62 83 63 84
REMARK SMILES IDX 71 85 64 86 65 87 69 88 72 89 66 90 67 91 70 92 68 93 47 94
REMARK SMILES IDX 48 95 56 96 49 97 50 98 54 99 57 100 51 101 52 102 55 103
REMARK SMILES IDX 53 104
REMARK H PARENT 77 57 45 68
REMARK Flexibility Score: inf
ROOT
ATOM      1  C   UNL A   1      42.563  20.710  26.365  1.00  0.00     0.202 C 
ENDROOT
BRANCH   1   2
ATOM      2  O   UNL A   1      41.899  21.225  27.515  1.00  0.00    -0.374 OA
BRANCH   2   3
ATOM      3  C   UNL A   1      40.488  21.418  27.459  1.00  0.00     0.202 C 
BRANCH   3   4
ATOM      4  C   UNL A   1      39.778  21.207  26.117  1.00  0.00     0.261 C 
BRANCH   4   5
ATOM      5  O   UNL A   1      38.539  21.933  26.032  1.00  0.00    -0.460 OA
BRANCH   5   6
ATOM      6  C   UNL A   1      37.570  21.294  25.335  1.00  0.00     0.338 C 
ATOM      7  O   UNL A   1      37.628  20.181  24.837  1.00  0.00    -0.246 OA
BRANCH   6   8
ATOM      8  C   UNL A   1      36.301  22.033  25.429  1.00  0.00     0.060 A 
ATOM      9  C   UNL A   1      34.149  23.822  25.592  1.00  0.00     0.052 A 
ATOM     10  C   UNL A   1      34.869  23.672  24.397  1.00  0.00     0.028 A 
ATOM     11  C   UNL A   1      34.446  22.961  26.663  1.00  0.00     0.028 A 
ATOM     12  C   UNL A   1      35.963  22.821  24.330  1.00  0.00     0.018 A 
ATOM     13  C   UNL A   1      35.512  22.050  26.577  1.00  0.00     0.018 A 
BRANCH   9  14
ATOM     14  N   UNL A   1      33.358  24.981  25.748  1.00  0.00    -0.250 N 
ATOM     15  C   UNL A   1      30.787  27.043  26.723  1.00  0.00     0.024 C 
ATOM     16  C   UNL A   1      31.442  26.232  25.607  1.00  0.00     0.071 C 
ATOM     17  C   UNL A   1      32.093  25.021  26.214  1.00  0.00     0.241 C 
ATOM     18  C   UNL A   1      32.493  27.079  24.815  1.00  0.00     0.107 C 
ATOM     19  C   UNL A   1      30.384  25.551  24.617  1.00  0.00     0.066 C 
ATOM     20  O   UNL A   1      31.523  24.243  26.967  1.00  0.00    -0.273 OA
ATOM     21  C   UNL A   1      33.706  26.245  25.433  1.00  0.00     0.238 C 
ATOM     22  C   UNL A   1      31.945  27.196  23.350  1.00  0.00     0.063 C 
ATOM     23  C   UNL A   1      31.185  24.891  23.474  1.00  0.00    -0.036 A 
ATOM     24  C   UNL A   1      29.614  26.698  24.003  1.00  0.00    -0.036 A 
ATOM     25  O   UNL A   1      34.771  26.765  25.781  1.00  0.00    -0.274 OA
ATOM     26  C   UNL A   1      32.032  25.799  22.798  1.00  0.00    -0.036 A 
ATOM     27  C   UNL A   1      30.462  27.623  23.355  1.00  0.00    -0.036 A 
ATOM     28  C   UNL A   1      31.205  23.548  23.138  1.00  0.00     0.005 A 
ATOM     29  C   UNL A   1      28.234  26.848  24.010  1.00  0.00     0.005 A 
ATOM     30  C   UNL A   1      32.908  25.384  21.808  1.00  0.00     0.004 A 
ATOM     31  C   UNL A   1      29.907  28.721  22.710  1.00  0.00     0.004 A 
ATOM     32  C   UNL A   1      32.100  23.121  22.149  1.00  0.00     0.000 A 
ATOM     33  C   UNL A   1      27.684  27.946  23.355  1.00  0.00     0.000 A 
ATOM     34  C   UNL A   1      32.943  24.031  21.492  1.00  0.00     0.000 A 
ATOM     35  C   UNL A   1      28.514  28.876  22.711  1.00  0.00     0.000 A 
ENDBRANCH   9  14
ENDBRANCH   6   8
ENDBRANCH   5   6
ENDBRANCH   4   5
ENDBRANCH   3   4
ENDBRANCH   2   3
ENDBRANCH   1   2
BRANCH   1  36
ATOM     36  C   UNL A   1      43.397  21.670  25.505  1.00  0.00     0.261 C 
BRANCH  36  37
ATOM     37  O   UNL A   1      42.688  22.852  25.106  1.00  0.00    -0.460 OA
BRANCH  37  38
ATOM     38  C   UNL A   1      43.412  23.992  25.127  1.00  0.00     0.338 C 
ATOM     39  O   UNL A   1      44.309  24.325  24.343  1.00  0.00    -0.246 OA
BRANCH  38  40
ATOM     40  C   UNL A   1      42.858  24.912  26.131  1.00  0.00     0.060 A 
ATOM     41  C   UNL A   1      41.743  24.560  26.892  1.00  0.00     0.016 A 
ATOM     42  C   UNL A   1      43.490  26.148  26.326  1.00  0.00     0.016 A 
ATOM     43  C   UNL A   1      41.271  25.445  27.864  1.00  0.00     0.010 A 
ATOM     44  C   UNL A   1      43.018  27.030  27.296  1.00  0.00     0.010 A 
ATOM     45  C   UNL A   1      41.912  26.680  28.084  1.00  0.00    -0.014 A 
BRANCH  45  46
ATOM     46  C   UNL A   1      41.486  27.548  29.210  1.00  0.00     0.031 A 
ATOM     47  C   UNL A   1      40.287  28.442  29.101  1.00  0.00     0.074 A 
ATOM     48  C   UNL A   1      42.205  27.523  30.348  1.00  0.00     0.049 A 
ATOM     49  N   UNL A   1      39.740  29.200  30.017  1.00  0.00    -0.248 NA
ATOM     50  C   UNL A   1      39.616  28.498  27.795  1.00  0.00     0.031 C 
ATOM     51  C   UNL A   1      43.412  26.723  30.556  1.00  0.00     0.029 A 
ATOM     52  N   UNL A   1      42.024  28.175  31.541  1.00  0.00    -0.354 N 
ATOM     53  C   UNL A   1      38.649  29.805  29.411  1.00  0.00     0.074 A 
ATOM     54  C   UNL A   1      38.644  29.370  28.029  1.00  0.00     0.031 C 
ATOM     55  C   UNL A   1      43.841  26.900  31.815  1.00  0.00     0.029 A 
ATOM     56  C   UNL A   1      42.962  27.850  32.491  1.00  0.00     0.049 A 
ATOM     57  H   UNL A   1      41.293  28.814  31.701  1.00  0.00     0.167 HD
ATOM     58  C   UNL A   1      37.726  30.627  29.965  1.00  0.00     0.037 A 
ATOM     59  C   UNL A   1      43.095  28.264  33.765  1.00  0.00     0.037 A 
ATOM     60  C   UNL A   1      37.748  31.070  31.338  1.00  0.00     0.049 A 
ATOM     61  C   UNL A   1      42.087  29.221  34.338  1.00  0.00     0.074 A 
ATOM     62  C   UNL A   1      36.837  31.878  31.996  1.00  0.00     0.029 A 
ATOM     63  N   UNL A   1      38.738  30.755  32.259  1.00  0.00    -0.354 N 
ATOM     64  N   UNL A   1      41.015  29.725  33.779  1.00  0.00    -0.248 NA
ATOM     65  C   UNL A   1      42.306  29.665  35.722  1.00  0.00     0.031 C 
ATOM     66  C   UNL A   1      37.304  32.101  33.295  1.00  0.00     0.029 A 
ATOM     67  C   UNL A   1      38.475  31.381  33.469  1.00  0.00     0.049 A 
ATOM     68  H   UNL A   1      39.511  30.174  32.080  1.00  0.00     0.167 HD
ATOM     69  C   UNL A   1      40.419  30.525  34.745  1.00  0.00     0.074 A 
ATOM     70  C   UNL A   1      41.239  30.423  35.934  1.00  0.00     0.031 C 
ATOM     71  C   UNL A   1      39.295  31.277  34.650  1.00  0.00     0.037 A 
BRANCH  58  72
ATOM     72  C   UNL A   1      36.595  31.102  29.097  1.00  0.00     0.064 A 
ATOM     73  C   UNL A   1      35.543  30.246  28.739  1.00  0.00     0.173 A 
ATOM     74  C   UNL A   1      36.514  32.444  28.694  1.00  0.00     0.173 A 
ATOM     75  F   UNL A   1      35.573  28.953  29.095  1.00  0.00    -0.203 F 
ATOM     76  C   UNL A   1      34.460  30.711  27.997  1.00  0.00     0.198 A 
ATOM     77  C   UNL A   1      35.415  32.912  27.977  1.00  0.00     0.198 A 
ATOM     78  F   UNL A   1      37.487  33.309  29.018  1.00  0.00    -0.203 F 
ATOM     79  F   UNL A   1      33.483  29.865  27.640  1.00  0.00    -0.200 F 
ATOM     80  C   UNL A   1      34.391  32.045  27.626  1.00  0.00     0.200 A 
ATOM     81  F   UNL A   1      35.341  34.206  27.636  1.00  0.00    -0.200 F 
ATOM     82  F   UNL A   1      33.339  32.494  26.929  1.00  0.00    -0.200 F 
ENDBRANCH  58  72
BRANCH  59  83
ATOM     83  C   UNL A   1      44.211  27.736  34.593  1.00  0.00     0.064 A 
ATOM     84  C   UNL A   1      44.071  26.537  35.306  1.00  0.00     0.173 A 
ATOM     85  C   UNL A   1      45.443  28.401  34.668  1.00  0.00     0.173 A 
ATOM     86  F   UNL A   1      42.905  25.876  35.282  1.00  0.00    -0.203 F 
ATOM     87  C   UNL A   1      45.120  26.028  36.068  1.00  0.00     0.198 A 
ATOM     88  C   UNL A   1      46.502  27.876  35.405  1.00  0.00     0.198 A 
ATOM     89  F   UNL A   1      45.628  29.550  34.001  1.00  0.00    -0.203 F 
ATOM     90  F   UNL A   1      44.950  24.899  36.769  1.00  0.00    -0.200 F 
ATOM     91  C   UNL A   1      46.337  26.692  36.110  1.00  0.00     0.200 A 
ATOM     92  F   UNL A   1      47.681  28.511  35.429  1.00  0.00    -0.200 F 
ATOM     93  F   UNL A   1      47.350  26.194  36.831  1.00  0.00    -0.200 F 
ENDBRANCH  59  83
BRANCH  71  94
ATOM     94  C   UNL A   1      38.867  32.049  35.866  1.00  0.00     0.064 A 
ATOM     95  C   UNL A   1      38.162  31.439  36.914  1.00  0.00     0.173 A 
ATOM     96  C   UNL A   1      39.229  33.397  36.019  1.00  0.00     0.173 A 
ATOM     97  F   UNL A   1      37.780  30.158  36.813  1.00  0.00    -0.203 F 
ATOM     98  C   UNL A   1      37.824  32.152  38.061  1.00  0.00     0.198 A 
ATOM     99  C   UNL A   1      38.918  34.098  37.181  1.00  0.00     0.198 A 
ATOM    100  F   UNL A   1      39.910  34.029  35.051  1.00  0.00    -0.203 F 
ATOM    101  F   UNL A   1      37.117  31.558  39.033  1.00  0.00    -0.200 F 
ATOM    102  C   UNL A   1      38.212  33.476  38.199  1.00  0.00     0.200 A 
ATOM    103  F   UNL A   1      39.310  35.372  37.319  1.00  0.00    -0.200 F 
ATOM    104  F   UNL A   1      37.903  34.154  39.313  1.00  0.00    -0.200 F 
ENDBRANCH  71  94
ENDBRANCH  45  46
ENDBRANCH  38  40
ENDBRANCH  37  38
ENDBRANCH  36  37
ENDBRANCH   1  36
TORSDOF 15
ENDMDL
MODEL 2
REMARK VINA RESULT:     -13.9      3.107      8.602
REMARK SMILES C[C@]12C(=O)N(c3ccc(C(=O)OCCOCCOC(=O)c4ccc(-c5c6nc(c(-c7c(F)c(F)c(F)c(F)c7F)c7ccc([nH]7)c(-c7c(F)c(F)c(F)c(F)c7F)c7nc(c(-c8c(F)c(F)c(F)c(F)c8F)c8ccc5[nH]8)C=C7)C=C6)cc4)cc3)C(=O)[C@H]1[C@H]1c3ccccc3[C@@H]2c2ccccc21
REMARK SMILES IDX 16 1 15 2 14 3 13 4 12 5 10 6 11 7 9 8 6 9 7 10 85 11 8 12
REMARK SMILES IDX 84 13 5 14 1 15 2 16 3 17 88 18 96 19 4 20 86 21 89 22 95 23
REMARK SMILES IDX 97 24 87 25 90 26 102 27 94 28 98 29 91 30 101 31 93 32
REMARK SMILES IDX 99 33 92 34 100 35 17 36 18 37 19 38 20 39 21 40 22 41 83 42
REMARK SMILES IDX 23 43 82 44 24 45 25 46 26 47 76 48 27 49 81 50 75 51 77 52
REMARK SMILES IDX 28 53 80 54 74 55 73 56 29 58 61 59 41 60 60 61 42 62 45 63
REMARK SMILES IDX 59 64 78 65 43 66 44 67 58 69 79 70 46 71 30 72 31 73 39 74
REMARK SMILES IDX 32 75 33 76 37 77 40 78 34 79 35 80 38 81 36 82 62 83 63 84
REMARK SMILES IDX 71 85 64 86 65 87 69 88 72 89 66 90 67 91 70 92 68 93 47 94
REMARK SMILES IDX 48 95 56 96 49 97 50 98 54 99 57 100 51 101 52 102 55 103
REMARK SMILES IDX 53 104
REMARK H PARENT 77 57 45 68
REMARK Flexibility Score: inf
ROOT
ATOM      1  C   UNL A   1      31.683  28.794  26.200  1.00  0.00     0.202 C 
ENDROOT
BRANCH   1   2
ATOM      2  O   UNL A   1      32.171  28.281  24.964  1.00  0.00    -0.374 OA
BRANCH   2   3
ATOM      3  C   UNL A   1      31.772  28.921  23.755  1.00  0.00     0.202 C 
BRANCH   3   4
ATOM      4  C   UNL A   1      30.274  29.125  23.500  1.00  0.00     0.261 C 
BRANCH   4   5
ATOM      5  O   UNL A   1      29.686  28.026  22.782  1.00  0.00    -0.460 OA
BRANCH   5   6
ATOM      6  C   UNL A   1      28.773  27.325  23.495  1.00  0.00     0.338 C 
ATOM      7  O   UNL A   1      27.577  27.548  23.589  1.00  0.00    -0.246 OA
BRANCH   6   8
ATOM      8  C   UNL A   1      29.369  26.078  24.001  1.00  0.00     0.060 A 
ATOM      9  C   UNL A   1      30.843  23.975  25.124  1.00  0.00     0.052 A 
ATOM     10  C   UNL A   1      30.171  24.897  25.940  1.00  0.00     0.028 A 
ATOM     11  C   UNL A   1      30.653  24.052  23.733  1.00  0.00     0.028 A 
ATOM     12  C   UNL A   1      29.479  25.964  25.385  1.00  0.00     0.018 A 
ATOM     13  C   UNL A   1      29.898  25.094  23.169  1.00  0.00     0.018 A 
BRANCH   9  14
ATOM     14  N   UNL A   1      31.867  23.196  25.707  1.00  0.00    -0.250 N 
ATOM     15  C   UNL A   1      34.349  22.196  27.863  1.00  0.00     0.024 C 
ATOM     16  C   UNL A   1      33.976  22.786  26.505  1.00  0.00     0.071 C 
ATOM     17  C   UNL A   1      32.724  23.602  26.665  1.00  0.00     0.241 C 
ATOM     18  C   UNL A   1      33.769  21.673  25.425  1.00  0.00     0.107 C 
ATOM     19  C   UNL A   1      35.008  23.900  25.997  1.00  0.00     0.066 C 
ATOM     20  O   UNL A   1      32.578  24.472  27.513  1.00  0.00    -0.273 OA
ATOM     21  C   UNL A   1      32.193  21.926  25.393  1.00  0.00     0.238 C 
ATOM     22  C   UNL A   1      34.886  21.897  24.346  1.00  0.00     0.063 C 
ATOM     23  C   UNL A   1      34.584  24.298  24.567  1.00  0.00    -0.036 A 
ATOM     24  C   UNL A   1      36.337  23.189  25.874  1.00  0.00    -0.036 A 
ATOM     25  O   UNL A   1      31.367  21.012  25.304  1.00  0.00    -0.274 OA
ATOM     26  C   UNL A   1      34.519  23.197  23.683  1.00  0.00    -0.036 A 
ATOM     27  C   UNL A   1      36.266  22.069  25.018  1.00  0.00    -0.036 A 
ATOM     28  C   UNL A   1      34.201  25.556  24.130  1.00  0.00     0.005 A 
ATOM     29  C   UNL A   1      37.526  23.577  26.478  1.00  0.00     0.005 A 
ATOM     30  C   UNL A   1      34.062  23.328  22.382  1.00  0.00     0.004 A 
ATOM     31  C   UNL A   1      37.412  21.324  24.772  1.00  0.00     0.004 A 
ATOM     32  C   UNL A   1      33.723  25.691  22.822  1.00  0.00     0.000 A 
ATOM     33  C   UNL A   1      38.672  22.831  26.221  1.00  0.00     0.000 A 
ATOM     34  C   UNL A   1      33.653  24.587  21.957  1.00  0.00     0.000 A 
ATOM     35  C   UNL A   1      38.615  21.712  25.376  1.00  0.00     0.000 A 
ENDBRANCH   9  14
ENDBRANCH   6   8
ENDBRANCH   5   6
ENDBRANCH   4   5
ENDBRANCH   3   4
ENDBRANCH   2   3
ENDBRANCH   1   2
BRANCH   1  36
ATOM     36  C   UNL A   1      31.916  30.276  26.525  1.00  0.00     0.261 C 
BRANCH  36  37
ATOM     37  O   UNL A   1      33.280  30.695  26.364  1.00  0.00    -0.460 OA
BRANCH  37  38
ATOM     38  C   UNL A   1      33.707  31.619  27.251  1.00  0.00     0.338 C 
ATOM     39  O   UNL A   1      33.092  32.617  27.649  1.00  0.00    -0.246 OA
BRANCH  38  40
ATOM     40  C   UNL A   1      34.975  31.182  27.851  1.00  0.00     0.060 A 
ATOM     41  C   UNL A   1      36.026  32.078  28.045  1.00  0.00     0.016 A 
ATOM     42  C   UNL A   1      35.100  29.843  28.248  1.00  0.00     0.016 A 
ATOM     43  C   UNL A   1      37.201  31.633  28.655  1.00  0.00     0.010 A 
ATOM     44  C   UNL A   1      36.273  29.401  28.858  1.00  0.00     0.010 A 
ATOM     45  C   UNL A   1      37.330  30.296  29.079  1.00  0.00    -0.014 A 
BRANCH  45  46
ATOM     46  C   UNL A   1      38.526  29.873  29.848  1.00  0.00     0.031 A 
ATOM     47  C   UNL A   1      38.797  30.397  31.227  1.00  0.00     0.074 A 
ATOM     48  C   UNL A   1      39.380  29.000  29.280  1.00  0.00     0.049 A 
ATOM     49  N   UNL A   1      39.754  30.068  32.058  1.00  0.00    -0.248 NA
ATOM     50  C   UNL A   1      37.883  31.426  31.738  1.00  0.00     0.031 C 
ATOM     51  C   UNL A   1      39.240  28.452  27.931  1.00  0.00     0.029 A 
ATOM     52  N   UNL A   1      40.522  28.414  29.763  1.00  0.00    -0.354 N 
ATOM     53  C   UNL A   1      39.546  30.829  33.199  1.00  0.00     0.074 A 
ATOM     54  C   UNL A   1      38.404  31.680  32.932  1.00  0.00     0.031 C 
ATOM     55  C   UNL A   1      40.234  27.580  27.708  1.00  0.00     0.029 A 
ATOM     56  C   UNL A   1      41.099  27.532  28.883  1.00  0.00     0.049 A 
ATOM     57  H   UNL A   1      40.892  28.607  30.654  1.00  0.00     0.167 HD
ATOM     58  C   UNL A   1      40.231  30.800  34.367  1.00  0.00     0.037 A 
ATOM     59  C   UNL A   1      42.199  26.764  29.010  1.00  0.00     0.037 A 
ATOM     60  C   UNL A   1      41.378  29.962  34.619  1.00  0.00     0.049 A 
ATOM     61  C   UNL A   1      42.973  26.793  30.299  1.00  0.00     0.074 A 
ATOM     62  C   UNL A   1      42.116  29.841  35.784  1.00  0.00     0.029 A 
ATOM     63  N   UNL A   1      41.962  29.112  33.689  1.00  0.00    -0.354 N 
ATOM     64  N   UNL A   1      42.721  27.458  31.400  1.00  0.00    -0.248 NA
ATOM     65  C   UNL A   1      44.183  25.962  30.365  1.00  0.00     0.031 C 
ATOM     66  C   UNL A   1      43.180  28.967  35.542  1.00  0.00     0.029 A 
ATOM     67  C   UNL A   1      43.070  28.491  34.246  1.00  0.00     0.049 A 
ATOM     68  H   UNL A   1      41.637  28.972  32.771  1.00  0.00     0.167 HD
ATOM     69  C   UNL A   1      43.724  27.110  32.295  1.00  0.00     0.074 A 
ATOM     70  C   UNL A   1      44.578  26.159  31.615  1.00  0.00     0.031 C 
ATOM     71  C   UNL A   1      43.918  27.545  33.564  1.00  0.00     0.037 A 
BRANCH  58  72
ATOM     72  C   UNL A   1      39.759  31.690  35.482  1.00  0.00     0.064 A 
ATOM     73  C   UNL A   1      40.291  32.975  35.664  1.00  0.00     0.173 A 
ATOM     74  C   UNL A   1      38.706  31.293  36.321  1.00  0.00     0.173 A 
ATOM     75  F   UNL A   1      41.302  33.402  34.892  1.00  0.00    -0.203 F 
ATOM     76  C   UNL A   1      39.799  33.823  36.652  1.00  0.00     0.198 A 
ATOM     77  C   UNL A   1      38.196  32.155  37.289  1.00  0.00     0.198 A 
ATOM     78  F   UNL A   1      38.153  30.078  36.184  1.00  0.00    -0.203 F 
ATOM     79  F   UNL A   1      40.346  35.034  36.827  1.00  0.00    -0.200 F 
ATOM     80  C   UNL A   1      38.745  33.417  37.457  1.00  0.00     0.200 A 
ATOM     81  F   UNL A   1      37.165  31.767  38.053  1.00  0.00    -0.200 F 
ATOM     82  F   UNL A   1      38.259  34.242  38.393  1.00  0.00    -0.200 F 
ENDBRANCH  58  72
BRANCH  59  83
ATOM     83  C   UNL A   1      42.602  25.873  27.891  1.00  0.00     0.064 A 
ATOM     84  C   UNL A   1      43.553  26.289  26.949  1.00  0.00     0.173 A 
ATOM     85  C   UNL A   1      42.069  24.584  27.754  1.00  0.00     0.173 A 
ATOM     86  F   UNL A   1      44.077  27.521  27.026  1.00  0.00    -0.203 F 
ATOM     87  C   UNL A   1      43.949  25.452  25.909  1.00  0.00     0.198 A 
ATOM     88  C   UNL A   1      42.487  23.735  26.732  1.00  0.00     0.198 A 
ATOM     89  F   UNL A   1      41.157  24.137  28.632  1.00  0.00    -0.203 F 
ATOM     90  F   UNL A   1      44.834  25.886  25.001  1.00  0.00    -0.200 F 
ATOM     91  C   UNL A   1      43.424  24.173  25.807  1.00  0.00     0.200 A 
ATOM     92  F   UNL A   1      41.990  22.494  26.647  1.00  0.00    -0.200 F 
ATOM     93  F   UNL A   1      43.816  23.362  24.815  1.00  0.00    -0.200 F 
ENDBRANCH  59  83
BRANCH  71  94
ATOM     94  C   UNL A   1      45.095  26.993  34.319  1.00  0.00     0.064 A 
ATOM     95  C   UNL A   1      46.323  27.669  34.360  1.00  0.00     0.173 A 
ATOM     96  C   UNL A   1      44.971  25.814  35.070  1.00  0.00     0.173 A 
ATOM     97  F   UNL A   1      46.499  28.792  33.650  1.00  0.00    -0.203 F 
ATOM     98  C   UNL A   1      47.387  27.177  35.113  1.00  0.00     0.198 A 
ATOM     99  C   UNL A   1      46.026  25.343  35.848  1.00  0.00     0.198 A 
ATOM    100  F   UNL A   1      43.816  25.131  35.073  1.00  0.00    -0.203 F 
ATOM    101  F   UNL A   1      48.563  27.820  35.106  1.00  0.00    -0.200 F 
ATOM    102  C   UNL A   1      47.233  26.022  35.865  1.00  0.00     0.200 A 
ATOM    103  F   UNL A   1      45.869  24.237  36.588  1.00  0.00    -0.200 F 
ATOM    104  F   UNL A   1      48.252  25.562  36.604  1.00  0.00    -0.200 F 
ENDBRANCH  71  94
ENDBRANCH  45  46
ENDBRANCH  38  40
ENDBRANCH  37  38
ENDBRANCH  36  37
ENDBRANCH   1  36
TORSDOF 15
ENDMDL
MODEL 3
REMARK VINA RESULT:     -13.7      3.840      9.125
REMARK SMILES C[C@]12C(=O)N(c3ccc(C(=O)OCCOCCOC(=O)c4ccc(-c5c6nc(c(-c7c(F)c(F)c(F)c(F)c7F)c7ccc([nH]7)c(-c7c(F)c(F)c(F)c(F)c7F)c7nc(c(-c8c(F)c(F)c(F)c(F)c8F)c8ccc5[nH]8)C=C7)C=C6)cc4)cc3)C(=O)[C@H]1[C@H]1c3ccccc3[C@@H]2c2ccccc21
REMARK SMILES IDX 16 1 15 2 14 3 13 4 12 5 10 6 11 7 9 8 6 9 7 10 85 11 8 12
REMARK SMILES IDX 84 13 5 14 1 15 2 16 3 17 88 18 96 19 4 20 86 21 89 22 95 23
REMARK SMILES IDX 97 24 87 25 90 26 102 27 94 28 98 29 91 30 101 31 93 32
REMARK SMILES IDX 99 33 92 34 100 35 17 36 18 37 19 38 20 39 21 40 22 41 83 42
REMARK SMILES IDX 23 43 82 44 24 45 25 46 26 47 76 48 27 49 81 50 75 51 77 52
REMARK SMILES IDX 28 53 80 54 74 55 73 56 29 58 61 59 41 60 60 61 42 62 45 63
REMARK SMILES IDX 59 64 78 65 43 66 44 67 58 69 79 70 46 71 30 72 31 73 39 74
REMARK SMILES IDX 32 75 33 76 37 77 40 78 34 79 35 80 38 81 36 82 62 83 63 84
REMARK SMILES IDX 71 85 64 86 65 87 69 88 72 89 66 90 67 91 70 92 68 93 47 94
REMARK SMILES IDX 48 95 56 96 49 97 50 98 54 99 57 100 51 101 52 102 55 103
REMARK SMILES IDX 53 104
REMARK H PARENT 77 57 45 68
REMARK Flexibility Score: inf
ROOT
ATOM      1  C   UNL A   1      33.242  29.101  25.049  1.00  0.00     0.202 C 
ENDROOT
BRANCH   1   2
ATOM      2  O   UNL A   1      32.228  28.779  24.102  1.00  0.00    -0.374 OA
BRANCH   2   3
ATOM      3  C   UNL A   1      30.969  29.438  24.200  1.00  0.00     0.202 C 
BRANCH   3   4
ATOM      4  C   UNL A   1      30.015  29.369  23.002  1.00  0.00     0.261 C 
BRANCH   4   5
ATOM      5  O   UNL A   1      29.736  28.017  22.600  1.00  0.00    -0.460 OA
BRANCH   5   6
ATOM      6  C   UNL A   1      28.826  27.385  23.378  1.00  0.00     0.338 C 
ATOM      7  O   UNL A   1      27.642  27.656  23.501  1.00  0.00    -0.246 OA
BRANCH   6   8
ATOM      8  C   UNL A   1      29.395  26.143  23.925  1.00  0.00     0.060 A 
ATOM      9  C   UNL A   1      30.829  24.045  25.107  1.00  0.00     0.052 A 
ATOM     10  C   UNL A   1      30.202  25.020  25.897  1.00  0.00     0.028 A 
ATOM     11  C   UNL A   1      30.613  24.069  23.719  1.00  0.00     0.028 A 
ATOM     12  C   UNL A   1      29.531  26.084  25.310  1.00  0.00     0.018 A 
ATOM     13  C   UNL A   1      29.877  25.109  23.125  1.00  0.00     0.018 A 
BRANCH   9  14
ATOM     14  N   UNL A   1      31.842  23.261  25.703  1.00  0.00    -0.250 N 
ATOM     15  C   UNL A   1      34.315  22.263  27.870  1.00  0.00     0.024 C 
ATOM     16  C   UNL A   1      33.947  22.831  26.501  1.00  0.00     0.071 C 
ATOM     17  C   UNL A   1      32.710  23.671  26.649  1.00  0.00     0.241 C 
ATOM     18  C   UNL A   1      33.716  21.699  25.446  1.00  0.00     0.107 C 
ATOM     19  C   UNL A   1      34.996  23.915  25.966  1.00  0.00     0.066 C 
ATOM     20  O   UNL A   1      32.583  24.561  27.479  1.00  0.00    -0.273 OA
ATOM     21  C   UNL A   1      32.145  21.978  25.414  1.00  0.00     0.238 C 
ATOM     22  C   UNL A   1      34.832  21.880  24.359  1.00  0.00     0.063 C 
ATOM     23  C   UNL A   1      34.573  24.291  24.529  1.00  0.00    -0.036 A 
ATOM     24  C   UNL A   1      36.311  23.178  25.854  1.00  0.00    -0.036 A 
ATOM     25  O   UNL A   1      31.302  21.077  25.348  1.00  0.00    -0.274 OA
ATOM     26  C   UNL A   1      34.485  23.172  23.669  1.00  0.00    -0.036 A 
ATOM     27  C   UNL A   1      36.217  22.042  25.021  1.00  0.00    -0.036 A 
ATOM     28  C   UNL A   1      34.211  25.545  24.068  1.00  0.00     0.005 A 
ATOM     29  C   UNL A   1      37.510  23.558  26.445  1.00  0.00     0.005 A 
ATOM     30  C   UNL A   1      34.025  23.284  22.368  1.00  0.00     0.004 A 
ATOM     31  C   UNL A   1      37.349  21.272  24.787  1.00  0.00     0.004 A 
ATOM     32  C   UNL A   1      33.730  25.661  22.759  1.00  0.00     0.000 A 
ATOM     33  C   UNL A   1      38.642  22.786  26.199  1.00  0.00     0.000 A 
ATOM     34  C   UNL A   1      33.637  24.541  21.918  1.00  0.00     0.000 A 
ATOM     35  C   UNL A   1      38.562  21.651  25.378  1.00  0.00     0.000 A 
ENDBRANCH   9  14
ENDBRANCH   6   8
ENDBRANCH   5   6
ENDBRANCH   4   5
ENDBRANCH   3   4
ENDBRANCH   2   3
ENDBRANCH   1   2
BRANCH   1  36
ATOM     36  C   UNL A   1      32.899  30.064  26.195  1.00  0.00     0.261 C 
BRANCH  36  37
ATOM     37  O   UNL A   1      33.628  29.805  27.405  1.00  0.00    -0.460 OA
BRANCH  37  38
ATOM     38  C   UNL A   1      34.442  30.801  27.812  1.00  0.00     0.338 C 
ATOM     39  O   UNL A   1      34.134  31.981  28.028  1.00  0.00    -0.246 OA
BRANCH  38  40
ATOM     40  C   UNL A   1      35.762  30.254  28.157  1.00  0.00     0.060 A 
ATOM     41  C   UNL A   1      36.820  30.303  27.251  1.00  0.00     0.016 A 
ATOM     42  C   UNL A   1      35.942  29.700  29.432  1.00  0.00     0.016 A 
ATOM     43  C   UNL A   1      38.070  29.808  27.631  1.00  0.00     0.010 A 
ATOM     44  C   UNL A   1      37.190  29.207  29.811  1.00  0.00     0.010 A 
ATOM     45  C   UNL A   1      38.269  29.269  28.918  1.00  0.00    -0.014 A 
BRANCH  45  46
ATOM     46  C   UNL A   1      39.631  28.876  29.355  1.00  0.00     0.031 A 
ATOM     47  C   UNL A   1      40.423  29.721  30.308  1.00  0.00     0.074 A 
ATOM     48  C   UNL A   1      40.156  27.734  28.873  1.00  0.00     0.049 A 
ATOM     49  N   UNL A   1      41.593  29.478  30.845  1.00  0.00    -0.248 NA
ATOM     50  C   UNL A   1      39.832  31.005  30.706  1.00  0.00     0.031 C 
ATOM     51  C   UNL A   1      39.496  26.851  27.911  1.00  0.00     0.029 A 
ATOM     52  N   UNL A   1      41.353  27.114  29.130  1.00  0.00    -0.354 N 
ATOM     53  C   UNL A   1      41.868  30.564  31.664  1.00  0.00     0.074 A 
ATOM     54  C   UNL A   1      40.770  31.496  31.507  1.00  0.00     0.031 C 
ATOM     55  C   UNL A   1      40.277  25.784  27.690  1.00  0.00     0.029 A 
ATOM     56  C   UNL A   1      41.507  25.922  28.465  1.00  0.00     0.049 A 
ATOM     57  H   UNL A   1      42.035  27.487  29.733  1.00  0.00     0.167 HD
ATOM     58  C   UNL A   1      42.929  30.752  32.484  1.00  0.00     0.037 A 
ATOM     59  C   UNL A   1      42.521  25.036  28.483  1.00  0.00     0.037 A 
ATOM     60  C   UNL A   1      44.028  29.828  32.621  1.00  0.00     0.049 A 
ATOM     61  C   UNL A   1      43.712  25.297  29.362  1.00  0.00     0.074 A 
ATOM     62  C   UNL A   1      45.131  29.918  33.453  1.00  0.00     0.029 A 
ATOM     63  N   UNL A   1      44.172  28.650  31.899  1.00  0.00    -0.354 N 
ATOM     64  N   UNL A   1      43.926  26.289  30.191  1.00  0.00    -0.248 NA
ATOM     65  C   UNL A   1      44.802  24.312  29.311  1.00  0.00     0.031 C 
ATOM     66  C   UNL A   1      45.970  28.831  33.192  1.00  0.00     0.029 A 
ATOM     67  C   UNL A   1      45.361  28.026  32.243  1.00  0.00     0.049 A 
ATOM     68  H   UNL A   1      43.525  28.311  31.240  1.00  0.00     0.167 HD
ATOM     69  C   UNL A   1      45.161  26.038  30.777  1.00  0.00     0.074 A 
ATOM     70  C   UNL A   1      45.639  24.790  30.222  1.00  0.00     0.031 C 
ATOM     71  C   UNL A   1      45.834  26.782  31.688  1.00  0.00     0.037 A 
BRANCH  58  72
ATOM     72  C   UNL A   1      42.960  32.000  33.320  1.00  0.00     0.064 A 
ATOM     73  C   UNL A   1      42.374  32.039  34.594  1.00  0.00     0.173 A 
ATOM     74  C   UNL A   1      43.655  33.139  32.885  1.00  0.00     0.173 A 
ATOM     75  F   UNL A   1      41.694  30.979  35.057  1.00  0.00    -0.203 F 
ATOM     76  C   UNL A   1      42.470  33.174  35.395  1.00  0.00     0.198 A 
ATOM     77  C   UNL A   1      43.775  34.262  33.700  1.00  0.00     0.198 A 
ATOM     78  F   UNL A   1      44.243  33.153  31.678  1.00  0.00    -0.203 F 
ATOM     79  F   UNL A   1      41.874  33.197  36.596  1.00  0.00    -0.200 F 
ATOM     80  C   UNL A   1      43.179  34.281  34.952  1.00  0.00     0.200 A 
ATOM     81  F   UNL A   1      44.476  35.324  33.278  1.00  0.00    -0.200 F 
ATOM     82  F   UNL A   1      43.287  35.365  35.732  1.00  0.00    -0.200 F 
ENDBRANCH  58  72
BRANCH  59  83
ATOM     83  C   UNL A   1      42.425  23.798  27.666  1.00  0.00     0.064 A 
ATOM     84  C   UNL A   1      41.910  22.615  28.212  1.00  0.00     0.173 A 
ATOM     85  C   UNL A   1      42.819  23.779  26.320  1.00  0.00     0.173 A 
ATOM     86  F   UNL A   1      41.539  22.578  29.500  1.00  0.00    -0.203 F 
ATOM     87  C   UNL A   1      41.800  21.457  27.445  1.00  0.00     0.198 A 
ATOM     88  C   UNL A   1      42.681  22.630  25.545  1.00  0.00     0.198 A 
ATOM     89  F   UNL A   1      43.316  24.887  25.749  1.00  0.00    -0.203 F 
ATOM     90  F   UNL A   1      41.338  20.329  28.001  1.00  0.00    -0.200 F 
ATOM     91  C   UNL A   1      42.176  21.467  26.111  1.00  0.00     0.200 A 
ATOM     92  F   UNL A   1      43.029  22.649  24.252  1.00  0.00    -0.200 F 
ATOM     93  F   UNL A   1      42.057  20.358  25.370  1.00  0.00    -0.200 F 
ENDBRANCH  59  83
BRANCH  71  94
ATOM     94  C   UNL A   1      47.164  26.268  32.163  1.00  0.00     0.064 A 
ATOM     95  C   UNL A   1      47.264  25.368  33.234  1.00  0.00     0.173 A 
ATOM     96  C   UNL A   1      48.346  26.621  31.493  1.00  0.00     0.173 A 
ATOM     97  F   UNL A   1      46.168  25.009  33.918  1.00  0.00    -0.203 F 
ATOM     98  C   UNL A   1      48.498  24.854  33.626  1.00  0.00     0.198 A 
ATOM     99  C   UNL A   1      49.573  26.079  31.865  1.00  0.00     0.198 A 
ATOM    100  F   UNL A   1      48.308  27.472  30.456  1.00  0.00    -0.203 F 
ATOM    101  F   UNL A   1      48.573  24.025  34.677  1.00  0.00    -0.200 F 
ATOM    102  C   UNL A   1      49.649  25.200  32.934  1.00  0.00     0.200 A 
ATOM    103  F   UNL A   1      50.681  26.401  31.183  1.00  0.00    -0.200 F 
ATOM    104  F   UNL A   1      50.832  24.688  33.299  1.00  0.00    -0.200 F 
ENDBRANCH  71  94
ENDBRANCH  45  46
ENDBRANCH  38  40
ENDBRANCH  37  38
ENDBRANCH  36  37
ENDBRANCH   1  36
TORSDOF 15
ENDMDL
