MODEL 1
REMARK VINA RESULT:     -13.2      0.000      0.000
REMARK SMILES O=C(OCCOCCOC(=O)c1ccc(-c2c3nc(c(-c4c(F)c(F)c(F)c(F)c4F)c4ccc([nH]4)c(-c4c(F)c(F)c(F)c(F)c4F)c4nc(c(-c5c(F)c(F)c(F)c(F)c5F)c5ccc2[nH]5)C=C4)C=C3)cc1)C1=Cc2cc(Cl)cc(Cl)c2O[C@@H]1C(F)(F)F
REMARK SMILES IDX 7 1 6 2 5 3 4 4 3 5 2 6 1 7 75 8 76 9 86 10 77 11 85 12
REMARK SMILES IDX 78 13 84 14 79 15 82 16 80 17 81 18 83 19 87 20 88 21 89 22
REMARK SMILES IDX 90 23 8 24 9 25 10 26 11 27 12 28 13 29 74 30 14 31 73 32
REMARK SMILES IDX 15 33 16 34 17 35 67 36 18 37 72 38 66 39 68 40 19 41 71 42
REMARK SMILES IDX 65 43 64 44 20 46 52 47 32 48 51 49 33 50 36 51 50 52 69 53
REMARK SMILES IDX 34 54 35 55 49 57 70 58 37 59 21 60 22 61 30 62 23 63 24 64
REMARK SMILES IDX 28 65 31 66 25 67 26 68 29 69 27 70 53 71 54 72 62 73 55 74
REMARK SMILES IDX 56 75 60 76 63 77 57 78 58 79 61 80 59 81 38 82 39 83 47 84
REMARK SMILES IDX 40 85 41 86 45 87 48 88 42 89 43 90 46 91 44 92
REMARK H PARENT 68 45 36 56
REMARK Flexibility Score: inf
ROOT
ATOM      1  C   UNL A   1      42.703  20.557  26.145  1.00  0.00     0.202 C 
ENDROOT
BRANCH   1   2
ATOM      2  O   UNL A   1      41.281  20.559  25.970  1.00  0.00    -0.374 OA
BRANCH   2   3
ATOM      3  C   UNL A   1      40.064  21.254  26.701  1.00  0.00     0.202 C 
BRANCH   3   4
ATOM      4  C   UNL A   1      38.475  22.589  26.025  1.00  0.00     0.261 C 
BRANCH   4   5
ATOM      5  O   UNL A   1      37.012  22.223  25.769  1.00  0.00    -0.460 OA
BRANCH   5   6
ATOM      6  C   UNL A   1      36.491  22.872  24.723  1.00  0.00     0.338 C 
ATOM      7  O   UNL A   1      37.050  23.406  23.801  1.00  0.00    -0.246 OA
BRANCH   6   8
ATOM      8  C   UNL A   1      35.168  23.031  25.292  1.00  0.00     0.087 C 
ATOM      9  C   UNL A   1      34.911  24.439  25.706  1.00  0.00     0.027 C 
ATOM     10  C   UNL A   1      34.234  22.119  23.861  1.00  0.00     0.316 C 
ATOM     11  C   UNL A   1      33.826  25.578  24.787  1.00  0.00     0.020 A 
ATOM     12  O   UNL A   1      33.135  23.327  22.837  1.00  0.00    -0.474 OA
ATOM     13  C   UNL A   1      33.798  26.903  25.128  1.00  0.00     0.032 A 
ATOM     14  C   UNL A   1      33.043  25.087  23.315  1.00  0.00     0.146 A 
ATOM     15  C   UNL A   1      33.184  27.749  24.184  1.00  0.00     0.043 A 
ATOM     16  C   UNL A   1      32.650  26.014  22.391  1.00  0.00     0.085 A 
ATOM     17  Cl  UNL A   1      33.094  29.435  24.586  1.00  0.00    -0.084 Cl
ATOM     18  C   UNL A   1      32.693  27.343  22.876  1.00  0.00     0.045 A 
ATOM     19  Cl  UNL A   1      32.502  25.677  20.728  1.00  0.00    -0.080 Cl
BRANCH  10  20
ATOM     20  C   UNL A   1      33.878  20.779  24.631  1.00  0.00     0.430 C 
ATOM     21  F   UNL A   1      33.326  20.933  25.846  1.00  0.00    -0.167 F 
ATOM     22  F   UNL A   1      32.921  20.139  23.892  1.00  0.00    -0.167 F 
ATOM     23  F   UNL A   1      34.891  19.887  24.712  1.00  0.00    -0.167 F 
ENDBRANCH  10  20
ENDBRANCH   6   8
ENDBRANCH   5   6
ENDBRANCH   4   5
ENDBRANCH   3   4
ENDBRANCH   2   3
ENDBRANCH   1   2
BRANCH   1  24
ATOM     24  C   UNL A   1      43.536  21.658  25.519  1.00  0.00     0.261 C 
BRANCH  24  25
ATOM     25  O   UNL A   1      42.789  22.829  25.267  1.00  0.00    -0.460 OA
BRANCH  25  26
ATOM     26  C   UNL A   1      43.532  23.948  25.139  1.00  0.00     0.338 C 
ATOM     27  O   UNL A   1      44.460  24.158  24.382  1.00  0.00    -0.246 OA
BRANCH  26  28
ATOM     28  C   UNL A   1      42.999  24.919  26.104  1.00  0.00     0.060 A 
ATOM     29  C   UNL A   1      43.464  26.236  26.050  1.00  0.00     0.016 A 
ATOM     30  C   UNL A   1      41.999  24.535  27.009  1.00  0.00     0.016 A 
ATOM     31  C   UNL A   1      42.887  27.193  26.877  1.00  0.00     0.010 A 
ATOM     32  C   UNL A   1      41.424  25.488  27.833  1.00  0.00     0.010 A 
ATOM     33  C   UNL A   1      41.877  26.814  27.773  1.00  0.00    -0.014 A 
BRANCH  33  34
ATOM     34  C   UNL A   1      41.476  27.719  28.860  1.00  0.00     0.031 A 
ATOM     35  C   UNL A   1      42.253  27.612  30.132  1.00  0.00     0.074 A 
ATOM     36  C   UNL A   1      40.425  28.543  28.737  1.00  0.00     0.049 A 
ATOM     37  N   UNL A   1      42.057  28.199  31.279  1.00  0.00    -0.248 NA
ATOM     38  C   UNL A   1      43.406  26.692  30.107  1.00  0.00     0.031 C 
ATOM     39  C   UNL A   1      39.620  28.720  27.532  1.00  0.00     0.029 A 
ATOM     40  N   UNL A   1      39.843  29.372  29.661  1.00  0.00    -0.354 N 
ATOM     41  C   UNL A   1      43.058  27.720  32.109  1.00  0.00     0.074 A 
ATOM     42  C   UNL A   1      43.827  26.758  31.357  1.00  0.00     0.031 C 
ATOM     43  C   UNL A   1      38.633  29.596  27.795  1.00  0.00     0.029 A 
ATOM     44  C   UNL A   1      38.718  30.005  29.195  1.00  0.00     0.049 A 
ATOM     45  H   UNL A   1      40.197  29.499  30.570  1.00  0.00     0.167 HD
ATOM     46  C   UNL A   1      43.312  28.063  33.391  1.00  0.00     0.037 A 
ATOM     47  C   UNL A   1      37.849  30.799  29.850  1.00  0.00     0.037 A 
ATOM     48  C   UNL A   1      42.503  28.985  34.134  1.00  0.00     0.049 A 
ATOM     49  C   UNL A   1      38.100  31.101  31.307  1.00  0.00     0.074 A 
ATOM     50  C   UNL A   1      42.658  29.411  35.438  1.00  0.00     0.029 A 
ATOM     51  N   UNL A   1      41.361  29.603  33.637  1.00  0.00    -0.354 N 
ATOM     52  N   UNL A   1      39.071  30.684  32.085  1.00  0.00    -0.248 NA
ATOM     53  C   UNL A   1      37.138  31.987  31.977  1.00  0.00     0.031 C 
ATOM     54  C   UNL A   1      41.565  30.223  35.756  1.00  0.00     0.029 A 
ATOM     55  C   UNL A   1      40.782  30.383  34.622  1.00  0.00     0.049 A 
ATOM     56  H   UNL A   1      41.016  29.501  32.720  1.00  0.00     0.167 HD
ATOM     57  C   UNL A   1      38.864  31.289  33.320  1.00  0.00     0.074 A 
ATOM     58  C   UNL A   1      37.671  32.100  33.186  1.00  0.00     0.031 C 
ATOM     59  C   UNL A   1      39.600  31.194  34.455  1.00  0.00     0.037 A 
BRANCH  46  60
ATOM     60  C   UNL A   1      44.469  27.381  34.058  1.00  0.00     0.064 A 
ATOM     61  C   UNL A   1      44.318  26.167  34.752  1.00  0.00     0.173 A 
ATOM     62  C   UNL A   1      45.739  27.974  34.047  1.00  0.00     0.173 A 
ATOM     63  F   UNL A   1      43.117  25.570  34.816  1.00  0.00    -0.203 F 
ATOM     64  C   UNL A   1      45.383  25.604  35.449  1.00  0.00     0.198 A 
ATOM     65  C   UNL A   1      46.812  27.384  34.709  1.00  0.00     0.198 A 
ATOM     66  F   UNL A   1      45.939  29.136  33.407  1.00  0.00    -0.203 F 
ATOM     67  F   UNL A   1      45.192  24.494  36.176  1.00  0.00    -0.200 F 
ATOM     68  C   UNL A   1      46.629  26.209  35.422  1.00  0.00     0.200 A 
ATOM     69  F   UNL A   1      48.018  27.964  34.672  1.00  0.00    -0.200 F 
ATOM     70  F   UNL A   1      47.651  25.669  36.099  1.00  0.00    -0.200 F 
ENDBRANCH  46  60
BRANCH  47  71
ATOM     71  C   UNL A   1      36.673  31.360  29.137  1.00  0.00     0.064 A 
ATOM     72  C   UNL A   1      36.616  32.717  28.787  1.00  0.00     0.173 A 
ATOM     73  C   UNL A   1      35.577  30.555  28.789  1.00  0.00     0.173 A 
ATOM     74  F   UNL A   1      37.627  33.535  29.114  1.00  0.00    -0.203 F 
ATOM     75  C   UNL A   1      35.505  33.248  28.134  1.00  0.00     0.198 A 
ATOM     76  C   UNL A   1      34.480  31.080  28.109  1.00  0.00     0.198 A 
ATOM     77  F   UNL A   1      35.578  29.250  29.099  1.00  0.00    -0.203 F 
ATOM     78  F   UNL A   1      35.459  34.559  27.853  1.00  0.00    -0.200 F 
ATOM     79  C   UNL A   1      34.441  32.429  27.789  1.00  0.00     0.200 A 
ATOM     80  F   UNL A   1      33.461  30.281  27.764  1.00  0.00    -0.200 F 
ATOM     81  F   UNL A   1      33.377  32.939  27.155  1.00  0.00    -0.200 F 
ENDBRANCH  47  71
BRANCH  59  82
ATOM     82  C   UNL A   1      39.189  32.037  35.629  1.00  0.00     0.064 A 
ATOM     83  C   UNL A   1      38.327  31.562  36.627  1.00  0.00     0.173 A 
ATOM     84  C   UNL A   1      39.750  33.314  35.799  1.00  0.00     0.173 A 
ATOM     85  F   UNL A   1      37.758  30.353  36.509  1.00  0.00    -0.203 F 
ATOM     86  C   UNL A   1      38.027  32.342  37.741  1.00  0.00     0.198 A 
ATOM     87  C   UNL A   1      39.479  34.073  36.932  1.00  0.00     0.198 A 
ATOM     88  F   UNL A   1      40.590  33.812  34.879  1.00  0.00    -0.203 F 
ATOM     89  F   UNL A   1      37.167  31.886  38.662  1.00  0.00    -0.200 F 
ATOM     90  C   UNL A   1      38.612  33.589  37.899  1.00  0.00     0.200 A 
ATOM     91  F   UNL A   1      40.067  35.266  37.093  1.00  0.00    -0.200 F 
ATOM     92  F   UNL A   1      38.341  34.327  38.984  1.00  0.00    -0.200 F 
ENDBRANCH  59  82
ENDBRANCH  33  34
ENDBRANCH  26  28
ENDBRANCH  25  26
ENDBRANCH  24  25
ENDBRANCH   1  24
TORSDOF 15
ENDMDL
MODEL 2
REMARK VINA RESULT:     -13.2      0.171      1.590
REMARK SMILES O=C(OCCOCCOC(=O)c1ccc(-c2c3nc(c(-c4c(F)c(F)c(F)c(F)c4F)c4ccc([nH]4)c(-c4c(F)c(F)c(F)c(F)c4F)c4nc(c(-c5c(F)c(F)c(F)c(F)c5F)c5ccc2[nH]5)C=C4)C=C3)cc1)C1=Cc2cc(Cl)cc(Cl)c2O[C@@H]1C(F)(F)F
REMARK SMILES IDX 7 1 6 2 5 3 4 4 3 5 2 6 1 7 75 8 76 9 86 10 77 11 85 12
REMARK SMILES IDX 78 13 84 14 79 15 82 16 80 17 81 18 83 19 87 20 88 21 89 22
REMARK SMILES IDX 90 23 8 24 9 25 10 26 11 27 12 28 13 29 74 30 14 31 73 32
REMARK SMILES IDX 15 33 16 34 17 35 67 36 18 37 72 38 66 39 68 40 19 41 71 42
REMARK SMILES IDX 65 43 64 44 20 46 52 47 32 48 51 49 33 50 36 51 50 52 69 53
REMARK SMILES IDX 34 54 35 55 49 57 70 58 37 59 21 60 22 61 30 62 23 63 24 64
REMARK SMILES IDX 28 65 31 66 25 67 26 68 29 69 27 70 53 71 54 72 62 73 55 74
REMARK SMILES IDX 56 75 60 76 63 77 57 78 58 79 61 80 59 81 38 82 39 83 47 84
REMARK SMILES IDX 40 85 41 86 45 87 48 88 42 89 43 90 46 91 44 92
REMARK H PARENT 68 45 36 56
REMARK Flexibility Score: inf
ROOT
ATOM      1  C   UNL A   1      42.667  20.671  26.129  1.00  0.00     0.202 C 
ENDROOT
BRANCH   1   2
ATOM      2  O   UNL A   1      41.249  20.703  25.929  1.00  0.00    -0.374 OA
BRANCH   2   3
ATOM      3  C   UNL A   1      40.027  21.374  26.675  1.00  0.00     0.202 C 
BRANCH   3   4
ATOM      4  C   UNL A   1      38.508  22.817  26.064  1.00  0.00     0.261 C 
BRANCH   4   5
ATOM      5  O   UNL A   1      36.994  22.605  26.041  1.00  0.00    -0.460 OA
BRANCH   5   6
ATOM      6  C   UNL A   1      36.444  22.916  24.864  1.00  0.00     0.338 C 
ATOM      7  O   UNL A   1      36.977  23.257  23.839  1.00  0.00    -0.246 OA
BRANCH   6   8
ATOM      8  C   UNL A   1      35.095  23.078  25.367  1.00  0.00     0.087 C 
ATOM      9  C   UNL A   1      34.817  24.490  25.754  1.00  0.00     0.027 C 
ATOM     10  C   UNL A   1      34.233  22.150  23.902  1.00  0.00     0.316 C 
ATOM     11  C   UNL A   1      33.775  25.616  24.773  1.00  0.00     0.020 A 
ATOM     12  O   UNL A   1      33.181  23.345  22.815  1.00  0.00    -0.474 OA
ATOM     13  C   UNL A   1      33.728  26.945  25.100  1.00  0.00     0.032 A 
ATOM     14  C   UNL A   1      33.063  25.109  23.271  1.00  0.00     0.146 A 
ATOM     15  C   UNL A   1      33.159  27.780  24.119  1.00  0.00     0.043 A 
ATOM     16  C   UNL A   1      32.713  26.026  22.320  1.00  0.00     0.085 A 
ATOM     17  Cl  UNL A   1      33.047  29.470  24.499  1.00  0.00    -0.084 Cl
ATOM     18  C   UNL A   1      32.731  27.360  22.793  1.00  0.00     0.045 A 
ATOM     19  Cl  UNL A   1      32.645  25.672  20.655  1.00  0.00    -0.080 Cl
BRANCH  10  20
ATOM     20  C   UNL A   1      33.842  20.817  24.668  1.00  0.00     0.430 C 
ATOM     21  F   UNL A   1      33.051  20.971  25.743  1.00  0.00    -0.167 F 
ATOM     22  F   UNL A   1      33.105  20.061  23.798  1.00  0.00    -0.167 F 
ATOM     23  F   UNL A   1      34.889  20.026  24.996  1.00  0.00    -0.167 F 
ENDBRANCH  10  20
ENDBRANCH   6   8
ENDBRANCH   5   6
ENDBRANCH   4   5
ENDBRANCH   3   4
ENDBRANCH   2   3
ENDBRANCH   1   2
BRANCH   1  24
ATOM     24  C   UNL A   1      43.534  21.757  25.523  1.00  0.00     0.261 C 
BRANCH  24  25
ATOM     25  O   UNL A   1      42.804  22.924  25.209  1.00  0.00    -0.460 OA
BRANCH  25  26
ATOM     26  C   UNL A   1      43.554  24.042  25.111  1.00  0.00     0.338 C 
ATOM     27  O   UNL A   1      44.498  24.258  24.376  1.00  0.00    -0.246 OA
BRANCH  26  28
ATOM     28  C   UNL A   1      43.006  25.001  26.079  1.00  0.00     0.060 A 
ATOM     29  C   UNL A   1      43.464  26.321  26.041  1.00  0.00     0.016 A 
ATOM     30  C   UNL A   1      41.999  24.604  26.970  1.00  0.00     0.016 A 
ATOM     31  C   UNL A   1      42.872  27.268  26.870  1.00  0.00     0.010 A 
ATOM     32  C   UNL A   1      41.409  25.546  27.796  1.00  0.00     0.010 A 
ATOM     33  C   UNL A   1      41.855  26.876  27.752  1.00  0.00    -0.014 A 
BRANCH  33  34
ATOM     34  C   UNL A   1      41.437  27.769  28.842  1.00  0.00     0.031 A 
ATOM     35  C   UNL A   1      42.208  27.663  30.117  1.00  0.00     0.074 A 
ATOM     36  C   UNL A   1      40.378  28.582  28.718  1.00  0.00     0.049 A 
ATOM     37  N   UNL A   1      41.999  28.241  31.267  1.00  0.00    -0.248 NA
ATOM     38  C   UNL A   1      43.372  26.756  30.094  1.00  0.00     0.031 C 
ATOM     39  C   UNL A   1      39.578  28.758  27.509  1.00  0.00     0.029 A 
ATOM     40  N   UNL A   1      39.781  29.398  29.643  1.00  0.00    -0.354 N 
ATOM     41  C   UNL A   1      43.000  27.768  32.100  1.00  0.00     0.074 A 
ATOM     42  C   UNL A   1      43.785  26.820  31.346  1.00  0.00     0.031 C 
ATOM     43  C   UNL A   1      38.579  29.620  27.771  1.00  0.00     0.029 A 
ATOM     44  C   UNL A   1      38.652  30.021  29.175  1.00  0.00     0.049 A 
ATOM     45  H   UNL A   1      40.129  29.524  30.555  1.00  0.00     0.167 HD
ATOM     46  C   UNL A   1      43.243  28.105  33.386  1.00  0.00     0.037 A 
ATOM     47  C   UNL A   1      37.770  30.801  29.829  1.00  0.00     0.037 A 
ATOM     48  C   UNL A   1      42.419  29.014  34.129  1.00  0.00     0.049 A 
ATOM     49  C   UNL A   1      38.009  31.098  31.290  1.00  0.00     0.074 A 
ATOM     50  C   UNL A   1      42.561  29.433  35.437  1.00  0.00     0.029 A 
ATOM     51  N   UNL A   1      41.273  29.622  33.630  1.00  0.00    -0.354 N 
ATOM     52  N   UNL A   1      38.980  30.686  32.071  1.00  0.00    -0.248 NA
ATOM     53  C   UNL A   1      37.033  31.968  31.959  1.00  0.00     0.031 C 
ATOM     54  C   UNL A   1      41.457  30.231  35.754  1.00  0.00     0.029 A 
ATOM     55  C   UNL A   1      40.679  30.389  34.616  1.00  0.00     0.049 A 
ATOM     56  H   UNL A   1      40.935  29.521  32.710  1.00  0.00     0.167 HD
ATOM     57  C   UNL A   1      38.759  31.281  33.308  1.00  0.00     0.074 A 
ATOM     58  C   UNL A   1      37.557  32.079  33.173  1.00  0.00     0.031 C 
ATOM     59  C   UNL A   1      39.489  31.187  34.447  1.00  0.00     0.037 A 
BRANCH  46  60
ATOM     60  C   UNL A   1      44.403  27.433  34.056  1.00  0.00     0.064 A 
ATOM     61  C   UNL A   1      45.663  28.047  34.155  1.00  0.00     0.173 A 
ATOM     62  C   UNL A   1      44.267  26.132  34.564  1.00  0.00     0.173 A 
ATOM     63  F   UNL A   1      45.855  29.281  33.661  1.00  0.00    -0.203 F 
ATOM     64  C   UNL A   1      46.752  27.365  34.690  1.00  0.00     0.198 A 
ATOM     65  C   UNL A   1      45.349  25.471  35.138  1.00  0.00     0.198 A 
ATOM     66  F   UNL A   1      43.090  25.495  34.489  1.00  0.00    -0.203 F 
ATOM     67  F   UNL A   1      47.964  27.939  34.693  1.00  0.00    -0.200 F 
ATOM     68  C   UNL A   1      46.593  26.081  35.186  1.00  0.00     0.200 A 
ATOM     69  F   UNL A   1      45.190  24.235  35.627  1.00  0.00    -0.200 F 
ATOM     70  F   UNL A   1      47.644  25.423  35.695  1.00  0.00    -0.200 F 
ENDBRANCH  46  60
BRANCH  47  71
ATOM     71  C   UNL A   1      36.591  31.354  29.112  1.00  0.00     0.064 A 
ATOM     72  C   UNL A   1      35.505  30.538  28.767  1.00  0.00     0.173 A 
ATOM     73  C   UNL A   1      36.524  32.710  28.755  1.00  0.00     0.173 A 
ATOM     74  F   UNL A   1      35.527  29.231  29.066  1.00  0.00    -0.203 F 
ATOM     75  C   UNL A   1      34.407  31.051  28.077  1.00  0.00     0.198 A 
ATOM     76  C   UNL A   1      35.412  33.228  28.094  1.00  0.00     0.198 A 
ATOM     77  F   UNL A   1      37.535  33.536  29.061  1.00  0.00    -0.203 F 
ATOM     78  F   UNL A   1      33.403  30.237  27.719  1.00  0.00    -0.200 F 
ATOM     79  C   UNL A   1      34.358  32.397  27.748  1.00  0.00     0.200 A 
ATOM     80  F   UNL A   1      35.363  34.533  27.791  1.00  0.00    -0.200 F 
ATOM     81  F   UNL A   1      33.299  32.890  27.092  1.00  0.00    -0.200 F 
ENDBRANCH  47  71
BRANCH  59  82
ATOM     82  C   UNL A   1      39.062  32.018  35.624  1.00  0.00     0.064 A 
ATOM     83  C   UNL A   1      38.286  31.496  36.667  1.00  0.00     0.173 A 
ATOM     84  C   UNL A   1      39.523  33.340  35.746  1.00  0.00     0.173 A 
ATOM     85  F   UNL A   1      37.813  30.242  36.596  1.00  0.00    -0.203 F 
ATOM     86  C   UNL A   1      37.971  32.272  37.780  1.00  0.00     0.198 A 
ATOM     87  C   UNL A   1      39.239  34.098  36.878  1.00  0.00     0.198 A 
ATOM     88  F   UNL A   1      40.279  33.885  34.781  1.00  0.00    -0.203 F 
ATOM     89  F   UNL A   1      37.192  31.766  38.746  1.00  0.00    -0.200 F 
ATOM     90  C   UNL A   1      38.458  33.565  37.891  1.00  0.00     0.200 A 
ATOM     91  F   UNL A   1      39.734  35.338  36.992  1.00  0.00    -0.200 F 
ATOM     92  F   UNL A   1      38.174  34.301  38.974  1.00  0.00    -0.200 F 
ENDBRANCH  59  82
ENDBRANCH  33  34
ENDBRANCH  26  28
ENDBRANCH  25  26
ENDBRANCH  24  25
ENDBRANCH   1  24
TORSDOF 15
ENDMDL
MODEL 3
REMARK VINA RESULT:     -12.8      3.051      8.187
REMARK SMILES O=C(OCCOCCOC(=O)c1ccc(-c2c3nc(c(-c4c(F)c(F)c(F)c(F)c4F)c4ccc([nH]4)c(-c4c(F)c(F)c(F)c(F)c4F)c4nc(c(-c5c(F)c(F)c(F)c(F)c5F)c5ccc2[nH]5)C=C4)C=C3)cc1)C1=Cc2cc(Cl)cc(Cl)c2O[C@@H]1C(F)(F)F
REMARK SMILES IDX 7 1 6 2 5 3 4 4 3 5 2 6 1 7 75 8 76 9 86 10 77 11 85 12
REMARK SMILES IDX 78 13 84 14 79 15 82 16 80 17 81 18 83 19 87 20 88 21 89 22
REMARK SMILES IDX 90 23 8 24 9 25 10 26 11 27 12 28 13 29 74 30 14 31 73 32
REMARK SMILES IDX 15 33 16 34 17 35 67 36 18 37 72 38 66 39 68 40 19 41 71 42
REMARK SMILES IDX 65 43 64 44 20 46 52 47 32 48 51 49 33 50 36 51 50 52 69 53
REMARK SMILES IDX 34 54 35 55 49 57 70 58 37 59 21 60 22 61 30 62 23 63 24 64
REMARK SMILES IDX 28 65 31 66 25 67 26 68 29 69 27 70 53 71 54 72 62 73 55 74
REMARK SMILES IDX 56 75 60 76 63 77 57 78 58 79 61 80 59 81 38 82 39 83 47 84
REMARK SMILES IDX 40 85 41 86 45 87 48 88 42 89 43 90 46 91 44 92
REMARK H PARENT 68 45 36 56
REMARK Flexibility Score: inf
ROOT
ATOM      1  C   UNL A   1      31.111  30.065  24.879  1.00  0.00     0.202 C 
ENDROOT
BRANCH   1   2
ATOM      2  O   UNL A   1      30.664  29.030  23.995  1.00  0.00    -0.374 OA
BRANCH   2   3
ATOM      3  C   UNL A   1      31.110  28.502  22.573  1.00  0.00     0.202 C 
BRANCH   3   4
ATOM      4  C   UNL A   1      31.612  26.522  21.801  1.00  0.00     0.261 C 
BRANCH   4   5
ATOM      5  O   UNL A   1      31.426  25.182  22.514  1.00  0.00    -0.460 OA
BRANCH   5   6
ATOM      6  C   UNL A   1      32.567  24.500  22.642  1.00  0.00     0.338 C 
ATOM      7  O   UNL A   1      33.349  24.155  21.795  1.00  0.00    -0.246 OA
BRANCH   6   8
ATOM      8  C   UNL A   1      32.306  24.025  23.986  1.00  0.00     0.087 C 
ATOM      9  C   UNL A   1      31.894  22.592  23.994  1.00  0.00     0.027 C 
ATOM     10  C   UNL A   1      33.954  24.698  24.749  1.00  0.00     0.316 C 
ATOM     11  C   UNL A   1      32.980  21.235  24.539  1.00  0.00     0.020 A 
ATOM     12  O   UNL A   1      35.142  23.271  25.268  1.00  0.00    -0.474 OA
ATOM     13  C   UNL A   1      32.591  19.939  24.335  1.00  0.00     0.032 A 
ATOM     14  C   UNL A   1      34.613  21.536  25.053  1.00  0.00     0.146 A 
ATOM     15  C   UNL A   1      33.608  18.979  24.497  1.00  0.00     0.043 A 
ATOM     16  C   UNL A   1      35.556  20.550  24.993  1.00  0.00     0.085 A 
ATOM     17  Cl  UNL A   1      33.156  17.317  24.280  1.00  0.00    -0.084 Cl
ATOM     18  C   UNL A   1      35.011  19.265  24.753  1.00  0.00     0.045 A 
ATOM     19  Cl  UNL A   1      37.224  20.855  24.826  1.00  0.00    -0.080 Cl
BRANCH  10  20
ATOM     20  C   UNL A   1      33.350  25.908  25.578  1.00  0.00     0.430 C 
ATOM     21  F   UNL A   1      32.529  25.573  26.588  1.00  0.00    -0.167 F 
ATOM     22  F   UNL A   1      34.402  26.542  26.181  1.00  0.00    -0.167 F 
ATOM     23  F   UNL A   1      32.763  26.869  24.830  1.00  0.00    -0.167 F 
ENDBRANCH  10  20
ENDBRANCH   6   8
ENDBRANCH   5   6
ENDBRANCH   4   5
ENDBRANCH   3   4
ENDBRANCH   2   3
ENDBRANCH   1   2
BRANCH   1  24
ATOM     24  C   UNL A   1      31.890  29.699  26.128  1.00  0.00     0.261 C 
BRANCH  24  25
ATOM     25  O   UNL A   1      33.195  30.240  26.133  1.00  0.00    -0.460 OA
BRANCH  25  26
ATOM     26  C   UNL A   1      33.378  31.245  27.014  1.00  0.00     0.338 C 
ATOM     27  O   UNL A   1      32.655  32.198  27.236  1.00  0.00    -0.246 OA
BRANCH  26  28
ATOM     28  C   UNL A   1      34.649  30.977  27.698  1.00  0.00     0.060 A 
ATOM     29  C   UNL A   1      34.974  29.653  28.006  1.00  0.00     0.016 A 
ATOM     30  C   UNL A   1      35.536  32.028  27.972  1.00  0.00     0.016 A 
ATOM     31  C   UNL A   1      36.223  29.370  28.547  1.00  0.00     0.010 A 
ATOM     32  C   UNL A   1      36.780  31.746  28.511  1.00  0.00     0.010 A 
ATOM     33  C   UNL A   1      37.117  30.417  28.808  1.00  0.00    -0.014 A 
BRANCH  33  34
ATOM     34  C   UNL A   1      38.297  30.189  29.655  1.00  0.00     0.031 A 
ATOM     35  C   UNL A   1      39.317  29.234  29.126  1.00  0.00     0.074 A 
ATOM     36  C   UNL A   1      38.414  30.754  30.866  1.00  0.00     0.049 A 
ATOM     37  N   UNL A   1      40.391  28.764  29.695  1.00  0.00    -0.248 NA
ATOM     38  C   UNL A   1      39.075  28.722  27.764  1.00  0.00     0.031 C 
ATOM     39  C   UNL A   1      37.475  31.704  31.455  1.00  0.00     0.029 A 
ATOM     40  N   UNL A   1      39.373  30.581  31.829  1.00  0.00    -0.354 N 
ATOM     41  C   UNL A   1      40.950  27.903  28.764  1.00  0.00     0.074 A 
ATOM     42  C   UNL A   1      40.075  27.873  27.616  1.00  0.00     0.031 C 
ATOM     43  C   UNL A   1      37.897  32.022  32.692  1.00  0.00     0.029 A 
ATOM     44  C   UNL A   1      39.113  31.266  32.989  1.00  0.00     0.049 A 
ATOM     45  H   UNL A   1      40.172  30.020  31.701  1.00  0.00     0.167 HD
ATOM     46  C   UNL A   1      42.101  27.203  28.862  1.00  0.00     0.037 A 
ATOM     47  C   UNL A   1      39.776  31.249  34.162  1.00  0.00     0.037 A 
ATOM     48  C   UNL A   1      42.929  27.210  30.033  1.00  0.00     0.049 A 
ATOM     49  C   UNL A   1      41.012  30.392  34.283  1.00  0.00     0.074 A 
ATOM     50  C   UNL A   1      44.117  26.542  30.254  1.00  0.00     0.029 A 
ATOM     51  N   UNL A   1      42.632  27.907  31.199  1.00  0.00    -0.354 N 
ATOM     52  N   UNL A   1      41.568  29.609  33.388  1.00  0.00    -0.248 NA
ATOM     53  C   UNL A   1      41.714  30.417  35.573  1.00  0.00     0.031 C 
ATOM     54  C   UNL A   1      44.497  26.769  31.580  1.00  0.00     0.029 A 
ATOM     55  C   UNL A   1      43.599  27.657  32.155  1.00  0.00     0.049 A 
ATOM     56  H   UNL A   1      41.849  28.491  31.324  1.00  0.00     0.167 HD
ATOM     57  C   UNL A   1      42.707  29.084  33.989  1.00  0.00     0.074 A 
ATOM     58  C   UNL A   1      42.759  29.637  35.328  1.00  0.00     0.031 C 
ATOM     59  C   UNL A   1      43.633  28.236  33.477  1.00  0.00     0.037 A 
BRANCH  46  60
ATOM     60  C   UNL A   1      42.471  26.338  27.694  1.00  0.00     0.064 A 
ATOM     61  C   UNL A   1      41.957  25.039  27.538  1.00  0.00     0.173 A 
ATOM     62  C   UNL A   1      43.391  26.797  26.740  1.00  0.00     0.173 A 
ATOM     63  F   UNL A   1      41.093  24.541  28.436  1.00  0.00    -0.203 F 
ATOM     64  C   UNL A   1      42.391  24.218  26.501  1.00  0.00     0.198 A 
ATOM     65  C   UNL A   1      43.789  25.988  25.680  1.00  0.00     0.198 A 
ATOM     66  F   UNL A   1      43.919  28.026  26.844  1.00  0.00    -0.203 F 
ATOM     67  F   UNL A   1      41.954  22.953  26.424  1.00  0.00    -0.200 F 
ATOM     68  C   UNL A   1      43.301  24.694  25.571  1.00  0.00     0.200 A 
ATOM     69  F   UNL A   1      44.659  26.454  24.776  1.00  0.00    -0.200 F 
ATOM     70  F   UNL A   1      43.723  23.900  24.577  1.00  0.00    -0.200 F 
ENDBRANCH  46  60
BRANCH  47  71
ATOM     71  C   UNL A   1      39.288  32.065  35.304  1.00  0.00     0.064 A 
ATOM     72  C   UNL A   1      39.632  33.418  35.427  1.00  0.00     0.173 A 
ATOM     73  C   UNL A   1      38.467  31.511  36.299  1.00  0.00     0.173 A 
ATOM     74  F   UNL A   1      40.430  33.992  34.515  1.00  0.00    -0.203 F 
ATOM     75  C   UNL A   1      39.190  34.180  36.508  1.00  0.00     0.198 A 
ATOM     76  C   UNL A   1      38.000  32.282  37.362  1.00  0.00     0.198 A 
ATOM     77  F   UNL A   1      38.106  30.221  36.231  1.00  0.00    -0.203 F 
ATOM     78  F   UNL A   1      39.573  35.460  36.623  1.00  0.00    -0.200 F 
ATOM     79  C   UNL A   1      38.369  33.614  37.470  1.00  0.00     0.200 A 
ATOM     80  F   UNL A   1      37.195  31.733  38.282  1.00  0.00    -0.200 F 
ATOM     81  F   UNL A   1      37.939  34.349  38.505  1.00  0.00    -0.200 F 
ENDBRANCH  47  71
BRANCH  59  82
ATOM     82  C   UNL A   1      44.824  27.901  34.330  1.00  0.00     0.064 A 
ATOM     83  C   UNL A   1      45.976  28.698  34.354  1.00  0.00     0.173 A 
ATOM     84  C   UNL A   1      44.764  26.806  35.209  1.00  0.00     0.173 A 
ATOM     85  F   UNL A   1      46.088  29.749  33.528  1.00  0.00    -0.203 F 
ATOM     86  C   UNL A   1      47.032  28.401  35.212  1.00  0.00     0.198 A 
ATOM     87  C   UNL A   1      45.804  26.537  36.093  1.00  0.00     0.198 A 
ATOM     88  F   UNL A   1      43.680  26.017  35.234  1.00  0.00    -0.203 F 
ATOM     89  F   UNL A   1      48.142  29.151  35.188  1.00  0.00    -0.200 F 
ATOM     90  C   UNL A   1      46.940  27.331  36.089  1.00  0.00     0.200 A 
ATOM     91  F   UNL A   1      45.700  25.517  36.956  1.00  0.00    -0.200 F 
ATOM     92  F   UNL A   1      47.947  27.062  36.931  1.00  0.00    -0.200 F 
ENDBRANCH  59  82
ENDBRANCH  33  34
ENDBRANCH  26  28
ENDBRANCH  25  26
ENDBRANCH  24  25
ENDBRANCH   1  24
TORSDOF 15
ENDMDL
