MODEL 1
REMARK VINA RESULT:     -13.2      0.000      0.000
REMARK SMILES O=C(OCCOCCOC(=O)[C@H]1Cc2[nH]cnc2CN1S(=O)(=O)c1cccs1)c1ccc(-c2c3nc(c(-c4c(F)c(F)c(F)c(F)c4F)c4ccc([nH]4)c(-c4c(F)c(F)c(F)c(F)c4F)c4nc(c(-c5c(F)c(F)c(F)c(F)c5F)c5ccc2[nH]5)C=C4)C=C3)cc1
REMARK SMILES IDX 6 1 5 2 4 3 3 4 2 5 1 6 29 7 30 8 91 9 31 10 90 11 32 12
REMARK SMILES IDX 33 13 34 14 84 15 35 16 89 17 83 18 85 19 36 20 88 21 82 22
REMARK SMILES IDX 81 23 37 25 69 26 49 27 68 28 50 29 53 30 67 31 86 32 51 33
REMARK SMILES IDX 52 34 66 36 87 37 54 38 38 39 39 40 47 41 40 42 41 43 45 44
REMARK SMILES IDX 48 45 42 46 43 47 46 48 44 49 70 50 71 51 79 52 72 53 73 54
REMARK SMILES IDX 77 55 80 56 74 57 75 58 78 59 76 60 55 61 56 62 64 63 57 64
REMARK SMILES IDX 58 65 62 66 65 67 59 68 60 69 63 70 61 71 7 72 8 73 9 74
REMARK SMILES IDX 10 75 11 76 12 77 13 78 20 79 14 80 19 81 15 82 18 83 16 84
REMARK SMILES IDX 17 86 21 87 22 88 23 89 24 90 25 91 28 92 26 93 27 94
REMARK H PARENT 85 24 53 35 15 85
REMARK Flexibility Score: inf
ROOT
ATOM      1  O   UNL A   1      39.478  22.251  26.646  1.00  0.00    -0.374 OA
ENDROOT
BRANCH   1   2
ATOM      2  C   UNL A   1      39.922  20.992  26.127  1.00  0.00     0.202 C 
BRANCH   2   3
ATOM      3  C   UNL A   1      41.293  19.964  26.493  1.00  0.00     0.261 C 
BRANCH   3   4
ATOM      4  O   UNL A   1      42.962  19.616  25.305  1.00  0.00    -0.460 OA
BRANCH   4   5
ATOM      5  C   UNL A   1      44.149  19.993  24.553  1.00  0.00     0.338 C 
ATOM      6  O   UNL A   1      44.810  19.259  23.829  1.00  0.00    -0.246 OA
BRANCH   5   7
ATOM      7  C   UNL A   1      44.582  21.407  24.770  1.00  0.00     0.060 A 
ATOM      8  C   UNL A   1      45.719  21.743  25.479  1.00  0.00     0.016 A 
ATOM      9  C   UNL A   1      43.812  22.460  24.314  1.00  0.00     0.016 A 
ATOM     10  C   UNL A   1      45.642  22.768  26.370  1.00  0.00     0.010 A 
ATOM     11  C   UNL A   1      43.958  23.690  24.940  1.00  0.00     0.010 A 
ATOM     12  C   UNL A   1      44.706  23.751  26.119  1.00  0.00    -0.014 A 
BRANCH  12  13
ATOM     13  C   UNL A   1      44.638  24.836  27.091  1.00  0.00     0.031 A 
ATOM     14  C   UNL A   1      45.829  25.755  27.106  1.00  0.00     0.074 A 
ATOM     15  C   UNL A   1      43.546  24.973  27.867  1.00  0.00     0.049 A 
ATOM     16  N   UNL A   1      46.564  26.128  28.110  1.00  0.00    -0.248 NA
ATOM     17  C   UNL A   1      46.395  26.140  25.791  1.00  0.00     0.031 C 
ATOM     18  C   UNL A   1      42.301  24.197  27.835  1.00  0.00     0.029 A 
ATOM     19  N   UNL A   1      43.260  25.959  28.752  1.00  0.00    -0.354 N 
ATOM     20  C   UNL A   1      47.570  26.926  27.565  1.00  0.00     0.074 A 
ATOM     21  C   UNL A   1      47.532  26.735  26.143  1.00  0.00     0.031 C 
ATOM     22  C   UNL A   1      41.313  24.916  28.402  1.00  0.00     0.029 A 
ATOM     23  C   UNL A   1      41.897  26.107  28.978  1.00  0.00     0.049 A 
ATOM     24  H   UNL A   1      43.946  26.514  29.189  1.00  0.00     0.167 HD
ATOM     25  C   UNL A   1      48.216  27.885  28.282  1.00  0.00     0.037 A 
ATOM     26  C   UNL A   1      41.318  27.229  29.463  1.00  0.00     0.037 A 
ATOM     27  C   UNL A   1      48.197  27.608  29.688  1.00  0.00     0.049 A 
ATOM     28  C   UNL A   1      42.387  28.003  30.150  1.00  0.00     0.074 A 
ATOM     29  C   UNL A   1      48.739  26.613  30.478  1.00  0.00     0.029 A 
ATOM     30  N   UNL A   1      47.243  28.217  30.463  1.00  0.00    -0.354 N 
ATOM     31  N   UNL A   1      42.985  27.589  31.236  1.00  0.00    -0.248 NA
ATOM     32  C   UNL A   1      43.129  28.978  29.361  1.00  0.00     0.031 C 
ATOM     33  C   UNL A   1      47.753  26.353  31.473  1.00  0.00     0.029 A 
ATOM     34  C   UNL A   1      46.701  27.246  31.270  1.00  0.00     0.049 A 
ATOM     35  H   UNL A   1      46.993  29.169  30.445  1.00  0.00     0.167 HD
ATOM     36  C   UNL A   1      44.320  27.931  31.062  1.00  0.00     0.074 A 
ATOM     37  C   UNL A   1      44.337  28.835  29.914  1.00  0.00     0.031 C 
ATOM     38  C   UNL A   1      45.317  27.230  31.677  1.00  0.00     0.037 A 
BRANCH  25  39
ATOM     39  C   UNL A   1      48.550  29.235  27.697  1.00  0.00     0.064 A 
ATOM     40  C   UNL A   1      49.872  29.715  27.728  1.00  0.00     0.173 A 
ATOM     41  C   UNL A   1      47.566  30.193  27.351  1.00  0.00     0.173 A 
ATOM     42  F   UNL A   1      50.883  28.907  28.081  1.00  0.00    -0.203 F 
ATOM     43  C   UNL A   1      50.173  31.059  27.473  1.00  0.00     0.198 A 
ATOM     44  C   UNL A   1      47.876  31.512  27.041  1.00  0.00     0.198 A 
ATOM     45  F   UNL A   1      46.257  29.922  27.405  1.00  0.00    -0.203 F 
ATOM     46  F   UNL A   1      51.430  31.497  27.620  1.00  0.00    -0.200 F 
ATOM     47  C   UNL A   1      49.175  31.954  27.131  1.00  0.00     0.200 A 
ATOM     48  F   UNL A   1      46.887  32.363  26.732  1.00  0.00    -0.200 F 
ATOM     49  F   UNL A   1      49.455  33.250  26.936  1.00  0.00    -0.200 F 
ENDBRANCH  25  39
BRANCH  26  50
ATOM     50  C   UNL A   1      40.052  27.824  28.983  1.00  0.00     0.064 A 
ATOM     51  C   UNL A   1      38.970  28.006  29.853  1.00  0.00     0.173 A 
ATOM     52  C   UNL A   1      39.953  28.447  27.719  1.00  0.00     0.173 A 
ATOM     53  F   UNL A   1      39.011  27.490  31.090  1.00  0.00    -0.203 F 
ATOM     54  C   UNL A   1      37.858  28.770  29.487  1.00  0.00     0.198 A 
ATOM     55  C   UNL A   1      38.840  29.199  27.350  1.00  0.00     0.198 A 
ATOM     56  F   UNL A   1      40.974  28.414  26.849  1.00  0.00    -0.203 F 
ATOM     57  F   UNL A   1      36.864  28.967  30.365  1.00  0.00    -0.200 F 
ATOM     58  C   UNL A   1      37.796  29.370  28.238  1.00  0.00     0.200 A 
ATOM     59  F   UNL A   1      38.811  29.803  26.153  1.00  0.00    -0.200 F 
ATOM     60  F   UNL A   1      36.753  30.144  27.907  1.00  0.00    -0.200 F 
ENDBRANCH  26  50
BRANCH  38  61
ATOM     61  C   UNL A   1      44.916  26.190  32.688  1.00  0.00     0.064 A 
ATOM     62  C   UNL A   1      44.671  26.478  34.043  1.00  0.00     0.173 A 
ATOM     63  C   UNL A   1      44.621  24.896  32.245  1.00  0.00     0.173 A 
ATOM     64  F   UNL A   1      44.816  27.721  34.516  1.00  0.00    -0.203 F 
ATOM     65  C   UNL A   1      44.205  25.501  34.921  1.00  0.00     0.198 A 
ATOM     66  C   UNL A   1      44.120  23.931  33.115  1.00  0.00     0.198 A 
ATOM     67  F   UNL A   1      44.768  24.580  30.949  1.00  0.00    -0.203 F 
ATOM     68  F   UNL A   1      43.993  25.801  36.212  1.00  0.00    -0.200 F 
ATOM     69  C   UNL A   1      43.925  24.229  34.455  1.00  0.00     0.200 A 
ATOM     70  F   UNL A   1      43.795  22.718  32.648  1.00  0.00    -0.200 F 
ATOM     71  F   UNL A   1      43.436  23.298  35.288  1.00  0.00    -0.200 F 
ENDBRANCH  38  61
ENDBRANCH  12  13
ENDBRANCH   5   7
ENDBRANCH   4   5
ENDBRANCH   3   4
ENDBRANCH   2   3
ENDBRANCH   1   2
BRANCH   1  72
ATOM     72  C   UNL A   1      38.467  23.120  26.118  1.00  0.00     0.202 C 
BRANCH  72  73
ATOM     73  C   UNL A   1      37.060  22.643  25.650  1.00  0.00     0.261 C 
BRANCH  73  74
ATOM     74  O   UNL A   1      35.974  23.512  26.024  1.00  0.00    -0.462 OA
BRANCH  74  75
ATOM     75  C   UNL A   1      34.880  22.848  26.428  1.00  0.00     0.324 C 
ATOM     76  O   UNL A   1      34.348  23.098  27.512  1.00  0.00    -0.250 OA
BRANCH  75  77
ATOM     77  C   UNL A   1      34.308  21.827  25.457  1.00  0.00     0.189 C 
ATOM     78  C   UNL A   1      33.654  20.824  26.497  1.00  0.00     0.088 C 
ATOM     79  N   UNL A   1      33.288  22.058  24.308  1.00  0.00    -0.176 NA
ATOM     80  C   UNL A   1      33.118  19.656  25.811  1.00  0.00     0.041 A 
ATOM     81  C   UNL A   1      32.972  20.755  23.541  1.00  0.00     0.161 C 
ATOM     82  N   UNL A   1      32.844  18.435  26.339  1.00  0.00    -0.348 N 
ATOM     83  C   UNL A   1      32.806  19.605  24.483  1.00  0.00     0.077 A 
ATOM     84  C   UNL A   1      32.421  17.661  25.295  1.00  0.00     0.197 A 
ATOM     85  H   UNL A   1      32.931  18.164  27.282  1.00  0.00     0.167 HD
ATOM     86  N   UNL A   1      32.383  18.340  24.164  1.00  0.00    -0.240 NA
BRANCH  79  87
ATOM     87  S   UNL A   1      33.549  23.338  23.150  1.00  0.00     0.253 S 
ATOM     88  O   UNL A   1      34.969  23.421  22.904  1.00  0.00    -0.206 OA
ATOM     89  O   UNL A   1      32.584  23.180  22.083  1.00  0.00    -0.206 OA
BRANCH  87  90
ATOM     90  C   UNL A   1      33.067  24.885  23.959  1.00  0.00     0.135 A 
ATOM     91  C   UNL A   1      34.025  26.152  24.689  1.00  0.00     0.033 A 
ATOM     92  S   UNL A   1      30.974  24.805  24.920  1.00  0.00    -0.131 S 
ATOM     93  C   UNL A   1      33.147  27.007  26.209  1.00  0.00     0.013 A 
ATOM     94  C   UNL A   1      31.497  26.479  26.417  1.00  0.00     0.066 A 
ENDBRANCH  87  90
ENDBRANCH  79  87
ENDBRANCH  75  77
ENDBRANCH  74  75
ENDBRANCH  73  74
ENDBRANCH  72  73
ENDBRANCH   1  72
TORSDOF 16
ENDMDL
MODEL 2
REMARK VINA RESULT:     -13.1      5.307      8.013
REMARK SMILES O=C(OCCOCCOC(=O)[C@H]1Cc2[nH]cnc2CN1S(=O)(=O)c1cccs1)c1ccc(-c2c3nc(c(-c4c(F)c(F)c(F)c(F)c4F)c4ccc([nH]4)c(-c4c(F)c(F)c(F)c(F)c4F)c4nc(c(-c5c(F)c(F)c(F)c(F)c5F)c5ccc2[nH]5)C=C4)C=C3)cc1
REMARK SMILES IDX 6 1 5 2 4 3 3 4 2 5 1 6 29 7 30 8 91 9 31 10 90 11 32 12
REMARK SMILES IDX 33 13 34 14 84 15 35 16 89 17 83 18 85 19 36 20 88 21 82 22
REMARK SMILES IDX 81 23 37 25 69 26 49 27 68 28 50 29 53 30 67 31 86 32 51 33
REMARK SMILES IDX 52 34 66 36 87 37 54 38 38 39 39 40 47 41 40 42 41 43 45 44
REMARK SMILES IDX 48 45 42 46 43 47 46 48 44 49 70 50 71 51 79 52 72 53 73 54
REMARK SMILES IDX 77 55 80 56 74 57 75 58 78 59 76 60 55 61 56 62 64 63 57 64
REMARK SMILES IDX 58 65 62 66 65 67 59 68 60 69 63 70 61 71 7 72 8 73 9 74
REMARK SMILES IDX 10 75 11 76 12 77 13 78 20 79 14 80 19 81 15 82 18 83 16 84
REMARK SMILES IDX 17 86 21 87 22 88 23 89 24 90 25 91 28 92 26 93 27 94
REMARK H PARENT 85 24 53 35 15 85
REMARK Flexibility Score: inf
ROOT
ATOM      1  O   UNL A   1      36.918  21.575  25.071  1.00  0.00    -0.374 OA
ENDROOT
BRANCH   1   2
ATOM      2  C   UNL A   1      38.044  22.167  25.728  1.00  0.00     0.202 C 
BRANCH   2   3
ATOM      3  C   UNL A   1      38.452  23.820  26.146  1.00  0.00     0.261 C 
BRANCH   3   4
ATOM      4  O   UNL A   1      39.881  24.461  27.510  1.00  0.00    -0.460 OA
BRANCH   4   5
ATOM      5  C   UNL A   1      40.583  25.442  28.323  1.00  0.00     0.338 C 
ATOM      6  O   UNL A   1      41.787  25.470  28.545  1.00  0.00    -0.246 OA
BRANCH   5   7
ATOM      7  C   UNL A   1      39.687  26.453  28.965  1.00  0.00     0.060 A 
ATOM      8  C   UNL A   1      39.107  27.493  28.264  1.00  0.00     0.016 A 
ATOM      9  C   UNL A   1      39.448  26.423  30.326  1.00  0.00     0.016 A 
ATOM     10  C   UNL A   1      39.111  28.729  28.830  1.00  0.00     0.010 A 
ATOM     11  C   UNL A   1      39.056  27.602  30.942  1.00  0.00     0.010 A 
ATOM     12  C   UNL A   1      39.128  28.791  30.209  1.00  0.00    -0.014 A 
BRANCH  12  13
ATOM     13  C   UNL A   1      39.137  30.127  30.793  1.00  0.00     0.031 A 
ATOM     14  C   UNL A   1      40.468  30.827  30.762  1.00  0.00     0.074 A 
ATOM     15  C   UNL A   1      37.997  30.654  31.277  1.00  0.00     0.049 A 
ATOM     16  N   UNL A   1      41.119  31.395  31.732  1.00  0.00    -0.248 NA
ATOM     17  C   UNL A   1      41.269  30.690  29.522  1.00  0.00     0.031 C 
ATOM     18  C   UNL A   1      36.643  30.091  31.240  1.00  0.00     0.029 A 
ATOM     19  N   UNL A   1      37.787  31.902  31.767  1.00  0.00    -0.354 N 
ATOM     20  C   UNL A   1      42.322  31.829  31.177  1.00  0.00     0.074 A 
ATOM     21  C   UNL A   1      42.440  31.202  29.891  1.00  0.00     0.031 C 
ATOM     22  C   UNL A   1      35.742  31.083  31.378  1.00  0.00     0.029 A 
ATOM     23  C   UNL A   1      36.459  32.302  31.682  1.00  0.00     0.049 A 
ATOM     24  H   UNL A   1      38.501  32.465  32.143  1.00  0.00     0.167 HD
ATOM     25  C   UNL A   1      43.037  32.867  31.692  1.00  0.00     0.037 A 
ATOM     26  C   UNL A   1      36.045  33.589  31.702  1.00  0.00     0.037 A 
ATOM     27  C   UNL A   1      42.776  33.058  33.087  1.00  0.00     0.049 A 
ATOM     28  C   UNL A   1      37.139  34.385  32.321  1.00  0.00     0.074 A 
ATOM     29  C   UNL A   1      43.007  32.301  34.221  1.00  0.00     0.029 A 
ATOM     30  N   UNL A   1      41.859  34.009  33.460  1.00  0.00    -0.354 N 
ATOM     31  N   UNL A   1      37.495  34.259  33.571  1.00  0.00    -0.248 NA
ATOM     32  C   UNL A   1      38.152  34.944  31.435  1.00  0.00     0.031 C 
ATOM     33  C   UNL A   1      41.864  32.512  35.045  1.00  0.00     0.029 A 
ATOM     34  C   UNL A   1      41.039  33.431  34.398  1.00  0.00     0.049 A 
ATOM     35  H   UNL A   1      41.800  34.930  33.119  1.00  0.00     0.167 HD
ATOM     36  C   UNL A   1      38.882  34.339  33.558  1.00  0.00     0.074 A 
ATOM     37  C   UNL A   1      39.225  34.818  32.222  1.00  0.00     0.031 C 
ATOM     38  C   UNL A   1      39.635  33.738  34.526  1.00  0.00     0.037 A 
BRANCH  25  39
ATOM     39  C   UNL A   1      43.697  33.900  30.812  1.00  0.00     0.064 A 
ATOM     40  C   UNL A   1      42.918  34.741  29.997  1.00  0.00     0.173 A 
ATOM     41  C   UNL A   1      45.086  33.909  30.540  1.00  0.00     0.173 A 
ATOM     42  F   UNL A   1      41.585  34.786  30.140  1.00  0.00    -0.203 F 
ATOM     43  C   UNL A   1      43.486  35.496  28.964  1.00  0.00     0.198 A 
ATOM     44  C   UNL A   1      45.654  34.705  29.551  1.00  0.00     0.198 A 
ATOM     45  F   UNL A   1      45.937  33.069  31.141  1.00  0.00    -0.203 F 
ATOM     46  F   UNL A   1      42.696  36.199  28.142  1.00  0.00    -0.200 F 
ATOM     47  C   UNL A   1      44.852  35.476  28.742  1.00  0.00     0.200 A 
ATOM     48  F   UNL A   1      46.978  34.650  29.344  1.00  0.00    -0.200 F 
ATOM     49  F   UNL A   1      45.391  36.158  27.723  1.00  0.00    -0.200 F 
ENDBRANCH  25  39
BRANCH  26  50
ATOM     50  C   UNL A   1      34.991  34.170  30.841  1.00  0.00     0.064 A 
ATOM     51  C   UNL A   1      33.946  34.921  31.395  1.00  0.00     0.173 A 
ATOM     52  C   UNL A   1      35.113  34.206  29.435  1.00  0.00     0.173 A 
ATOM     53  F   UNL A   1      33.797  34.981  32.726  1.00  0.00    -0.203 F 
ATOM     54  C   UNL A   1      33.078  35.668  30.593  1.00  0.00     0.198 A 
ATOM     55  C   UNL A   1      34.241  34.941  28.635  1.00  0.00     0.198 A 
ATOM     56  F   UNL A   1      36.136  33.599  28.813  1.00  0.00    -0.203 F 
ATOM     57  F   UNL A   1      32.122  36.416  31.161  1.00  0.00    -0.200 F 
ATOM     58  C   UNL A   1      33.229  35.682  29.214  1.00  0.00     0.200 A 
ATOM     59  F   UNL A   1      34.422  34.973  27.306  1.00  0.00    -0.200 F 
ATOM     60  F   UNL A   1      32.429  36.438  28.451  1.00  0.00    -0.200 F 
ENDBRANCH  26  50
BRANCH  38  61
ATOM     61  C   UNL A   1      38.911  33.141  35.702  1.00  0.00     0.064 A 
ATOM     62  C   UNL A   1      38.511  31.794  35.766  1.00  0.00     0.173 A 
ATOM     63  C   UNL A   1      38.755  33.910  36.861  1.00  0.00     0.173 A 
ATOM     64  F   UNL A   1      38.734  30.964  34.740  1.00  0.00    -0.203 F 
ATOM     65  C   UNL A   1      37.931  31.261  36.916  1.00  0.00     0.198 A 
ATOM     66  C   UNL A   1      38.211  33.367  38.021  1.00  0.00     0.198 A 
ATOM     67  F   UNL A   1      39.183  35.183  36.884  1.00  0.00    -0.203 F 
ATOM     68  F   UNL A   1      37.546  29.976  36.943  1.00  0.00    -0.200 F 
ATOM     69  C   UNL A   1      37.787  32.047  38.045  1.00  0.00     0.200 A 
ATOM     70  F   UNL A   1      38.127  34.114  39.130  1.00  0.00    -0.200 F 
ATOM     71  F   UNL A   1      37.270  31.526  39.168  1.00  0.00    -0.200 F 
ENDBRANCH  38  61
ENDBRANCH  12  13
ENDBRANCH   5   7
ENDBRANCH   4   5
ENDBRANCH   3   4
ENDBRANCH   2   3
ENDBRANCH   1   2
BRANCH   1  72
ATOM     72  C   UNL A   1      35.592  21.387  25.581  1.00  0.00     0.202 C 
BRANCH  72  73
ATOM     73  C   UNL A   1      34.818  22.446  26.421  1.00  0.00     0.261 C 
BRANCH  73  74
ATOM     74  O   UNL A   1      35.185  23.812  26.154  1.00  0.00    -0.462 OA
BRANCH  74  75
ATOM     75  C   UNL A   1      34.363  24.419  25.283  1.00  0.00     0.324 C 
ATOM     76  O   UNL A   1      34.324  24.075  24.100  1.00  0.00    -0.250 OA
BRANCH  75  77
ATOM     77  C   UNL A   1      33.452  25.498  25.847  1.00  0.00     0.189 C 
ATOM     78  C   UNL A   1      33.900  26.714  24.933  1.00  0.00     0.088 C 
ATOM     79  N   UNL A   1      31.900  25.505  25.925  1.00  0.00    -0.176 NA
ATOM     80  C   UNL A   1      33.239  27.941  25.357  1.00  0.00     0.041 A 
ATOM     81  C   UNL A   1      31.357  26.790  26.585  1.00  0.00     0.161 C 
ATOM     82  N   UNL A   1      33.625  29.220  25.110  1.00  0.00    -0.348 N 
ATOM     83  C   UNL A   1      32.096  27.997  26.100  1.00  0.00     0.077 A 
ATOM     84  C   UNL A   1      32.725  30.016  25.763  1.00  0.00     0.197 A 
ATOM     85  H   UNL A   1      34.395  29.514  24.571  1.00  0.00     0.167 HD
ATOM     86  N   UNL A   1      31.789  29.306  26.365  1.00  0.00    -0.240 NA
BRANCH  79  87
ATOM     87  S   UNL A   1      31.052  24.132  26.593  1.00  0.00     0.253 S 
ATOM     88  O   UNL A   1      31.821  23.649  27.715  1.00  0.00    -0.206 OA
ATOM     89  O   UNL A   1      29.652  24.482  26.703  1.00  0.00    -0.206 OA
BRANCH  87  90
ATOM     90  C   UNL A   1      31.088  22.829  25.334  1.00  0.00     0.135 A 
ATOM     91  C   UNL A   1      31.784  21.227  25.353  1.00  0.00     0.033 A 
ATOM     92  S   UNL A   1      30.980  23.634  23.178  1.00  0.00    -0.131 S 
ATOM     93  C   UNL A   1      32.436  20.646  23.607  1.00  0.00     0.013 A 
ATOM     94  C   UNL A   1      32.015  21.756  22.329  1.00  0.00     0.066 A 
ENDBRANCH  87  90
ENDBRANCH  79  87
ENDBRANCH  75  77
ENDBRANCH  74  75
ENDBRANCH  73  74
ENDBRANCH  72  73
ENDBRANCH   1  72
TORSDOF 16
ENDMDL
MODEL 3
REMARK VINA RESULT:     -13.0      3.705      7.955
REMARK SMILES O=C(OCCOCCOC(=O)[C@H]1Cc2[nH]cnc2CN1S(=O)(=O)c1cccs1)c1ccc(-c2c3nc(c(-c4c(F)c(F)c(F)c(F)c4F)c4ccc([nH]4)c(-c4c(F)c(F)c(F)c(F)c4F)c4nc(c(-c5c(F)c(F)c(F)c(F)c5F)c5ccc2[nH]5)C=C4)C=C3)cc1
REMARK SMILES IDX 6 1 5 2 4 3 3 4 2 5 1 6 29 7 30 8 91 9 31 10 90 11 32 12
REMARK SMILES IDX 33 13 34 14 84 15 35 16 89 17 83 18 85 19 36 20 88 21 82 22
REMARK SMILES IDX 81 23 37 25 69 26 49 27 68 28 50 29 53 30 67 31 86 32 51 33
REMARK SMILES IDX 52 34 66 36 87 37 54 38 38 39 39 40 47 41 40 42 41 43 45 44
REMARK SMILES IDX 48 45 42 46 43 47 46 48 44 49 70 50 71 51 79 52 72 53 73 54
REMARK SMILES IDX 77 55 80 56 74 57 75 58 78 59 76 60 55 61 56 62 64 63 57 64
REMARK SMILES IDX 58 65 62 66 65 67 59 68 60 69 63 70 61 71 7 72 8 73 9 74
REMARK SMILES IDX 10 75 11 76 12 77 13 78 20 79 14 80 19 81 15 82 18 83 16 84
REMARK SMILES IDX 17 86 21 87 22 88 23 89 24 90 25 91 28 92 26 93 27 94
REMARK H PARENT 85 24 53 35 15 85
REMARK Flexibility Score: inf
ROOT
ATOM      1  O   UNL A   1      32.775  29.618  26.649  1.00  0.00    -0.374 OA
ENDROOT
BRANCH   1   2
ATOM      2  C   UNL A   1      33.211  30.854  27.226  1.00  0.00     0.202 C 
BRANCH   2   3
ATOM      3  C   UNL A   1      34.789  31.483  27.658  1.00  0.00     0.261 C 
BRANCH   3   4
ATOM      4  O   UNL A   1      36.512  30.397  28.069  1.00  0.00    -0.460 OA
BRANCH   4   5
ATOM      5  C   UNL A   1      37.740  30.093  28.786  1.00  0.00     0.338 C 
ATOM      6  O   UNL A   1      38.060  30.521  29.889  1.00  0.00    -0.246 OA
BRANCH   5   7
ATOM      7  C   UNL A   1      38.684  29.213  28.031  1.00  0.00     0.060 A 
ATOM      8  C   UNL A   1      38.624  27.833  28.079  1.00  0.00     0.016 A 
ATOM      9  C   UNL A   1      39.715  29.756  27.288  1.00  0.00     0.016 A 
ATOM     10  C   UNL A   1      39.789  27.144  28.207  1.00  0.00     0.010 A 
ATOM     11  C   UNL A   1      40.821  28.958  27.033  1.00  0.00     0.010 A 
ATOM     12  C   UNL A   1      40.931  27.738  27.708  1.00  0.00    -0.014 A 
BRANCH  12  13
ATOM     13  C   UNL A   1      42.168  26.982  27.862  1.00  0.00     0.031 A 
ATOM     14  C   UNL A   1      42.916  27.238  29.142  1.00  0.00     0.074 A 
ATOM     15  C   UNL A   1      42.543  26.109  26.908  1.00  0.00     0.049 A 
ATOM     16  N   UNL A   1      44.165  27.555  29.312  1.00  0.00    -0.248 NA
ATOM     17  C   UNL A   1      42.108  27.356  30.378  1.00  0.00     0.031 C 
ATOM     18  C   UNL A   1      41.817  25.716  25.695  1.00  0.00     0.029 A 
ATOM     19  N   UNL A   1      43.598  25.257  26.914  1.00  0.00    -0.354 N 
ATOM     20  C   UNL A   1      44.323  27.740  30.685  1.00  0.00     0.074 A 
ATOM     21  C   UNL A   1      43.006  27.800  31.254  1.00  0.00     0.031 C 
ATOM     22  C   UNL A   1      42.268  24.519  25.273  1.00  0.00     0.029 A 
ATOM     23  C   UNL A   1      43.413  24.160  26.080  1.00  0.00     0.049 A 
ATOM     24  H   UNL A   1      44.409  25.399  27.453  1.00  0.00     0.167 HD
ATOM     25  C   UNL A   1      45.520  27.587  31.314  1.00  0.00     0.037 A 
ATOM     26  C   UNL A   1      44.080  22.989  26.197  1.00  0.00     0.037 A 
ATOM     27  C   UNL A   1      46.624  27.801  30.426  1.00  0.00     0.049 A 
ATOM     28  C   UNL A   1      45.315  23.272  26.976  1.00  0.00     0.074 A 
ATOM     29  C   UNL A   1      47.098  28.896  29.729  1.00  0.00     0.029 A 
ATOM     30  N   UNL A   1      47.224  26.710  29.850  1.00  0.00    -0.354 N 
ATOM     31  N   UNL A   1      46.286  24.023  26.530  1.00  0.00    -0.248 NA
ATOM     32  C   UNL A   1      45.246  23.136  28.425  1.00  0.00     0.031 C 
ATOM     33  C   UNL A   1      47.543  28.375  28.480  1.00  0.00     0.029 A 
ATOM     34  C   UNL A   1      47.374  26.991  28.514  1.00  0.00     0.049 A 
ATOM     35  H   UNL A   1      47.495  25.881  30.308  1.00  0.00     0.167 HD
ATOM     36  C   UNL A   1      46.695  24.769  27.628  1.00  0.00     0.074 A 
ATOM     37  C   UNL A   1      46.056  24.137  28.780  1.00  0.00     0.031 C 
ATOM     38  C   UNL A   1      47.277  25.995  27.475  1.00  0.00     0.037 A 
BRANCH  25  39
ATOM     39  C   UNL A   1      45.641  26.903  32.653  1.00  0.00     0.064 A 
ATOM     40  C   UNL A   1      46.147  27.601  33.765  1.00  0.00     0.173 A 
ATOM     41  C   UNL A   1      45.532  25.501  32.817  1.00  0.00     0.173 A 
ATOM     42  F   UNL A   1      46.330  28.929  33.710  1.00  0.00    -0.203 F 
ATOM     43  C   UNL A   1      46.549  26.938  34.930  1.00  0.00     0.198 A 
ATOM     44  C   UNL A   1      45.877  24.851  33.998  1.00  0.00     0.198 A 
ATOM     45  F   UNL A   1      45.192  24.688  31.810  1.00  0.00    -0.203 F 
ATOM     46  F   UNL A   1      47.126  27.628  35.922  1.00  0.00    -0.200 F 
ATOM     47  C   UNL A   1      46.414  25.565  35.044  1.00  0.00     0.200 A 
ATOM     48  F   UNL A   1      45.756  23.519  34.074  1.00  0.00    -0.200 F 
ATOM     49  F   UNL A   1      46.845  24.923  36.138  1.00  0.00    -0.200 F 
ENDBRANCH  25  39
BRANCH  26  50
ATOM     50  C   UNL A   1      43.488  21.641  26.055  1.00  0.00     0.064 A 
ATOM     51  C   UNL A   1      44.091  20.675  25.239  1.00  0.00     0.173 A 
ATOM     52  C   UNL A   1      42.451  21.189  26.900  1.00  0.00     0.173 A 
ATOM     53  F   UNL A   1      45.118  21.015  24.446  1.00  0.00    -0.203 F 
ATOM     54  C   UNL A   1      43.688  19.337  25.269  1.00  0.00     0.198 A 
ATOM     55  C   UNL A   1      42.041  19.858  26.923  1.00  0.00     0.198 A 
ATOM     56  F   UNL A   1      41.874  22.013  27.789  1.00  0.00    -0.203 F 
ATOM     57  F   UNL A   1      44.322  18.431  24.514  1.00  0.00    -0.200 F 
ATOM     58  C   UNL A   1      42.667  18.928  26.115  1.00  0.00     0.200 A 
ATOM     59  F   UNL A   1      41.078  19.472  27.772  1.00  0.00    -0.200 F 
ATOM     60  F   UNL A   1      42.316  17.637  26.181  1.00  0.00    -0.200 F 
ENDBRANCH  26  50
BRANCH  38  61
ATOM     61  C   UNL A   1      47.623  26.433  26.077  1.00  0.00     0.064 A 
ATOM     62  C   UNL A   1      46.763  27.196  25.268  1.00  0.00     0.173 A 
ATOM     63  C   UNL A   1      48.918  26.207  25.600  1.00  0.00     0.173 A 
ATOM     64  F   UNL A   1      45.549  27.554  25.704  1.00  0.00    -0.203 F 
ATOM     65  C   UNL A   1      47.165  27.662  24.017  1.00  0.00     0.198 A 
ATOM     66  C   UNL A   1      49.332  26.706  24.367  1.00  0.00     0.198 A 
ATOM     67  F   UNL A   1      49.807  25.545  26.358  1.00  0.00    -0.203 F 
ATOM     68  F   UNL A   1      46.318  28.377  23.260  1.00  0.00    -0.200 F 
ATOM     69  C   UNL A   1      48.452  27.421  23.570  1.00  0.00     0.200 A 
ATOM     70  F   UNL A   1      50.596  26.520  23.965  1.00  0.00    -0.200 F 
ATOM     71  F   UNL A   1      48.856  27.905  22.387  1.00  0.00    -0.200 F 
ENDBRANCH  38  61
ENDBRANCH  12  13
ENDBRANCH   5   7
ENDBRANCH   4   5
ENDBRANCH   3   4
ENDBRANCH   2   3
ENDBRANCH   1   2
BRANCH   1  72
ATOM     72  C   UNL A   1      32.735  28.321  27.259  1.00  0.00     0.202 C 
BRANCH  72  73
ATOM     73  C   UNL A   1      32.700  26.981  26.466  1.00  0.00     0.261 C 
BRANCH  73  74
ATOM     74  O   UNL A   1      31.667  26.065  26.876  1.00  0.00    -0.462 OA
BRANCH  74  75
ATOM     75  C   UNL A   1      31.956  24.784  26.600  1.00  0.00     0.324 C 
ATOM     76  O   UNL A   1      31.293  23.864  27.082  1.00  0.00    -0.250 OA
BRANCH  75  77
ATOM     77  C   UNL A   1      33.094  24.541  25.620  1.00  0.00     0.189 C 
ATOM     78  C   UNL A   1      34.085  23.750  26.573  1.00  0.00     0.088 C 
ATOM     79  N   UNL A   1      33.048  23.799  24.255  1.00  0.00    -0.176 NA
ATOM     80  C   UNL A   1      35.346  23.488  25.891  1.00  0.00     0.041 A 
ATOM     81  C   UNL A   1      34.425  23.780  23.558  1.00  0.00     0.161 C 
ATOM     82  N   UNL A   1      36.549  23.203  26.452  1.00  0.00    -0.348 N 
ATOM     83  C   UNL A   1      35.519  23.497  24.538  1.00  0.00     0.077 A 
ATOM     84  C   UNL A   1      37.432  23.101  25.413  1.00  0.00     0.197 A 
ATOM     85  H   UNL A   1      36.745  23.092  27.411  1.00  0.00     0.167 HD
ATOM     86  N   UNL A   1      36.839  23.269  24.246  1.00  0.00    -0.240 NA
BRANCH  79  87
ATOM     87  S   UNL A   1      31.829  24.213  23.075  1.00  0.00     0.253 S 
ATOM     88  O   UNL A   1      32.467  24.239  21.781  1.00  0.00    -0.206 OA
ATOM     89  O   UNL A   1      30.654  23.413  23.347  1.00  0.00    -0.206 OA
BRANCH  87  90
ATOM     90  C   UNL A   1      31.305  25.910  23.435  1.00  0.00     0.135 A 
ATOM     91  C   UNL A   1      29.717  26.601  23.671  1.00  0.00     0.033 A 
ATOM     92  S   UNL A   1      32.769  27.507  22.651  1.00  0.00    -0.131 S 
ATOM     93  C   UNL A   1      29.575  28.444  23.043  1.00  0.00     0.013 A 
ATOM     94  C   UNL A   1      31.113  29.109  22.556  1.00  0.00     0.066 A 
ENDBRANCH  87  90
ENDBRANCH  79  87
ENDBRANCH  75  77
ENDBRANCH  74  75
ENDBRANCH  73  74
ENDBRANCH  72  73
ENDBRANCH   1  72
TORSDOF 16
ENDMDL
