MODEL 1
REMARK VINA RESULT:     -10.9      0.000      0.000
REMARK SMILES C[NH2+][C@]1(C(=O)OCCOCCOC(=O)c2ccc(-c3c4nc(c(-c5c(F)c(F)c(F)c(F)c5F)c5ccc([nH]5)c(-c5c(F)c(F)c(F)c(F)c5F)c5nc(c(-c6c(F)c(F)c(F)c(F)c6F)c6ccc3[nH]6)C=C5)C=C4)cc2)CCCCC1(C)C
REMARK SMILES IDX 10 1 9 2 8 3 7 4 6 5 4 6 5 7 3 8 78 9 82 10 79 11 81 12
REMARK SMILES IDX 83 13 84 14 80 15 2 16 1 17 11 20 12 21 13 22 14 23 15 24
REMARK SMILES IDX 16 25 77 26 17 27 76 28 18 29 19 30 20 31 70 32 21 33 75 34
REMARK SMILES IDX 69 35 71 36 22 37 74 38 68 39 67 40 23 42 55 43 35 44 54 45
REMARK SMILES IDX 36 46 39 47 53 48 72 49 37 50 38 51 52 53 73 54 40 55 24 56
REMARK SMILES IDX 25 57 33 58 26 59 27 60 31 61 34 62 28 63 29 64 32 65 30 66
REMARK SMILES IDX 56 67 57 68 65 69 58 70 59 71 63 72 66 73 60 74 61 75 64 76
REMARK SMILES IDX 62 77 41 78 42 79 50 80 43 81 44 82 48 83 51 84 45 85 46 86
REMARK SMILES IDX 49 87 47 88
REMARK H PARENT 2 18 2 19 71 41 39 52
REMARK Flexibility Score: inf
ROOT
ATOM      1  C   UNL A   1      31.721  29.409  25.579  1.00  0.00     0.202 C 
ENDROOT
BRANCH   1   2
ATOM      2  O   UNL A   1      32.184  29.210  24.245  1.00  0.00    -0.374 OA
BRANCH   2   3
ATOM      3  C   UNL A   1      31.237  28.727  23.295  1.00  0.00     0.202 C 
BRANCH   3   4
ATOM      4  C   UNL A   1      30.112  27.839  23.833  1.00  0.00     0.261 C 
BRANCH   4   5
ATOM      5  O   UNL A   1      30.237  26.453  23.449  1.00  0.00    -0.459 OA
BRANCH   5   6
ATOM      6  C   UNL A   1      31.053  25.702  24.241  1.00  0.00     0.368 C 
ATOM      7  O   UNL A   1      30.938  25.673  25.465  1.00  0.00    -0.245 OA
BRANCH   6   8
ATOM      8  C   UNL A   1      32.207  24.950  23.462  1.00  0.00     0.199 C 
ATOM      9  C   UNL A   1      33.380  26.000  23.433  1.00  0.00     0.082 C 
ATOM     10  C   UNL A   1      32.781  23.583  24.068  1.00  0.00     0.031 C 
ATOM     11  C   UNL A   1      34.028  26.224  24.800  1.00  0.00     0.007 C 
ATOM     12  C   UNL A   1      33.519  23.834  25.414  1.00  0.00     0.013 C 
ATOM     13  C   UNL A   1      31.739  22.476  24.362  1.00  0.00     0.018 C 
ATOM     14  C   UNL A   1      33.810  22.939  23.090  1.00  0.00     0.018 C 
ATOM     15  C   UNL A   1      34.574  24.932  25.377  1.00  0.00     0.001 C 
BRANCH   8  16
ATOM     16  N   UNL A   1      31.775  24.878  22.033  1.00  0.00    -0.334 N 
ATOM     17  C   UNL A   1      32.532  25.630  21.054  1.00  0.00     0.331 C 
ATOM     18  H   UNL A   1      31.809  23.897  21.756  1.00  0.00     0.347 HD
ATOM     19  H   UNL A   1      30.851  25.310  22.025  1.00  0.00     0.347 HD
ENDBRANCH   8  16
ENDBRANCH   6   8
ENDBRANCH   5   6
ENDBRANCH   4   5
ENDBRANCH   3   4
ENDBRANCH   2   3
ENDBRANCH   1   2
BRANCH   1  20
ATOM     20  C   UNL A   1      31.873  30.836  26.117  1.00  0.00     0.261 C 
BRANCH  20  21
ATOM     21  O   UNL A   1      32.590  30.846  27.366  1.00  0.00    -0.460 OA
BRANCH  21  22
ATOM     22  C   UNL A   1      33.385  31.925  27.543  1.00  0.00     0.338 C 
ATOM     23  O   UNL A   1      33.043  33.096  27.619  1.00  0.00    -0.246 OA
BRANCH  22  24
ATOM     24  C   UNL A   1      34.765  31.499  27.827  1.00  0.00     0.060 A 
ATOM     25  C   UNL A   1      34.991  30.127  27.988  1.00  0.00     0.016 A 
ATOM     26  C   UNL A   1      35.790  32.420  28.051  1.00  0.00     0.016 A 
ATOM     27  C   UNL A   1      36.226  29.672  28.444  1.00  0.00     0.010 A 
ATOM     28  C   UNL A   1      37.029  31.962  28.518  1.00  0.00     0.010 A 
ATOM     29  C   UNL A   1      37.236  30.592  28.760  1.00  0.00    -0.014 A 
BRANCH  29  30
ATOM     30  C   UNL A   1      38.423  30.116  29.515  1.00  0.00     0.031 A 
ATOM     31  C   UNL A   1      38.624  30.591  30.930  1.00  0.00     0.074 A 
ATOM     32  C   UNL A   1      39.271  29.219  28.982  1.00  0.00     0.049 A 
ATOM     33  N   UNL A   1      39.555  30.270  31.792  1.00  0.00    -0.248 NA
ATOM     34  C   UNL A   1      37.636  31.554  31.444  1.00  0.00     0.031 C 
ATOM     35  C   UNL A   1      39.162  28.648  27.643  1.00  0.00     0.029 A 
ATOM     36  N   UNL A   1      40.387  28.623  29.515  1.00  0.00    -0.354 N 
ATOM     37  C   UNL A   1      39.265  30.984  32.946  1.00  0.00     0.074 A 
ATOM     38  C   UNL A   1      38.090  31.782  32.668  1.00  0.00     0.031 C 
ATOM     39  C   UNL A   1      40.173  27.782  27.457  1.00  0.00     0.029 A 
ATOM     40  C   UNL A   1      41.010  27.754  28.655  1.00  0.00     0.049 A 
ATOM     41  H   UNL A   1      40.710  28.803  30.428  1.00  0.00     0.167 HD
ATOM     42  C   UNL A   1      39.911  30.970  34.136  1.00  0.00     0.037 A 
ATOM     43  C   UNL A   1      42.133  27.026  28.817  1.00  0.00     0.037 A 
ATOM     44  C   UNL A   1      41.075  30.175  34.421  1.00  0.00     0.049 A 
ATOM     45  C   UNL A   1      42.874  27.083  30.128  1.00  0.00     0.074 A 
ATOM     46  C   UNL A   1      41.783  30.076  35.606  1.00  0.00     0.029 A 
ATOM     47  N   UNL A   1      41.707  29.348  33.506  1.00  0.00    -0.354 N 
ATOM     48  N   UNL A   1      42.572  27.736  31.224  1.00  0.00    -0.248 NA
ATOM     49  C   UNL A   1      44.113  26.297  30.223  1.00  0.00     0.031 C 
ATOM     50  C   UNL A   1      42.872  29.223  35.395  1.00  0.00     0.029 A 
ATOM     51  C   UNL A   1      42.815  28.757  34.091  1.00  0.00     0.049 A 
ATOM     52  H   UNL A   1      41.412  29.202  32.578  1.00  0.00     0.167 HD
ATOM     53  C   UNL A   1      43.564  27.419  32.144  1.00  0.00     0.074 A 
ATOM     54  C   UNL A   1      44.473  26.508  31.482  1.00  0.00     0.031 C 
ATOM     55  C   UNL A   1      43.707  27.845  33.422  1.00  0.00     0.037 A 
BRANCH  42  56
ATOM     56  C   UNL A   1      39.381  31.859  35.221  1.00  0.00     0.064 A 
ATOM     57  C   UNL A   1      38.553  31.364  36.240  1.00  0.00     0.173 A 
ATOM     58  C   UNL A   1      39.738  33.215  35.263  1.00  0.00     0.173 A 
ATOM     59  F   UNL A   1      38.173  30.077  36.234  1.00  0.00    -0.203 F 
ATOM     60  C   UNL A   1      38.088  32.199  37.251  1.00  0.00     0.198 A 
ATOM     61  C   UNL A   1      39.289  34.041  36.289  1.00  0.00     0.198 A 
ATOM     62  F   UNL A   1      40.530  33.735  34.313  1.00  0.00    -0.203 F 
ATOM     63  F   UNL A   1      37.269  31.714  38.195  1.00  0.00    -0.200 F 
ATOM     64  C   UNL A   1      38.460  33.535  37.279  1.00  0.00     0.200 A 
ATOM     65  F   UNL A   1      39.658  35.329  36.319  1.00  0.00    -0.200 F 
ATOM     66  F   UNL A   1      38.017  34.336  38.256  1.00  0.00    -0.200 F 
ENDBRANCH  42  56
BRANCH  43  67
ATOM     67  C   UNL A   1      42.633  26.178  27.706  1.00  0.00     0.064 A 
ATOM     68  C   UNL A   1      43.628  26.639  26.832  1.00  0.00     0.173 A 
ATOM     69  C   UNL A   1      42.106  24.898  27.479  1.00  0.00     0.173 A 
ATOM     70  F   UNL A   1      44.142  27.867  26.992  1.00  0.00    -0.203 F 
ATOM     71  C   UNL A   1      44.067  25.856  25.766  1.00  0.00     0.198 A 
ATOM     72  C   UNL A   1      42.564  24.107  26.428  1.00  0.00     0.198 A 
ATOM     73  F   UNL A   1      41.148  24.414  28.283  1.00  0.00    -0.203 F 
ATOM     74  F   UNL A   1      44.988  26.338  24.920  1.00  0.00    -0.200 F 
ATOM     75  C   UNL A   1      43.538  24.590  25.567  1.00  0.00     0.200 A 
ATOM     76  F   UNL A   1      42.056  22.881  26.244  1.00  0.00    -0.200 F 
ATOM     77  F   UNL A   1      43.961  23.838  24.542  1.00  0.00    -0.200 F 
ENDBRANCH  43  67
BRANCH  55  78
ATOM     78  C   UNL A   1      44.871  27.310  34.203  1.00  0.00     0.064 A 
ATOM     79  C   UNL A   1      46.096  27.993  34.257  1.00  0.00     0.173 A 
ATOM     80  C   UNL A   1      44.747  26.123  34.942  1.00  0.00     0.173 A 
ATOM     81  F   UNL A   1      46.269  29.123  33.556  1.00  0.00    -0.203 F 
ATOM     82  C   UNL A   1      47.158  27.496  35.006  1.00  0.00     0.198 A 
ATOM     83  C   UNL A   1      45.804  25.643  35.711  1.00  0.00     0.198 A 
ATOM     84  F   UNL A   1      43.594  25.437  34.930  1.00  0.00    -0.203 F 
ATOM     85  F   UNL A   1      48.332  28.143  35.011  1.00  0.00    -0.200 F 
ATOM     86  C   UNL A   1      47.010  26.327  35.738  1.00  0.00     0.200 A 
ATOM     87  F   UNL A   1      45.654  24.520  36.426  1.00  0.00    -0.200 F 
ATOM     88  F   UNL A   1      48.032  25.854  36.463  1.00  0.00    -0.200 F 
ENDBRANCH  55  78
ENDBRANCH  29  30
ENDBRANCH  22  24
ENDBRANCH  21  22
ENDBRANCH  20  21
ENDBRANCH   1  20
TORSDOF 15
ENDMDL
MODEL 2
REMARK VINA RESULT:     -10.8      0.855      2.046
REMARK SMILES C[NH2+][C@]1(C(=O)OCCOCCOC(=O)c2ccc(-c3c4nc(c(-c5c(F)c(F)c(F)c(F)c5F)c5ccc([nH]5)c(-c5c(F)c(F)c(F)c(F)c5F)c5nc(c(-c6c(F)c(F)c(F)c(F)c6F)c6ccc3[nH]6)C=C5)C=C4)cc2)CCCCC1(C)C
REMARK SMILES IDX 10 1 9 2 8 3 7 4 6 5 4 6 5 7 3 8 78 9 82 10 79 11 81 12
REMARK SMILES IDX 83 13 84 14 80 15 2 16 1 17 11 20 12 21 13 22 14 23 15 24
REMARK SMILES IDX 16 25 77 26 17 27 76 28 18 29 19 30 20 31 70 32 21 33 75 34
REMARK SMILES IDX 69 35 71 36 22 37 74 38 68 39 67 40 23 42 55 43 35 44 54 45
REMARK SMILES IDX 36 46 39 47 53 48 72 49 37 50 38 51 52 53 73 54 40 55 24 56
REMARK SMILES IDX 25 57 33 58 26 59 27 60 31 61 34 62 28 63 29 64 32 65 30 66
REMARK SMILES IDX 56 67 57 68 65 69 58 70 59 71 63 72 66 73 60 74 61 75 64 76
REMARK SMILES IDX 62 77 41 78 42 79 50 80 43 81 44 82 48 83 51 84 45 85 46 86
REMARK SMILES IDX 49 87 47 88
REMARK H PARENT 2 18 2 19 71 41 39 52
REMARK Flexibility Score: inf
ROOT
ATOM      1  C   UNL A   1      31.412  30.358  25.389  1.00  0.00     0.202 C 
ENDROOT
BRANCH   1   2
ATOM      2  O   UNL A   1      32.648  29.720  25.071  1.00  0.00    -0.374 OA
BRANCH   2   3
ATOM      3  C   UNL A   1      32.614  28.311  24.856  1.00  0.00     0.202 C 
BRANCH   3   4
ATOM      4  C   UNL A   1      33.525  27.759  23.757  1.00  0.00     0.261 C 
BRANCH   4   5
ATOM      5  O   UNL A   1      33.962  26.403  23.996  1.00  0.00    -0.459 OA
BRANCH   5   6
ATOM      6  C   UNL A   1      33.653  25.511  23.013  1.00  0.00     0.368 C 
ATOM      7  O   UNL A   1      33.754  25.787  21.819  1.00  0.00    -0.245 OA
BRANCH   6   8
ATOM      8  C   UNL A   1      33.072  24.136  23.538  1.00  0.00     0.199 C 
ATOM      9  C   UNL A   1      33.921  23.057  22.767  1.00  0.00     0.082 C 
ATOM     10  C   UNL A   1      33.161  23.811  25.103  1.00  0.00     0.031 C 
ATOM     11  C   UNL A   1      35.373  22.975  23.239  1.00  0.00     0.007 C 
ATOM     12  C   UNL A   1      34.639  23.639  25.557  1.00  0.00     0.013 C 
ATOM     13  C   UNL A   1      32.551  24.868  26.057  1.00  0.00     0.018 C 
ATOM     14  C   UNL A   1      32.419  22.478  25.430  1.00  0.00     0.018 C 
ATOM     15  C   UNL A   1      35.461  22.666  24.721  1.00  0.00     0.001 C 
BRANCH   8  16
ATOM     16  N   UNL A   1      31.711  23.996  22.937  1.00  0.00    -0.334 N 
ATOM     17  C   UNL A   1      30.745  25.047  23.185  1.00  0.00     0.331 C 
ATOM     18  H   UNL A   1      31.832  23.927  21.927  1.00  0.00     0.347 HD
ATOM     19  H   UNL A   1      31.315  23.175  23.394  1.00  0.00     0.347 HD
ENDBRANCH   8  16
ENDBRANCH   6   8
ENDBRANCH   5   6
ENDBRANCH   4   5
ENDBRANCH   3   4
ENDBRANCH   2   3
ENDBRANCH   1   2
BRANCH   1  20
ATOM     20  C   UNL A   1      31.495  31.435  26.477  1.00  0.00     0.261 C 
BRANCH  20  21
ATOM     21  O   UNL A   1      32.587  31.177  27.380  1.00  0.00    -0.460 OA
BRANCH  21  22
ATOM     22  C   UNL A   1      33.410  32.232  27.572  1.00  0.00     0.338 C 
ATOM     23  O   UNL A   1      33.100  33.411  27.658  1.00  0.00    -0.246 OA
BRANCH  22  24
ATOM     24  C   UNL A   1      34.776  31.765  27.860  1.00  0.00     0.060 A 
ATOM     25  C   UNL A   1      34.963  30.385  28.007  1.00  0.00     0.016 A 
ATOM     26  C   UNL A   1      35.824  32.655  28.101  1.00  0.00     0.016 A 
ATOM     27  C   UNL A   1      36.183  29.892  28.465  1.00  0.00     0.010 A 
ATOM     28  C   UNL A   1      37.048  32.158  28.570  1.00  0.00     0.010 A 
ATOM     29  C   UNL A   1      37.216  30.780  28.798  1.00  0.00    -0.014 A 
BRANCH  29  30
ATOM     30  C   UNL A   1      38.384  30.264  29.555  1.00  0.00     0.031 A 
ATOM     31  C   UNL A   1      38.582  30.708  30.980  1.00  0.00     0.074 A 
ATOM     32  C   UNL A   1      39.216  29.356  29.013  1.00  0.00     0.049 A 
ATOM     33  N   UNL A   1      39.497  30.349  31.844  1.00  0.00    -0.248 NA
ATOM     34  C   UNL A   1      37.612  31.684  31.502  1.00  0.00     0.031 C 
ATOM     35  C   UNL A   1      39.107  28.813  27.663  1.00  0.00     0.029 A 
ATOM     36  N   UNL A   1      40.313  28.726  29.545  1.00  0.00    -0.354 N 
ATOM     37  C   UNL A   1      39.212  31.049  33.008  1.00  0.00     0.074 A 
ATOM     38  C   UNL A   1      38.059  31.879  32.734  1.00  0.00     0.031 C 
ATOM     39  C   UNL A   1      40.100  27.927  27.470  1.00  0.00     0.029 A 
ATOM     40  C   UNL A   1      40.924  27.858  28.675  1.00  0.00     0.049 A 
ATOM     41  H   UNL A   1      40.631  28.882  30.464  1.00  0.00     0.167 HD
ATOM     42  C   UNL A   1      39.847  30.998  34.204  1.00  0.00     0.037 A 
ATOM     43  C   UNL A   1      42.029  27.102  28.834  1.00  0.00     0.037 A 
ATOM     44  C   UNL A   1      40.990  30.172  34.485  1.00  0.00     0.049 A 
ATOM     45  C   UNL A   1      42.758  27.118  30.153  1.00  0.00     0.074 A 
ATOM     46  C   UNL A   1      41.684  30.035  35.674  1.00  0.00     0.029 A 
ATOM     47  N   UNL A   1      41.612  29.348  33.560  1.00  0.00    -0.354 N 
ATOM     48  N   UNL A   1      42.461  27.757  31.258  1.00  0.00    -0.248 NA
ATOM     49  C   UNL A   1      43.978  26.301  30.244  1.00  0.00     0.031 C 
ATOM     50  C   UNL A   1      42.755  29.161  35.457  1.00  0.00     0.029 A 
ATOM     51  C   UNL A   1      42.700  28.721  34.145  1.00  0.00     0.049 A 
ATOM     52  H   UNL A   1      41.322  29.225  32.628  1.00  0.00     0.167 HD
ATOM     53  C   UNL A   1      43.437  27.401  32.180  1.00  0.00     0.074 A 
ATOM     54  C   UNL A   1      44.331  26.481  31.510  1.00  0.00     0.031 C 
ATOM     55  C   UNL A   1      43.577  27.801  33.468  1.00  0.00     0.037 A 
BRANCH  42  56
ATOM     56  C   UNL A   1      39.328  31.879  35.300  1.00  0.00     0.064 A 
ATOM     57  C   UNL A   1      39.676  33.236  35.381  1.00  0.00     0.173 A 
ATOM     58  C   UNL A   1      38.440  31.369  36.260  1.00  0.00     0.173 A 
ATOM     59  F   UNL A   1      40.532  33.766  34.495  1.00  0.00    -0.203 F 
ATOM     60  C   UNL A   1      39.168  34.045  36.394  1.00  0.00     0.198 A 
ATOM     61  C   UNL A   1      37.918  32.186  37.257  1.00  0.00     0.198 A 
ATOM     62  F   UNL A   1      38.075  30.079  36.223  1.00  0.00    -0.203 F 
ATOM     63  F   UNL A   1      39.542  35.329  36.474  1.00  0.00    -0.200 F 
ATOM     64  C   UNL A   1      38.285  33.522  37.328  1.00  0.00     0.200 A 
ATOM     65  F   UNL A   1      37.057  31.681  38.152  1.00  0.00    -0.200 F 
ATOM     66  F   UNL A   1      37.793  34.302  38.298  1.00  0.00    -0.200 F 
ENDBRANCH  42  56
BRANCH  43  67
ATOM     67  C   UNL A   1      42.520  26.263  27.712  1.00  0.00     0.064 A 
ATOM     68  C   UNL A   1      43.513  26.728  26.839  1.00  0.00     0.173 A 
ATOM     69  C   UNL A   1      41.985  24.987  27.475  1.00  0.00     0.173 A 
ATOM     70  F   UNL A   1      44.034  27.951  27.009  1.00  0.00    -0.203 F 
ATOM     71  C   UNL A   1      43.943  25.954  25.762  1.00  0.00     0.198 A 
ATOM     72  C   UNL A   1      42.435  24.206  26.413  1.00  0.00     0.198 A 
ATOM     73  F   UNL A   1      41.029  24.500  28.277  1.00  0.00    -0.203 F 
ATOM     74  F   UNL A   1      44.863  26.440  24.917  1.00  0.00    -0.200 F 
ATOM     75  C   UNL A   1      43.408  24.692  25.553  1.00  0.00     0.200 A 
ATOM     76  F   UNL A   1      41.920  22.984  26.219  1.00  0.00    -0.200 F 
ATOM     77  F   UNL A   1      43.822  23.949  24.519  1.00  0.00    -0.200 F 
ENDBRANCH  43  67
BRANCH  55  78
ATOM     78  C   UNL A   1      44.721  27.225  34.249  1.00  0.00     0.064 A 
ATOM     79  C   UNL A   1      44.603  26.007  34.935  1.00  0.00     0.173 A 
ATOM     80  C   UNL A   1      45.964  27.877  34.276  1.00  0.00     0.173 A 
ATOM     81  F   UNL A   1      43.433  25.354  34.952  1.00  0.00    -0.203 F 
ATOM     82  C   UNL A   1      45.682  25.474  35.635  1.00  0.00     0.198 A 
ATOM     83  C   UNL A   1      47.048  27.327  34.955  1.00  0.00     0.198 A 
ATOM     84  F   UNL A   1      46.131  29.041  33.629  1.00  0.00    -0.203 F 
ATOM     85  F   UNL A   1      45.535  24.328  36.317  1.00  0.00    -0.200 F 
ATOM     86  C   UNL A   1      46.904  26.129  35.639  1.00  0.00     0.200 A 
ATOM     87  F   UNL A   1      48.231  27.957  34.947  1.00  0.00    -0.200 F 
ATOM     88  F   UNL A   1      47.943  25.610  36.308  1.00  0.00    -0.200 F 
ENDBRANCH  55  78
ENDBRANCH  29  30
ENDBRANCH  22  24
ENDBRANCH  21  22
ENDBRANCH  20  21
ENDBRANCH   1  20
TORSDOF 15
ENDMDL
MODEL 3
REMARK VINA RESULT:     -10.8      4.442      9.768
REMARK SMILES C[NH2+][C@]1(C(=O)OCCOCCOC(=O)c2ccc(-c3c4nc(c(-c5c(F)c(F)c(F)c(F)c5F)c5ccc([nH]5)c(-c5c(F)c(F)c(F)c(F)c5F)c5nc(c(-c6c(F)c(F)c(F)c(F)c6F)c6ccc3[nH]6)C=C5)C=C4)cc2)CCCCC1(C)C
REMARK SMILES IDX 10 1 9 2 8 3 7 4 6 5 4 6 5 7 3 8 78 9 82 10 79 11 81 12
REMARK SMILES IDX 83 13 84 14 80 15 2 16 1 17 11 20 12 21 13 22 14 23 15 24
REMARK SMILES IDX 16 25 77 26 17 27 76 28 18 29 19 30 20 31 70 32 21 33 75 34
REMARK SMILES IDX 69 35 71 36 22 37 74 38 68 39 67 40 23 42 55 43 35 44 54 45
REMARK SMILES IDX 36 46 39 47 53 48 72 49 37 50 38 51 52 53 73 54 40 55 24 56
REMARK SMILES IDX 25 57 33 58 26 59 27 60 31 61 34 62 28 63 29 64 32 65 30 66
REMARK SMILES IDX 56 67 57 68 65 69 58 70 59 71 63 72 66 73 60 74 61 75 64 76
REMARK SMILES IDX 62 77 41 78 42 79 50 80 43 81 44 82 48 83 51 84 45 85 46 86
REMARK SMILES IDX 49 87 47 88
REMARK H PARENT 2 18 2 19 71 41 39 52
REMARK Flexibility Score: inf
ROOT
ATOM      1  C   UNL A   1      36.238  20.590  24.886  1.00  0.00     0.202 C 
ENDROOT
BRANCH   1   2
ATOM      2  O   UNL A   1      35.872  21.864  25.413  1.00  0.00    -0.374 OA
BRANCH   2   3
ATOM      3  C   UNL A   1      35.099  21.872  26.612  1.00  0.00     0.202 C 
BRANCH   3   4
ATOM      4  C   UNL A   1      33.771  21.112  26.582  1.00  0.00     0.261 C 
BRANCH   4   5
ATOM      5  O   UNL A   1      32.753  21.759  25.788  1.00  0.00    -0.459 OA
BRANCH   5   6
ATOM      6  C   UNL A   1      32.206  22.876  26.345  1.00  0.00     0.368 C 
ATOM      7  O   UNL A   1      31.998  22.976  27.552  1.00  0.00    -0.245 OA
BRANCH   6   8
ATOM      8  C   UNL A   1      31.781  23.986  25.300  1.00  0.00     0.199 C 
ATOM      9  C   UNL A   1      32.473  25.292  25.843  1.00  0.00     0.082 C 
ATOM     10  C   UNL A   1      32.206  23.801  23.767  1.00  0.00     0.031 C 
ATOM     11  C   UNL A   1      33.993  25.285  25.682  1.00  0.00     0.007 C 
ATOM     12  C   UNL A   1      33.751  23.888  23.599  1.00  0.00     0.013 C 
ATOM     13  C   UNL A   1      31.786  22.470  23.097  1.00  0.00     0.018 C 
ATOM     14  C   UNL A   1      31.582  24.927  22.885  1.00  0.00     0.018 C 
ATOM     15  C   UNL A   1      34.400  25.112  24.231  1.00  0.00     0.001 C 
BRANCH   8  16
ATOM     16  N   UNL A   1      30.328  24.247  25.528  1.00  0.00    -0.334 N 
ATOM     17  C   UNL A   1      29.935  25.565  25.982  1.00  0.00     0.331 C 
ATOM     18  H   UNL A   1      29.847  24.075  24.645  1.00  0.00     0.347 HD
ATOM     19  H   UNL A   1      30.076  23.627  26.298  1.00  0.00     0.347 HD
ENDBRANCH   8  16
ENDBRANCH   6   8
ENDBRANCH   5   6
ENDBRANCH   4   5
ENDBRANCH   3   4
ENDBRANCH   2   3
ENDBRANCH   1   2
BRANCH   1  20
ATOM     20  C   UNL A   1      37.625  20.086  25.302  1.00  0.00     0.261 C 
BRANCH  20  21
ATOM     21  O   UNL A   1      38.581  21.161  25.326  1.00  0.00    -0.460 OA
BRANCH  21  22
ATOM     22  C   UNL A   1      39.617  20.966  26.173  1.00  0.00     0.338 C 
ATOM     23  O   UNL A   1      40.315  19.968  26.276  1.00  0.00    -0.246 OA
BRANCH  22  24
ATOM     24  C   UNL A   1      39.944  22.218  26.874  1.00  0.00     0.060 A 
ATOM     25  C   UNL A   1      39.275  23.376  26.461  1.00  0.00     0.016 A 
ATOM     26  C   UNL A   1      40.963  22.286  27.827  1.00  0.00     0.016 A 
ATOM     27  C   UNL A   1      39.671  24.621  26.947  1.00  0.00     0.010 A 
ATOM     28  C   UNL A   1      41.365  23.539  28.308  1.00  0.00     0.010 A 
ATOM     29  C   UNL A   1      40.752  24.713  27.835  1.00  0.00    -0.014 A 
BRANCH  29  30
ATOM     30  C   UNL A   1      41.340  26.049  28.104  1.00  0.00     0.031 A 
ATOM     31  C   UNL A   1      42.727  26.349  27.599  1.00  0.00     0.074 A 
ATOM     32  C   UNL A   1      40.630  27.009  28.723  1.00  0.00     0.049 A 
ATOM     33  N   UNL A   1      43.418  27.459  27.673  1.00  0.00    -0.248 NA
ATOM     34  C   UNL A   1      43.425  25.251  26.911  1.00  0.00     0.031 C 
ATOM     35  C   UNL A   1      39.265  26.860  29.219  1.00  0.00     0.029 A 
ATOM     36  N   UNL A   1      40.962  28.306  29.028  1.00  0.00    -0.354 N 
ATOM     37  C   UNL A   1      44.625  27.194  27.041  1.00  0.00     0.074 A 
ATOM     38  C   UNL A   1      44.589  25.811  26.616  1.00  0.00     0.031 C 
ATOM     39  C   UNL A   1      38.873  28.023  29.769  1.00  0.00     0.029 A 
ATOM     40  C   UNL A   1      39.967  28.989  29.681  1.00  0.00     0.049 A 
ATOM     41  H   UNL A   1      41.832  28.707  28.800  1.00  0.00     0.167 HD
ATOM     42  C   UNL A   1      45.667  28.030  26.822  1.00  0.00     0.037 A 
ATOM     43  C   UNL A   1      39.948  30.249  30.159  1.00  0.00     0.037 A 
ATOM     44  C   UNL A   1      45.708  29.407  27.236  1.00  0.00     0.049 A 
ATOM     45  C   UNL A   1      41.149  31.138  29.965  1.00  0.00     0.074 A 
ATOM     46  C   UNL A   1      46.711  30.339  27.036  1.00  0.00     0.029 A 
ATOM     47  N   UNL A   1      44.701  30.047  27.942  1.00  0.00    -0.354 N 
ATOM     48  N   UNL A   1      42.272  30.889  29.336  1.00  0.00    -0.248 NA
ATOM     49  C   UNL A   1      41.076  32.486  30.547  1.00  0.00     0.031 C 
ATOM     50  C   UNL A   1      46.331  31.532  27.662  1.00  0.00     0.029 A 
ATOM     51  C   UNL A   1      45.072  31.354  28.212  1.00  0.00     0.049 A 
ATOM     52  H   UNL A   1      43.849  29.634  28.211  1.00  0.00     0.167 HD
ATOM     53  C   UNL A   1      43.026  32.052  29.423  1.00  0.00     0.074 A 
ATOM     54  C   UNL A   1      42.229  33.013  30.156  1.00  0.00     0.031 C 
ATOM     55  C   UNL A   1      44.266  32.302  28.936  1.00  0.00     0.037 A 
BRANCH  42  56
ATOM     56  C   UNL A   1      46.866  27.472  26.115  1.00  0.00     0.064 A 
ATOM     57  C   UNL A   1      47.005  27.559  24.721  1.00  0.00     0.173 A 
ATOM     58  C   UNL A   1      47.905  26.876  26.844  1.00  0.00     0.173 A 
ATOM     59  F   UNL A   1      46.031  28.107  23.979  1.00  0.00    -0.203 F 
ATOM     60  C   UNL A   1      48.134  27.053  24.083  1.00  0.00     0.198 A 
ATOM     61  C   UNL A   1      49.042  26.392  26.205  1.00  0.00     0.198 A 
ATOM     62  F   UNL A   1      47.820  26.771  28.179  1.00  0.00    -0.203 F 
ATOM     63  F   UNL A   1      48.231  27.114  22.748  1.00  0.00    -0.200 F 
ATOM     64  C   UNL A   1      49.155  26.476  24.825  1.00  0.00     0.200 A 
ATOM     65  F   UNL A   1      50.031  25.843  26.924  1.00  0.00    -0.200 F 
ATOM     66  F   UNL A   1      50.243  25.995  24.210  1.00  0.00    -0.200 F 
ENDBRANCH  42  56
BRANCH  43  67
ATOM     67  C   UNL A   1      38.747  30.752  30.874  1.00  0.00     0.064 A 
ATOM     68  C   UNL A   1      38.647  30.670  32.270  1.00  0.00     0.173 A 
ATOM     69  C   UNL A   1      37.664  31.301  30.172  1.00  0.00     0.173 A 
ATOM     70  F   UNL A   1      39.645  30.127  32.981  1.00  0.00    -0.203 F 
ATOM     71  C   UNL A   1      37.502  31.105  32.935  1.00  0.00     0.198 A 
ATOM     72  C   UNL A   1      36.531  31.759  30.841  1.00  0.00     0.198 A 
ATOM     73  F   UNL A   1      37.708  31.396  28.835  1.00  0.00    -0.203 F 
ATOM     74  F   UNL A   1      37.414  30.975  34.266  1.00  0.00    -0.200 F 
ATOM     75  C   UNL A   1      36.447  31.654  32.221  1.00  0.00     0.200 A 
ATOM     76  F   UNL A   1      35.518  32.296  30.147  1.00  0.00    -0.200 F 
ATOM     77  F   UNL A   1      35.348  32.073  32.861  1.00  0.00    -0.200 F 
ENDBRANCH  43  67
BRANCH  55  78
ATOM     78  C   UNL A   1      44.830  33.675  29.154  1.00  0.00     0.064 A 
ATOM     79  C   UNL A   1      45.630  33.973  30.267  1.00  0.00     0.173 A 
ATOM     80  C   UNL A   1      44.605  34.694  28.215  1.00  0.00     0.173 A 
ATOM     81  F   UNL A   1      45.862  33.038  31.200  1.00  0.00    -0.203 F 
ATOM     82  C   UNL A   1      46.166  35.245  30.442  1.00  0.00     0.198 A 
ATOM     83  C   UNL A   1      45.165  35.958  28.380  1.00  0.00     0.198 A 
ATOM     84  F   UNL A   1      43.853  34.458  27.129  1.00  0.00    -0.203 F 
ATOM     85  F   UNL A   1      46.895  35.519  31.534  1.00  0.00    -0.200 F 
ATOM     86  C   UNL A   1      45.940  36.234  29.496  1.00  0.00     0.200 A 
ATOM     87  F   UNL A   1      44.955  36.907  27.458  1.00  0.00    -0.200 F 
ATOM     88  F   UNL A   1      46.464  37.456  29.663  1.00  0.00    -0.200 F 
ENDBRANCH  55  78
ENDBRANCH  29  30
ENDBRANCH  22  24
ENDBRANCH  21  22
ENDBRANCH  20  21
ENDBRANCH   1  20
TORSDOF 15
ENDMDL
