MODEL 1
REMARK VINA RESULT:     -12.4      0.000      0.000
REMARK SMILES Cc1cc(C(=O)N[C@H](C(=O)OCCOCCOC(=O)c2ccc(-c3c4nc(c(-c5c(F)c(F)c(F)c(F)c5F)c5ccc([nH]5)c(-c5c(F)c(F)c(F)c(F)c5F)c5nc(c(-c6c(F)c(F)c(F)c(F)c6F)c6ccc3[nH]6)C=C5)C=C4)cc2)c2c(C)n[nH]c2C)c2ccc(C)c(C)c2n1
REMARK SMILES IDX 14 1 13 2 12 3 11 4 9 5 10 6 8 7 7 8 5 9 6 10 4 12 1 13 2 14
REMARK SMILES IDX 3 15 98 16 97 17 90 18 95 19 91 20 93 21 96 22 92 23 94 24
REMARK SMILES IDX 83 25 84 26 88 27 85 28 86 29 87 30 89 31 15 33 16 34 17 35
REMARK SMILES IDX 18 36 19 37 20 38 21 39 82 40 22 41 81 42 23 43 24 44 25 45
REMARK SMILES IDX 75 46 26 47 80 48 74 49 76 50 27 51 79 52 73 53 72 54 28 56
REMARK SMILES IDX 60 57 40 58 59 59 41 60 44 61 58 62 77 63 42 64 43 65 57 67
REMARK SMILES IDX 78 68 45 69 29 70 30 71 38 72 31 73 32 74 36 75 39 76 33 77
REMARK SMILES IDX 34 78 37 79 35 80 61 81 62 82 70 83 63 84 64 85 68 86 71 87
REMARK SMILES IDX 65 88 66 89 69 90 67 91 46 92 47 93 55 94 48 95 49 96 53 97
REMARK SMILES IDX 56 98 50 99 51 100 54 101 52 102
REMARK H PARENT 7 11 87 32 76 55 44 66
REMARK Flexibility Score: inf
ROOT
ATOM      1  O   UNL A   1      31.406  30.160  27.060  1.00  0.00    -0.374 OA
ENDROOT
BRANCH   1   2
ATOM      2  C   UNL A   1      32.286  29.095  27.417  1.00  0.00     0.202 C 
BRANCH   2   3
ATOM      3  C   UNL A   1      33.530  28.937  26.542  1.00  0.00     0.261 C 
BRANCH   3   4
ATOM      4  O   UNL A   1      33.735  27.560  26.179  1.00  0.00    -0.461 OA
BRANCH   4   5
ATOM      5  C   UNL A   1      33.780  27.312  24.839  1.00  0.00     0.333 C 
ATOM      6  O   UNL A   1      34.296  28.061  24.015  1.00  0.00    -0.249 OA
BRANCH   5   7
ATOM      7  C   UNL A   1      33.040  26.013  24.445  1.00  0.00     0.227 C 
BRANCH   7   8
ATOM      8  N   UNL A   1      32.290  25.347  25.510  1.00  0.00    -0.335 N 
ATOM      9  C   UNL A   1      32.589  24.236  26.278  1.00  0.00     0.252 C 
ATOM     10  O   UNL A   1      31.819  23.970  27.200  1.00  0.00    -0.269 OA
ATOM     11  H   UNL A   1      31.422  25.762  25.716  1.00  0.00     0.165 HD
BRANCH   9  12
ATOM     12  C   UNL A   1      33.804  23.380  26.048  1.00  0.00     0.051 A 
ATOM     13  C   UNL A   1      37.532  23.826  26.195  1.00  0.00     0.067 C 
ATOM     14  C   UNL A   1      36.184  23.183  26.073  1.00  0.00     0.039 A 
ATOM     15  C   UNL A   1      35.050  23.878  26.426  1.00  0.00     0.038 A 
ATOM     16  N   UNL A   1      36.129  21.955  25.537  1.00  0.00    -0.253 NA
ATOM     17  C   UNL A   1      34.941  21.361  25.328  1.00  0.00     0.074 A 
ATOM     18  C   UNL A   1      33.720  22.053  25.522  1.00  0.00     0.013 A 
ATOM     19  C   UNL A   1      34.944  20.015  24.915  1.00  0.00    -0.022 A 
ATOM     20  C   UNL A   1      32.526  21.360  25.201  1.00  0.00     0.011 A 
ATOM     21  C   UNL A   1      33.739  19.330  24.656  1.00  0.00    -0.046 A 
ATOM     22  C   UNL A   1      36.285  19.324  24.784  1.00  0.00     0.047 C 
ATOM     23  C   UNL A   1      32.537  20.025  24.786  1.00  0.00     0.004 A 
ATOM     24  C   UNL A   1      33.711  17.874  24.275  1.00  0.00     0.044 C 
ENDBRANCH   9  12
ENDBRANCH   7   8
BRANCH   7  25
ATOM     25  C   UNL A   1      32.168  26.255  23.257  1.00  0.00     0.029 A 
ATOM     26  C   UNL A   1      31.156  27.232  23.030  1.00  0.00     0.065 A 
ATOM     27  C   UNL A   1      32.260  25.571  22.055  1.00  0.00     0.038 A 
ATOM     28  C   UNL A   1      30.622  28.275  23.945  1.00  0.00     0.069 C 
ATOM     29  N   UNL A   1      30.682  27.165  21.780  1.00  0.00    -0.180 NA
ATOM     30  N   UNL A   1      31.363  26.160  21.215  1.00  0.00    -0.282 N 
ATOM     31  C   UNL A   1      33.140  24.450  21.642  1.00  0.00     0.066 C 
ATOM     32  H   UNL A   1      31.228  25.873  20.282  1.00  0.00     0.190 HD
ENDBRANCH   7  25
ENDBRANCH   5   7
ENDBRANCH   4   5
ENDBRANCH   3   4
ENDBRANCH   2   3
ENDBRANCH   1   2
BRANCH   1  33
ATOM     33  C   UNL A   1      31.940  31.217  26.259  1.00  0.00     0.202 C 
BRANCH  33  34
ATOM     34  C   UNL A   1      31.929  32.624  26.869  1.00  0.00     0.261 C 
BRANCH  34  35
ATOM     35  O   UNL A   1      32.730  32.718  28.066  1.00  0.00    -0.460 OA
BRANCH  35  36
ATOM     36  C   UNL A   1      33.806  33.530  27.962  1.00  0.00     0.338 C 
ATOM     37  O   UNL A   1      33.818  34.748  27.830  1.00  0.00    -0.246 OA
BRANCH  36  38
ATOM     38  C   UNL A   1      35.044  32.771  28.187  1.00  0.00     0.060 A 
ATOM     39  C   UNL A   1      34.930  31.421  28.541  1.00  0.00     0.016 A 
ATOM     40  C   UNL A   1      36.282  33.414  28.213  1.00  0.00     0.016 A 
ATOM     41  C   UNL A   1      36.052  30.717  28.971  1.00  0.00     0.010 A 
ATOM     42  C   UNL A   1      37.405  32.712  28.661  1.00  0.00     0.010 A 
ATOM     43  C   UNL A   1      37.284  31.374  29.081  1.00  0.00    -0.014 A 
BRANCH  43  44
ATOM     44  C   UNL A   1      38.391  30.714  29.812  1.00  0.00     0.031 A 
ATOM     45  C   UNL A   1      38.649  31.104  31.242  1.00  0.00     0.074 A 
ATOM     46  C   UNL A   1      39.121  29.750  29.230  1.00  0.00     0.049 A 
ATOM     47  N   UNL A   1      39.554  30.658  32.074  1.00  0.00    -0.248 NA
ATOM     48  C   UNL A   1      37.759  32.128  31.811  1.00  0.00     0.031 C 
ATOM     49  C   UNL A   1      38.926  29.248  27.873  1.00  0.00     0.029 A 
ATOM     50  N   UNL A   1      40.176  29.018  29.716  1.00  0.00    -0.354 N 
ATOM     51  C   UNL A   1      39.334  31.334  33.267  1.00  0.00     0.074 A 
ATOM     52  C   UNL A   1      38.235  32.247  33.042  1.00  0.00     0.031 C 
ATOM     53  C   UNL A   1      39.836  28.289  27.631  1.00  0.00     0.029 A 
ATOM     54  C   UNL A   1      40.693  28.132  28.806  1.00  0.00     0.049 A 
ATOM     55  H   UNL A   1      40.528  29.120  30.630  1.00  0.00     0.167 HD
ATOM     56  C   UNL A   1      39.983  31.196  34.446  1.00  0.00     0.037 A 
ATOM     57  C   UNL A   1      41.746  27.298  28.909  1.00  0.00     0.037 A 
ATOM     58  C   UNL A   1      41.091  30.304  34.662  1.00  0.00     0.049 A 
ATOM     59  C   UNL A   1      42.527  27.246  30.196  1.00  0.00     0.074 A 
ATOM     60  C   UNL A   1      41.820  30.098  35.820  1.00  0.00     0.029 A 
ATOM     61  N   UNL A   1      41.636  29.477  33.691  1.00  0.00    -0.354 N 
ATOM     62  N   UNL A   1      42.309  27.881  31.322  1.00  0.00    -0.248 NA
ATOM     63  C   UNL A   1      43.703  26.363  30.225  1.00  0.00     0.031 C 
ATOM     64  C   UNL A   1      42.836  29.180  35.536  1.00  0.00     0.029 A 
ATOM     65  C   UNL A   1      42.710  28.777  34.215  1.00  0.00     0.049 A 
ATOM     66  H   UNL A   1      41.307  29.397  32.767  1.00  0.00     0.167 HD
ATOM     67  C   UNL A   1      43.303  27.462  32.197  1.00  0.00     0.074 A 
ATOM     68  C   UNL A   1      44.121  26.510  31.474  1.00  0.00     0.031 C 
ATOM     69  C   UNL A   1      43.516  27.834  33.483  1.00  0.00     0.037 A 
BRANCH  56  70
ATOM     70  C   UNL A   1      39.520  32.043  35.593  1.00  0.00     0.064 A 
ATOM     71  C   UNL A   1      39.984  33.356  35.767  1.00  0.00     0.173 A 
ATOM     72  C   UNL A   1      38.573  31.554  36.505  1.00  0.00     0.173 A 
ATOM     73  F   UNL A   1      40.900  33.864  34.929  1.00  0.00    -0.203 F 
ATOM     74  C   UNL A   1      39.530  34.141  36.824  1.00  0.00     0.198 A 
ATOM     75  C   UNL A   1      38.104  32.351  37.546  1.00  0.00     0.198 A 
ATOM     76  F   UNL A   1      38.096  30.306  36.381  1.00  0.00    -0.203 F 
ATOM     77  F   UNL A   1      40.015  35.380  36.993  1.00  0.00    -0.200 F 
ATOM     78  C   UNL A   1      38.586  33.640  37.707  1.00  0.00     0.200 A 
ATOM     79  F   UNL A   1      37.183  31.870  38.393  1.00  0.00    -0.200 F 
ATOM     80  F   UNL A   1      38.144  34.402  38.719  1.00  0.00    -0.200 F 
ENDBRANCH  56  70
BRANCH  57  81
ATOM     81  C   UNL A   1      42.116  26.440  27.755  1.00  0.00     0.064 A 
ATOM     82  C   UNL A   1      43.093  26.852  26.839  1.00  0.00     0.173 A 
ATOM     83  C   UNL A   1      41.517  25.188  27.556  1.00  0.00     0.173 A 
ATOM     84  F   UNL A   1      43.674  28.053  26.974  1.00  0.00    -0.203 F 
ATOM     85  C   UNL A   1      43.457  26.041  25.766  1.00  0.00     0.198 A 
ATOM     86  C   UNL A   1      41.899  24.368  26.496  1.00  0.00     0.198 A 
ATOM     87  F   UNL A   1      40.572  24.753  28.403  1.00  0.00    -0.203 F 
ATOM     88  F   UNL A   1      44.376  26.468  24.889  1.00  0.00    -0.200 F 
ATOM     89  C   UNL A   1      42.867  24.797  25.601  1.00  0.00     0.200 A 
ATOM     90  F   UNL A   1      41.331  23.164  26.344  1.00  0.00    -0.200 F 
ATOM     91  F   UNL A   1      43.227  24.013  24.575  1.00  0.00    -0.200 F 
ENDBRANCH  57  81
BRANCH  69  92
ATOM     92  C   UNL A   1      44.669  27.204  34.208  1.00  0.00     0.064 A 
ATOM     93  C   UNL A   1      45.922  27.829  34.270  1.00  0.00     0.173 A 
ATOM     94  C   UNL A   1      44.495  26.004  34.916  1.00  0.00     0.173 A 
ATOM     95  F   UNL A   1      46.142  28.970  33.601  1.00  0.00    -0.203 F 
ATOM     96  C   UNL A   1      46.965  27.270  35.005  1.00  0.00     0.198 A 
ATOM     97  C   UNL A   1      45.531  25.462  35.672  1.00  0.00     0.198 A 
ATOM     98  F   UNL A   1      43.312  25.373  34.895  1.00  0.00    -0.203 F 
ATOM     99  F   UNL A   1      48.164  27.868  35.027  1.00  0.00    -0.200 F 
ATOM    100  C   UNL A   1      46.765  26.093  35.713  1.00  0.00     0.200 A 
ATOM    101  F   UNL A   1      45.332  24.333  36.367  1.00  0.00    -0.200 F 
ATOM    102  F   UNL A   1      47.764  25.567  36.435  1.00  0.00    -0.200 F 
ENDBRANCH  69  92
ENDBRANCH  43  44
ENDBRANCH  36  38
ENDBRANCH  35  36
ENDBRANCH  34  35
ENDBRANCH  33  34
ENDBRANCH   1  33
TORSDOF 17
ENDMDL
MODEL 2
REMARK VINA RESULT:     -12.3      4.313     10.206
REMARK SMILES Cc1cc(C(=O)N[C@H](C(=O)OCCOCCOC(=O)c2ccc(-c3c4nc(c(-c5c(F)c(F)c(F)c(F)c5F)c5ccc([nH]5)c(-c5c(F)c(F)c(F)c(F)c5F)c5nc(c(-c6c(F)c(F)c(F)c(F)c6F)c6ccc3[nH]6)C=C5)C=C4)cc2)c2c(C)n[nH]c2C)c2ccc(C)c(C)c2n1
REMARK SMILES IDX 14 1 13 2 12 3 11 4 9 5 10 6 8 7 7 8 5 9 6 10 4 12 1 13 2 14
REMARK SMILES IDX 3 15 98 16 97 17 90 18 95 19 91 20 93 21 96 22 92 23 94 24
REMARK SMILES IDX 83 25 84 26 88 27 85 28 86 29 87 30 89 31 15 33 16 34 17 35
REMARK SMILES IDX 18 36 19 37 20 38 21 39 82 40 22 41 81 42 23 43 24 44 25 45
REMARK SMILES IDX 75 46 26 47 80 48 74 49 76 50 27 51 79 52 73 53 72 54 28 56
REMARK SMILES IDX 60 57 40 58 59 59 41 60 44 61 58 62 77 63 42 64 43 65 57 67
REMARK SMILES IDX 78 68 45 69 29 70 30 71 38 72 31 73 32 74 36 75 39 76 33 77
REMARK SMILES IDX 34 78 37 79 35 80 61 81 62 82 70 83 63 84 64 85 68 86 71 87
REMARK SMILES IDX 65 88 66 89 69 90 67 91 46 92 47 93 55 94 48 95 49 96 53 97
REMARK SMILES IDX 56 98 50 99 51 100 54 101 52 102
REMARK H PARENT 7 11 87 32 76 55 44 66
REMARK Flexibility Score: inf
ROOT
ATOM      1  O   UNL A   1      37.532  21.070  25.465  1.00  0.00    -0.374 OA
ENDROOT
BRANCH   1   2
ATOM      2  C   UNL A   1      36.952  21.945  24.499  1.00  0.00     0.202 C 
BRANCH   2   3
ATOM      3  C   UNL A   1      36.904  23.424  24.885  1.00  0.00     0.261 C 
BRANCH   3   4
ATOM      4  O   UNL A   1      35.713  24.051  24.380  1.00  0.00    -0.461 OA
BRANCH   4   5
ATOM      5  C   UNL A   1      34.706  24.204  25.287  1.00  0.00     0.333 C 
ATOM      6  O   UNL A   1      34.741  23.773  26.436  1.00  0.00    -0.249 OA
BRANCH   5   7
ATOM      7  C   UNL A   1      33.469  24.918  24.696  1.00  0.00     0.227 C 
BRANCH   7   8
ATOM      8  N   UNL A   1      33.527  25.238  23.269  1.00  0.00    -0.335 N 
ATOM      9  C   UNL A   1      33.061  26.330  22.560  1.00  0.00     0.252 C 
ATOM     10  O   UNL A   1      33.365  26.395  21.369  1.00  0.00    -0.269 OA
ATOM     11  H   UNL A   1      33.976  24.557  22.718  1.00  0.00     0.165 HD
BRANCH   9  12
ATOM     12  C   UNL A   1      32.242  27.426  23.183  1.00  0.00     0.051 A 
ATOM     13  C   UNL A   1      28.900  29.031  22.571  1.00  0.00     0.067 C 
ATOM     14  C   UNL A   1      30.206  28.675  23.213  1.00  0.00     0.039 A 
ATOM     15  C   UNL A   1      30.917  27.580  22.778  1.00  0.00     0.038 A 
ATOM     16  N   UNL A   1      30.681  29.505  24.154  1.00  0.00    -0.253 NA
ATOM     17  C   UNL A   1      31.886  29.281  24.707  1.00  0.00     0.074 A 
ATOM     18  C   UNL A   1      32.749  28.268  24.222  1.00  0.00     0.013 A 
ATOM     19  C   UNL A   1      32.266  30.084  25.799  1.00  0.00    -0.022 A 
ATOM     20  C   UNL A   1      34.028  28.165  24.825  1.00  0.00     0.011 A 
ATOM     21  C   UNL A   1      33.522  29.924  26.419  1.00  0.00    -0.046 A 
ATOM     22  C   UNL A   1      31.267  31.108  26.298  1.00  0.00     0.047 C 
ATOM     23  C   UNL A   1      34.401  28.970  25.906  1.00  0.00     0.004 A 
ATOM     24  C   UNL A   1      33.928  30.725  27.626  1.00  0.00     0.044 C 
ENDBRANCH   9  12
ENDBRANCH   7   8
BRANCH   7  25
ATOM     25  C   UNL A   1      32.228  24.150  25.014  1.00  0.00     0.029 A 
ATOM     26  C   UNL A   1      31.894  22.784  24.783  1.00  0.00     0.065 A 
ATOM     27  C   UNL A   1      31.143  24.655  25.713  1.00  0.00     0.038 A 
ATOM     28  C   UNL A   1      32.672  21.721  24.094  1.00  0.00     0.069 C 
ATOM     29  N   UNL A   1      30.708  22.473  25.319  1.00  0.00    -0.180 NA
ATOM     30  N   UNL A   1      30.278  23.614  25.873  1.00  0.00    -0.282 N 
ATOM     31  C   UNL A   1      30.887  26.010  26.260  1.00  0.00     0.066 C 
ATOM     32  H   UNL A   1      29.420  23.693  26.350  1.00  0.00     0.190 HD
ENDBRANCH   7  25
ENDBRANCH   5   7
ENDBRANCH   4   5
ENDBRANCH   3   4
ENDBRANCH   2   3
ENDBRANCH   1   2
BRANCH   1  33
ATOM     33  C   UNL A   1      38.024  19.809  25.002  1.00  0.00     0.202 C 
BRANCH  33  34
ATOM     34  C   UNL A   1      39.349  19.321  25.599  1.00  0.00     0.261 C 
BRANCH  34  35
ATOM     35  O   UNL A   1      39.735  20.058  26.777  1.00  0.00    -0.460 OA
BRANCH  35  36
ATOM     36  C   UNL A   1      41.018  20.484  26.782  1.00  0.00     0.338 C 
ATOM     37  O   UNL A   1      42.001  19.914  26.324  1.00  0.00    -0.246 OA
BRANCH  36  38
ATOM     38  C   UNL A   1      41.100  21.858  27.297  1.00  0.00     0.060 A 
ATOM     39  C   UNL A   1      40.447  22.867  26.578  1.00  0.00     0.016 A 
ATOM     40  C   UNL A   1      41.938  22.172  28.368  1.00  0.00     0.016 A 
ATOM     41  C   UNL A   1      40.668  24.204  26.899  1.00  0.00     0.010 A 
ATOM     42  C   UNL A   1      42.173  23.515  28.678  1.00  0.00     0.010 A 
ATOM     43  C   UNL A   1      41.572  24.535  27.917  1.00  0.00    -0.014 A 
BRANCH  43  44
ATOM     44  C   UNL A   1      42.025  25.938  28.051  1.00  0.00     0.031 A 
ATOM     45  C   UNL A   1      43.345  26.334  27.451  1.00  0.00     0.074 A 
ATOM     46  C   UNL A   1      41.252  26.856  28.654  1.00  0.00     0.049 A 
ATOM     47  N   UNL A   1      43.938  27.500  27.441  1.00  0.00    -0.248 NA
ATOM     48  C   UNL A   1      44.094  25.272  26.760  1.00  0.00     0.031 C 
ATOM     49  C   UNL A   1      39.930  26.604  29.220  1.00  0.00     0.029 A 
ATOM     50  N   UNL A   1      41.473  28.191  28.885  1.00  0.00    -0.354 N 
ATOM     51  C   UNL A   1      45.118  27.317  26.733  1.00  0.00     0.074 A 
ATOM     52  C   UNL A   1      45.178  25.921  26.360  1.00  0.00     0.031 C 
ATOM     53  C   UNL A   1      39.455  27.749  29.739  1.00  0.00     0.029 A 
ATOM     54  C   UNL A   1      40.453  28.805  29.564  1.00  0.00     0.049 A 
ATOM     55  H   UNL A   1      42.286  28.662  28.591  1.00  0.00     0.167 HD
ATOM     56  C   UNL A   1      46.061  28.234  26.413  1.00  0.00     0.037 A 
ATOM     57  C   UNL A   1      40.344  30.074  30.004  1.00  0.00     0.037 A 
ATOM     58  C   UNL A   1      46.010  29.617  26.805  1.00  0.00     0.049 A 
ATOM     59  C   UNL A   1      41.460  31.049  29.737  1.00  0.00     0.074 A 
ATOM     60  C   UNL A   1      46.921  30.624  26.535  1.00  0.00     0.029 A 
ATOM     61  N   UNL A   1      44.996  30.186  27.560  1.00  0.00    -0.354 N 
ATOM     62  N   UNL A   1      42.569  30.872  29.061  1.00  0.00    -0.248 NA
ATOM     63  C   UNL A   1      41.311  32.400  30.298  1.00  0.00     0.031 C 
ATOM     64  C   UNL A   1      46.480  31.790  27.168  1.00  0.00     0.029 A 
ATOM     65  C   UNL A   1      45.271  31.523  27.791  1.00  0.00     0.049 A 
ATOM     66  H   UNL A   1      44.198  29.709  27.884  1.00  0.00     0.167 HD
ATOM     67  C   UNL A   1      43.238  32.089  29.096  1.00  0.00     0.074 A 
ATOM     68  C   UNL A   1      42.406  33.001  29.853  1.00  0.00     0.031 C 
ATOM     69  C   UNL A   1      44.434  32.419  28.548  1.00  0.00     0.037 A 
BRANCH  56  70
ATOM     70  C   UNL A   1      47.237  27.765  25.611  1.00  0.00     0.064 A 
ATOM     71  C   UNL A   1      47.227  27.799  24.208  1.00  0.00     0.173 A 
ATOM     72  C   UNL A   1      48.401  27.312  26.250  1.00  0.00     0.173 A 
ATOM     73  F   UNL A   1      46.132  28.211  23.552  1.00  0.00    -0.203 F 
ATOM     74  C   UNL A   1      48.334  27.380  23.474  1.00  0.00     0.198 A 
ATOM     75  C   UNL A   1      49.514  26.916  25.513  1.00  0.00     0.198 A 
ATOM     76  F   UNL A   1      48.462  27.262  27.589  1.00  0.00    -0.203 F 
ATOM     77  F   UNL A   1      48.289  27.387  22.135  1.00  0.00    -0.200 F 
ATOM     78  C   UNL A   1      49.478  26.946  24.127  1.00  0.00     0.200 A 
ATOM     79  F   UNL A   1      50.624  26.508  26.144  1.00  0.00    -0.200 F 
ATOM     80  F   UNL A   1      50.545  26.551  23.418  1.00  0.00    -0.200 F 
ENDBRANCH  56  70
BRANCH  57  81
ATOM     81  C   UNL A   1      39.125  30.491  30.742  1.00  0.00     0.064 A 
ATOM     82  C   UNL A   1      38.025  31.032  30.064  1.00  0.00     0.173 A 
ATOM     83  C   UNL A   1      39.027  30.341  32.133  1.00  0.00     0.173 A 
ATOM     84  F   UNL A   1      38.083  31.219  28.737  1.00  0.00    -0.203 F 
ATOM     85  C   UNL A   1      36.872  31.406  30.750  1.00  0.00     0.198 A 
ATOM     86  C   UNL A   1      37.865  30.694  32.815  1.00  0.00     0.198 A 
ATOM     87  F   UNL A   1      40.057  29.833  32.827  1.00  0.00    -0.203 F 
ATOM     88  F   UNL A   1      35.842  31.945  30.081  1.00  0.00    -0.200 F 
ATOM     89  C   UNL A   1      36.789  31.229  32.122  1.00  0.00     0.200 A 
ATOM     90  F   UNL A   1      37.787  30.514  34.140  1.00  0.00    -0.200 F 
ATOM     91  F   UNL A   1      35.675  31.578  32.779  1.00  0.00    -0.200 F 
ENDBRANCH  57  81
BRANCH  69  92
ATOM     92  C   UNL A   1      44.918  33.827  28.728  1.00  0.00     0.064 A 
ATOM     93  C   UNL A   1      44.547  34.846  27.840  1.00  0.00     0.173 A 
ATOM     94  C   UNL A   1      45.694  34.176  29.845  1.00  0.00     0.173 A 
ATOM     95  F   UNL A   1      43.816  34.561  26.753  1.00  0.00    -0.203 F 
ATOM     96  C   UNL A   1      44.944  36.164  28.057  1.00  0.00     0.198 A 
ATOM     97  C   UNL A   1      46.067  35.498  30.072  1.00  0.00     0.198 A 
ATOM     98  F   UNL A   1      46.067  33.238  30.727  1.00  0.00    -0.203 F 
ATOM     99  F   UNL A   1      44.602  37.118  27.180  1.00  0.00    -0.200 F 
ATOM    100  C   UNL A   1      45.695  36.489  29.178  1.00  0.00     0.200 A 
ATOM    101  F   UNL A   1      46.780  35.813  31.163  1.00  0.00    -0.200 F 
ATOM    102  F   UNL A   1      46.060  37.760  29.394  1.00  0.00    -0.200 F 
ENDBRANCH  69  92
ENDBRANCH  43  44
ENDBRANCH  36  38
ENDBRANCH  35  36
ENDBRANCH  34  35
ENDBRANCH  33  34
ENDBRANCH   1  33
TORSDOF 17
ENDMDL
MODEL 3
REMARK VINA RESULT:     -12.2      4.573     10.254
REMARK SMILES Cc1cc(C(=O)N[C@H](C(=O)OCCOCCOC(=O)c2ccc(-c3c4nc(c(-c5c(F)c(F)c(F)c(F)c5F)c5ccc([nH]5)c(-c5c(F)c(F)c(F)c(F)c5F)c5nc(c(-c6c(F)c(F)c(F)c(F)c6F)c6ccc3[nH]6)C=C5)C=C4)cc2)c2c(C)n[nH]c2C)c2ccc(C)c(C)c2n1
REMARK SMILES IDX 14 1 13 2 12 3 11 4 9 5 10 6 8 7 7 8 5 9 6 10 4 12 1 13 2 14
REMARK SMILES IDX 3 15 98 16 97 17 90 18 95 19 91 20 93 21 96 22 92 23 94 24
REMARK SMILES IDX 83 25 84 26 88 27 85 28 86 29 87 30 89 31 15 33 16 34 17 35
REMARK SMILES IDX 18 36 19 37 20 38 21 39 82 40 22 41 81 42 23 43 24 44 25 45
REMARK SMILES IDX 75 46 26 47 80 48 74 49 76 50 27 51 79 52 73 53 72 54 28 56
REMARK SMILES IDX 60 57 40 58 59 59 41 60 44 61 58 62 77 63 42 64 43 65 57 67
REMARK SMILES IDX 78 68 45 69 29 70 30 71 38 72 31 73 32 74 36 75 39 76 33 77
REMARK SMILES IDX 34 78 37 79 35 80 61 81 62 82 70 83 63 84 64 85 68 86 71 87
REMARK SMILES IDX 65 88 66 89 69 90 67 91 46 92 47 93 55 94 48 95 49 96 53 97
REMARK SMILES IDX 56 98 50 99 51 100 54 101 52 102
REMARK H PARENT 7 11 87 32 76 55 44 66
REMARK Flexibility Score: inf
ROOT
ATOM      1  O   UNL A   1      37.660  21.188  25.600  1.00  0.00    -0.374 OA
ENDROOT
BRANCH   1   2
ATOM      2  C   UNL A   1      37.313  22.304  24.783  1.00  0.00     0.202 C 
BRANCH   2   3
ATOM      3  C   UNL A   1      36.997  23.602  25.527  1.00  0.00     0.261 C 
BRANCH   3   4
ATOM      4  O   UNL A   1      35.876  24.279  24.932  1.00  0.00    -0.461 OA
BRANCH   4   5
ATOM      5  C   UNL A   1      34.711  24.205  25.637  1.00  0.00     0.333 C 
ATOM      6  O   UNL A   1      34.569  23.561  26.673  1.00  0.00    -0.249 OA
BRANCH   5   7
ATOM      7  C   UNL A   1      33.548  24.962  24.954  1.00  0.00     0.227 C 
BRANCH   7   8
ATOM      8  N   UNL A   1      33.725  25.275  23.536  1.00  0.00    -0.335 N 
ATOM      9  C   UNL A   1      33.303  26.356  22.782  1.00  0.00     0.252 C 
ATOM     10  O   UNL A   1      33.709  26.419  21.622  1.00  0.00    -0.269 OA
ATOM     11  H   UNL A   1      34.232  24.599  23.031  1.00  0.00     0.165 HD
BRANCH   9  12
ATOM     12  C   UNL A   1      32.414  27.440  23.324  1.00  0.00     0.051 A 
ATOM     13  C   UNL A   1      29.048  28.889  22.494  1.00  0.00     0.067 C 
ATOM     14  C   UNL A   1      30.334  28.609  23.210  1.00  0.00     0.039 A 
ATOM     15  C   UNL A   1      31.106  27.527  22.851  1.00  0.00     0.038 A 
ATOM     16  N   UNL A   1      30.731  29.489  24.141  1.00  0.00    -0.253 NA
ATOM     17  C   UNL A   1      31.915  29.332  24.758  1.00  0.00     0.074 A 
ATOM     18  C   UNL A   1      32.839  28.338  24.353  1.00  0.00     0.013 A 
ATOM     19  C   UNL A   1      32.211  30.189  25.836  1.00  0.00    -0.022 A 
ATOM     20  C   UNL A   1      34.089  28.306  25.020  1.00  0.00     0.011 A 
ATOM     21  C   UNL A   1      33.441  30.100  26.520  1.00  0.00    -0.046 A 
ATOM     22  C   UNL A   1      31.152  31.190  26.249  1.00  0.00     0.047 C 
ATOM     23  C   UNL A   1      34.379  29.164  26.086  1.00  0.00     0.004 A 
ATOM     24  C   UNL A   1      33.757  30.959  27.715  1.00  0.00     0.044 C 
ENDBRANCH   9  12
ENDBRANCH   7   8
BRANCH   7  25
ATOM     25  C   UNL A   1      32.259  24.240  25.179  1.00  0.00     0.029 A 
ATOM     26  C   UNL A   1      31.874  22.905  24.866  1.00  0.00     0.065 A 
ATOM     27  C   UNL A   1      31.167  24.764  25.853  1.00  0.00     0.038 A 
ATOM     28  C   UNL A   1      32.634  21.839  24.160  1.00  0.00     0.069 C 
ATOM     29  N   UNL A   1      30.651  22.626  25.333  1.00  0.00    -0.180 NA
ATOM     30  N   UNL A   1      30.249  23.759  25.923  1.00  0.00    -0.282 N 
ATOM     31  C   UNL A   1      30.948  26.102  26.454  1.00  0.00     0.066 C 
ATOM     32  H   UNL A   1      29.374  23.857  26.364  1.00  0.00     0.190 HD
ENDBRANCH   7  25
ENDBRANCH   5   7
ENDBRANCH   4   5
ENDBRANCH   3   4
ENDBRANCH   2   3
ENDBRANCH   1   2
BRANCH   1  33
ATOM     33  C   UNL A   1      37.960  19.955  24.941  1.00  0.00     0.202 C 
BRANCH  33  34
ATOM     34  C   UNL A   1      39.138  19.142  25.491  1.00  0.00     0.261 C 
BRANCH  34  35
ATOM     35  O   UNL A   1      40.002  19.922  26.344  1.00  0.00    -0.460 OA
BRANCH  35  36
ATOM     36  C   UNL A   1      41.319  19.641  26.223  1.00  0.00     0.338 C 
ATOM     37  O   UNL A   1      41.831  18.597  25.837  1.00  0.00    -0.246 OA
BRANCH  36  38
ATOM     38  C   UNL A   1      42.126  20.842  26.479  1.00  0.00     0.060 A 
ATOM     39  C   UNL A   1      42.361  21.201  27.812  1.00  0.00     0.016 A 
ATOM     40  C   UNL A   1      42.500  21.688  25.435  1.00  0.00     0.016 A 
ATOM     41  C   UNL A   1      42.932  22.436  28.109  1.00  0.00     0.010 A 
ATOM     42  C   UNL A   1      43.057  22.935  25.735  1.00  0.00     0.010 A 
ATOM     43  C   UNL A   1      43.235  23.329  27.074  1.00  0.00    -0.014 A 
BRANCH  43  44
ATOM     44  C   UNL A   1      43.556  24.736  27.405  1.00  0.00     0.031 A 
ATOM     45  C   UNL A   1      44.956  25.233  27.175  1.00  0.00     0.074 A 
ATOM     46  C   UNL A   1      42.607  25.571  27.857  1.00  0.00     0.049 A 
ATOM     47  N   UNL A   1      45.463  26.421  27.387  1.00  0.00    -0.248 NA
ATOM     48  C   UNL A   1      45.913  24.261  26.623  1.00  0.00     0.031 C 
ATOM     49  C   UNL A   1      41.205  25.220  28.064  1.00  0.00     0.029 A 
ATOM     50  N   UNL A   1      42.684  26.893  28.221  1.00  0.00    -0.354 N 
ATOM     51  C   UNL A   1      46.788  26.343  26.981  1.00  0.00     0.074 A 
ATOM     52  C   UNL A   1      47.020  24.984  26.544  1.00  0.00     0.031 C 
ATOM     53  C   UNL A   1      40.550  26.301  28.521  1.00  0.00     0.029 A 
ATOM     54  C   UNL A   1      41.494  27.409  28.666  1.00  0.00     0.049 A 
ATOM     55  H   UNL A   1      43.514  27.419  28.167  1.00  0.00     0.167 HD
ATOM     56  C   UNL A   1      47.723  27.322  26.962  1.00  0.00     0.037 A 
ATOM     57  C   UNL A   1      41.206  28.634  29.147  1.00  0.00     0.037 A 
ATOM     58  C   UNL A   1      47.496  28.667  27.417  1.00  0.00     0.049 A 
ATOM     59  C   UNL A   1      42.293  29.674  29.226  1.00  0.00     0.074 A 
ATOM     60  C   UNL A   1      48.383  29.730  27.445  1.00  0.00     0.029 A 
ATOM     61  N   UNL A   1      46.296  29.132  27.935  1.00  0.00    -0.354 N 
ATOM     62  N   UNL A   1      43.541  29.596  28.833  1.00  0.00    -0.248 NA
ATOM     63  C   UNL A   1      41.931  30.970  29.818  1.00  0.00     0.031 C 
ATOM     64  C   UNL A   1      47.732  30.824  28.024  1.00  0.00     0.029 A 
ATOM     65  C   UNL A   1      46.426  30.459  28.311  1.00  0.00     0.049 A 
ATOM     66  H   UNL A   1      45.474  28.598  28.021  1.00  0.00     0.167 HD
ATOM     67  C   UNL A   1      44.107  30.834  29.110  1.00  0.00     0.074 A 
ATOM     68  C   UNL A   1      43.063  31.649  29.696  1.00  0.00     0.031 C 
ATOM     69  C   UNL A   1      45.378  31.256  28.896  1.00  0.00     0.037 A 
BRANCH  56  70
ATOM     70  C   UNL A   1      49.084  26.967  26.446  1.00  0.00     0.064 A 
ATOM     71  C   UNL A   1      50.082  26.464  27.296  1.00  0.00     0.173 A 
ATOM     72  C   UNL A   1      49.385  27.092  25.081  1.00  0.00     0.173 A 
ATOM     73  F   UNL A   1      49.846  26.338  28.610  1.00  0.00    -0.203 F 
ATOM     74  C   UNL A   1      51.336  26.117  26.800  1.00  0.00     0.198 A 
ATOM     75  C   UNL A   1      50.633  26.722  24.586  1.00  0.00     0.198 A 
ATOM     76  F   UNL A   1      48.466  27.566  24.226  1.00  0.00    -0.203 F 
ATOM     77  F   UNL A   1      52.285  25.673  27.636  1.00  0.00    -0.200 F 
ATOM     78  C   UNL A   1      51.608  26.239  25.446  1.00  0.00     0.200 A 
ATOM     79  F   UNL A   1      50.892  26.829  23.276  1.00  0.00    -0.200 F 
ATOM     80  F   UNL A   1      52.814  25.896  24.971  1.00  0.00    -0.200 F 
ENDBRANCH  56  70
BRANCH  57  81
ATOM     81  C   UNL A   1      39.822  28.940  29.587  1.00  0.00     0.064 A 
ATOM     82  C   UNL A   1      38.882  29.466  28.690  1.00  0.00     0.173 A 
ATOM     83  C   UNL A   1      39.405  28.698  30.904  1.00  0.00     0.173 A 
ATOM     84  F   UNL A   1      39.243  29.739  27.427  1.00  0.00    -0.203 F 
ATOM     85  C   UNL A   1      37.577  29.736  29.094  1.00  0.00     0.198 A 
ATOM     86  C   UNL A   1      38.093  28.947  31.300  1.00  0.00     0.198 A 
ATOM     87  F   UNL A   1      40.270  28.201  31.801  1.00  0.00    -0.203 F 
ATOM     88  F   UNL A   1      36.704  30.263  28.223  1.00  0.00    -0.200 F 
ATOM     89  C   UNL A   1      37.181  29.468  30.395  1.00  0.00     0.200 A 
ATOM     90  F   UNL A   1      37.713  28.680  32.557  1.00  0.00    -0.200 F 
ATOM     91  F   UNL A   1      35.922  29.718  30.780  1.00  0.00    -0.200 F 
ENDBRANCH  57  81
BRANCH  69  92
ATOM     92  C   UNL A   1      45.718  32.666  29.280  1.00  0.00     0.064 A 
ATOM     93  C   UNL A   1      45.503  33.735  28.399  1.00  0.00     0.173 A 
ATOM     94  C   UNL A   1      46.188  32.959  30.569  1.00  0.00     0.173 A 
ATOM     95  F   UNL A   1      45.066  33.505  27.152  1.00  0.00    -0.203 F 
ATOM     96  C   UNL A   1      45.756  35.047  28.792  1.00  0.00     0.198 A 
ATOM     97  C   UNL A   1      46.415  34.274  30.967  1.00  0.00     0.198 A 
ATOM     98  F   UNL A   1      46.402  31.971  31.451  1.00  0.00    -0.203 F 
ATOM     99  F   UNL A   1      45.570  36.052  27.924  1.00  0.00    -0.200 F 
ATOM    100  C   UNL A   1      46.201  35.315  30.078  1.00  0.00     0.200 A 
ATOM    101  F   UNL A   1      46.831  34.532  32.215  1.00  0.00    -0.200 F 
ATOM    102  F   UNL A   1      46.427  36.580  30.459  1.00  0.00    -0.200 F 
ENDBRANCH  69  92
ENDBRANCH  43  44
ENDBRANCH  36  38
ENDBRANCH  35  36
ENDBRANCH  34  35
ENDBRANCH  33  34
ENDBRANCH   1  33
TORSDOF 17
ENDMDL
