MODEL 1
REMARK VINA RESULT:     -11.6      0.000      0.000
REMARK SMILES C[C@H]1[C@H](C(=O)OCCOCCOC(=O)c2ccc(-c3c4nc(c(-c5c(F)c(F)c(F)c(F)c5F)c5ccc([nH]5)c(-c5c(F)c(F)c(F)c(F)c5F)c5nc(c(-c6c(F)c(F)c(F)c(F)c6F)c6ccc3[nH]6)C=C5)C=C4)cc2)CC[N@@H+]1Cc1cnn(-c2ccccc2)c1
REMARK SMILES IDX 8 1 7 2 6 3 4 4 5 5 3 6 1 7 2 8 80 9 78 10 79 11 81 13 82 14
REMARK SMILES IDX 83 15 92 16 84 17 85 18 86 19 87 20 91 21 88 22 90 23 89 24
REMARK SMILES IDX 9 25 10 26 11 27 12 28 13 29 14 30 15 31 16 32 77 33 17 34
REMARK SMILES IDX 76 35 18 36 19 37 20 38 70 39 21 40 75 41 69 42 71 43 22 44
REMARK SMILES IDX 74 45 68 46 67 47 23 49 55 50 35 51 54 52 36 53 39 54 53 55
REMARK SMILES IDX 72 56 37 57 38 58 52 60 73 61 40 62 24 63 25 64 33 65 26 66
REMARK SMILES IDX 27 67 31 68 34 69 28 70 29 71 32 72 30 73 56 74 57 75 65 76
REMARK SMILES IDX 58 77 59 78 63 79 66 80 60 81 61 82 64 83 62 84 41 85 42 86
REMARK SMILES IDX 50 87 43 88 44 89 48 90 51 91 45 92 46 93 49 94 47 95
REMARK H PARENT 80 12 71 48 39 59
REMARK Flexibility Score: inf
ROOT
ATOM      1  C   UNL A   1      33.230  28.788  25.945  1.00  0.00     0.202 C 
ENDROOT
BRANCH   1   2
ATOM      2  C   UNL A   1      33.295  28.539  24.433  1.00  0.00     0.261 C 
BRANCH   2   3
ATOM      3  O   UNL A   1      34.050  27.340  24.167  1.00  0.00    -0.463 OA
BRANCH   3   4
ATOM      4  C   UNL A   1      33.558  26.182  24.674  1.00  0.00     0.315 C 
ATOM      5  O   UNL A   1      34.029  25.584  25.635  1.00  0.00    -0.252 OA
BRANCH   4   6
ATOM      6  C   UNL A   1      32.350  25.668  23.918  1.00  0.00     0.162 C 
ATOM      7  C   UNL A   1      32.094  25.823  21.402  1.00  0.00     0.076 C 
ATOM      8  C   UNL A   1      32.617  24.974  22.570  1.00  0.00     0.195 C 
ATOM      9  N   UNL A   1      31.846  23.724  22.583  1.00  0.00    -0.328 N 
ATOM     10  C   UNL A   1      31.595  24.650  24.754  1.00  0.00     0.083 C 
ATOM     11  C   UNL A   1      30.945  23.744  23.729  1.00  0.00     0.263 C 
ATOM     12  H   UNL A   1      31.275  23.692  21.738  1.00  0.00     0.348 HD
BRANCH   9  13
ATOM     13  C   UNL A   1      32.611  22.493  22.379  1.00  0.00     0.302 C 
BRANCH  13  14
ATOM     14  C   UNL A   1      33.637  22.203  23.423  1.00  0.00     0.045 A 
ATOM     15  C   UNL A   1      33.609  21.197  24.410  1.00  0.00     0.145 A 
ATOM     16  C   UNL A   1      34.880  22.783  23.599  1.00  0.00     0.124 A 
ATOM     17  N   UNL A   1      34.729  21.135  25.129  1.00  0.00    -0.176 NA
ATOM     18  N   UNL A   1      35.493  22.154  24.664  1.00  0.00    -0.240 N 
BRANCH  18  19
ATOM     19  C   UNL A   1      36.739  22.467  25.276  1.00  0.00     0.065 A 
ATOM     20  C   UNL A   1      37.732  21.483  25.383  1.00  0.00     0.028 A 
ATOM     21  C   UNL A   1      36.985  23.741  25.794  1.00  0.00     0.028 A 
ATOM     22  C   UNL A   1      38.953  21.781  25.998  1.00  0.00     0.002 A 
ATOM     23  C   UNL A   1      38.190  24.021  26.446  1.00  0.00     0.002 A 
ATOM     24  C   UNL A   1      39.179  23.047  26.535  1.00  0.00     0.000 A 
ENDBRANCH  18  19
ENDBRANCH  13  14
ENDBRANCH   9  13
ENDBRANCH   4   6
ENDBRANCH   3   4
ENDBRANCH   2   3
ENDBRANCH   1   2
BRANCH   1  25
ATOM     25  O   UNL A   1      31.975  29.273  26.430  1.00  0.00    -0.374 OA
BRANCH  25  26
ATOM     26  C   UNL A   1      31.466  30.445  25.799  1.00  0.00     0.202 C 
BRANCH  26  27
ATOM     27  C   UNL A   1      31.722  31.768  26.530  1.00  0.00     0.261 C 
BRANCH  27  28
ATOM     28  O   UNL A   1      32.651  31.640  27.626  1.00  0.00    -0.460 OA
BRANCH  28  29
ATOM     29  C   UNL A   1      33.504  32.685  27.761  1.00  0.00     0.338 C 
ATOM     30  O   UNL A   1      33.222  33.873  27.693  1.00  0.00    -0.246 OA
BRANCH  29  31
ATOM     31  C   UNL A   1      34.862  32.226  28.132  1.00  0.00     0.060 A 
ATOM     32  C   UNL A   1      35.000  30.880  28.488  1.00  0.00     0.016 A 
ATOM     33  C   UNL A   1      35.975  33.076  28.181  1.00  0.00     0.016 A 
ATOM     34  C   UNL A   1      36.233  30.386  28.911  1.00  0.00     0.010 A 
ATOM     35  C   UNL A   1      37.216  32.579  28.615  1.00  0.00     0.010 A 
ATOM     36  C   UNL A   1      37.346  31.236  29.003  1.00  0.00    -0.014 A 
BRANCH  36  37
ATOM     37  C   UNL A   1      38.555  30.719  29.700  1.00  0.00     0.031 A 
ATOM     38  C   UNL A   1      38.726  31.052  31.151  1.00  0.00     0.074 A 
ATOM     39  C   UNL A   1      39.434  29.896  29.101  1.00  0.00     0.049 A 
ATOM     40  N   UNL A   1      39.576  30.572  32.021  1.00  0.00    -0.248 NA
ATOM     41  C   UNL A   1      37.817  32.074  31.690  1.00  0.00     0.031 C 
ATOM     42  C   UNL A   1      39.407  29.535  27.694  1.00  0.00     0.029 A 
ATOM     43  N   UNL A   1      40.501  29.190  29.604  1.00  0.00    -0.354 N 
ATOM     44  C   UNL A   1      39.299  31.225  33.211  1.00  0.00     0.074 A 
ATOM     45  C   UNL A   1      38.221  32.154  32.948  1.00  0.00     0.031 C 
ATOM     46  C   UNL A   1      40.363  28.623  27.449  1.00  0.00     0.029 A 
ATOM     47  C   UNL A   1      41.094  28.357  28.684  1.00  0.00     0.049 A 
ATOM     48  H   UNL A   1      40.811  29.274  30.535  1.00  0.00     0.167 HD
ATOM     49  C   UNL A   1      39.894  31.068  34.416  1.00  0.00     0.037 A 
ATOM     50  C   UNL A   1      42.103  27.473  28.826  1.00  0.00     0.037 A 
ATOM     51  C   UNL A   1      41.003  30.187  34.664  1.00  0.00     0.049 A 
ATOM     52  C   UNL A   1      42.756  27.327  30.178  1.00  0.00     0.074 A 
ATOM     53  C   UNL A   1      41.697  29.982  35.844  1.00  0.00     0.029 A 
ATOM     54  N   UNL A   1      41.598  29.378  33.706  1.00  0.00    -0.354 N 
ATOM     55  N   UNL A   1      42.452  27.906  31.314  1.00  0.00    -0.248 NA
ATOM     56  C   UNL A   1      43.902  26.409  30.265  1.00  0.00     0.031 C 
ATOM     57  C   UNL A   1      42.744  29.091  35.586  1.00  0.00     0.029 A 
ATOM     58  C   UNL A   1      42.663  28.688  34.263  1.00  0.00     0.049 A 
ATOM     59  H   UNL A   1      41.304  29.305  32.769  1.00  0.00     0.167 HD
ATOM     60  C   UNL A   1      43.357  27.418  32.248  1.00  0.00     0.074 A 
ATOM     61  C   UNL A   1      44.197  26.464  31.555  1.00  0.00     0.031 C 
ATOM     62  C   UNL A   1      43.491  27.741  33.559  1.00  0.00     0.037 A 
BRANCH  49  63
ATOM     63  C   UNL A   1      39.378  31.919  35.536  1.00  0.00     0.064 A 
ATOM     64  C   UNL A   1      39.820  33.239  35.722  1.00  0.00     0.173 A 
ATOM     65  C   UNL A   1      38.453  31.399  36.454  1.00  0.00     0.173 A 
ATOM     66  F   UNL A   1      40.723  33.772  34.886  1.00  0.00    -0.203 F 
ATOM     67  C   UNL A   1      39.380  33.995  36.806  1.00  0.00     0.198 A 
ATOM     68  C   UNL A   1      37.993  32.168  37.520  1.00  0.00     0.198 A 
ATOM     69  F   UNL A   1      38.006  30.142  36.325  1.00  0.00    -0.203 F 
ATOM     70  F   UNL A   1      39.864  35.228  37.000  1.00  0.00    -0.200 F 
ATOM     71  C   UNL A   1      38.465  33.460  37.700  1.00  0.00     0.200 A 
ATOM     72  F   UNL A   1      37.107  31.652  38.381  1.00  0.00    -0.200 F 
ATOM     73  F   UNL A   1      38.048  34.185  38.747  1.00  0.00    -0.200 F 
ENDBRANCH  49  63
BRANCH  50  74
ATOM     74  C   UNL A   1      42.563  26.645  27.676  1.00  0.00     0.064 A 
ATOM     75  C   UNL A   1      42.130  25.319  27.519  1.00  0.00     0.173 A 
ATOM     76  C   UNL A   1      43.484  27.136  26.738  1.00  0.00     0.173 A 
ATOM     77  F   UNL A   1      41.271  24.786  28.402  1.00  0.00    -0.203 F 
ATOM     78  C   UNL A   1      42.620  24.511  26.493  1.00  0.00     0.198 A 
ATOM     79  C   UNL A   1      43.946  26.340  25.691  1.00  0.00     0.198 A 
ATOM     80  F   UNL A   1      43.939  28.393  26.840  1.00  0.00    -0.203 F 
ATOM     81  F   UNL A   1      42.239  23.229  26.410  1.00  0.00    -0.200 F 
ATOM     82  C   UNL A   1      43.524  25.025  25.576  1.00  0.00     0.200 A 
ATOM     83  F   UNL A   1      44.811  26.845  24.800  1.00  0.00    -0.200 F 
ATOM     84  F   UNL A   1      43.999  24.248  24.593  1.00  0.00    -0.200 F 
ENDBRANCH  50  74
BRANCH  62  85
ATOM     85  C   UNL A   1      44.570  27.040  34.333  1.00  0.00     0.064 A 
ATOM     86  C   UNL A   1      45.888  27.519  34.368  1.00  0.00     0.173 A 
ATOM     87  C   UNL A   1      44.275  25.885  35.075  1.00  0.00     0.173 A 
ATOM     88  F   UNL A   1      46.228  28.612  33.667  1.00  0.00    -0.203 F 
ATOM     89  C   UNL A   1      46.877  26.850  35.085  1.00  0.00     0.198 A 
ATOM     90  C   UNL A   1      45.257  25.238  35.819  1.00  0.00     0.198 A 
ATOM     91  F   UNL A   1      43.028  25.387  35.084  1.00  0.00    -0.203 F 
ATOM     92  F   UNL A   1      48.141  27.295  35.056  1.00  0.00    -0.200 F 
ATOM     93  C   UNL A   1      46.559  25.714  35.816  1.00  0.00     0.200 A 
ATOM     94  F   UNL A   1      44.944  24.150  36.537  1.00  0.00    -0.200 F 
ATOM     95  F   UNL A   1      47.510  25.074  36.509  1.00  0.00    -0.200 F 
ENDBRANCH  62  85
ENDBRANCH  36  37
ENDBRANCH  29  31
ENDBRANCH  28  29
ENDBRANCH  27  28
ENDBRANCH  26  27
ENDBRANCH  25  26
ENDBRANCH   1  25
TORSDOF 17
ENDMDL
MODEL 2
REMARK VINA RESULT:     -11.6      4.255      9.850
REMARK SMILES C[C@H]1[C@H](C(=O)OCCOCCOC(=O)c2ccc(-c3c4nc(c(-c5c(F)c(F)c(F)c(F)c5F)c5ccc([nH]5)c(-c5c(F)c(F)c(F)c(F)c5F)c5nc(c(-c6c(F)c(F)c(F)c(F)c6F)c6ccc3[nH]6)C=C5)C=C4)cc2)CC[N@@H+]1Cc1cnn(-c2ccccc2)c1
REMARK SMILES IDX 8 1 7 2 6 3 4 4 5 5 3 6 1 7 2 8 80 9 78 10 79 11 81 13 82 14
REMARK SMILES IDX 83 15 92 16 84 17 85 18 86 19 87 20 91 21 88 22 90 23 89 24
REMARK SMILES IDX 9 25 10 26 11 27 12 28 13 29 14 30 15 31 16 32 77 33 17 34
REMARK SMILES IDX 76 35 18 36 19 37 20 38 70 39 21 40 75 41 69 42 71 43 22 44
REMARK SMILES IDX 74 45 68 46 67 47 23 49 55 50 35 51 54 52 36 53 39 54 53 55
REMARK SMILES IDX 72 56 37 57 38 58 52 60 73 61 40 62 24 63 25 64 33 65 26 66
REMARK SMILES IDX 27 67 31 68 34 69 28 70 29 71 32 72 30 73 56 74 57 75 65 76
REMARK SMILES IDX 58 77 59 78 63 79 66 80 60 81 61 82 64 83 62 84 41 85 42 86
REMARK SMILES IDX 50 87 43 88 44 89 48 90 51 91 45 92 46 93 49 94 47 95
REMARK H PARENT 80 12 71 48 39 59
REMARK Flexibility Score: inf
ROOT
ATOM      1  C   UNL A   1      37.055  23.282  24.762  1.00  0.00     0.202 C 
ENDROOT
BRANCH   1   2
ATOM      2  C   UNL A   1      35.816  23.349  23.861  1.00  0.00     0.261 C 
BRANCH   2   3
ATOM      3  O   UNL A   1      34.917  24.368  24.341  1.00  0.00    -0.463 OA
BRANCH   3   4
ATOM      4  C   UNL A   1      33.956  24.790  23.482  1.00  0.00     0.315 C 
ATOM      5  O   UNL A   1      34.025  24.705  22.261  1.00  0.00    -0.252 OA
BRANCH   4   6
ATOM      6  C   UNL A   1      32.763  25.408  24.181  1.00  0.00     0.162 C 
ATOM      7  C   UNL A   1      30.367  25.092  23.420  1.00  0.00     0.076 C 
ATOM      8  C   UNL A   1      31.498  24.537  24.298  1.00  0.00     0.195 C 
ATOM      9  N   UNL A   1      31.054  24.631  25.695  1.00  0.00    -0.328 N 
ATOM     10  C   UNL A   1      33.123  25.792  25.605  1.00  0.00     0.083 C 
ATOM     11  C   UNL A   1      31.811  25.688  26.356  1.00  0.00     0.263 C 
ATOM     12  H   UNL A   1      30.070  24.901  25.700  1.00  0.00     0.348 HD
BRANCH   9  13
ATOM     13  C   UNL A   1      30.938  23.364  26.419  1.00  0.00     0.302 C 
BRANCH  13  14
ATOM     14  C   UNL A   1      31.928  22.317  26.030  1.00  0.00     0.045 A 
ATOM     15  C   UNL A   1      33.260  22.178  26.468  1.00  0.00     0.145 A 
ATOM     16  C   UNL A   1      31.739  21.202  25.236  1.00  0.00     0.124 A 
ATOM     17  N   UNL A   1      33.852  21.075  26.010  1.00  0.00    -0.176 NA
ATOM     18  N   UNL A   1      32.928  20.500  25.202  1.00  0.00    -0.240 N 
BRANCH  18  19
ATOM     19  C   UNL A   1      33.246  19.339  24.444  1.00  0.00     0.065 A 
ATOM     20  C   UNL A   1      32.417  18.946  23.384  1.00  0.00     0.028 A 
ATOM     21  C   UNL A   1      34.369  18.565  24.751  1.00  0.00     0.028 A 
ATOM     22  C   UNL A   1      32.717  17.797  22.645  1.00  0.00     0.002 A 
ATOM     23  C   UNL A   1      34.640  17.393  24.038  1.00  0.00     0.002 A 
ATOM     24  C   UNL A   1      33.823  17.017  22.977  1.00  0.00     0.000 A 
ENDBRANCH  18  19
ENDBRANCH  13  14
ENDBRANCH   9  13
ENDBRANCH   4   6
ENDBRANCH   3   4
ENDBRANCH   2   3
ENDBRANCH   1   2
BRANCH   1  25
ATOM     25  O   UNL A   1      37.122  22.142  25.622  1.00  0.00    -0.374 OA
BRANCH  25  26
ATOM     26  C   UNL A   1      37.385  20.891  24.992  1.00  0.00     0.202 C 
BRANCH  26  27
ATOM     27  C   UNL A   1      38.710  20.214  25.365  1.00  0.00     0.261 C 
BRANCH  27  28
ATOM     28  O   UNL A   1      39.776  21.153  25.612  1.00  0.00    -0.460 OA
BRANCH  28  29
ATOM     29  C   UNL A   1      40.392  20.996  26.810  1.00  0.00     0.338 C 
ATOM     30  O   UNL A   1      40.706  19.940  27.338  1.00  0.00    -0.246 OA
BRANCH  29  31
ATOM     31  C   UNL A   1      40.772  22.303  27.395  1.00  0.00     0.060 A 
ATOM     32  C   UNL A   1      40.140  23.438  26.872  1.00  0.00     0.016 A 
ATOM     33  C   UNL A   1      41.744  22.446  28.393  1.00  0.00     0.016 A 
ATOM     34  C   UNL A   1      40.489  24.709  27.325  1.00  0.00     0.010 A 
ATOM     35  C   UNL A   1      42.100  23.729  28.844  1.00  0.00     0.010 A 
ATOM     36  C   UNL A   1      41.490  24.869  28.295  1.00  0.00    -0.014 A 
BRANCH  36  37
ATOM     37  C   UNL A   1      41.996  26.245  28.547  1.00  0.00     0.031 A 
ATOM     38  C   UNL A   1      43.304  26.637  27.930  1.00  0.00     0.074 A 
ATOM     39  C   UNL A   1      41.280  27.162  29.222  1.00  0.00     0.049 A 
ATOM     40  N   UNL A   1      43.860  27.817  27.837  1.00  0.00    -0.248 NA
ATOM     41  C   UNL A   1      44.094  25.544  27.344  1.00  0.00     0.031 C 
ATOM     42  C   UNL A   1      40.026  26.899  29.905  1.00  0.00     0.029 A 
ATOM     43  N   UNL A   1      41.488  28.507  29.417  1.00  0.00    -0.354 N 
ATOM     44  C   UNL A   1      45.060  27.610  27.175  1.00  0.00     0.074 A 
ATOM     45  C   UNL A   1      45.165  26.191  26.912  1.00  0.00     0.031 C 
ATOM     46  C   UNL A   1      39.531  28.050  30.391  1.00  0.00     0.029 A 
ATOM     47  C   UNL A   1      40.455  29.135  30.075  1.00  0.00     0.049 A 
ATOM     48  H   UNL A   1      42.299  28.977  29.115  1.00  0.00     0.167 HD
ATOM     49  C   UNL A   1      45.995  28.523  26.822  1.00  0.00     0.037 A 
ATOM     50  C   UNL A   1      40.273  30.436  30.378  1.00  0.00     0.037 A 
ATOM     51  C   UNL A   1      45.919  29.925  27.134  1.00  0.00     0.049 A 
ATOM     52  C   UNL A   1      41.337  31.431  29.983  1.00  0.00     0.074 A 
ATOM     53  C   UNL A   1      46.832  30.925  26.849  1.00  0.00     0.029 A 
ATOM     54  N   UNL A   1      44.874  30.523  27.825  1.00  0.00    -0.354 N 
ATOM     55  N   UNL A   1      42.443  31.238  29.307  1.00  0.00    -0.248 NA
ATOM     56  C   UNL A   1      41.130  32.825  30.404  1.00  0.00     0.031 C 
ATOM     57  C   UNL A   1      46.365  32.117  27.414  1.00  0.00     0.029 A 
ATOM     58  C   UNL A   1      45.130  31.875  27.994  1.00  0.00     0.049 A 
ATOM     59  H   UNL A   1      44.069  30.055  28.147  1.00  0.00     0.167 HD
ATOM     60  C   UNL A   1      43.056  32.481  29.212  1.00  0.00     0.074 A 
ATOM     61  C   UNL A   1      42.179  33.429  29.866  1.00  0.00     0.031 C 
ATOM     62  C   UNL A   1      44.246  32.806  28.648  1.00  0.00     0.037 A 
BRANCH  49  63
ATOM     63  C   UNL A   1      47.205  28.003  26.106  1.00  0.00     0.064 A 
ATOM     64  C   UNL A   1      47.212  27.813  24.715  1.00  0.00     0.173 A 
ATOM     65  C   UNL A   1      48.360  27.661  26.823  1.00  0.00     0.173 A 
ATOM     66  F   UNL A   1      46.121  28.101  23.989  1.00  0.00    -0.203 F 
ATOM     67  C   UNL A   1      48.321  27.268  24.073  1.00  0.00     0.198 A 
ATOM     68  C   UNL A   1      49.478  27.144  26.174  1.00  0.00     0.198 A 
ATOM     69  F   UNL A   1      48.402  27.817  28.154  1.00  0.00    -0.203 F 
ATOM     70  F   UNL A   1      48.282  27.035  22.755  1.00  0.00    -0.200 F 
ATOM     71  C   UNL A   1      49.453  26.938  24.802  1.00  0.00     0.200 A 
ATOM     72  F   UNL A   1      50.573  26.830  26.879  1.00  0.00    -0.200 F 
ATOM     73  F   UNL A   1      50.517  26.406  24.185  1.00  0.00    -0.200 F 
ENDBRANCH  49  63
BRANCH  50  74
ATOM     74  C   UNL A   1      39.040  30.894  31.081  1.00  0.00     0.064 A 
ATOM     75  C   UNL A   1      38.950  30.857  32.481  1.00  0.00     0.173 A 
ATOM     76  C   UNL A   1      37.909  31.326  30.373  1.00  0.00     0.173 A 
ATOM     77  F   UNL A   1      39.990  30.426  33.209  1.00  0.00    -0.203 F 
ATOM     78  C   UNL A   1      37.770  31.205  33.141  1.00  0.00     0.198 A 
ATOM     79  C   UNL A   1      36.743  31.708  31.035  1.00  0.00     0.198 A 
ATOM     80  F   UNL A   1      37.934  31.375  29.033  1.00  0.00    -0.203 F 
ATOM     81  F   UNL A   1      37.693  31.095  34.474  1.00  0.00    -0.200 F 
ATOM     82  C   UNL A   1      36.669  31.635  32.417  1.00  0.00     0.200 A 
ATOM     83  F   UNL A   1      35.685  32.135  30.331  1.00  0.00    -0.200 F 
ATOM     84  F   UNL A   1      35.535  31.965  33.050  1.00  0.00    -0.200 F 
ENDBRANCH  50  74
BRANCH  62  85
ATOM     85  C   UNL A   1      44.655  34.251  28.692  1.00  0.00     0.064 A 
ATOM     86  C   UNL A   1      45.507  34.749  29.690  1.00  0.00     0.173 A 
ATOM     87  C   UNL A   1      44.212  35.145  27.705  1.00  0.00     0.173 A 
ATOM     88  F   UNL A   1      45.951  33.941  30.665  1.00  0.00    -0.203 F 
ATOM     89  C   UNL A   1      45.869  36.094  29.719  1.00  0.00     0.198 A 
ATOM     90  C   UNL A   1      44.603  36.480  27.716  1.00  0.00     0.198 A 
ATOM     91  F   UNL A   1      43.402  34.720  26.722  1.00  0.00    -0.203 F 
ATOM     92  F   UNL A   1      46.636  36.558  30.715  1.00  0.00    -0.200 F 
ATOM     93  C   UNL A   1      45.423  36.957  28.728  1.00  0.00     0.200 A 
ATOM     94  F   UNL A   1      44.184  37.309  26.749  1.00  0.00    -0.200 F 
ATOM     95  F   UNL A   1      45.775  38.249  28.755  1.00  0.00    -0.200 F 
ENDBRANCH  62  85
ENDBRANCH  36  37
ENDBRANCH  29  31
ENDBRANCH  28  29
ENDBRANCH  27  28
ENDBRANCH  26  27
ENDBRANCH  25  26
ENDBRANCH   1  25
TORSDOF 17
ENDMDL
MODEL 3
REMARK VINA RESULT:     -11.5      1.554      3.900
REMARK SMILES C[C@H]1[C@H](C(=O)OCCOCCOC(=O)c2ccc(-c3c4nc(c(-c5c(F)c(F)c(F)c(F)c5F)c5ccc([nH]5)c(-c5c(F)c(F)c(F)c(F)c5F)c5nc(c(-c6c(F)c(F)c(F)c(F)c6F)c6ccc3[nH]6)C=C5)C=C4)cc2)CC[N@@H+]1Cc1cnn(-c2ccccc2)c1
REMARK SMILES IDX 8 1 7 2 6 3 4 4 5 5 3 6 1 7 2 8 80 9 78 10 79 11 81 13 82 14
REMARK SMILES IDX 83 15 92 16 84 17 85 18 86 19 87 20 91 21 88 22 90 23 89 24
REMARK SMILES IDX 9 25 10 26 11 27 12 28 13 29 14 30 15 31 16 32 77 33 17 34
REMARK SMILES IDX 76 35 18 36 19 37 20 38 70 39 21 40 75 41 69 42 71 43 22 44
REMARK SMILES IDX 74 45 68 46 67 47 23 49 55 50 35 51 54 52 36 53 39 54 53 55
REMARK SMILES IDX 72 56 37 57 38 58 52 60 73 61 40 62 24 63 25 64 33 65 26 66
REMARK SMILES IDX 27 67 31 68 34 69 28 70 29 71 32 72 30 73 56 74 57 75 65 76
REMARK SMILES IDX 58 77 59 78 63 79 66 80 60 81 61 82 64 83 62 84 41 85 42 86
REMARK SMILES IDX 50 87 43 88 44 89 48 90 51 91 45 92 46 93 49 94 47 95
REMARK H PARENT 80 12 71 48 39 59
REMARK Flexibility Score: inf
ROOT
ATOM      1  C   UNL A   1      33.119  29.434  27.141  1.00  0.00     0.202 C 
ENDROOT
BRANCH   1   2
ATOM      2  C   UNL A   1      32.985  28.403  26.013  1.00  0.00     0.261 C 
BRANCH   2   3
ATOM      3  O   UNL A   1      33.343  27.095  26.501  1.00  0.00    -0.463 OA
BRANCH   3   4
ATOM      4  C   UNL A   1      32.414  26.116  26.366  1.00  0.00     0.315 C 
ATOM      5  O   UNL A   1      31.304  26.130  26.888  1.00  0.00    -0.252 OA
BRANCH   4   6
ATOM      6  C   UNL A   1      32.884  24.964  25.504  1.00  0.00     0.162 C 
ATOM      7  C   UNL A   1      31.346  23.171  24.587  1.00  0.00     0.076 C 
ATOM      8  C   UNL A   1      31.971  24.552  24.335  1.00  0.00     0.195 C 
ATOM      9  N   UNL A   1      32.833  24.432  23.151  1.00  0.00    -0.328 N 
ATOM     10  C   UNL A   1      34.227  25.289  24.872  1.00  0.00     0.083 C 
ATOM     11  C   UNL A   1      34.225  24.497  23.580  1.00  0.00     0.263 C 
ATOM     12  H   UNL A   1      32.677  23.514  22.734  1.00  0.00     0.348 HD
BRANCH   9  13
ATOM     13  C   UNL A   1      32.467  25.262  22.003  1.00  0.00     0.302 C 
BRANCH  13  14
ATOM     14  C   UNL A   1      32.009  26.643  22.337  1.00  0.00     0.045 A 
ATOM     15  C   UNL A   1      32.793  27.804  22.488  1.00  0.00     0.145 A 
ATOM     16  C   UNL A   1      30.717  27.115  22.479  1.00  0.00     0.124 A 
ATOM     17  N   UNL A   1      32.070  28.905  22.689  1.00  0.00    -0.176 NA
ATOM     18  N   UNL A   1      30.788  28.469  22.739  1.00  0.00    -0.240 N 
BRANCH  18  19
ATOM     19  C   UNL A   1      29.726  29.364  23.048  1.00  0.00     0.065 A 
ATOM     20  C   UNL A   1      28.411  29.045  22.681  1.00  0.00     0.028 A 
ATOM     21  C   UNL A   1      29.974  30.576  23.699  1.00  0.00     0.028 A 
ATOM     22  C   UNL A   1      27.366  29.929  22.968  1.00  0.00     0.002 A 
ATOM     23  C   UNL A   1      28.933  31.476  23.944  1.00  0.00     0.002 A 
ATOM     24  C   UNL A   1      27.628  31.147  23.593  1.00  0.00     0.000 A 
ENDBRANCH  18  19
ENDBRANCH  13  14
ENDBRANCH   9  13
ENDBRANCH   4   6
ENDBRANCH   3   4
ENDBRANCH   2   3
ENDBRANCH   1   2
BRANCH   1  25
ATOM     25  O   UNL A   1      33.033  30.801  26.731  1.00  0.00    -0.374 OA
BRANCH  25  26
ATOM     26  C   UNL A   1      31.744  31.404  26.811  1.00  0.00     0.202 C 
BRANCH  26  27
ATOM     27  C   UNL A   1      31.719  32.890  27.188  1.00  0.00     0.261 C 
BRANCH  27  28
ATOM     28  O   UNL A   1      33.028  33.494  27.199  1.00  0.00    -0.460 OA
BRANCH  28  29
ATOM     29  C   UNL A   1      33.481  33.822  28.434  1.00  0.00     0.338 C 
ATOM     30  O   UNL A   1      32.897  34.489  29.275  1.00  0.00    -0.246 OA
BRANCH  29  31
ATOM     31  C   UNL A   1      34.774  33.160  28.726  1.00  0.00     0.060 A 
ATOM     32  C   UNL A   1      34.720  31.941  29.412  1.00  0.00     0.016 A 
ATOM     33  C   UNL A   1      36.016  33.714  28.389  1.00  0.00     0.016 A 
ATOM     34  C   UNL A   1      35.895  31.287  29.780  1.00  0.00     0.010 A 
ATOM     35  C   UNL A   1      37.200  33.057  28.767  1.00  0.00     0.010 A 
ATOM     36  C   UNL A   1      37.145  31.851  29.484  1.00  0.00    -0.014 A 
BRANCH  36  37
ATOM     37  C   UNL A   1      38.346  31.246  30.122  1.00  0.00     0.031 A 
ATOM     38  C   UNL A   1      38.601  31.548  31.567  1.00  0.00     0.074 A 
ATOM     39  C   UNL A   1      39.141  30.374  29.476  1.00  0.00     0.049 A 
ATOM     40  N   UNL A   1      39.454  31.001  32.394  1.00  0.00    -0.248 NA
ATOM     41  C   UNL A   1      37.787  32.622  32.156  1.00  0.00     0.031 C 
ATOM     42  C   UNL A   1      39.029  30.034  28.068  1.00  0.00     0.029 A 
ATOM     43  N   UNL A   1      40.178  29.592  29.925  1.00  0.00    -0.354 N 
ATOM     44  C   UNL A   1      39.272  31.656  33.601  1.00  0.00     0.074 A 
ATOM     45  C   UNL A   1      38.249  32.658  33.395  1.00  0.00     0.031 C 
ATOM     46  C   UNL A   1      39.911  29.063  27.773  1.00  0.00     0.029 A 
ATOM     47  C   UNL A   1      40.674  28.733  28.972  1.00  0.00     0.049 A 
ATOM     48  H   UNL A   1      40.533  29.643  30.842  1.00  0.00     0.167 HD
ATOM     49  C   UNL A   1      39.907  31.444  34.778  1.00  0.00     0.037 A 
ATOM     50  C   UNL A   1      41.627  27.782  29.061  1.00  0.00     0.037 A 
ATOM     51  C   UNL A   1      40.964  30.488  34.968  1.00  0.00     0.049 A 
ATOM     52  C   UNL A   1      42.326  27.575  30.381  1.00  0.00     0.074 A 
ATOM     53  C   UNL A   1      41.693  30.222  36.114  1.00  0.00     0.029 A 
ATOM     54  N   UNL A   1      41.461  29.653  33.977  1.00  0.00    -0.354 N 
ATOM     55  N   UNL A   1      42.111  28.158  31.535  1.00  0.00    -0.248 NA
ATOM     56  C   UNL A   1      43.411  26.582  30.408  1.00  0.00     0.031 C 
ATOM     57  C   UNL A   1      42.666  29.266  35.801  1.00  0.00     0.029 A 
ATOM     58  C   UNL A   1      42.501  28.886  34.479  1.00  0.00     0.049 A 
ATOM     59  H   UNL A   1      41.124  29.612  33.052  1.00  0.00     0.167 HD
ATOM     60  C   UNL A   1      43.020  27.599  32.423  1.00  0.00     0.074 A 
ATOM     61  C   UNL A   1      43.764  26.601  31.685  1.00  0.00     0.031 C 
ATOM     62  C   UNL A   1      43.232  27.896  33.730  1.00  0.00     0.037 A 
BRANCH  49  63
ATOM     63  C   UNL A   1      39.498  32.313  35.928  1.00  0.00     0.064 A 
ATOM     64  C   UNL A   1      40.123  33.546  36.178  1.00  0.00     0.173 A 
ATOM     65  C   UNL A   1      38.491  31.895  36.809  1.00  0.00     0.173 A 
ATOM     66  F   UNL A   1      41.110  33.976  35.378  1.00  0.00    -0.203 F 
ATOM     67  C   UNL A   1      39.776  34.311  37.288  1.00  0.00     0.198 A 
ATOM     68  C   UNL A   1      38.126  32.677  37.902  1.00  0.00     0.198 A 
ATOM     69  F   UNL A   1      37.868  30.723  36.619  1.00  0.00    -0.203 F 
ATOM     70  F   UNL A   1      40.430  35.452  37.544  1.00  0.00    -0.200 F 
ATOM     71  C   UNL A   1      38.777  33.878  38.147  1.00  0.00     0.200 A 
ATOM     72  F   UNL A   1      37.157  32.260  38.728  1.00  0.00    -0.200 F 
ATOM     73  F   UNL A   1      38.449  34.611  39.219  1.00  0.00    -0.200 F 
ENDBRANCH  49  63
BRANCH  50  74
ATOM     74  C   UNL A   1      41.980  26.940  27.883  1.00  0.00     0.064 A 
ATOM     75  C   UNL A   1      41.378  25.687  27.682  1.00  0.00     0.173 A 
ATOM     76  C   UNL A   1      42.961  27.339  26.962  1.00  0.00     0.173 A 
ATOM     77  F   UNL A   1      40.454  25.242  28.546  1.00  0.00    -0.203 F 
ATOM     78  C   UNL A   1      41.764  24.858  26.629  1.00  0.00     0.198 A 
ATOM     79  C   UNL A   1      43.320  26.524  25.889  1.00  0.00     0.198 A 
ATOM     80  F   UNL A   1      43.575  28.521  27.106  1.00  0.00    -0.203 F 
ATOM     81  F   UNL A   1      41.220  23.640  26.503  1.00  0.00    -0.200 F 
ATOM     82  C   UNL A   1      42.731  25.280  25.729  1.00  0.00     0.200 A 
ATOM     83  F   UNL A   1      44.247  26.942  25.015  1.00  0.00    -0.200 F 
ATOM     84  F   UNL A   1      43.105  24.481  24.720  1.00  0.00    -0.200 F 
ENDBRANCH  50  74
BRANCH  62  85
ATOM     85  C   UNL A   1      44.294  27.114  34.449  1.00  0.00     0.064 A 
ATOM     86  C   UNL A   1      44.016  25.890  35.077  1.00  0.00     0.173 A 
ATOM     87  C   UNL A   1      45.617  27.582  34.486  1.00  0.00     0.173 A 
ATOM     88  F   UNL A   1      42.765  25.403  35.083  1.00  0.00    -0.203 F 
ATOM     89  C   UNL A   1      45.012  25.184  35.746  1.00  0.00     0.198 A 
ATOM     90  C   UNL A   1      46.618  26.856  35.125  1.00  0.00     0.198 A 
ATOM     91  F   UNL A   1      45.941  28.742  33.895  1.00  0.00    -0.203 F 
ATOM     92  F   UNL A   1      44.709  24.047  36.389  1.00  0.00    -0.200 F 
ATOM     93  C   UNL A   1      46.314  25.663  35.763  1.00  0.00     0.200 A 
ATOM     94  F   UNL A   1      47.879  27.313  35.127  1.00  0.00    -0.200 F 
ATOM     95  F   UNL A   1      47.273  24.981  36.403  1.00  0.00    -0.200 F 
ENDBRANCH  62  85
ENDBRANCH  36  37
ENDBRANCH  29  31
ENDBRANCH  28  29
ENDBRANCH  27  28
ENDBRANCH  26  27
ENDBRANCH  25  26
ENDBRANCH   1  25
TORSDOF 17
ENDMDL
