MODEL 1
REMARK VINA RESULT:     -12.2      0.000      0.000
REMARK SMILES C[C@H](Oc1cc2oc(=O)cc(-c3ccccc3)c2cc1Cl)C(=O)OCCOCCOC(=O)c1ccc(-c2c3nc(c(-c4c(F)c(F)c(F)c(F)c4F)c4ccc([nH]4)c(-c4c(F)c(F)c(F)c(F)c4F)c4nc(c(-c5c(F)c(F)c(F)c(F)c5F)c5ccc2[nH]5)C=C4)C=C3)cc1
REMARK SMILES IDX 26 1 25 2 24 3 22 4 23 5 2 6 1 7 3 8 4 9 5 10 20 11 6 12
REMARK SMILES IDX 19 13 21 14 7 15 18 16 8 17 11 18 9 19 10 20 12 21 13 22
REMARK SMILES IDX 17 23 14 24 16 25 15 26 27 27 28 28 29 29 30 30 31 31 32 32
REMARK SMILES IDX 33 33 34 34 95 35 35 36 94 37 36 38 37 39 38 40 88 41 39 42
REMARK SMILES IDX 93 43 87 44 89 45 40 46 92 47 86 48 85 49 41 51 73 52 53 53
REMARK SMILES IDX 72 54 54 55 57 56 71 57 90 58 55 59 56 60 70 62 91 63 58 64
REMARK SMILES IDX 42 65 43 66 51 67 44 68 45 69 49 70 52 71 46 72 47 73 50 74
REMARK SMILES IDX 48 75 74 76 75 77 83 78 76 79 77 80 81 81 84 82 78 83 79 84
REMARK SMILES IDX 82 85 80 86 59 87 60 88 68 89 61 90 62 91 66 92 69 93 63 94
REMARK SMILES IDX 64 95 67 96 65 97
REMARK H PARENT 89 50 57 61
REMARK Flexibility Score: inf
ROOT
ATOM      1  C   UNL A   1      33.404  19.742  24.916  1.00  0.00     0.202 C 
ENDROOT
BRANCH   1   2
ATOM      2  C   UNL A   1      32.644  20.652  23.951  1.00  0.00     0.261 C 
BRANCH   2   3
ATOM      3  O   UNL A   1      32.385  21.947  24.513  1.00  0.00    -0.461 OA
BRANCH   3   4
ATOM      4  C   UNL A   1      33.357  22.880  24.303  1.00  0.00     0.347 C 
ATOM      5  O   UNL A   1      34.138  22.883  23.358  1.00  0.00    -0.248 OA
BRANCH   4   6
ATOM      6  C   UNL A   1      33.429  23.900  25.438  1.00  0.00     0.279 C 
ATOM      7  C   UNL A   1      34.050  23.179  26.638  1.00  0.00     0.066 C 
BRANCH   6   8
ATOM      8  O   UNL A   1      32.146  24.472  25.731  1.00  0.00    -0.477 OA
BRANCH   8   9
ATOM      9  C   UNL A   1      31.909  25.775  25.368  1.00  0.00     0.142 A 
ATOM     10  C   UNL A   1      32.521  26.869  25.973  1.00  0.00     0.096 A 
ATOM     11  C   UNL A   1      30.968  26.024  24.354  1.00  0.00     0.084 A 
ATOM     12  C   UNL A   1      32.084  28.161  25.683  1.00  0.00     0.142 A 
ATOM     13  C   UNL A   1      30.585  27.339  24.022  1.00  0.00     0.037 A 
ATOM     14  Cl  UNL A   1      30.212  24.723  23.500  1.00  0.00    -0.080 Cl
ATOM     15  O   UNL A   1      32.650  29.174  26.475  1.00  0.00    -0.423 OA
ATOM     16  C   UNL A   1      31.108  28.431  24.726  1.00  0.00     0.027 A 
ATOM     17  C   UNL A   1      32.136  30.454  26.445  1.00  0.00     0.336 A 
ATOM     18  C   UNL A   1      30.676  29.829  24.533  1.00  0.00    -0.000 A 
ATOM     19  O   UNL A   1      32.495  31.323  27.230  1.00  0.00    -0.246 OA
ATOM     20  C   UNL A   1      31.155  30.746  25.393  1.00  0.00     0.103 A 
BRANCH  18  21
ATOM     21  C   UNL A   1      29.726  30.350  23.525  1.00  0.00    -0.017 A 
ATOM     22  C   UNL A   1      28.671  31.187  23.924  1.00  0.00     0.009 A 
ATOM     23  C   UNL A   1      29.825  29.981  22.178  1.00  0.00     0.009 A 
ATOM     24  C   UNL A   1      27.729  31.637  22.997  1.00  0.00     0.001 A 
ATOM     25  C   UNL A   1      28.887  30.443  21.249  1.00  0.00     0.001 A 
ATOM     26  C   UNL A   1      27.838  31.265  21.661  1.00  0.00     0.000 A 
ENDBRANCH  18  21
ENDBRANCH   8   9
ENDBRANCH   6   8
ENDBRANCH   4   6
ENDBRANCH   3   4
ENDBRANCH   2   3
ENDBRANCH   1   2
BRANCH   1  27
ATOM     27  O   UNL A   1      34.789  19.552  24.644  1.00  0.00    -0.374 OA
BRANCH  27  28
ATOM     28  C   UNL A   1      35.713  20.363  25.374  1.00  0.00     0.202 C 
BRANCH  28  29
ATOM     29  C   UNL A   1      37.191  20.206  25.000  1.00  0.00     0.261 C 
BRANCH  29  30
ATOM     30  O   UNL A   1      37.970  21.351  25.397  1.00  0.00    -0.460 OA
BRANCH  30  31
ATOM     31  C   UNL A   1      39.112  21.076  26.065  1.00  0.00     0.338 C 
ATOM     32  O   UNL A   1      39.698  20.004  26.133  1.00  0.00    -0.246 OA
BRANCH  31  33
ATOM     33  C   UNL A   1      39.697  22.327  26.581  1.00  0.00     0.060 A 
ATOM     34  C   UNL A   1      39.195  23.538  26.088  1.00  0.00     0.016 A 
ATOM     35  C   UNL A   1      40.754  22.317  27.493  1.00  0.00     0.016 A 
ATOM     36  C   UNL A   1      39.761  24.747  26.491  1.00  0.00     0.010 A 
ATOM     37  C   UNL A   1      41.331  23.530  27.883  1.00  0.00     0.010 A 
ATOM     38  C   UNL A   1      40.849  24.750  27.372  1.00  0.00    -0.014 A 
BRANCH  38  39
ATOM     39  C   UNL A   1      41.531  26.022  27.711  1.00  0.00     0.031 A 
ATOM     40  C   UNL A   1      40.770  27.104  28.424  1.00  0.00     0.074 A 
ATOM     41  C   UNL A   1      42.819  26.212  27.372  1.00  0.00     0.049 A 
ATOM     42  N   UNL A   1      41.149  28.319  28.732  1.00  0.00    -0.248 NA
ATOM     43  C   UNL A   1      39.400  26.775  28.847  1.00  0.00     0.031 C 
ATOM     44  C   UNL A   1      43.670  25.226  26.709  1.00  0.00     0.029 A 
ATOM     45  N   UNL A   1      43.629  27.311  27.519  1.00  0.00    -0.354 N 
ATOM     46  C   UNL A   1      40.065  28.902  29.374  1.00  0.00     0.074 A 
ATOM     47  C   UNL A   1      39.007  27.914  29.400  1.00  0.00     0.031 C 
ATOM     48  C   UNL A   1      44.875  25.772  26.480  1.00  0.00     0.029 A 
ATOM     49  C   UNL A   1      44.869  27.157  26.947  1.00  0.00     0.049 A 
ATOM     50  H   UNL A   1      43.349  28.129  27.991  1.00  0.00     0.167 HD
ATOM     51  C   UNL A   1      39.967  30.148  29.893  1.00  0.00     0.037 A 
ATOM     52  C   UNL A   1      45.867  28.048  26.783  1.00  0.00     0.037 A 
ATOM     53  C   UNL A   1      41.025  31.123  29.875  1.00  0.00     0.049 A 
ATOM     54  C   UNL A   1      45.698  29.452  27.304  1.00  0.00     0.074 A 
ATOM     55  C   UNL A   1      41.038  32.391  30.431  1.00  0.00     0.029 A 
ATOM     56  N   UNL A   1      42.254  30.944  29.259  1.00  0.00    -0.354 N 
ATOM     57  N   UNL A   1      44.688  29.980  27.952  1.00  0.00    -0.248 NA
ATOM     58  C   UNL A   1      46.807  30.387  27.063  1.00  0.00     0.031 C 
ATOM     59  C   UNL A   1      42.252  33.001  30.101  1.00  0.00     0.029 A 
ATOM     60  C   UNL A   1      43.015  32.094  29.384  1.00  0.00     0.049 A 
ATOM     61  H   UNL A   1      42.542  30.121  28.802  1.00  0.00     0.167 HD
ATOM     62  C   UNL A   1      45.047  31.297  28.211  1.00  0.00     0.074 A 
ATOM     63  C   UNL A   1      46.375  31.484  27.670  1.00  0.00     0.031 C 
ATOM     64  C   UNL A   1      44.335  32.267  28.837  1.00  0.00     0.037 A 
BRANCH  51  65
ATOM     65  C   UNL A   1      38.663  30.551  30.513  1.00  0.00     0.064 A 
ATOM     66  C   UNL A   1      38.460  30.504  31.900  1.00  0.00     0.173 A 
ATOM     67  C   UNL A   1      37.635  31.076  29.714  1.00  0.00     0.173 A 
ATOM     68  F   UNL A   1      39.409  30.003  32.704  1.00  0.00    -0.203 F 
ATOM     69  C   UNL A   1      37.271  30.961  32.463  1.00  0.00     0.198 A 
ATOM     70  C   UNL A   1      36.458  31.552  30.283  1.00  0.00     0.198 A 
ATOM     71  F   UNL A   1      37.784  31.148  28.383  1.00  0.00    -0.203 F 
ATOM     72  F   UNL A   1      37.089  30.889  33.790  1.00  0.00    -0.200 F 
ATOM     73  C   UNL A   1      36.277  31.495  31.657  1.00  0.00     0.200 A 
ATOM     74  F   UNL A   1      35.504  32.079  29.503  1.00  0.00    -0.200 F 
ATOM     75  F   UNL A   1      35.142  31.953  32.204  1.00  0.00    -0.200 F 
ENDBRANCH  51  65
BRANCH  52  76
ATOM     76  C   UNL A   1      47.100  27.661  26.049  1.00  0.00     0.064 A 
ATOM     77  C   UNL A   1      47.165  27.731  24.650  1.00  0.00     0.173 A 
ATOM     78  C   UNL A   1      48.224  27.169  26.730  1.00  0.00     0.173 A 
ATOM     79  F   UNL A   1      46.105  28.167  23.952  1.00  0.00    -0.203 F 
ATOM     80  C   UNL A   1      48.296  27.299  23.960  1.00  0.00     0.198 A 
ATOM     81  C   UNL A   1      49.366  26.768  26.041  1.00  0.00     0.198 A 
ATOM     82  F   UNL A   1      48.213  27.077  28.068  1.00  0.00    -0.203 F 
ATOM     83  F   UNL A   1      48.309  27.322  22.620  1.00  0.00    -0.200 F 
ATOM     84  C   UNL A   1      49.397  26.822  24.656  1.00  0.00     0.200 A 
ATOM     85  F   UNL A   1      50.430  26.317  26.718  1.00  0.00    -0.200 F 
ATOM     86  F   UNL A   1      50.483  26.403  23.992  1.00  0.00    -0.200 F 
ENDBRANCH  52  76
BRANCH  64  87
ATOM     87  C   UNL A   1      44.983  33.613  28.980  1.00  0.00     0.064 A 
ATOM     88  C   UNL A   1      44.759  34.635  28.046  1.00  0.00     0.173 A 
ATOM     89  C   UNL A   1      45.797  33.900  30.086  1.00  0.00     0.173 A 
ATOM     90  F   UNL A   1      44.001  34.405  26.963  1.00  0.00    -0.203 F 
ATOM     91  C   UNL A   1      45.344  35.889  28.203  1.00  0.00     0.198 A 
ATOM     92  C   UNL A   1      46.357  35.164  30.255  1.00  0.00     0.198 A 
ATOM     93  F   UNL A   1      46.037  32.959  31.011  1.00  0.00    -0.203 F 
ATOM     94  F   UNL A   1      45.150  36.837  27.276  1.00  0.00    -0.200 F 
ATOM     95  C   UNL A   1      46.134  36.155  29.311  1.00  0.00     0.200 A 
ATOM     96  F   UNL A   1      47.110  35.422  31.333  1.00  0.00    -0.200 F 
ATOM     97  F   UNL A   1      46.688  37.365  29.465  1.00  0.00    -0.200 F 
ENDBRANCH  64  87
ENDBRANCH  38  39
ENDBRANCH  31  33
ENDBRANCH  30  31
ENDBRANCH  29  30
ENDBRANCH  28  29
ENDBRANCH  27  28
ENDBRANCH   1  27
TORSDOF 17
ENDMDL
MODEL 2
REMARK VINA RESULT:     -12.2      4.620     10.869
REMARK SMILES C[C@H](Oc1cc2oc(=O)cc(-c3ccccc3)c2cc1Cl)C(=O)OCCOCCOC(=O)c1ccc(-c2c3nc(c(-c4c(F)c(F)c(F)c(F)c4F)c4ccc([nH]4)c(-c4c(F)c(F)c(F)c(F)c4F)c4nc(c(-c5c(F)c(F)c(F)c(F)c5F)c5ccc2[nH]5)C=C4)C=C3)cc1
REMARK SMILES IDX 26 1 25 2 24 3 22 4 23 5 2 6 1 7 3 8 4 9 5 10 20 11 6 12
REMARK SMILES IDX 19 13 21 14 7 15 18 16 8 17 11 18 9 19 10 20 12 21 13 22
REMARK SMILES IDX 17 23 14 24 16 25 15 26 27 27 28 28 29 29 30 30 31 31 32 32
REMARK SMILES IDX 33 33 34 34 95 35 35 36 94 37 36 38 37 39 38 40 88 41 39 42
REMARK SMILES IDX 93 43 87 44 89 45 40 46 92 47 86 48 85 49 41 51 73 52 53 53
REMARK SMILES IDX 72 54 54 55 57 56 71 57 90 58 55 59 56 60 70 62 91 63 58 64
REMARK SMILES IDX 42 65 43 66 51 67 44 68 45 69 49 70 52 71 46 72 47 73 50 74
REMARK SMILES IDX 48 75 74 76 75 77 83 78 76 79 77 80 81 81 84 82 78 83 79 84
REMARK SMILES IDX 82 85 80 86 59 87 60 88 68 89 61 90 62 91 66 92 69 93 63 94
REMARK SMILES IDX 64 95 67 96 65 97
REMARK H PARENT 89 50 57 61
REMARK Flexibility Score: inf
ROOT
ATOM      1  C   UNL A   1      32.124  30.062  27.119  1.00  0.00     0.202 C 
ENDROOT
BRANCH   1   2
ATOM      2  C   UNL A   1      33.410  29.364  26.675  1.00  0.00     0.261 C 
BRANCH   2   3
ATOM      3  O   UNL A   1      33.153  28.100  26.043  1.00  0.00    -0.461 OA
BRANCH   3   4
ATOM      4  C   UNL A   1      33.505  28.022  24.728  1.00  0.00     0.347 C 
ATOM      5  O   UNL A   1      33.595  28.977  23.965  1.00  0.00    -0.248 OA
BRANCH   4   6
ATOM      6  C   UNL A   1      33.697  26.577  24.271  1.00  0.00     0.279 C 
ATOM      7  C   UNL A   1      33.190  26.502  22.827  1.00  0.00     0.066 C 
BRANCH   6   8
ATOM      8  O   UNL A   1      33.044  25.644  25.143  1.00  0.00    -0.477 OA
BRANCH   8   9
ATOM      9  C   UNL A   1      33.529  24.361  25.215  1.00  0.00     0.142 A 
ATOM     10  C   UNL A   1      34.822  24.046  25.621  1.00  0.00     0.096 A 
ATOM     11  C   UNL A   1      32.686  23.307  24.823  1.00  0.00     0.084 A 
ATOM     12  C   UNL A   1      35.299  22.743  25.481  1.00  0.00     0.142 A 
ATOM     13  C   UNL A   1      33.161  21.982  24.751  1.00  0.00     0.037 A 
ATOM     14  Cl  UNL A   1      31.041  23.600  24.373  1.00  0.00    -0.080 Cl
ATOM     15  O   UNL A   1      36.666  22.575  25.757  1.00  0.00    -0.423 OA
ATOM     16  C   UNL A   1      34.502  21.692  25.034  1.00  0.00     0.027 A 
ATOM     17  C   UNL A   1      37.304  21.394  25.436  1.00  0.00     0.336 A 
ATOM     18  C   UNL A   1      35.116  20.360  24.868  1.00  0.00    -0.000 A 
ATOM     19  O   UNL A   1      38.520  21.264  25.515  1.00  0.00    -0.246 OA
ATOM     20  C   UNL A   1      36.449  20.273  25.028  1.00  0.00     0.103 A 
BRANCH  18  21
ATOM     21  C   UNL A   1      34.447  19.095  24.492  1.00  0.00    -0.017 A 
ATOM     22  C   UNL A   1      35.158  17.885  24.538  1.00  0.00     0.009 A 
ATOM     23  C   UNL A   1      33.122  19.085  24.035  1.00  0.00     0.009 A 
ATOM     24  C   UNL A   1      34.561  16.692  24.126  1.00  0.00     0.001 A 
ATOM     25  C   UNL A   1      32.523  17.887  23.634  1.00  0.00     0.001 A 
ATOM     26  C   UNL A   1      33.244  16.694  23.676  1.00  0.00     0.000 A 
ENDBRANCH  18  21
ENDBRANCH   8   9
ENDBRANCH   6   8
ENDBRANCH   4   6
ENDBRANCH   3   4
ENDBRANCH   2   3
ENDBRANCH   1   2
BRANCH   1  27
ATOM     27  O   UNL A   1      31.629  31.080  26.254  1.00  0.00    -0.374 OA
BRANCH  27  28
ATOM     28  C   UNL A   1      31.485  32.390  26.808  1.00  0.00     0.202 C 
BRANCH  28  29
ATOM     29  C   UNL A   1      32.652  32.892  27.665  1.00  0.00     0.261 C 
BRANCH  29  30
ATOM     30  O   UNL A   1      32.911  34.293  27.452  1.00  0.00    -0.460 OA
BRANCH  30  31
ATOM     31  C   UNL A   1      33.074  35.033  28.571  1.00  0.00     0.338 C 
ATOM     32  O   UNL A   1      32.324  35.892  29.015  1.00  0.00    -0.246 OA
BRANCH  31  33
ATOM     33  C   UNL A   1      34.234  34.533  29.330  1.00  0.00     0.060 A 
ATOM     34  C   UNL A   1      35.492  34.584  28.715  1.00  0.00     0.016 A 
ATOM     35  C   UNL A   1      34.090  33.975  30.602  1.00  0.00     0.016 A 
ATOM     36  C   UNL A   1      36.610  34.059  29.362  1.00  0.00     0.010 A 
ATOM     37  C   UNL A   1      35.209  33.434  31.242  1.00  0.00     0.010 A 
ATOM     38  C   UNL A   1      36.472  33.458  30.620  1.00  0.00    -0.014 A 
BRANCH  38  39
ATOM     39  C   UNL A   1      37.632  32.793  31.259  1.00  0.00     0.031 A 
ATOM     40  C   UNL A   1      38.282  31.621  30.578  1.00  0.00     0.074 A 
ATOM     41  C   UNL A   1      38.093  33.226  32.445  1.00  0.00     0.049 A 
ATOM     42  N   UNL A   1      39.245  30.844  31.005  1.00  0.00    -0.248 NA
ATOM     43  C   UNL A   1      37.780  31.277  29.239  1.00  0.00     0.031 C 
ATOM     44  C   UNL A   1      37.568  34.372  33.185  1.00  0.00     0.029 A 
ATOM     45  N   UNL A   1      39.096  32.739  33.247  1.00  0.00    -0.354 N 
ATOM     46  C   UNL A   1      39.459  29.916  29.995  1.00  0.00     0.074 A 
ATOM     47  C   UNL A   1      38.516  30.215  28.939  1.00  0.00     0.031 C 
ATOM     48  C   UNL A   1      38.233  34.484  34.347  1.00  0.00     0.029 A 
ATOM     49  C   UNL A   1      39.204  33.396  34.448  1.00  0.00     0.049 A 
ATOM     50  H   UNL A   1      39.681  31.991  32.986  1.00  0.00     0.167 HD
ATOM     51  C   UNL A   1      40.362  28.908  29.957  1.00  0.00     0.037 A 
ATOM     52  C   UNL A   1      39.972  33.124  35.522  1.00  0.00     0.037 A 
ATOM     53  C   UNL A   1      41.306  28.621  31.005  1.00  0.00     0.049 A 
ATOM     54  C   UNL A   1      40.912  31.947  35.480  1.00  0.00     0.074 A 
ATOM     55  C   UNL A   1      42.299  27.658  31.029  1.00  0.00     0.029 A 
ATOM     56  N   UNL A   1      41.365  29.287  32.219  1.00  0.00    -0.354 N 
ATOM     57  N   UNL A   1      41.142  31.104  34.502  1.00  0.00    -0.248 NA
ATOM     58  C   UNL A   1      41.696  31.680  36.695  1.00  0.00     0.031 C 
ATOM     59  C   UNL A   1      42.922  27.702  32.280  1.00  0.00     0.029 A 
ATOM     60  C   UNL A   1      42.349  28.726  33.017  1.00  0.00     0.049 A 
ATOM     61  H   UNL A   1      40.792  30.046  32.476  1.00  0.00     0.167 HD
ATOM     62  C   UNL A   1      42.105  30.223  34.976  1.00  0.00     0.074 A 
ATOM     63  C   UNL A   1      42.434  30.644  36.320  1.00  0.00     0.031 C 
ATOM     64  C   UNL A   1      42.663  29.155  34.354  1.00  0.00     0.037 A 
BRANCH  51  65
ATOM     65  C   UNL A   1      40.370  28.016  28.753  1.00  0.00     0.064 A 
ATOM     66  C   UNL A   1      41.121  28.327  27.611  1.00  0.00     0.173 A 
ATOM     67  C   UNL A   1      39.687  26.790  28.779  1.00  0.00     0.173 A 
ATOM     68  F   UNL A   1      41.784  29.490  27.534  1.00  0.00    -0.203 F 
ATOM     69  C   UNL A   1      41.182  27.445  26.534  1.00  0.00     0.198 A 
ATOM     70  C   UNL A   1      39.769  25.902  27.711  1.00  0.00     0.198 A 
ATOM     71  F   UNL A   1      38.960  26.444  29.852  1.00  0.00    -0.203 F 
ATOM     72  F   UNL A   1      41.890  27.770  25.443  1.00  0.00    -0.200 F 
ATOM     73  C   UNL A   1      40.515  26.229  26.590  1.00  0.00     0.200 A 
ATOM     74  F   UNL A   1      39.134  24.723  27.772  1.00  0.00    -0.200 F 
ATOM     75  F   UNL A   1      40.593  25.374  25.561  1.00  0.00    -0.200 F 
ENDBRANCH  51  65
BRANCH  52  76
ATOM     76  C   UNL A   1      39.851  33.946  36.755  1.00  0.00     0.064 A 
ATOM     77  C   UNL A   1      39.005  33.562  37.805  1.00  0.00     0.173 A 
ATOM     78  C   UNL A   1      40.545  35.158  36.888  1.00  0.00     0.173 A 
ATOM     79  F   UNL A   1      38.297  32.426  37.712  1.00  0.00    -0.203 F 
ATOM     80  C   UNL A   1      38.838  34.371  38.927  1.00  0.00     0.198 A 
ATOM     81  C   UNL A   1      40.402  35.950  38.024  1.00  0.00     0.198 A 
ATOM     82  F   UNL A   1      41.364  35.575  35.910  1.00  0.00    -0.203 F 
ATOM     83  F   UNL A   1      37.979  34.008  39.889  1.00  0.00    -0.200 F 
ATOM     84  C   UNL A   1      39.540  35.562  39.038  1.00  0.00     0.200 A 
ATOM     85  F   UNL A   1      41.089  37.095  38.130  1.00  0.00    -0.200 F 
ATOM     86  F   UNL A   1      39.376  36.342  40.115  1.00  0.00    -0.200 F 
ENDBRANCH  52  76
BRANCH  64  87
ATOM     87  C   UNL A   1      43.695  28.375  35.115  1.00  0.00     0.064 A 
ATOM     88  C   UNL A   1      43.340  27.272  35.907  1.00  0.00     0.173 A 
ATOM     89  C   UNL A   1      45.055  28.702  35.017  1.00  0.00     0.173 A 
ATOM     90  F   UNL A   1      42.051  26.929  36.047  1.00  0.00    -0.203 F 
ATOM     91  C   UNL A   1      44.309  26.540  36.588  1.00  0.00     0.198 A 
ATOM     92  C   UNL A   1      46.024  27.950  35.676  1.00  0.00     0.198 A 
ATOM     93  F   UNL A   1      45.447  29.743  34.267  1.00  0.00    -0.203 F 
ATOM     94  F   UNL A   1      43.943  25.516  37.373  1.00  0.00    -0.200 F 
ATOM     95  C   UNL A   1      45.649  26.873  36.465  1.00  0.00     0.200 A 
ATOM     96  F   UNL A   1      47.320  28.266  35.544  1.00  0.00    -0.200 F 
ATOM     97  F   UNL A   1      46.580  26.160  37.113  1.00  0.00    -0.200 F 
ENDBRANCH  64  87
ENDBRANCH  38  39
ENDBRANCH  31  33
ENDBRANCH  30  31
ENDBRANCH  29  30
ENDBRANCH  28  29
ENDBRANCH  27  28
ENDBRANCH   1  27
TORSDOF 17
ENDMDL
MODEL 3
REMARK VINA RESULT:     -12.2      1.461      2.944
REMARK SMILES C[C@H](Oc1cc2oc(=O)cc(-c3ccccc3)c2cc1Cl)C(=O)OCCOCCOC(=O)c1ccc(-c2c3nc(c(-c4c(F)c(F)c(F)c(F)c4F)c4ccc([nH]4)c(-c4c(F)c(F)c(F)c(F)c4F)c4nc(c(-c5c(F)c(F)c(F)c(F)c5F)c5ccc2[nH]5)C=C4)C=C3)cc1
REMARK SMILES IDX 26 1 25 2 24 3 22 4 23 5 2 6 1 7 3 8 4 9 5 10 20 11 6 12
REMARK SMILES IDX 19 13 21 14 7 15 18 16 8 17 11 18 9 19 10 20 12 21 13 22
REMARK SMILES IDX 17 23 14 24 16 25 15 26 27 27 28 28 29 29 30 30 31 31 32 32
REMARK SMILES IDX 33 33 34 34 95 35 35 36 94 37 36 38 37 39 38 40 88 41 39 42
REMARK SMILES IDX 93 43 87 44 89 45 40 46 92 47 86 48 85 49 41 51 73 52 53 53
REMARK SMILES IDX 72 54 54 55 57 56 71 57 90 58 55 59 56 60 70 62 91 63 58 64
REMARK SMILES IDX 42 65 43 66 51 67 44 68 45 69 49 70 52 71 46 72 47 73 50 74
REMARK SMILES IDX 48 75 74 76 75 77 83 78 76 79 77 80 81 81 84 82 78 83 79 84
REMARK SMILES IDX 82 85 80 86 59 87 60 88 68 89 61 90 62 91 66 92 69 93 63 94
REMARK SMILES IDX 64 95 67 96 65 97
REMARK H PARENT 89 50 57 61
REMARK Flexibility Score: inf
ROOT
ATOM      1  C   UNL A   1      35.373  22.986  23.142  1.00  0.00     0.202 C 
ENDROOT
BRANCH   1   2
ATOM      2  C   UNL A   1      33.993  23.636  23.242  1.00  0.00     0.261 C 
BRANCH   2   3
ATOM      3  O   UNL A   1      33.050  23.053  22.330  1.00  0.00    -0.461 OA
BRANCH   3   4
ATOM      4  C   UNL A   1      32.317  22.018  22.831  1.00  0.00     0.347 C 
ATOM      5  O   UNL A   1      31.789  21.138  22.159  1.00  0.00    -0.248 OA
BRANCH   4   6
ATOM      6  C   UNL A   1      32.145  22.116  24.346  1.00  0.00     0.279 C 
ATOM      7  C   UNL A   1      32.201  20.685  24.888  1.00  0.00     0.066 C 
BRANCH   6   8
ATOM      8  O   UNL A   1      30.939  22.806  24.708  1.00  0.00    -0.477 OA
BRANCH   8   9
ATOM      9  C   UNL A   1      30.969  24.175  24.801  1.00  0.00     0.142 A 
ATOM     10  C   UNL A   1      30.318  25.024  23.911  1.00  0.00     0.096 A 
ATOM     11  C   UNL A   1      31.729  24.758  25.830  1.00  0.00     0.084 A 
ATOM     12  C   UNL A   1      30.555  26.398  23.957  1.00  0.00     0.142 A 
ATOM     13  C   UNL A   1      31.904  26.153  25.906  1.00  0.00     0.037 A 
ATOM     14  Cl  UNL A   1      32.512  23.779  27.023  1.00  0.00    -0.080 Cl
ATOM     15  O   UNL A   1      29.984  27.137  22.907  1.00  0.00    -0.423 OA
ATOM     16  C   UNL A   1      31.354  26.993  24.929  1.00  0.00     0.027 A 
ATOM     17  C   UNL A   1      30.333  28.457  22.712  1.00  0.00     0.336 A 
ATOM     18  C   UNL A   1      31.587  28.449  24.858  1.00  0.00    -0.000 A 
ATOM     19  O   UNL A   1      29.982  29.088  21.723  1.00  0.00    -0.246 OA
ATOM     20  C   UNL A   1      31.123  29.094  23.773  1.00  0.00     0.103 A 
BRANCH  18  21
ATOM     21  C   UNL A   1      32.325  29.295  25.822  1.00  0.00    -0.017 A 
ATOM     22  C   UNL A   1      31.751  30.490  26.288  1.00  0.00     0.009 A 
ATOM     23  C   UNL A   1      33.617  28.955  26.244  1.00  0.00     0.009 A 
ATOM     24  C   UNL A   1      32.459  31.331  27.148  1.00  0.00     0.001 A 
ATOM     25  C   UNL A   1      34.319  29.794  27.115  1.00  0.00     0.001 A 
ATOM     26  C   UNL A   1      33.741  30.983  27.561  1.00  0.00     0.000 A 
ENDBRANCH  18  21
ENDBRANCH   8   9
ENDBRANCH   6   8
ENDBRANCH   4   6
ENDBRANCH   3   4
ENDBRANCH   2   3
ENDBRANCH   1   2
BRANCH   1  27
ATOM     27  O   UNL A   1      35.975  22.593  24.372  1.00  0.00    -0.374 OA
BRANCH  27  28
ATOM     28  C   UNL A   1      35.878  21.213  24.732  1.00  0.00     0.202 C 
BRANCH  28  29
ATOM     29  C   UNL A   1      37.175  20.547  25.206  1.00  0.00     0.261 C 
BRANCH  29  30
ATOM     30  O   UNL A   1      38.256  21.493  25.313  1.00  0.00    -0.460 OA
BRANCH  30  31
ATOM     31  C   UNL A   1      39.203  21.196  26.231  1.00  0.00     0.338 C 
ATOM     32  O   UNL A   1      39.625  20.090  26.537  1.00  0.00    -0.246 OA
BRANCH  31  33
ATOM     33  C   UNL A   1      39.827  22.440  26.718  1.00  0.00     0.060 A 
ATOM     34  C   UNL A   1      39.383  23.653  26.175  1.00  0.00     0.016 A 
ATOM     35  C   UNL A   1      40.865  22.419  27.651  1.00  0.00     0.016 A 
ATOM     36  C   UNL A   1      39.989  24.851  26.550  1.00  0.00     0.010 A 
ATOM     37  C   UNL A   1      41.483  23.620  28.013  1.00  0.00     0.010 A 
ATOM     38  C   UNL A   1      41.060  24.840  27.453  1.00  0.00    -0.014 A 
BRANCH  38  39
ATOM     39  C   UNL A   1      41.786  26.095  27.763  1.00  0.00     0.031 A 
ATOM     40  C   UNL A   1      41.085  27.188  28.520  1.00  0.00     0.074 A 
ATOM     41  C   UNL A   1      43.058  26.260  27.361  1.00  0.00     0.049 A 
ATOM     42  N   UNL A   1      41.505  28.393  28.815  1.00  0.00    -0.248 NA
ATOM     43  C   UNL A   1      39.731  26.887  29.010  1.00  0.00     0.031 C 
ATOM     44  C   UNL A   1      43.853  25.259  26.651  1.00  0.00     0.029 A 
ATOM     45  N   UNL A   1      43.899  27.340  27.474  1.00  0.00    -0.354 N 
ATOM     46  C   UNL A   1      40.468  28.995  29.514  1.00  0.00     0.074 A 
ATOM     47  C   UNL A   1      39.392  28.030  29.588  1.00  0.00     0.031 C 
ATOM     48  C   UNL A   1      45.057  25.782  26.365  1.00  0.00     0.029 A 
ATOM     49  C   UNL A   1      45.104  27.163  26.839  1.00  0.00     0.049 A 
ATOM     50  H   UNL A   1      43.661  28.160  27.963  1.00  0.00     0.167 HD
ATOM     51  C   UNL A   1      40.423  30.239  30.044  1.00  0.00     0.037 A 
ATOM     52  C   UNL A   1      46.113  28.033  26.630  1.00  0.00     0.037 A 
ATOM     53  C   UNL A   1      41.501  31.192  29.978  1.00  0.00     0.049 A 
ATOM     54  C   UNL A   1      46.000  29.437  27.166  1.00  0.00     0.074 A 
ATOM     55  C   UNL A   1      41.569  32.455  30.539  1.00  0.00     0.029 A 
ATOM     56  N   UNL A   1      42.692  30.990  29.300  1.00  0.00    -0.354 N 
ATOM     57  N   UNL A   1      45.037  29.983  27.867  1.00  0.00    -0.248 NA
ATOM     58  C   UNL A   1      47.116  30.350  26.874  1.00  0.00     0.031 C 
ATOM     59  C   UNL A   1      42.778  33.041  30.152  1.00  0.00     0.029 A 
ATOM     60  C   UNL A   1      43.484  32.123  29.392  1.00  0.00     0.049 A 
ATOM     61  H   UNL A   1      42.940  30.164  28.825  1.00  0.00     0.167 HD
ATOM     62  C   UNL A   1      45.436  31.290  28.114  1.00  0.00     0.074 A 
ATOM     63  C   UNL A   1      46.740  31.452  27.508  1.00  0.00     0.031 C 
ATOM     64  C   UNL A   1      44.779  32.270  28.781  1.00  0.00     0.037 A 
BRANCH  51  65
ATOM     65  C   UNL A   1      39.161  30.667  30.731  1.00  0.00     0.064 A 
ATOM     66  C   UNL A   1      38.073  31.185  30.015  1.00  0.00     0.173 A 
ATOM     67  C   UNL A   1      39.009  30.470  32.112  1.00  0.00     0.173 A 
ATOM     68  F   UNL A   1      38.173  31.399  28.695  1.00  0.00    -0.203 F 
ATOM     69  C   UNL A   1      36.878  31.498  30.661  1.00  0.00     0.198 A 
ATOM     70  C   UNL A   1      37.806  30.763  32.749  1.00  0.00     0.198 A 
ATOM     71  F   UNL A   1      40.019  29.971  32.840  1.00  0.00    -0.203 F 
ATOM     72  F   UNL A   1      35.856  32.012  29.961  1.00  0.00    -0.200 F 
ATOM     73  C   UNL A   1      36.743  31.277  32.023  1.00  0.00     0.200 A 
ATOM     74  F   UNL A   1      37.673  30.537  34.063  1.00  0.00    -0.200 F 
ATOM     75  F   UNL A   1      35.586  31.560  32.637  1.00  0.00    -0.200 F 
ENDBRANCH  51  65
BRANCH  52  76
ATOM     76  C   UNL A   1      47.299  27.625  25.832  1.00  0.00     0.064 A 
ATOM     77  C   UNL A   1      48.474  27.180  26.452  1.00  0.00     0.173 A 
ATOM     78  C   UNL A   1      47.295  27.718  24.432  1.00  0.00     0.173 A 
ATOM     79  F   UNL A   1      48.536  27.103  27.790  1.00  0.00    -0.203 F 
ATOM     80  C   UNL A   1      49.608  26.869  25.705  1.00  0.00     0.198 A 
ATOM     81  C   UNL A   1      48.419  27.375  23.684  1.00  0.00     0.198 A 
ATOM     82  F   UNL A   1      46.197  28.142  23.788  1.00  0.00    -0.203 F 
ATOM     83  F   UNL A   1      50.737  26.502  26.327  1.00  0.00    -0.200 F 
ATOM     84  C   UNL A   1      49.579  26.963  24.321  1.00  0.00     0.200 A 
ATOM     85  F   UNL A   1      48.382  27.458  22.347  1.00  0.00    -0.200 F 
ATOM     86  F   UNL A   1      50.671  26.667  23.604  1.00  0.00    -0.200 F 
ENDBRANCH  52  76
BRANCH  64  87
ATOM     87  C   UNL A   1      45.462  33.601  28.899  1.00  0.00     0.064 A 
ATOM     88  C   UNL A   1      46.338  33.882  29.958  1.00  0.00     0.173 A 
ATOM     89  C   UNL A   1      45.276  34.590  27.921  1.00  0.00     0.173 A 
ATOM     90  F   UNL A   1      46.536  32.976  30.928  1.00  0.00    -0.203 F 
ATOM     91  C   UNL A   1      46.987  35.111  30.043  1.00  0.00     0.198 A 
ATOM     92  C   UNL A   1      45.948  35.807  27.994  1.00  0.00     0.198 A 
ATOM     93  F   UNL A   1      44.453  34.369  26.884  1.00  0.00    -0.203 F 
ATOM     94  F   UNL A   1      47.786  35.373  31.086  1.00  0.00    -0.200 F 
ATOM     95  C   UNL A   1      46.798  36.068  29.057  1.00  0.00     0.200 A 
ATOM     96  F   UNL A   1      45.775  36.725  27.033  1.00  0.00    -0.200 F 
ATOM     97  F   UNL A   1      47.431  37.247  29.136  1.00  0.00    -0.200 F 
ENDBRANCH  64  87
ENDBRANCH  38  39
ENDBRANCH  31  33
ENDBRANCH  30  31
ENDBRANCH  29  30
ENDBRANCH  28  29
ENDBRANCH  27  28
ENDBRANCH   1  27
TORSDOF 17
ENDMDL
