MODEL 1
REMARK VINA RESULT:     -11.1      0.000      0.000
REMARK SMILES COCC[C@@H](C)NC(=O)N1Cc2nc[nH]c2C[C@@H]1C(=O)OCCOCCOC(=O)c1ccc(-c2c3nc(c(-c4c(F)c(F)c(F)c(F)c4F)c4ccc([nH]4)c(-c4c(F)c(F)c(F)c(F)c4F)c4nc(c(-c5c(F)c(F)c(F)c(F)c5F)c5ccc2[nH]5)C=C4)C=C3)cc1
REMARK SMILES IDX 22 1 21 2 19 3 20 4 18 5 10 6 11 7 12 8 17 9 13 10 16 11
REMARK SMILES IDX 14 12 15 13 8 15 7 16 9 18 5 19 6 20 4 21 3 22 2 23 1 24
REMARK SMILES IDX 23 25 24 26 25 27 26 28 27 29 28 30 29 31 30 32 31 33 92 34
REMARK SMILES IDX 32 35 91 36 33 37 34 38 35 39 85 40 36 41 90 42 84 43 86 44
REMARK SMILES IDX 37 45 89 46 83 47 82 48 38 50 70 51 50 52 69 53 51 54 54 55
REMARK SMILES IDX 68 56 87 57 52 58 53 59 67 61 88 62 55 63 39 64 40 65 48 66
REMARK SMILES IDX 41 67 42 68 46 69 49 70 43 71 44 72 47 73 45 74 71 75 72 76
REMARK SMILES IDX 80 77 73 78 74 79 78 80 81 81 75 82 76 83 79 84 77 85 56 86
REMARK SMILES IDX 57 87 65 88 58 89 59 90 63 91 66 92 60 93 61 94 64 95 62 96
REMARK H PARENT 15 14 7 17 86 49 54 60
REMARK Flexibility Score: inf
ROOT
ATOM      1  C   UNL A   1      39.192  22.235  26.104  1.00  0.00     0.261 C 
ENDROOT
BRANCH   1   2
ATOM      2  O   UNL A   1      37.853  21.694  25.991  1.00  0.00    -0.462 OA
BRANCH   2   3
ATOM      3  C   UNL A   1      36.830  22.553  25.669  1.00  0.00     0.329 C 
ATOM      4  O   UNL A   1      36.871  23.763  25.821  1.00  0.00    -0.250 OA
BRANCH   3   5
ATOM      5  C   UNL A   1      35.619  21.742  25.143  1.00  0.00     0.203 C 
ATOM      6  N   UNL A   1      34.363  21.785  25.958  1.00  0.00    -0.305 N 
ATOM      7  C   UNL A   1      33.210  20.980  25.513  1.00  0.00     0.180 C 
ATOM      8  C   UNL A   1      33.678  19.646  25.081  1.00  0.00     0.081 A 
ATOM      9  C   UNL A   1      36.136  20.277  24.947  1.00  0.00     0.093 C 
ATOM     10  N   UNL A   1      32.876  18.554  24.897  1.00  0.00    -0.240 NA
ATOM     11  C   UNL A   1      34.991  19.341  24.811  1.00  0.00     0.042 A 
ATOM     12  C   UNL A   1      33.700  17.580  24.576  1.00  0.00     0.197 A 
ATOM     13  N   UNL A   1      35.001  18.010  24.511  1.00  0.00    -0.348 N 
ATOM     14  H   UNL A   1      35.790  17.463  24.291  1.00  0.00     0.167 HD
BRANCH   6  15
ATOM     15  C   UNL A   1      34.052  22.845  26.764  1.00  0.00     0.318 C 
ATOM     16  N   UNL A   1      33.489  23.939  26.175  1.00  0.00    -0.335 N 
ATOM     17  H   UNL A   1      32.875  24.477  26.725  1.00  0.00     0.165 HD
ATOM     18  O   UNL A   1      34.193  22.819  27.981  1.00  0.00    -0.249 OA
BRANCH  16  19
ATOM     19  C   UNL A   1      33.715  24.379  24.807  1.00  0.00     0.083 C 
ATOM     20  C   UNL A   1      34.067  25.852  24.869  1.00  0.00     0.031 C 
BRANCH  19  21
ATOM     21  C   UNL A   1      32.512  24.147  23.901  1.00  0.00     0.053 C 
BRANCH  21  22
ATOM     22  C   UNL A   1      32.924  23.569  22.546  1.00  0.00     0.162 C 
BRANCH  22  23
ATOM     23  O   UNL A   1      33.541  24.536  21.701  1.00  0.00    -0.385 OA
ATOM     24  C   UNL A   1      32.689  25.608  21.308  1.00  0.00     0.194 C 
ENDBRANCH  22  23
ENDBRANCH  21  22
ENDBRANCH  19  21
ENDBRANCH  16  19
ENDBRANCH   6  15
ENDBRANCH   3   5
ENDBRANCH   2   3
ENDBRANCH   1   2
BRANCH   1  25
ATOM     25  C   UNL A   1      40.159  21.301  26.849  1.00  0.00     0.202 C 
BRANCH  25  26
ATOM     26  O   UNL A   1      41.218  20.850  26.005  1.00  0.00    -0.374 OA
BRANCH  26  27
ATOM     27  C   UNL A   1      41.535  19.462  26.079  1.00  0.00     0.202 C 
BRANCH  27  28
ATOM     28  C   UNL A   1      43.020  19.166  25.857  1.00  0.00     0.261 C 
BRANCH  28  29
ATOM     29  O   UNL A   1      43.537  19.856  24.711  1.00  0.00    -0.460 OA
BRANCH  29  30
ATOM     30  C   UNL A   1      44.852  20.216  24.733  1.00  0.00     0.338 C 
ATOM     31  O   UNL A   1      45.822  19.512  24.756  1.00  0.00    -0.246 OA
BRANCH  30  32
ATOM     32  C   UNL A   1      44.834  21.670  25.014  1.00  0.00     0.060 A 
ATOM     33  C   UNL A   1      45.553  22.124  26.118  1.00  0.00     0.016 A 
ATOM     34  C   UNL A   1      43.944  22.510  24.344  1.00  0.00     0.016 A 
ATOM     35  C   UNL A   1      45.237  23.365  26.661  1.00  0.00     0.010 A 
ATOM     36  C   UNL A   1      43.625  23.740  24.895  1.00  0.00     0.010 A 
ATOM     37  C   UNL A   1      44.213  24.131  26.091  1.00  0.00    -0.014 A 
BRANCH  37  38
ATOM     38  C   UNL A   1      43.830  25.389  26.708  1.00  0.00     0.031 A 
ATOM     39  C   UNL A   1      44.746  26.530  26.498  1.00  0.00     0.074 A 
ATOM     40  C   UNL A   1      42.700  25.617  27.401  1.00  0.00     0.049 A 
ATOM     41  N   UNL A   1      45.597  26.993  27.349  1.00  0.00    -0.248 NA
ATOM     42  C   UNL A   1      44.750  27.211  25.200  1.00  0.00     0.031 C 
ATOM     43  C   UNL A   1      41.479  24.821  27.501  1.00  0.00     0.029 A 
ATOM     44  N   UNL A   1      42.429  26.715  28.165  1.00  0.00    -0.354 N 
ATOM     45  C   UNL A   1      46.188  28.095  26.749  1.00  0.00     0.074 A 
ATOM     46  C   UNL A   1      45.700  28.130  25.392  1.00  0.00     0.031 C 
ATOM     47  C   UNL A   1      40.539  25.538  28.165  1.00  0.00     0.029 A 
ATOM     48  C   UNL A   1      41.137  26.772  28.655  1.00  0.00     0.049 A 
ATOM     49  H   UNL A   1      43.099  27.411  28.353  1.00  0.00     0.167 HD
ATOM     50  C   UNL A   1      46.936  28.978  27.465  1.00  0.00     0.037 A 
ATOM     51  C   UNL A   1      40.612  27.783  29.390  1.00  0.00     0.037 A 
ATOM     52  C   UNL A   1      47.242  28.483  28.781  1.00  0.00     0.049 A 
ATOM     53  C   UNL A   1      41.740  28.486  30.059  1.00  0.00     0.074 A 
ATOM     54  C   UNL A   1      47.912  27.374  29.263  1.00  0.00     0.029 A 
ATOM     55  N   UNL A   1      46.529  28.970  29.850  1.00  0.00    -0.354 N 
ATOM     56  N   UNL A   1      42.454  27.974  31.023  1.00  0.00    -0.248 NA
ATOM     57  C   UNL A   1      42.330  29.643  29.400  1.00  0.00     0.031 C 
ATOM     58  C   UNL A   1      47.184  26.975  30.423  1.00  0.00     0.029 A 
ATOM     59  C   UNL A   1      46.134  27.879  30.583  1.00  0.00     0.049 A 
ATOM     60  H   UNL A   1      46.341  29.916  30.051  1.00  0.00     0.167 HD
ATOM     61  C   UNL A   1      43.736  28.463  30.818  1.00  0.00     0.074 A 
ATOM     62  C   UNL A   1      43.573  29.571  29.883  1.00  0.00     0.031 C 
ATOM     63  C   UNL A   1      44.836  27.756  31.206  1.00  0.00     0.037 A 
BRANCH  50  64
ATOM     64  C   UNL A   1      47.201  30.401  27.074  1.00  0.00     0.064 A 
ATOM     65  C   UNL A   1      48.523  30.883  27.063  1.00  0.00     0.173 A 
ATOM     66  C   UNL A   1      46.187  31.372  26.958  1.00  0.00     0.173 A 
ATOM     67  F   UNL A   1      49.559  30.040  27.196  1.00  0.00    -0.203 F 
ATOM     68  C   UNL A   1      48.808  32.248  26.987  1.00  0.00     0.198 A 
ATOM     69  C   UNL A   1      46.477  32.729  26.827  1.00  0.00     0.198 A 
ATOM     70  F   UNL A   1      44.892  31.050  27.069  1.00  0.00    -0.203 F 
ATOM     71  F   UNL A   1      50.076  32.669  27.086  1.00  0.00    -0.200 F 
ATOM     72  C   UNL A   1      47.784  33.170  26.869  1.00  0.00     0.200 A 
ATOM     73  F   UNL A   1      45.472  33.612  26.731  1.00  0.00    -0.200 F 
ATOM     74  F   UNL A   1      48.052  34.482  26.842  1.00  0.00    -0.200 F 
ENDBRANCH  50  64
BRANCH  51  75
ATOM     75  C   UNL A   1      39.224  28.299  29.408  1.00  0.00     0.064 A 
ATOM     76  C   UNL A   1      38.495  28.391  30.605  1.00  0.00     0.173 A 
ATOM     77  C   UNL A   1      38.679  28.963  28.292  1.00  0.00     0.173 A 
ATOM     78  F   UNL A   1      38.962  27.829  31.729  1.00  0.00    -0.203 F 
ATOM     79  C   UNL A   1      37.307  29.125  30.686  1.00  0.00     0.198 A 
ATOM     80  C   UNL A   1      37.489  29.686  28.372  1.00  0.00     0.198 A 
ATOM     81  F   UNL A   1      39.339  29.006  27.127  1.00  0.00    -0.203 F 
ATOM     82  F   UNL A   1      36.674  29.245  31.862  1.00  0.00    -0.200 F 
ATOM     83  C   UNL A   1      36.810  29.779  29.572  1.00  0.00     0.200 A 
ATOM     84  F   UNL A   1      37.039  30.343  27.293  1.00  0.00    -0.200 F 
ATOM     85  F   UNL A   1      35.705  30.531  29.662  1.00  0.00    -0.200 F 
ENDBRANCH  51  75
BRANCH  63  86
ATOM     86  C   UNL A   1      44.631  26.579  32.117  1.00  0.00     0.064 A 
ATOM     87  C   UNL A   1      44.360  25.277  31.657  1.00  0.00     0.173 A 
ATOM     88  C   UNL A   1      44.858  26.740  33.491  1.00  0.00     0.173 A 
ATOM     89  F   UNL A   1      44.249  25.020  30.348  1.00  0.00    -0.203 F 
ATOM     90  C   UNL A   1      44.262  24.204  32.538  1.00  0.00     0.198 A 
ATOM     91  C   UNL A   1      44.799  25.658  34.366  1.00  0.00     0.198 A 
ATOM     92  F   UNL A   1      45.185  27.946  33.982  1.00  0.00    -0.203 F 
ATOM     93  F   UNL A   1      43.986  22.977  32.073  1.00  0.00    -0.200 F 
ATOM     94  C   UNL A   1      44.488  24.393  33.891  1.00  0.00     0.200 A 
ATOM     95  F   UNL A   1      45.072  25.835  35.666  1.00  0.00    -0.200 F 
ATOM     96  F   UNL A   1      44.437  23.352  34.733  1.00  0.00    -0.200 F 
ENDBRANCH  63  86
ENDBRANCH  37  38
ENDBRANCH  30  32
ENDBRANCH  29  30
ENDBRANCH  28  29
ENDBRANCH  27  28
ENDBRANCH  26  27
ENDBRANCH  25  26
ENDBRANCH   1  25
TORSDOF 19
ENDMDL
MODEL 2
REMARK VINA RESULT:     -10.8      3.495      5.329
REMARK SMILES COCC[C@@H](C)NC(=O)N1Cc2nc[nH]c2C[C@@H]1C(=O)OCCOCCOC(=O)c1ccc(-c2c3nc(c(-c4c(F)c(F)c(F)c(F)c4F)c4ccc([nH]4)c(-c4c(F)c(F)c(F)c(F)c4F)c4nc(c(-c5c(F)c(F)c(F)c(F)c5F)c5ccc2[nH]5)C=C4)C=C3)cc1
REMARK SMILES IDX 22 1 21 2 19 3 20 4 18 5 10 6 11 7 12 8 17 9 13 10 16 11
REMARK SMILES IDX 14 12 15 13 8 15 7 16 9 18 5 19 6 20 4 21 3 22 2 23 1 24
REMARK SMILES IDX 23 25 24 26 25 27 26 28 27 29 28 30 29 31 30 32 31 33 92 34
REMARK SMILES IDX 32 35 91 36 33 37 34 38 35 39 85 40 36 41 90 42 84 43 86 44
REMARK SMILES IDX 37 45 89 46 83 47 82 48 38 50 70 51 50 52 69 53 51 54 54 55
REMARK SMILES IDX 68 56 87 57 52 58 53 59 67 61 88 62 55 63 39 64 40 65 48 66
REMARK SMILES IDX 41 67 42 68 46 69 49 70 43 71 44 72 47 73 45 74 71 75 72 76
REMARK SMILES IDX 80 77 73 78 74 79 78 80 81 81 75 82 76 83 79 84 77 85 56 86
REMARK SMILES IDX 57 87 65 88 58 89 59 90 63 91 66 92 60 93 61 94 64 95 62 96
REMARK H PARENT 15 14 7 17 86 49 54 60
REMARK Flexibility Score: inf
ROOT
ATOM      1  C   UNL A   1      35.100  24.268  25.647  1.00  0.00     0.261 C 
ENDROOT
BRANCH   1   2
ATOM      2  O   UNL A   1      34.528  25.389  24.929  1.00  0.00    -0.462 OA
BRANCH   2   3
ATOM      3  C   UNL A   1      33.161  25.462  24.821  1.00  0.00     0.329 C 
ATOM      4  O   UNL A   1      32.458  24.586  24.342  1.00  0.00    -0.250 OA
BRANCH   3   5
ATOM      5  C   UNL A   1      32.672  26.835  25.348  1.00  0.00     0.203 C 
ATOM      6  N   UNL A   1      32.429  27.908  24.332  1.00  0.00    -0.305 N 
ATOM      7  C   UNL A   1      32.016  29.242  24.805  1.00  0.00     0.180 C 
ATOM      8  C   UNL A   1      32.820  29.615  25.989  1.00  0.00     0.081 A 
ATOM      9  C   UNL A   1      33.719  27.279  26.425  1.00  0.00     0.093 C 
ATOM     10  N   UNL A   1      32.924  30.879  26.501  1.00  0.00    -0.240 NA
ATOM     11  C   UNL A   1      33.569  28.726  26.722  1.00  0.00     0.042 A 
ATOM     12  C   UNL A   1      33.774  30.770  27.499  1.00  0.00     0.197 A 
ATOM     13  N   UNL A   1      34.196  29.476  27.673  1.00  0.00    -0.348 N 
ATOM     14  H   UNL A   1      34.829  29.152  28.354  1.00  0.00     0.167 HD
BRANCH   6  15
ATOM     15  C   UNL A   1      32.093  27.624  23.037  1.00  0.00     0.318 C 
ATOM     16  N   UNL A   1      30.773  27.697  22.699  1.00  0.00    -0.335 N 
ATOM     17  H   UNL A   1      30.562  27.943  21.769  1.00  0.00     0.165 HD
ATOM     18  O   UNL A   1      32.926  27.382  22.171  1.00  0.00    -0.249 OA
BRANCH  16  19
ATOM     19  C   UNL A   1      29.653  27.444  23.591  1.00  0.00     0.083 C 
ATOM     20  C   UNL A   1      29.500  25.940  23.693  1.00  0.00     0.031 C 
BRANCH  19  21
ATOM     21  C   UNL A   1      28.356  28.089  23.114  1.00  0.00     0.053 C 
BRANCH  21  22
ATOM     22  C   UNL A   1      28.531  29.584  22.845  1.00  0.00     0.162 C 
BRANCH  22  23
ATOM     23  O   UNL A   1      28.890  29.860  21.494  1.00  0.00    -0.385 OA
ATOM     24  C   UNL A   1      28.326  31.057  20.965  1.00  0.00     0.194 C 
ENDBRANCH  22  23
ENDBRANCH  21  22
ENDBRANCH  19  21
ENDBRANCH  16  19
ENDBRANCH   6  15
ENDBRANCH   3   5
ENDBRANCH   2   3
ENDBRANCH   1   2
BRANCH   1  25
ATOM     25  C   UNL A   1      36.298  23.634  24.922  1.00  0.00     0.202 C 
BRANCH  25  26
ATOM     26  O   UNL A   1      37.059  22.794  25.788  1.00  0.00    -0.374 OA
BRANCH  26  27
ATOM     27  C   UNL A   1      37.952  21.880  25.153  1.00  0.00     0.202 C 
BRANCH  27  28
ATOM     28  C   UNL A   1      39.036  21.342  26.091  1.00  0.00     0.261 C 
BRANCH  28  29
ATOM     29  O   UNL A   1      40.187  22.197  26.124  1.00  0.00    -0.460 OA
BRANCH  29  30
ATOM     30  C   UNL A   1      40.788  22.395  27.332  1.00  0.00     0.338 C 
ATOM     31  O   UNL A   1      40.876  21.641  28.260  1.00  0.00    -0.246 OA
BRANCH  30  32
ATOM     32  C   UNL A   1      41.066  23.849  27.373  1.00  0.00     0.060 A 
ATOM     33  C   UNL A   1      41.786  24.340  28.461  1.00  0.00     0.016 A 
ATOM     34  C   UNL A   1      40.430  24.718  26.486  1.00  0.00     0.016 A 
ATOM     35  C   UNL A   1      41.710  25.695  28.761  1.00  0.00     0.010 A 
ATOM     36  C   UNL A   1      40.348  26.066  26.795  1.00  0.00     0.010 A 
ATOM     37  C   UNL A   1      40.920  26.537  27.969  1.00  0.00    -0.014 A 
BRANCH  37  38
ATOM     38  C   UNL A   1      40.777  27.936  28.332  1.00  0.00     0.031 A 
ATOM     39  C   UNL A   1      41.841  28.849  27.864  1.00  0.00     0.074 A 
ATOM     40  C   UNL A   1      39.744  28.476  29.004  1.00  0.00     0.049 A 
ATOM     41  N   UNL A   1      42.808  29.323  28.574  1.00  0.00    -0.248 NA
ATOM     42  C   UNL A   1      41.863  29.255  26.456  1.00  0.00     0.031 C 
ATOM     43  C   UNL A   1      38.425  27.925  29.306  1.00  0.00     0.029 A 
ATOM     44  N   UNL A   1      39.696  29.731  29.540  1.00  0.00    -0.354 N 
ATOM     45  C   UNL A   1      43.519  30.176  27.743  1.00  0.00     0.074 A 
ATOM     46  C   UNL A   1      42.953  30.026  26.425  1.00  0.00     0.031 C 
ATOM     47  C   UNL A   1      37.653  28.901  29.844  1.00  0.00     0.029 A 
ATOM     48  C   UNL A   1      38.465  30.092  30.053  1.00  0.00     0.049 A 
ATOM     49  H   UNL A   1      40.477  30.331  29.560  1.00  0.00     0.167 HD
ATOM     50  C   UNL A   1      44.441  31.047  28.239  1.00  0.00     0.037 A 
ATOM     51  C   UNL A   1      38.151  31.299  30.586  1.00  0.00     0.037 A 
ATOM     52  C   UNL A   1      44.754  30.773  29.616  1.00  0.00     0.049 A 
ATOM     53  C   UNL A   1      39.416  31.924  31.059  1.00  0.00     0.074 A 
ATOM     54  C   UNL A   1      45.277  29.683  30.289  1.00  0.00     0.029 A 
ATOM     55  N   UNL A   1      44.198  31.568  30.589  1.00  0.00    -0.354 N 
ATOM     56  N   UNL A   1      40.106  31.499  32.082  1.00  0.00    -0.248 NA
ATOM     57  C   UNL A   1      40.131  32.819  30.160  1.00  0.00     0.031 C 
ATOM     58  C   UNL A   1      44.575  29.642  31.531  1.00  0.00     0.029 A 
ATOM     59  C   UNL A   1      43.690  30.720  31.541  1.00  0.00     0.049 A 
ATOM     60  H   UNL A   1      44.170  32.552  30.601  1.00  0.00     0.167 HD
ATOM     61  C   UNL A   1      41.431  31.722  31.737  1.00  0.00     0.074 A 
ATOM     62  C   UNL A   1      41.378  32.639  30.604  1.00  0.00     0.031 C 
ATOM     63  C   UNL A   1      42.433  30.933  32.221  1.00  0.00     0.037 A 
BRANCH  50  64
ATOM     64  C   UNL A   1      44.894  32.304  27.559  1.00  0.00     0.064 A 
ATOM     65  C   UNL A   1      46.149  32.336  26.924  1.00  0.00     0.173 A 
ATOM     66  C   UNL A   1      44.254  33.547  27.729  1.00  0.00     0.173 A 
ATOM     67  F   UNL A   1      46.851  31.206  26.741  1.00  0.00    -0.203 F 
ATOM     68  C   UNL A   1      46.743  33.535  26.527  1.00  0.00     0.198 A 
ATOM     69  C   UNL A   1      44.825  34.738  27.282  1.00  0.00     0.198 A 
ATOM     70  F   UNL A   1      43.111  33.660  28.418  1.00  0.00    -0.203 F 
ATOM     71  F   UNL A   1      47.983  33.528  26.023  1.00  0.00    -0.200 F 
ATOM     72  C   UNL A   1      46.079  34.736  26.707  1.00  0.00     0.200 A 
ATOM     73  F   UNL A   1      44.177  35.895  27.479  1.00  0.00    -0.200 F 
ATOM     74  F   UNL A   1      46.666  35.891  26.370  1.00  0.00    -0.200 F 
ENDBRANCH  50  64
BRANCH  51  75
ATOM     75  C   UNL A   1      36.863  32.028  30.548  1.00  0.00     0.064 A 
ATOM     76  C   UNL A   1      35.975  32.000  31.637  1.00  0.00     0.173 A 
ATOM     77  C   UNL A   1      36.598  32.986  29.551  1.00  0.00     0.173 A 
ATOM     78  F   UNL A   1      36.178  31.152  32.655  1.00  0.00    -0.203 F 
ATOM     79  C   UNL A   1      34.903  32.893  31.734  1.00  0.00     0.198 A 
ATOM     80  C   UNL A   1      35.522  33.870  29.644  1.00  0.00     0.198 A 
ATOM     81  F   UNL A   1      37.431  33.150  28.515  1.00  0.00    -0.203 F 
ATOM     82  F   UNL A   1      34.117  32.879  32.819  1.00  0.00    -0.200 F 
ATOM     83  C   UNL A   1      34.683  33.833  30.741  1.00  0.00     0.200 A 
ATOM     84  F   UNL A   1      35.343  34.798  28.692  1.00  0.00    -0.200 F 
ATOM     85  F   UNL A   1      33.693  34.727  30.860  1.00  0.00    -0.200 F 
ENDBRANCH  51  75
BRANCH  63  86
ATOM     86  C   UNL A   1      42.111  30.005  33.358  1.00  0.00     0.064 A 
ATOM     87  C   UNL A   1      41.583  28.713  33.181  1.00  0.00     0.173 A 
ATOM     88  C   UNL A   1      42.483  30.375  34.658  1.00  0.00     0.173 A 
ATOM     89  F   UNL A   1      41.315  28.241  31.957  1.00  0.00    -0.203 F 
ATOM     90  C   UNL A   1      41.382  27.859  34.262  1.00  0.00     0.198 A 
ATOM     91  C   UNL A   1      42.317  29.504  35.733  1.00  0.00     0.198 A 
ATOM     92  F   UNL A   1      43.052  31.570  34.881  1.00  0.00    -0.203 F 
ATOM     93  F   UNL A   1      40.861  26.639  34.066  1.00  0.00    -0.200 F 
ATOM     94  C   UNL A   1      41.755  28.253  35.537  1.00  0.00     0.200 A 
ATOM     95  F   UNL A   1      42.730  29.867  36.955  1.00  0.00    -0.200 F 
ATOM     96  F   UNL A   1      41.601  27.414  36.571  1.00  0.00    -0.200 F 
ENDBRANCH  63  86
ENDBRANCH  37  38
ENDBRANCH  30  32
ENDBRANCH  29  30
ENDBRANCH  28  29
ENDBRANCH  27  28
ENDBRANCH  26  27
ENDBRANCH  25  26
ENDBRANCH   1  25
TORSDOF 19
ENDMDL
MODEL 3
REMARK VINA RESULT:     -10.7      2.685      4.302
REMARK SMILES COCC[C@@H](C)NC(=O)N1Cc2nc[nH]c2C[C@@H]1C(=O)OCCOCCOC(=O)c1ccc(-c2c3nc(c(-c4c(F)c(F)c(F)c(F)c4F)c4ccc([nH]4)c(-c4c(F)c(F)c(F)c(F)c4F)c4nc(c(-c5c(F)c(F)c(F)c(F)c5F)c5ccc2[nH]5)C=C4)C=C3)cc1
REMARK SMILES IDX 22 1 21 2 19 3 20 4 18 5 10 6 11 7 12 8 17 9 13 10 16 11
REMARK SMILES IDX 14 12 15 13 8 15 7 16 9 18 5 19 6 20 4 21 3 22 2 23 1 24
REMARK SMILES IDX 23 25 24 26 25 27 26 28 27 29 28 30 29 31 30 32 31 33 92 34
REMARK SMILES IDX 32 35 91 36 33 37 34 38 35 39 85 40 36 41 90 42 84 43 86 44
REMARK SMILES IDX 37 45 89 46 83 47 82 48 38 50 70 51 50 52 69 53 51 54 54 55
REMARK SMILES IDX 68 56 87 57 52 58 53 59 67 61 88 62 55 63 39 64 40 65 48 66
REMARK SMILES IDX 41 67 42 68 46 69 49 70 43 71 44 72 47 73 45 74 71 75 72 76
REMARK SMILES IDX 80 77 73 78 74 79 78 80 81 81 75 82 76 83 79 84 77 85 56 86
REMARK SMILES IDX 57 87 65 88 58 89 59 90 63 91 66 92 60 93 61 94 64 95 62 96
REMARK H PARENT 15 14 7 17 86 49 54 60
REMARK Flexibility Score: inf
ROOT
ATOM      1  C   UNL A   1      37.357  21.383  25.438  1.00  0.00     0.261 C 
ENDROOT
BRANCH   1   2
ATOM      2  O   UNL A   1      36.573  22.428  26.063  1.00  0.00    -0.462 OA
BRANCH   2   3
ATOM      3  C   UNL A   1      35.829  23.253  25.256  1.00  0.00     0.329 C 
ATOM      4  O   UNL A   1      36.175  23.630  24.148  1.00  0.00    -0.250 OA
BRANCH   3   5
ATOM      5  C   UNL A   1      34.528  23.662  25.991  1.00  0.00     0.203 C 
ATOM      6  N   UNL A   1      33.291  22.878  25.677  1.00  0.00    -0.305 N 
ATOM      7  C   UNL A   1      32.025  23.277  26.318  1.00  0.00     0.180 C 
ATOM      8  C   UNL A   1      31.903  24.751  26.292  1.00  0.00     0.081 A 
ATOM      9  C   UNL A   1      34.336  25.190  25.705  1.00  0.00     0.093 C 
ATOM     10  N   UNL A   1      30.748  25.447  26.518  1.00  0.00    -0.240 NA
ATOM     11  C   UNL A   1      32.949  25.605  26.034  1.00  0.00     0.042 A 
ATOM     12  C   UNL A   1      31.075  26.709  26.339  1.00  0.00     0.197 A 
ATOM     13  N   UNL A   1      32.406  26.856  26.042  1.00  0.00    -0.348 N 
ATOM     14  H   UNL A   1      32.878  27.703  25.868  1.00  0.00     0.167 HD
BRANCH   6  15
ATOM     15  C   UNL A   1      33.340  21.579  25.251  1.00  0.00     0.318 C 
ATOM     16  N   UNL A   1      33.244  21.353  23.910  1.00  0.00    -0.335 N 
ATOM     17  H   UNL A   1      33.706  20.558  23.556  1.00  0.00     0.165 HD
ATOM     18  O   UNL A   1      33.534  20.637  26.011  1.00  0.00    -0.249 OA
BRANCH  16  19
ATOM     19  C   UNL A   1      32.522  22.181  22.957  1.00  0.00     0.083 C 
ATOM     20  C   UNL A   1      31.796  21.241  22.016  1.00  0.00     0.031 C 
BRANCH  19  21
ATOM     21  C   UNL A   1      33.432  23.128  22.182  1.00  0.00     0.053 C 
BRANCH  21  22
ATOM     22  C   UNL A   1      33.168  24.590  22.542  1.00  0.00     0.162 C 
BRANCH  22  23
ATOM     23  O   UNL A   1      33.493  25.484  21.481  1.00  0.00    -0.385 OA
ATOM     24  C   UNL A   1      33.486  26.861  21.845  1.00  0.00     0.194 C 
ENDBRANCH  22  23
ENDBRANCH  21  22
ENDBRANCH  19  21
ENDBRANCH  16  19
ENDBRANCH   6  15
ENDBRANCH   3   5
ENDBRANCH   2   3
ENDBRANCH   1   2
BRANCH   1  25
ATOM     25  C   UNL A   1      38.869  21.542  25.669  1.00  0.00     0.202 C 
BRANCH  25  26
ATOM     26  O   UNL A   1      39.384  20.526  26.529  1.00  0.00    -0.374 OA
BRANCH  26  27
ATOM     27  C   UNL A   1      40.614  19.925  26.126  1.00  0.00     0.202 C 
BRANCH  27  28
ATOM     28  C   UNL A   1      41.746  20.127  27.136  1.00  0.00     0.261 C 
BRANCH  28  29
ATOM     29  O   UNL A   1      41.698  21.426  27.741  1.00  0.00    -0.460 OA
BRANCH  29  30
ATOM     30  C   UNL A   1      42.098  22.487  26.984  1.00  0.00     0.338 C 
ATOM     31  O   UNL A   1      42.821  22.497  26.028  1.00  0.00    -0.246 OA
BRANCH  30  32
ATOM     32  C   UNL A   1      41.680  23.676  27.762  1.00  0.00     0.060 A 
ATOM     33  C   UNL A   1      40.474  24.283  27.418  1.00  0.00     0.016 A 
ATOM     34  C   UNL A   1      42.571  24.298  28.638  1.00  0.00     0.016 A 
ATOM     35  C   UNL A   1      40.249  25.598  27.808  1.00  0.00     0.010 A 
ATOM     36  C   UNL A   1      42.347  25.612  29.015  1.00  0.00     0.010 A 
ATOM     37  C   UNL A   1      41.228  26.283  28.538  1.00  0.00    -0.014 A 
BRANCH  37  38
ATOM     38  C   UNL A   1      41.025  27.681  28.875  1.00  0.00     0.031 A 
ATOM     39  C   UNL A   1      41.979  28.644  28.286  1.00  0.00     0.074 A 
ATOM     40  C   UNL A   1      40.023  28.176  29.624  1.00  0.00     0.049 A 
ATOM     41  N   UNL A   1      42.972  29.202  28.892  1.00  0.00    -0.248 NA
ATOM     42  C   UNL A   1      41.848  29.004  26.872  1.00  0.00     0.031 C 
ATOM     43  C   UNL A   1      38.776  27.552  30.059  1.00  0.00     0.029 A 
ATOM     44  N   UNL A   1      39.940  29.442  30.127  1.00  0.00    -0.354 N 
ATOM     45  C   UNL A   1      43.549  30.071  27.977  1.00  0.00     0.074 A 
ATOM     46  C   UNL A   1      42.878  29.841  26.720  1.00  0.00     0.031 C 
ATOM     47  C   UNL A   1      37.992  28.494  30.640  1.00  0.00     0.029 A 
ATOM     48  C   UNL A   1      38.738  29.741  30.741  1.00  0.00     0.049 A 
ATOM     49  H   UNL A   1      40.677  30.091  30.059  1.00  0.00     0.167 HD
ATOM     50  C   UNL A   1      44.451  31.014  28.362  1.00  0.00     0.037 A 
ATOM     51  C   UNL A   1      38.394  30.942  31.268  1.00  0.00     0.037 A 
ATOM     52  C   UNL A   1      44.904  30.806  29.712  1.00  0.00     0.049 A 
ATOM     53  C   UNL A   1      39.652  31.662  31.606  1.00  0.00     0.074 A 
ATOM     54  C   UNL A   1      45.556  29.775  30.364  1.00  0.00     0.029 A 
ATOM     55  N   UNL A   1      44.386  31.596  30.710  1.00  0.00    -0.354 N 
ATOM     56  N   UNL A   1      40.457  31.315  32.572  1.00  0.00    -0.248 NA
ATOM     57  C   UNL A   1      40.222  32.570  30.621  1.00  0.00     0.031 C 
ATOM     58  C   UNL A   1      44.973  29.730  31.665  1.00  0.00     0.029 A 
ATOM     59  C   UNL A   1      44.022  30.748  31.727  1.00  0.00     0.049 A 
ATOM     60  H   UNL A   1      44.294  32.576  30.698  1.00  0.00     0.167 HD
ATOM     61  C   UNL A   1      41.728  31.611  32.101  1.00  0.00     0.074 A 
ATOM     62  C   UNL A   1      41.513  32.485  30.954  1.00  0.00     0.031 C 
ATOM     63  C   UNL A   1      42.820  30.904  32.513  1.00  0.00     0.037 A 
BRANCH  50  64
ATOM     64  C   UNL A   1      44.757  32.274  27.610  1.00  0.00     0.064 A 
ATOM     65  C   UNL A   1      45.966  32.382  26.899  1.00  0.00     0.173 A 
ATOM     66  C   UNL A   1      44.026  33.467  27.773  1.00  0.00     0.173 A 
ATOM     67  F   UNL A   1      46.748  31.306  26.716  1.00  0.00    -0.203 F 
ATOM     68  C   UNL A   1      46.433  33.608  26.423  1.00  0.00     0.198 A 
ATOM     69  C   UNL A   1      44.468  34.681  27.249  1.00  0.00     0.198 A 
ATOM     70  F   UNL A   1      42.919  33.515  28.526  1.00  0.00    -0.203 F 
ATOM     71  F   UNL A   1      47.639  33.681  25.844  1.00  0.00    -0.200 F 
ATOM     72  C   UNL A   1      45.683  34.757  26.598  1.00  0.00     0.200 A 
ATOM     73  F   UNL A   1      43.738  35.789  27.442  1.00  0.00    -0.200 F 
ATOM     74  F   UNL A   1      46.150  35.941  26.183  1.00  0.00    -0.200 F 
ENDBRANCH  50  64
BRANCH  51  75
ATOM     75  C   UNL A   1      37.062  31.586  31.328  1.00  0.00     0.064 A 
ATOM     76  C   UNL A   1      36.473  31.932  32.556  1.00  0.00     0.173 A 
ATOM     77  C   UNL A   1      36.459  32.121  30.174  1.00  0.00     0.173 A 
ATOM     78  F   UNL A   1      37.009  31.507  33.709  1.00  0.00    -0.203 F 
ATOM     79  C   UNL A   1      35.364  32.781  32.625  1.00  0.00     0.198 A 
ATOM     80  C   UNL A   1      35.346  32.959  30.243  1.00  0.00     0.198 A 
ATOM     81  F   UNL A   1      36.993  31.919  28.962  1.00  0.00    -0.203 F 
ATOM     82  F   UNL A   1      34.870  33.141  33.818  1.00  0.00    -0.200 F 
ATOM     83  C   UNL A   1      34.807  33.301  31.468  1.00  0.00     0.200 A 
ATOM     84  F   UNL A   1      34.840  33.483  29.117  1.00  0.00    -0.200 F 
ATOM     85  F   UNL A   1      33.782  34.161  31.536  1.00  0.00    -0.200 F 
ENDBRANCH  51  75
BRANCH  63  86
ATOM     86  C   UNL A   1      42.663  29.995  33.699  1.00  0.00     0.064 A 
ATOM     87  C   UNL A   1      42.862  30.410  35.028  1.00  0.00     0.173 A 
ATOM     88  C   UNL A   1      42.155  28.703  33.498  1.00  0.00     0.173 A 
ATOM     89  F   UNL A   1      43.232  31.666  35.309  1.00  0.00    -0.203 F 
ATOM     90  C   UNL A   1      42.621  29.552  36.098  1.00  0.00     0.198 A 
ATOM     91  C   UNL A   1      41.877  27.861  34.572  1.00  0.00     0.198 A 
ATOM     92  F   UNL A   1      41.883  28.273  32.256  1.00  0.00    -0.203 F 
ATOM     93  F   UNL A   1      42.836  29.969  37.354  1.00  0.00    -0.200 F 
ATOM     94  C   UNL A   1      42.122  28.280  35.869  1.00  0.00     0.200 A 
ATOM     95  F   UNL A   1      41.342  26.652  34.350  1.00  0.00    -0.200 F 
ATOM     96  F   UNL A   1      41.849  27.470  36.902  1.00  0.00    -0.200 F 
ENDBRANCH  63  86
ENDBRANCH  37  38
ENDBRANCH  30  32
ENDBRANCH  29  30
ENDBRANCH  28  29
ENDBRANCH  27  28
ENDBRANCH  26  27
ENDBRANCH  25  26
ENDBRANCH   1  25
TORSDOF 19
ENDMDL
