MODEL 1
REMARK VINA RESULT:     -12.7      0.000      0.000
REMARK SMILES CS(=O)(=O)c1ccc(N2N=C(C(=O)OCCOCCOC(=O)c3ccc(-c4c5nc(c(-c6c(F)c(F)c(F)c(F)c6F)c6ccc([nH]6)c(-c6c(F)c(F)c(F)c(F)c6F)c6nc(c(-c7c(F)c(F)c(F)c(F)c7F)c7ccc4[nH]7)C=C6)C=C5)cc3)C[C@H]2c2ccco2)cc1
REMARK SMILES IDX 17 1 16 2 15 3 14 4 12 5 13 6 11 7 9 8 10 9 87 10 86 11 8 12
REMARK SMILES IDX 5 13 6 14 94 15 7 16 93 17 2 18 1 19 3 20 4 21 88 22 89 23
REMARK SMILES IDX 92 24 90 25 91 26 18 27 19 28 20 29 21 30 22 31 23 32 24 33
REMARK SMILES IDX 85 34 25 35 84 36 26 37 27 38 28 39 78 40 29 41 83 42 77 43
REMARK SMILES IDX 79 44 30 45 82 46 76 47 75 48 31 50 63 51 43 52 62 53 44 54
REMARK SMILES IDX 47 55 61 56 80 57 45 58 46 59 60 61 81 62 48 63 32 64 33 65
REMARK SMILES IDX 41 66 34 67 35 68 39 69 42 70 36 71 37 72 40 73 38 74 64 75
REMARK SMILES IDX 65 76 73 77 66 78 67 79 71 80 74 81 68 82 69 83 72 84 70 85
REMARK SMILES IDX 49 86 50 87 58 88 51 89 52 90 56 91 59 92 53 93 54 94 57 95
REMARK SMILES IDX 55 96
REMARK H PARENT 79 49 47 60
REMARK Flexibility Score: inf
ROOT
ATOM      1  O   UNL A   1      32.158  29.819  24.983  1.00  0.00    -0.374 OA
ENDROOT
BRANCH   1   2
ATOM      2  C   UNL A   1      31.836  28.849  23.980  1.00  0.00     0.202 C 
BRANCH   2   3
ATOM      3  C   UNL A   1      32.962  28.699  22.955  1.00  0.00     0.261 C 
BRANCH   3   4
ATOM      4  O   UNL A   1      33.757  27.570  23.347  1.00  0.00    -0.459 OA
BRANCH   4   5
ATOM      5  C   UNL A   1      33.599  26.459  22.600  1.00  0.00     0.354 C 
ATOM      6  O   UNL A   1      33.612  26.353  21.394  1.00  0.00    -0.245 OA
BRANCH   5   7
ATOM      7  C   UNL A   1      33.536  25.298  23.558  1.00  0.00     0.148 C 
ATOM      8  N   UNL A   1      33.555  23.331  24.313  1.00  0.00    -0.254 N 
ATOM      9  N   UNL A   1      33.530  24.060  23.164  1.00  0.00    -0.169 NA
ATOM     10  C   UNL A   1      33.270  24.122  25.514  1.00  0.00     0.180 C 
ATOM     11  C   UNL A   1      33.658  25.525  25.034  1.00  0.00     0.101 C 
BRANCH   8  12
ATOM     12  C   UNL A   1      33.524  21.950  24.265  1.00  0.00     0.060 A 
ATOM     13  C   UNL A   1      33.416  19.153  24.163  1.00  0.00     0.067 A 
ATOM     14  C   UNL A   1      32.402  19.905  23.568  1.00  0.00     0.022 A 
ATOM     15  C   UNL A   1      34.492  19.780  24.794  1.00  0.00     0.022 A 
ATOM     16  C   UNL A   1      32.462  21.299  23.623  1.00  0.00     0.029 A 
ATOM     17  C   UNL A   1      34.532  21.176  24.852  1.00  0.00     0.029 A 
BRANCH  13  18
ATOM     18  S   UNL A   1      33.340  17.381  24.080  1.00  0.00     0.175 S 
ATOM     19  C   UNL A   1      34.915  16.867  24.714  1.00  0.00     0.163 C 
ATOM     20  O   UNL A   1      33.278  17.004  22.680  1.00  0.00    -0.224 OA
ATOM     21  O   UNL A   1      32.312  16.954  25.010  1.00  0.00    -0.224 OA
ENDBRANCH  13  18
ENDBRANCH   8  12
BRANCH  10  22
ATOM     22  C   UNL A   1      31.857  24.064  26.017  1.00  0.00     0.128 A 
ATOM     23  C   UNL A   1      30.817  24.972  25.992  1.00  0.00     0.048 A 
ATOM     24  O   UNL A   1      31.449  22.918  26.641  1.00  0.00    -0.467 OA
ATOM     25  C   UNL A   1      29.719  24.345  26.630  1.00  0.00     0.042 A 
ATOM     26  C   UNL A   1      30.155  23.097  27.004  1.00  0.00     0.195 A 
ENDBRANCH  10  22
ENDBRANCH   5   7
ENDBRANCH   4   5
ENDBRANCH   3   4
ENDBRANCH   2   3
ENDBRANCH   1   2
BRANCH   1  27
ATOM     27  C   UNL A   1      31.056  30.582  25.480  1.00  0.00     0.202 C 
BRANCH  27  28
ATOM     28  C   UNL A   1      31.493  31.628  26.506  1.00  0.00     0.261 C 
BRANCH  28  29
ATOM     29  O   UNL A   1      32.793  31.289  27.024  1.00  0.00    -0.460 OA
BRANCH  29  30
ATOM     30  C   UNL A   1      33.480  32.320  27.572  1.00  0.00     0.338 C 
ATOM     31  O   UNL A   1      33.061  33.443  27.794  1.00  0.00    -0.246 OA
BRANCH  30  32
ATOM     32  C   UNL A   1      34.843  31.883  27.965  1.00  0.00     0.060 A 
ATOM     33  C   UNL A   1      35.016  30.528  28.275  1.00  0.00     0.016 A 
ATOM     34  C   UNL A   1      35.927  32.766  28.067  1.00  0.00     0.016 A 
ATOM     35  C   UNL A   1      36.248  30.066  28.731  1.00  0.00     0.010 A 
ATOM     36  C   UNL A   1      37.165  32.301  28.528  1.00  0.00     0.010 A 
ATOM     37  C   UNL A   1      37.319  30.955  28.892  1.00  0.00    -0.014 A 
BRANCH  37  38
ATOM     38  C   UNL A   1      38.532  30.477  29.591  1.00  0.00     0.031 A 
ATOM     39  C   UNL A   1      38.768  30.913  31.009  1.00  0.00     0.074 A 
ATOM     40  C   UNL A   1      39.376  29.613  29.002  1.00  0.00     0.049 A 
ATOM     41  N   UNL A   1      39.642  30.473  31.877  1.00  0.00    -0.248 NA
ATOM     42  C   UNL A   1      37.897  31.986  31.517  1.00  0.00     0.031 C 
ATOM     43  C   UNL A   1      39.276  29.132  27.627  1.00  0.00     0.029 A 
ATOM     44  N   UNL A   1      40.483  28.977  29.506  1.00  0.00    -0.354 N 
ATOM     45  C   UNL A   1      39.406  31.190  33.040  1.00  0.00     0.074 A 
ATOM     46  C   UNL A   1      38.336  32.122  32.760  1.00  0.00     0.031 C 
ATOM     47  C   UNL A   1      40.282  28.270  27.394  1.00  0.00     0.029 A 
ATOM     48  C   UNL A   1      41.080  28.126  28.611  1.00  0.00     0.049 A 
ATOM     49  H   UNL A   1      40.816  29.118  30.421  1.00  0.00     0.167 HD
ATOM     50  C   UNL A   1      40.015  31.069  34.243  1.00  0.00     0.037 A 
ATOM     51  C   UNL A   1      42.135  27.305  28.769  1.00  0.00     0.037 A 
ATOM     52  C   UNL A   1      41.086  30.157  34.528  1.00  0.00     0.049 A 
ATOM     53  C   UNL A   1      42.797  27.188  30.114  1.00  0.00     0.074 A 
ATOM     54  C   UNL A   1      41.748  29.945  35.725  1.00  0.00     0.029 A 
ATOM     55  N   UNL A   1      41.662  29.312  33.594  1.00  0.00    -0.354 N 
ATOM     56  N   UNL A   1      42.507  27.802  31.234  1.00  0.00    -0.248 NA
ATOM     57  C   UNL A   1      43.920  26.244  30.220  1.00  0.00     0.031 C 
ATOM     58  C   UNL A   1      42.741  28.980  35.508  1.00  0.00     0.029 A 
ATOM     59  C   UNL A   1      42.684  28.587  34.181  1.00  0.00     0.049 A 
ATOM     60  H   UNL A   1      41.385  29.238  32.652  1.00  0.00     0.167 HD
ATOM     61  C   UNL A   1      43.392  27.306  32.181  1.00  0.00     0.074 A 
ATOM     62  C   UNL A   1      44.232  26.338  31.505  1.00  0.00     0.031 C 
ATOM     63  C   UNL A   1      43.498  27.622  33.493  1.00  0.00     0.037 A 
BRANCH  50  64
ATOM     64  C   UNL A   1      39.516  31.946  35.344  1.00  0.00     0.064 A 
ATOM     65  C   UNL A   1      39.989  33.259  35.487  1.00  0.00     0.173 A 
ATOM     66  C   UNL A   1      38.555  31.482  36.252  1.00  0.00     0.173 A 
ATOM     67  F   UNL A   1      40.921  33.735  34.649  1.00  0.00    -0.203 F 
ATOM     68  C   UNL A   1      39.521  34.076  36.512  1.00  0.00     0.198 A 
ATOM     69  C   UNL A   1      38.083  32.306  37.270  1.00  0.00     0.198 A 
ATOM     70  F   UNL A   1      38.085  30.230  36.155  1.00  0.00    -0.203 F 
ATOM     71  F   UNL A   1      40.001  35.319  36.647  1.00  0.00    -0.200 F 
ATOM     72  C   UNL A   1      38.567  33.599  37.400  1.00  0.00     0.200 A 
ATOM     73  F   UNL A   1      37.167  31.843  38.132  1.00  0.00    -0.200 F 
ATOM     74  F   UNL A   1      38.121  34.385  38.389  1.00  0.00    -0.200 F 
ENDBRANCH  50  64
BRANCH  51  75
ATOM     75  C   UNL A   1      42.610  26.492  27.626  1.00  0.00     0.064 A 
ATOM     76  C   UNL A   1      43.611  26.966  26.769  1.00  0.00     0.173 A 
ATOM     77  C   UNL A   1      42.060  25.230  27.365  1.00  0.00     0.173 A 
ATOM     78  F   UNL A   1      44.147  28.178  26.973  1.00  0.00    -0.203 F 
ATOM     79  C   UNL A   1      44.040  26.209  25.682  1.00  0.00     0.198 A 
ATOM     80  C   UNL A   1      42.496  24.470  26.283  1.00  0.00     0.198 A 
ATOM     81  F   UNL A   1      41.094  24.742  28.158  1.00  0.00    -0.203 F 
ATOM     82  F   UNL A   1      44.980  26.694  24.859  1.00  0.00    -0.200 F 
ATOM     83  C   UNL A   1      43.483  24.961  25.441  1.00  0.00     0.200 A 
ATOM     84  F   UNL A   1      41.957  23.265  26.052  1.00  0.00    -0.200 F 
ATOM     85  F   UNL A   1      43.892  24.236  24.391  1.00  0.00    -0.200 F 
ENDBRANCH  51  75
BRANCH  63  86
ATOM     86  C   UNL A   1      44.546  26.909  34.288  1.00  0.00     0.064 A 
ATOM     87  C   UNL A   1      44.270  25.687  34.917  1.00  0.00     0.173 A 
ATOM     88  C   UNL A   1      45.847  27.424  34.378  1.00  0.00     0.173 A 
ATOM     89  F   UNL A   1      43.035  25.166  34.865  1.00  0.00    -0.203 F 
ATOM     90  C   UNL A   1      45.261  25.008  35.619  1.00  0.00     0.198 A 
ATOM     91  C   UNL A   1      46.838  26.736  35.071  1.00  0.00     0.198 A 
ATOM     92  F   UNL A   1      46.153  28.590  33.791  1.00  0.00    -0.203 F 
ATOM     93  F   UNL A   1      44.973  23.851  36.231  1.00  0.00    -0.200 F 
ATOM     94  C   UNL A   1      46.544  25.530  35.692  1.00  0.00     0.200 A 
ATOM     95  F   UNL A   1      48.078  27.240  35.140  1.00  0.00    -0.200 F 
ATOM     96  F   UNL A   1      47.498  24.873  36.365  1.00  0.00    -0.200 F 
ENDBRANCH  63  86
ENDBRANCH  37  38
ENDBRANCH  30  32
ENDBRANCH  29  30
ENDBRANCH  28  29
ENDBRANCH  27  28
ENDBRANCH   1  27
TORSDOF 17
ENDMDL
MODEL 2
REMARK VINA RESULT:     -12.5      0.608      1.706
REMARK SMILES CS(=O)(=O)c1ccc(N2N=C(C(=O)OCCOCCOC(=O)c3ccc(-c4c5nc(c(-c6c(F)c(F)c(F)c(F)c6F)c6ccc([nH]6)c(-c6c(F)c(F)c(F)c(F)c6F)c6nc(c(-c7c(F)c(F)c(F)c(F)c7F)c7ccc4[nH]7)C=C6)C=C5)cc3)C[C@H]2c2ccco2)cc1
REMARK SMILES IDX 17 1 16 2 15 3 14 4 12 5 13 6 11 7 9 8 10 9 87 10 86 11 8 12
REMARK SMILES IDX 5 13 6 14 94 15 7 16 93 17 2 18 1 19 3 20 4 21 88 22 89 23
REMARK SMILES IDX 92 24 90 25 91 26 18 27 19 28 20 29 21 30 22 31 23 32 24 33
REMARK SMILES IDX 85 34 25 35 84 36 26 37 27 38 28 39 78 40 29 41 83 42 77 43
REMARK SMILES IDX 79 44 30 45 82 46 76 47 75 48 31 50 63 51 43 52 62 53 44 54
REMARK SMILES IDX 47 55 61 56 80 57 45 58 46 59 60 61 81 62 48 63 32 64 33 65
REMARK SMILES IDX 41 66 34 67 35 68 39 69 42 70 36 71 37 72 40 73 38 74 64 75
REMARK SMILES IDX 65 76 73 77 66 78 67 79 71 80 74 81 68 82 69 83 72 84 70 85
REMARK SMILES IDX 49 86 50 87 58 88 51 89 52 90 56 91 59 92 53 93 54 94 57 95
REMARK SMILES IDX 55 96
REMARK H PARENT 79 49 47 60
REMARK Flexibility Score: inf
ROOT
ATOM      1  O   UNL A   1      30.993  29.030  24.869  1.00  0.00    -0.374 OA
ENDROOT
BRANCH   1   2
ATOM      2  C   UNL A   1      30.851  28.952  23.447  1.00  0.00     0.202 C 
BRANCH   2   3
ATOM      3  C   UNL A   1      31.226  27.567  22.915  1.00  0.00     0.261 C 
BRANCH   3   4
ATOM      4  O   UNL A   1      32.650  27.428  23.033  1.00  0.00    -0.459 OA
BRANCH   4   5
ATOM      5  C   UNL A   1      33.188  26.372  22.390  1.00  0.00     0.354 C 
ATOM      6  O   UNL A   1      33.632  26.322  21.264  1.00  0.00    -0.245 OA
BRANCH   5   7
ATOM      7  C   UNL A   1      33.274  25.251  23.392  1.00  0.00     0.148 C 
ATOM      8  N   UNL A   1      33.492  23.325  24.217  1.00  0.00    -0.254 N 
ATOM      9  N   UNL A   1      33.342  24.001  23.046  1.00  0.00    -0.169 NA
ATOM     10  C   UNL A   1      33.217  24.141  25.403  1.00  0.00     0.180 C 
ATOM     11  C   UNL A   1      33.465  25.549  24.848  1.00  0.00     0.101 C 
BRANCH   8  12
ATOM     12  C   UNL A   1      33.566  21.945  24.222  1.00  0.00     0.060 A 
ATOM     13  C   UNL A   1      33.673  19.146  24.226  1.00  0.00     0.067 A 
ATOM     14  C   UNL A   1      32.654  19.797  23.527  1.00  0.00     0.022 A 
ATOM     15  C   UNL A   1      34.647  19.875  24.910  1.00  0.00     0.022 A 
ATOM     16  C   UNL A   1      32.607  21.192  23.531  1.00  0.00     0.029 A 
ATOM     17  C   UNL A   1      34.580  21.271  24.914  1.00  0.00     0.029 A 
BRANCH  13  18
ATOM     18  S   UNL A   1      33.734  17.371  24.209  1.00  0.00     0.175 S 
ATOM     19  C   UNL A   1      32.576  16.904  25.469  1.00  0.00     0.163 C 
ATOM     20  O   UNL A   1      35.057  16.968  24.645  1.00  0.00    -0.224 OA
ATOM     21  O   UNL A   1      33.211  16.940  22.926  1.00  0.00    -0.224 OA
ENDBRANCH  13  18
ENDBRANCH   8  12
BRANCH  10  22
ATOM     22  C   UNL A   1      31.846  23.998  25.995  1.00  0.00     0.128 A 
ATOM     23  C   UNL A   1      31.221  22.969  26.673  1.00  0.00     0.048 A 
ATOM     24  O   UNL A   1      30.984  25.053  25.871  1.00  0.00    -0.467 OA
ATOM     25  C   UNL A   1      29.915  23.424  26.982  1.00  0.00     0.042 A 
ATOM     26  C   UNL A   1      29.823  24.697  26.473  1.00  0.00     0.195 A 
ENDBRANCH  10  22
ENDBRANCH   5   7
ENDBRANCH   4   5
ENDBRANCH   3   4
ENDBRANCH   2   3
ENDBRANCH   1   2
BRANCH   1  27
ATOM     27  C   UNL A   1      32.168  29.699  25.336  1.00  0.00     0.202 C 
BRANCH  27  28
ATOM     28  C   UNL A   1      31.836  30.880  26.249  1.00  0.00     0.261 C 
BRANCH  28  29
ATOM     29  O   UNL A   1      32.670  30.840  27.421  1.00  0.00    -0.460 OA
BRANCH  29  30
ATOM     30  C   UNL A   1      33.431  31.943  27.623  1.00  0.00     0.338 C 
ATOM     31  O   UNL A   1      33.064  33.104  27.573  1.00  0.00    -0.246 OA
BRANCH  30  32
ATOM     32  C   UNL A   1      34.811  31.557  28.010  1.00  0.00     0.060 A 
ATOM     33  C   UNL A   1      35.049  30.200  28.258  1.00  0.00     0.016 A 
ATOM     34  C   UNL A   1      35.848  32.487  28.166  1.00  0.00     0.016 A 
ATOM     35  C   UNL A   1      36.299  29.778  28.705  1.00  0.00     0.010 A 
ATOM     36  C   UNL A   1      37.104  32.064  28.618  1.00  0.00     0.010 A 
ATOM     37  C   UNL A   1      37.322  30.711  28.920  1.00  0.00    -0.014 A 
BRANCH  37  38
ATOM     38  C   UNL A   1      38.552  30.262  29.609  1.00  0.00     0.031 A 
ATOM     39  C   UNL A   1      38.795  30.714  31.021  1.00  0.00     0.074 A 
ATOM     40  C   UNL A   1      39.406  29.410  29.018  1.00  0.00     0.049 A 
ATOM     41  N   UNL A   1      39.687  30.297  31.883  1.00  0.00    -0.248 NA
ATOM     42  C   UNL A   1      37.909  31.774  31.531  1.00  0.00     0.031 C 
ATOM     43  C   UNL A   1      39.300  28.916  27.648  1.00  0.00     0.029 A 
ATOM     44  N   UNL A   1      40.530  28.799  29.514  1.00  0.00    -0.354 N 
ATOM     45  C   UNL A   1      39.449  31.018  33.043  1.00  0.00     0.074 A 
ATOM     46  C   UNL A   1      38.358  31.928  32.768  1.00  0.00     0.031 C 
ATOM     47  C   UNL A   1      40.319  28.071  27.410  1.00  0.00     0.029 A 
ATOM     48  C   UNL A   1      41.134  27.952  28.620  1.00  0.00     0.049 A 
ATOM     49  H   UNL A   1      40.871  28.953  30.424  1.00  0.00     0.167 HD
ATOM     50  C   UNL A   1      40.073  30.919  34.240  1.00  0.00     0.037 A 
ATOM     51  C   UNL A   1      42.205  27.153  28.772  1.00  0.00     0.037 A 
ATOM     52  C   UNL A   1      41.164  30.030  34.520  1.00  0.00     0.049 A 
ATOM     53  C   UNL A   1      42.884  27.059  30.111  1.00  0.00     0.074 A 
ATOM     54  C   UNL A   1      41.844  29.840  35.711  1.00  0.00     0.029 A 
ATOM     55  N   UNL A   1      41.746  29.189  33.586  1.00  0.00    -0.354 N 
ATOM     56  N   UNL A   1      42.595  27.676  31.229  1.00  0.00    -0.248 NA
ATOM     57  C   UNL A   1      44.026  26.137  30.211  1.00  0.00     0.031 C 
ATOM     58  C   UNL A   1      42.852  28.893  35.491  1.00  0.00     0.029 A 
ATOM     59  C   UNL A   1      42.788  28.488  34.168  1.00  0.00     0.049 A 
ATOM     60  H   UNL A   1      41.461  29.101  32.648  1.00  0.00     0.167 HD
ATOM     61  C   UNL A   1      43.499  27.204  32.170  1.00  0.00     0.074 A 
ATOM     62  C   UNL A   1      44.350  26.247  31.493  1.00  0.00     0.031 C 
ATOM     63  C   UNL A   1      43.614  27.533  33.478  1.00  0.00     0.037 A 
BRANCH  50  64
ATOM     64  C   UNL A   1      39.570  31.795  35.340  1.00  0.00     0.064 A 
ATOM     65  C   UNL A   1      40.023  33.116  35.471  1.00  0.00     0.173 A 
ATOM     66  C   UNL A   1      38.624  31.322  36.258  1.00  0.00     0.173 A 
ATOM     67  F   UNL A   1      40.941  33.602  34.622  1.00  0.00    -0.203 F 
ATOM     68  C   UNL A   1      39.551  33.932  36.494  1.00  0.00     0.198 A 
ATOM     69  C   UNL A   1      38.147  32.145  37.275  1.00  0.00     0.198 A 
ATOM     70  F   UNL A   1      38.172  30.063  36.173  1.00  0.00    -0.203 F 
ATOM     71  F   UNL A   1      40.012  35.184  36.618  1.00  0.00    -0.200 F 
ATOM     72  C   UNL A   1      38.612  33.447  37.393  1.00  0.00     0.200 A 
ATOM     73  F   UNL A   1      37.245  31.674  38.147  1.00  0.00    -0.200 F 
ATOM     74  F   UNL A   1      38.162  34.231  38.381  1.00  0.00    -0.200 F 
ENDBRANCH  50  64
BRANCH  51  75
ATOM     75  C   UNL A   1      42.683  26.340  27.631  1.00  0.00     0.064 A 
ATOM     76  C   UNL A   1      42.159  25.066  27.382  1.00  0.00     0.173 A 
ATOM     77  C   UNL A   1      43.684  26.821  26.775  1.00  0.00     0.173 A 
ATOM     78  F   UNL A   1      41.216  24.560  28.190  1.00  0.00    -0.203 F 
ATOM     79  C   UNL A   1      42.627  24.293  26.321  1.00  0.00     0.198 A 
ATOM     80  C   UNL A   1      44.144  26.053  25.710  1.00  0.00     0.198 A 
ATOM     81  F   UNL A   1      44.216  28.035  26.982  1.00  0.00    -0.203 F 
ATOM     82  F   UNL A   1      42.131  23.065  26.118  1.00  0.00    -0.200 F 
ATOM     83  C   UNL A   1      43.618  24.789  25.485  1.00  0.00     0.200 A 
ATOM     84  F   UNL A   1      45.100  26.533  24.903  1.00  0.00    -0.200 F 
ATOM     85  F   UNL A   1      44.071  24.044  24.468  1.00  0.00    -0.200 F 
ENDBRANCH  51  75
BRANCH  63  86
ATOM     86  C   UNL A   1      44.683  26.846  34.267  1.00  0.00     0.064 A 
ATOM     87  C   UNL A   1      45.941  27.437  34.448  1.00  0.00     0.173 A 
ATOM     88  C   UNL A   1      44.432  25.615  34.888  1.00  0.00     0.173 A 
ATOM     89  F   UNL A   1      46.227  28.609  33.861  1.00  0.00    -0.203 F 
ATOM     90  C   UNL A   1      46.917  26.812  35.218  1.00  0.00     0.198 A 
ATOM     91  C   UNL A   1      45.406  24.998  35.667  1.00  0.00     0.198 A 
ATOM     92  F   UNL A   1      43.242  25.015  34.740  1.00  0.00    -0.203 F 
ATOM     93  F   UNL A   1      48.121  27.382  35.364  1.00  0.00    -0.200 F 
ATOM     94  C   UNL A   1      46.647  25.596  35.830  1.00  0.00     0.200 A 
ATOM     95  F   UNL A   1      45.145  23.824  36.258  1.00  0.00    -0.200 F 
ATOM     96  F   UNL A   1      47.587  24.997  36.575  1.00  0.00    -0.200 F 
ENDBRANCH  63  86
ENDBRANCH  37  38
ENDBRANCH  30  32
ENDBRANCH  29  30
ENDBRANCH  28  29
ENDBRANCH  27  28
ENDBRANCH   1  27
TORSDOF 17
ENDMDL
MODEL 3
REMARK VINA RESULT:     -12.4      1.052      2.203
REMARK SMILES CS(=O)(=O)c1ccc(N2N=C(C(=O)OCCOCCOC(=O)c3ccc(-c4c5nc(c(-c6c(F)c(F)c(F)c(F)c6F)c6ccc([nH]6)c(-c6c(F)c(F)c(F)c(F)c6F)c6nc(c(-c7c(F)c(F)c(F)c(F)c7F)c7ccc4[nH]7)C=C6)C=C5)cc3)C[C@H]2c2ccco2)cc1
REMARK SMILES IDX 17 1 16 2 15 3 14 4 12 5 13 6 11 7 9 8 10 9 87 10 86 11 8 12
REMARK SMILES IDX 5 13 6 14 94 15 7 16 93 17 2 18 1 19 3 20 4 21 88 22 89 23
REMARK SMILES IDX 92 24 90 25 91 26 18 27 19 28 20 29 21 30 22 31 23 32 24 33
REMARK SMILES IDX 85 34 25 35 84 36 26 37 27 38 28 39 78 40 29 41 83 42 77 43
REMARK SMILES IDX 79 44 30 45 82 46 76 47 75 48 31 50 63 51 43 52 62 53 44 54
REMARK SMILES IDX 47 55 61 56 80 57 45 58 46 59 60 61 81 62 48 63 32 64 33 65
REMARK SMILES IDX 41 66 34 67 35 68 39 69 42 70 36 71 37 72 40 73 38 74 64 75
REMARK SMILES IDX 65 76 73 77 66 78 67 79 71 80 74 81 68 82 69 83 72 84 70 85
REMARK SMILES IDX 49 86 50 87 58 88 51 89 52 90 56 91 59 92 53 93 54 94 57 95
REMARK SMILES IDX 55 96
REMARK H PARENT 79 49 47 60
REMARK Flexibility Score: inf
ROOT
ATOM      1  O   UNL A   1      31.473  29.028  24.990  1.00  0.00    -0.374 OA
ENDROOT
BRANCH   1   2
ATOM      2  C   UNL A   1      31.880  27.685  25.272  1.00  0.00     0.202 C 
BRANCH   2   3
ATOM      3  C   UNL A   1      30.846  26.948  26.127  1.00  0.00     0.261 C 
BRANCH   3   4
ATOM      4  O   UNL A   1      30.363  25.835  25.360  1.00  0.00    -0.459 OA
BRANCH   4   5
ATOM      5  C   UNL A   1      30.385  24.642  25.986  1.00  0.00     0.354 C 
ATOM      6  O   UNL A   1      29.743  24.285  26.949  1.00  0.00    -0.245 OA
BRANCH   5   7
ATOM      7  C   UNL A   1      31.278  23.741  25.174  1.00  0.00     0.148 C 
ATOM      8  N   UNL A   1      32.195  22.007  24.408  1.00  0.00    -0.254 N 
ATOM      9  N   UNL A   1      31.371  22.463  25.389  1.00  0.00    -0.169 NA
ATOM     10  C   UNL A   1      32.905  23.073  23.695  1.00  0.00     0.180 C 
ATOM     11  C   UNL A   1      31.970  24.262  23.952  1.00  0.00     0.101 C 
BRANCH   8  12
ATOM     12  C   UNL A   1      32.543  20.670  24.353  1.00  0.00     0.060 A 
ATOM     13  C   UNL A   1      33.282  17.969  24.271  1.00  0.00     0.067 A 
ATOM     14  C   UNL A   1      33.605  18.740  25.390  1.00  0.00     0.022 A 
ATOM     15  C   UNL A   1      32.582  18.526  23.200  1.00  0.00     0.022 A 
ATOM     16  C   UNL A   1      33.234  20.085  25.424  1.00  0.00     0.029 A 
ATOM     17  C   UNL A   1      32.228  19.878  23.243  1.00  0.00     0.029 A 
BRANCH  13  18
ATOM     18  S   UNL A   1      33.747  16.256  24.240  1.00  0.00     0.175 S 
ATOM     19  C   UNL A   1      35.186  16.197  25.275  1.00  0.00     0.163 C 
ATOM     20  O   UNL A   1      34.156  15.931  22.886  1.00  0.00    -0.224 OA
ATOM     21  O   UNL A   1      32.685  15.514  24.893  1.00  0.00    -0.224 OA
ENDBRANCH  13  18
ENDBRANCH   8  12
BRANCH  10  22
ATOM     22  C   UNL A   1      34.308  23.346  24.152  1.00  0.00     0.128 A 
ATOM     23  C   UNL A   1      34.825  24.050  25.222  1.00  0.00     0.048 A 
ATOM     24  O   UNL A   1      35.333  22.833  23.404  1.00  0.00    -0.467 OA
ATOM     25  C   UNL A   1      36.235  23.956  25.123  1.00  0.00     0.042 A 
ATOM     26  C   UNL A   1      36.492  23.204  24.002  1.00  0.00     0.195 A 
ENDBRANCH  10  22
ENDBRANCH   5   7
ENDBRANCH   4   5
ENDBRANCH   3   4
ENDBRANCH   2   3
ENDBRANCH   1   2
BRANCH   1  27
ATOM     27  C   UNL A   1      32.404  30.047  25.367  1.00  0.00     0.202 C 
BRANCH  27  28
ATOM     28  C   UNL A   1      31.826  30.998  26.414  1.00  0.00     0.261 C 
BRANCH  28  29
ATOM     29  O   UNL A   1      32.670  31.012  27.580  1.00  0.00    -0.460 OA
BRANCH  29  30
ATOM     30  C   UNL A   1      33.483  32.090  27.689  1.00  0.00     0.338 C 
ATOM     31  O   UNL A   1      33.164  33.261  27.578  1.00  0.00    -0.246 OA
BRANCH  30  32
ATOM     32  C   UNL A   1      34.858  31.668  28.058  1.00  0.00     0.060 A 
ATOM     33  C   UNL A   1      35.040  30.327  28.419  1.00  0.00     0.016 A 
ATOM     34  C   UNL A   1      35.944  32.552  28.091  1.00  0.00     0.016 A 
ATOM     35  C   UNL A   1      36.285  29.882  28.855  1.00  0.00     0.010 A 
ATOM     36  C   UNL A   1      37.196  32.105  28.532  1.00  0.00     0.010 A 
ATOM     37  C   UNL A   1      37.360  30.776  28.947  1.00  0.00    -0.014 A 
BRANCH  37  38
ATOM     38  C   UNL A   1      38.594  30.325  29.628  1.00  0.00     0.031 A 
ATOM     39  C   UNL A   1      38.849  30.779  31.037  1.00  0.00     0.074 A 
ATOM     40  C   UNL A   1      39.442  29.470  29.032  1.00  0.00     0.049 A 
ATOM     41  N   UNL A   1      39.746  30.362  31.893  1.00  0.00    -0.248 NA
ATOM     42  C   UNL A   1      37.969  31.841  31.552  1.00  0.00     0.031 C 
ATOM     43  C   UNL A   1      39.325  28.974  27.663  1.00  0.00     0.029 A 
ATOM     44  N   UNL A   1      40.568  28.858  29.521  1.00  0.00    -0.354 N 
ATOM     45  C   UNL A   1      39.519  31.085  33.054  1.00  0.00     0.074 A 
ATOM     46  C   UNL A   1      38.427  31.997  32.785  1.00  0.00     0.031 C 
ATOM     47  C   UNL A   1      40.341  28.127  27.420  1.00  0.00     0.029 A 
ATOM     48  C   UNL A   1      41.164  28.008  28.623  1.00  0.00     0.049 A 
ATOM     49  H   UNL A   1      40.916  29.013  30.428  1.00  0.00     0.167 HD
ATOM     50  C   UNL A   1      40.151  30.986  34.246  1.00  0.00     0.037 A 
ATOM     51  C   UNL A   1      42.235  27.207  28.769  1.00  0.00     0.037 A 
ATOM     52  C   UNL A   1      41.243  30.096  34.520  1.00  0.00     0.049 A 
ATOM     53  C   UNL A   1      42.924  27.115  30.103  1.00  0.00     0.074 A 
ATOM     54  C   UNL A   1      41.930  29.907  35.706  1.00  0.00     0.029 A 
ATOM     55  N   UNL A   1      41.816  29.252  33.583  1.00  0.00    -0.354 N 
ATOM     56  N   UNL A   1      42.644  27.734  31.222  1.00  0.00    -0.248 NA
ATOM     57  C   UNL A   1      44.064  26.191  30.196  1.00  0.00     0.031 C 
ATOM     58  C   UNL A   1      42.935  28.957  35.480  1.00  0.00     0.029 A 
ATOM     59  C   UNL A   1      42.861  28.550  34.158  1.00  0.00     0.049 A 
ATOM     60  H   UNL A   1      41.524  29.164  32.647  1.00  0.00     0.167 HD
ATOM     61  C   UNL A   1      43.555  27.262  32.157  1.00  0.00     0.074 A 
ATOM     62  C   UNL A   1      44.398  26.302  31.475  1.00  0.00     0.031 C 
ATOM     63  C   UNL A   1      43.679  27.593  33.464  1.00  0.00     0.037 A 
BRANCH  50  64
ATOM     64  C   UNL A   1      39.658  31.866  35.348  1.00  0.00     0.064 A 
ATOM     65  C   UNL A   1      38.672  31.418  36.239  1.00  0.00     0.173 A 
ATOM     66  C   UNL A   1      40.178  33.155  35.523  1.00  0.00     0.173 A 
ATOM     67  F   UNL A   1      38.137  30.197  36.095  1.00  0.00    -0.203 F 
ATOM     68  C   UNL A   1      38.217  32.238  37.267  1.00  0.00     0.198 A 
ATOM     69  C   UNL A   1      39.725  33.969  36.558  1.00  0.00     0.198 A 
ATOM     70  F   UNL A   1      41.115  33.625  34.687  1.00  0.00    -0.203 F 
ATOM     71  F   UNL A   1      37.258  31.802  38.095  1.00  0.00    -0.200 F 
ATOM     72  C   UNL A   1      38.746  33.511  37.427  1.00  0.00     0.200 A 
ATOM     73  F   UNL A   1      40.231  35.201  36.709  1.00  0.00    -0.200 F 
ATOM     74  F   UNL A   1      38.302  34.302  38.413  1.00  0.00    -0.200 F 
ENDBRANCH  50  64
BRANCH  51  75
ATOM     75  C   UNL A   1      42.703  26.391  27.625  1.00  0.00     0.064 A 
ATOM     76  C   UNL A   1      43.704  26.860  26.766  1.00  0.00     0.173 A 
ATOM     77  C   UNL A   1      42.146  25.132  27.366  1.00  0.00     0.173 A 
ATOM     78  F   UNL A   1      44.247  28.070  26.968  1.00  0.00    -0.203 F 
ATOM     79  C   UNL A   1      44.126  26.101  25.677  1.00  0.00     0.198 A 
ATOM     80  C   UNL A   1      42.575  24.369  26.283  1.00  0.00     0.198 A 
ATOM     81  F   UNL A   1      41.180  24.649  28.162  1.00  0.00    -0.203 F 
ATOM     82  F   UNL A   1      45.066  26.580  24.852  1.00  0.00    -0.200 F 
ATOM     83  C   UNL A   1      43.563  24.856  25.438  1.00  0.00     0.200 A 
ATOM     84  F   UNL A   1      42.030  23.167  26.054  1.00  0.00    -0.200 F 
ATOM     85  F   UNL A   1      43.965  24.127  24.388  1.00  0.00    -0.200 F 
ENDBRANCH  51  75
BRANCH  63  86
ATOM     86  C   UNL A   1      44.753  26.905  34.246  1.00  0.00     0.064 A 
ATOM     87  C   UNL A   1      44.523  25.663  34.853  1.00  0.00     0.173 A 
ATOM     88  C   UNL A   1      46.034  27.467  34.345  1.00  0.00     0.173 A 
ATOM     89  F   UNL A   1      43.308  25.097  34.792  1.00  0.00    -0.203 F 
ATOM     90  C   UNL A   1      45.539  25.009  35.543  1.00  0.00     0.198 A 
ATOM     91  C   UNL A   1      47.051  26.804  35.026  1.00  0.00     0.198 A 
ATOM     92  F   UNL A   1      46.296  28.653  33.779  1.00  0.00    -0.203 F 
ATOM     93  F   UNL A   1      45.296  23.831  36.134  1.00  0.00    -0.200 F 
ATOM     94  C   UNL A   1      46.803  25.577  35.625  1.00  0.00     0.200 A 
ATOM     95  F   UNL A   1      48.271  27.353  35.104  1.00  0.00    -0.200 F 
ATOM     96  F   UNL A   1      47.781  24.944  36.286  1.00  0.00    -0.200 F 
ENDBRANCH  63  86
ENDBRANCH  37  38
ENDBRANCH  30  32
ENDBRANCH  29  30
ENDBRANCH  28  29
ENDBRANCH  27  28
ENDBRANCH   1  27
TORSDOF 17
ENDMDL
