MODEL 1
REMARK VINA RESULT:     -10.9      0.000      0.000
REMARK SMILES CC[C@H](CNC(=O)[C@H]1CSc2ccccc21)C(=O)OCCOCCOC(=O)c1ccc(-c2c3nc(c(-c4c(F)c(F)c(F)c(F)c4F)c4ccc([nH]4)c(-c4c(F)c(F)c(F)c(F)c4F)c4nc(c(-c5c(F)c(F)c(F)c(F)c5F)c5ccc2[nH]5)C=C4)C=C3)cc1
REMARK SMILES IDX 21 1 20 2 19 3 17 4 18 5 3 6 2 7 1 8 4 9 5 10 6 11 7 13 8 14
REMARK SMILES IDX 9 15 16 16 10 17 11 18 15 19 12 20 14 21 13 22 22 23 23 24
REMARK SMILES IDX 24 25 25 26 26 27 27 28 28 29 29 30 90 31 30 32 89 33 31 34
REMARK SMILES IDX 32 35 33 36 83 37 34 38 88 39 82 40 84 41 35 42 87 43 81 44
REMARK SMILES IDX 80 45 36 47 68 48 48 49 67 50 49 51 52 52 66 53 85 54 50 55
REMARK SMILES IDX 51 56 65 58 86 59 53 60 37 61 38 62 46 63 39 64 40 65 44 66
REMARK SMILES IDX 47 67 41 68 42 69 45 70 43 71 69 72 70 73 78 74 71 75 72 76
REMARK SMILES IDX 76 77 79 78 73 79 74 80 77 81 75 82 54 83 55 84 63 85 56 86
REMARK SMILES IDX 57 87 61 88 64 89 58 90 59 91 62 92 60 93
REMARK H PARENT 5 12 84 46 52 57
REMARK Flexibility Score: inf
ROOT
ATOM      1  C   UNL A   1      31.929  27.165  23.701  1.00  0.00     0.202 C 
ENDROOT
BRANCH   1   2
ATOM      2  C   UNL A   1      33.355  26.882  24.201  1.00  0.00     0.261 C 
BRANCH   2   3
ATOM      3  O   UNL A   1      33.471  26.358  25.534  1.00  0.00    -0.463 OA
BRANCH   3   4
ATOM      4  C   UNL A   1      33.999  25.103  25.626  1.00  0.00     0.310 C 
ATOM      5  O   UNL A   1      35.136  24.801  25.284  1.00  0.00    -0.252 OA
BRANCH   4   6
ATOM      6  C   UNL A   1      32.988  24.059  26.079  1.00  0.00     0.118 C 
BRANCH   6   7
ATOM      7  C   UNL A   1      31.803  24.880  26.645  1.00  0.00     0.014 C 
ATOM      8  C   UNL A   1      30.434  24.602  26.050  1.00  0.00     0.005 C 
ENDBRANCH   6   7
BRANCH   6   9
ATOM      9  C   UNL A   1      33.572  23.000  27.033  1.00  0.00     0.131 C 
BRANCH   9  10
ATOM     10  N   UNL A   1      34.478  22.034  26.402  1.00  0.00    -0.355 N 
ATOM     11  C   UNL A   1      34.248  20.993  25.545  1.00  0.00     0.228 C 
ATOM     12  H   UNL A   1      35.425  22.156  26.640  1.00  0.00     0.163 HD
ATOM     13  O   UNL A   1      35.258  20.396  25.146  1.00  0.00    -0.274 OA
BRANCH  11  14
ATOM     14  C   UNL A   1      32.872  20.449  25.128  1.00  0.00     0.120 C 
ATOM     15  C   UNL A   1      32.448  21.194  23.850  1.00  0.00     0.093 C 
ATOM     16  C   UNL A   1      32.773  18.969  24.885  1.00  0.00    -0.021 A 
ATOM     17  S   UNL A   1      32.215  19.975  22.536  1.00  0.00    -0.125 SA
ATOM     18  C   UNL A   1      32.704  18.620  23.545  1.00  0.00     0.011 A 
ATOM     19  C   UNL A   1      32.893  17.978  25.858  1.00  0.00     0.006 A 
ATOM     20  C   UNL A   1      33.042  17.335  23.146  1.00  0.00     0.015 A 
ATOM     21  C   UNL A   1      33.143  16.663  25.458  1.00  0.00     0.000 A 
ATOM     22  C   UNL A   1      33.285  16.356  24.105  1.00  0.00     0.001 A 
ENDBRANCH  11  14
ENDBRANCH   9  10
ENDBRANCH   6   9
ENDBRANCH   4   6
ENDBRANCH   3   4
ENDBRANCH   2   3
ENDBRANCH   1   2
BRANCH   1  23
ATOM     23  O   UNL A   1      31.064  27.958  24.500  1.00  0.00    -0.374 OA
BRANCH  23  24
ATOM     24  C   UNL A   1      31.278  29.360  24.532  1.00  0.00     0.202 C 
BRANCH  24  25
ATOM     25  C   UNL A   1      31.643  30.022  25.864  1.00  0.00     0.261 C 
BRANCH  25  26
ATOM     26  O   UNL A   1      33.017  30.435  25.991  1.00  0.00    -0.460 OA
BRANCH  26  27
ATOM     27  C   UNL A   1      33.257  31.381  26.944  1.00  0.00     0.338 C 
ATOM     28  O   UNL A   1      32.616  32.383  27.179  1.00  0.00    -0.246 OA
BRANCH  27  29
ATOM     29  C   UNL A   1      34.479  31.015  27.691  1.00  0.00     0.060 A 
ATOM     30  C   UNL A   1      35.323  32.023  28.143  1.00  0.00     0.016 A 
ATOM     31  C   UNL A   1      34.779  29.684  27.979  1.00  0.00     0.016 A 
ATOM     32  C   UNL A   1      36.547  31.704  28.730  1.00  0.00     0.010 A 
ATOM     33  C   UNL A   1      35.945  29.375  28.700  1.00  0.00     0.010 A 
ATOM     34  C   UNL A   1      36.860  30.380  29.066  1.00  0.00    -0.014 A 
BRANCH  34  35
ATOM     35  C   UNL A   1      38.099  30.077  29.847  1.00  0.00     0.031 A 
ATOM     36  C   UNL A   1      39.196  29.212  29.279  1.00  0.00     0.074 A 
ATOM     37  C   UNL A   1      38.248  30.592  31.088  1.00  0.00     0.049 A 
ATOM     38  N   UNL A   1      40.271  28.742  29.867  1.00  0.00    -0.248 NA
ATOM     39  C   UNL A   1      39.068  28.813  27.870  1.00  0.00     0.031 C 
ATOM     40  C   UNL A   1      37.289  31.473  31.759  1.00  0.00     0.029 A 
ATOM     41  N   UNL A   1      39.264  30.464  32.006  1.00  0.00    -0.354 N 
ATOM     42  C   UNL A   1      40.922  27.966  28.915  1.00  0.00     0.074 A 
ATOM     43  C   UNL A   1      40.113  28.010  27.716  1.00  0.00     0.031 C 
ATOM     44  C   UNL A   1      37.786  31.854  32.942  1.00  0.00     0.029 A 
ATOM     45  C   UNL A   1      39.045  31.158  33.172  1.00  0.00     0.049 A 
ATOM     46  H   UNL A   1      40.072  29.925  31.843  1.00  0.00     0.167 HD
ATOM     47  C   UNL A   1      42.091  27.288  29.031  1.00  0.00     0.037 A 
ATOM     48  C   UNL A   1      39.743  31.204  34.323  1.00  0.00     0.037 A 
ATOM     49  C   UNL A   1      42.911  27.274  30.218  1.00  0.00     0.049 A 
ATOM     50  C   UNL A   1      40.993  30.383  34.451  1.00  0.00     0.074 A 
ATOM     51  C   UNL A   1      44.116  26.623  30.424  1.00  0.00     0.029 A 
ATOM     52  N   UNL A   1      42.615  27.944  31.396  1.00  0.00    -0.354 N 
ATOM     53  N   UNL A   1      41.581  29.630  33.553  1.00  0.00    -0.248 NA
ATOM     54  C   UNL A   1      41.668  30.404  35.755  1.00  0.00     0.031 C 
ATOM     55  C   UNL A   1      44.521  26.855  31.742  1.00  0.00     0.029 A 
ATOM     56  C   UNL A   1      43.602  27.700  32.340  1.00  0.00     0.049 A 
ATOM     57  H   UNL A   1      41.823  28.510  31.541  1.00  0.00     0.167 HD
ATOM     58  C   UNL A   1      42.700  29.098  34.178  1.00  0.00     0.074 A 
ATOM     59  C   UNL A   1      42.723  29.633  35.524  1.00  0.00     0.031 C 
ATOM     60  C   UNL A   1      43.619  28.238  33.678  1.00  0.00     0.037 A 
BRANCH  47  61
ATOM     61  C   UNL A   1      42.558  26.482  27.850  1.00  0.00     0.064 A 
ATOM     62  C   UNL A   1      42.066  25.194  27.590  1.00  0.00     0.173 A 
ATOM     63  C   UNL A   1      43.464  27.033  26.929  1.00  0.00     0.173 A 
ATOM     64  F   UNL A   1      41.206  24.615  28.441  1.00  0.00    -0.203 F 
ATOM     65  C   UNL A   1      42.480  24.482  26.466  1.00  0.00     0.198 A 
ATOM     66  C   UNL A   1      43.850  26.330  25.789  1.00  0.00     0.198 A 
ATOM     67  F   UNL A   1      43.960  28.265  27.122  1.00  0.00    -0.203 F 
ATOM     68  F   UNL A   1      42.029  23.235  26.262  1.00  0.00    -0.200 F 
ATOM     69  C   UNL A   1      43.364  25.053  25.563  1.00  0.00     0.200 A 
ATOM     70  F   UNL A   1      44.691  26.892  24.909  1.00  0.00    -0.200 F 
ATOM     71  F   UNL A   1      43.749  24.370  24.476  1.00  0.00    -0.200 F 
ENDBRANCH  47  61
BRANCH  48  72
ATOM     72  C   UNL A   1      39.253  32.046  35.447  1.00  0.00     0.064 A 
ATOM     73  C   UNL A   1      38.433  31.505  36.445  1.00  0.00     0.173 A 
ATOM     74  C   UNL A   1      39.626  33.395  35.569  1.00  0.00     0.173 A 
ATOM     75  F   UNL A   1      38.029  30.230  36.360  1.00  0.00    -0.203 F 
ATOM     76  C   UNL A   1      38.006  32.278  37.523  1.00  0.00     0.198 A 
ATOM     77  C   UNL A   1      39.227  34.157  36.666  1.00  0.00     0.198 A 
ATOM     78  F   UNL A   1      40.409  33.963  34.641  1.00  0.00    -0.203 F 
ATOM     79  F   UNL A   1      37.196  31.743  38.448  1.00  0.00    -0.200 F 
ATOM     80  C   UNL A   1      38.413  33.599  37.639  1.00  0.00     0.200 A 
ATOM     81  F   UNL A   1      39.640  35.425  36.784  1.00  0.00    -0.200 F 
ATOM     82  F   UNL A   1      38.021  34.333  38.689  1.00  0.00    -0.200 F 
ENDBRANCH  48  72
BRANCH  60  83
ATOM     83  C   UNL A   1      44.748  27.830  34.579  1.00  0.00     0.064 A 
ATOM     84  C   UNL A   1      44.678  26.671  35.365  1.00  0.00     0.173 A 
ATOM     85  C   UNL A   1      45.942  28.570  34.605  1.00  0.00     0.173 A 
ATOM     86  F   UNL A   1      43.555  25.938  35.388  1.00  0.00    -0.203 F 
ATOM     87  C   UNL A   1      45.755  26.274  36.153  1.00  0.00     0.198 A 
ATOM     88  C   UNL A   1      47.027  28.154  35.370  1.00  0.00     0.198 A 
ATOM     89  F   UNL A   1      46.062  29.684  33.868  1.00  0.00    -0.203 F 
ATOM     90  F   UNL A   1      45.653  25.183  36.925  1.00  0.00    -0.200 F 
ATOM     91  C   UNL A   1      46.932  27.009  36.146  1.00  0.00     0.200 A 
ATOM     92  F   UNL A   1      48.168  28.855  35.348  1.00  0.00    -0.200 F 
ATOM     93  F   UNL A   1      47.974  26.614  36.890  1.00  0.00    -0.200 F 
ENDBRANCH  60  83
ENDBRANCH  34  35
ENDBRANCH  27  29
ENDBRANCH  26  27
ENDBRANCH  25  26
ENDBRANCH  24  25
ENDBRANCH  23  24
ENDBRANCH   1  23
TORSDOF 18
ENDMDL
MODEL 2
REMARK VINA RESULT:     -10.8      1.585      2.913
REMARK SMILES CC[C@H](CNC(=O)[C@H]1CSc2ccccc21)C(=O)OCCOCCOC(=O)c1ccc(-c2c3nc(c(-c4c(F)c(F)c(F)c(F)c4F)c4ccc([nH]4)c(-c4c(F)c(F)c(F)c(F)c4F)c4nc(c(-c5c(F)c(F)c(F)c(F)c5F)c5ccc2[nH]5)C=C4)C=C3)cc1
REMARK SMILES IDX 21 1 20 2 19 3 17 4 18 5 3 6 2 7 1 8 4 9 5 10 6 11 7 13 8 14
REMARK SMILES IDX 9 15 16 16 10 17 11 18 15 19 12 20 14 21 13 22 22 23 23 24
REMARK SMILES IDX 24 25 25 26 26 27 27 28 28 29 29 30 90 31 30 32 89 33 31 34
REMARK SMILES IDX 32 35 33 36 83 37 34 38 88 39 82 40 84 41 35 42 87 43 81 44
REMARK SMILES IDX 80 45 36 47 68 48 48 49 67 50 49 51 52 52 66 53 85 54 50 55
REMARK SMILES IDX 51 56 65 58 86 59 53 60 37 61 38 62 46 63 39 64 40 65 44 66
REMARK SMILES IDX 47 67 41 68 42 69 45 70 43 71 69 72 70 73 78 74 71 75 72 76
REMARK SMILES IDX 76 77 79 78 73 79 74 80 77 81 75 82 54 83 55 84 63 85 56 86
REMARK SMILES IDX 57 87 61 88 64 89 58 90 59 91 62 92 60 93
REMARK H PARENT 5 12 84 46 52 57
REMARK Flexibility Score: inf
ROOT
ATOM      1  C   UNL A   1      32.176  28.600  22.738  1.00  0.00     0.202 C 
ENDROOT
BRANCH   1   2
ATOM      2  C   UNL A   1      33.550  28.100  23.214  1.00  0.00     0.261 C 
BRANCH   2   3
ATOM      3  O   UNL A   1      33.659  26.692  23.479  1.00  0.00    -0.463 OA
BRANCH   3   4
ATOM      4  C   UNL A   1      33.193  25.871  22.494  1.00  0.00     0.310 C 
ATOM      5  O   UNL A   1      33.349  26.069  21.295  1.00  0.00    -0.252 OA
BRANCH   4   6
ATOM      6  C   UNL A   1      32.332  24.731  23.020  1.00  0.00     0.118 C 
BRANCH   6   7
ATOM      7  C   UNL A   1      31.837  25.220  24.403  1.00  0.00     0.014 C 
ATOM      8  C   UNL A   1      32.445  24.548  25.623  1.00  0.00     0.005 C 
ENDBRANCH   6   7
BRANCH   6   9
ATOM      9  C   UNL A   1      33.041  23.364  23.018  1.00  0.00     0.131 C 
BRANCH   9  10
ATOM     10  N   UNL A   1      34.469  23.409  22.686  1.00  0.00    -0.355 N 
ATOM     11  C   UNL A   1      35.573  22.940  23.343  1.00  0.00     0.228 C 
ATOM     12  H   UNL A   1      34.670  23.861  21.834  1.00  0.00     0.163 HD
ATOM     13  O   UNL A   1      36.651  23.095  22.752  1.00  0.00    -0.274 OA
BRANCH  11  14
ATOM     14  C   UNL A   1      35.601  22.349  24.761  1.00  0.00     0.120 C 
ATOM     15  C   UNL A   1      35.490  20.820  24.626  1.00  0.00     0.093 C 
ATOM     16  C   UNL A   1      36.797  22.678  25.610  1.00  0.00    -0.021 A 
ATOM     17  S   UNL A   1      36.962  20.079  25.368  1.00  0.00    -0.125 SA
ATOM     18  C   UNL A   1      37.695  21.631  25.750  1.00  0.00     0.011 A 
ATOM     19  C   UNL A   1      37.114  23.940  26.109  1.00  0.00     0.006 A 
ATOM     20  C   UNL A   1      39.008  21.890  26.115  1.00  0.00     0.015 A 
ATOM     21  C   UNL A   1      38.413  24.182  26.563  1.00  0.00     0.000 A 
ATOM     22  C   UNL A   1      39.376  23.175  26.502  1.00  0.00     0.001 A 
ENDBRANCH  11  14
ENDBRANCH   9  10
ENDBRANCH   6   9
ENDBRANCH   4   6
ENDBRANCH   3   4
ENDBRANCH   2   3
ENDBRANCH   1   2
BRANCH   1  23
ATOM     23  O   UNL A   1      31.164  28.850  23.701  1.00  0.00    -0.374 OA
BRANCH  23  24
ATOM     24  C   UNL A   1      31.514  28.790  25.074  1.00  0.00     0.202 C 
BRANCH  24  25
ATOM     25  C   UNL A   1      31.776  30.097  25.828  1.00  0.00     0.261 C 
BRANCH  25  26
ATOM     26  O   UNL A   1      33.163  30.417  26.044  1.00  0.00    -0.460 OA
BRANCH  26  27
ATOM     27  C   UNL A   1      33.404  31.354  27.006  1.00  0.00     0.338 C 
ATOM     28  O   UNL A   1      32.769  32.359  27.245  1.00  0.00    -0.246 OA
BRANCH  27  29
ATOM     29  C   UNL A   1      34.619  30.974  27.758  1.00  0.00     0.060 A 
ATOM     30  C   UNL A   1      35.534  31.959  28.110  1.00  0.00     0.016 A 
ATOM     31  C   UNL A   1      34.843  29.654  28.149  1.00  0.00     0.016 A 
ATOM     32  C   UNL A   1      36.749  31.613  28.697  1.00  0.00     0.010 A 
ATOM     33  C   UNL A   1      36.004  29.332  28.872  1.00  0.00     0.010 A 
ATOM     34  C   UNL A   1      36.988  30.303  29.136  1.00  0.00    -0.014 A 
BRANCH  34  35
ATOM     35  C   UNL A   1      38.224  29.988  29.916  1.00  0.00     0.031 A 
ATOM     36  C   UNL A   1      39.323  29.132  29.338  1.00  0.00     0.074 A 
ATOM     37  C   UNL A   1      38.369  30.481  31.166  1.00  0.00     0.049 A 
ATOM     38  N   UNL A   1      40.395  28.652  29.922  1.00  0.00    -0.248 NA
ATOM     39  C   UNL A   1      39.200  28.756  27.922  1.00  0.00     0.031 C 
ATOM     40  C   UNL A   1      37.408  31.351  31.849  1.00  0.00     0.029 A 
ATOM     41  N   UNL A   1      39.382  30.338  32.085  1.00  0.00    -0.354 N 
ATOM     42  C   UNL A   1      41.050  27.892  28.960  1.00  0.00     0.074 A 
ATOM     43  C   UNL A   1      40.245  27.955  27.758  1.00  0.00     0.031 C 
ATOM     44  C   UNL A   1      37.900  31.713  33.039  1.00  0.00     0.029 A 
ATOM     45  C   UNL A   1      39.158  31.013  33.262  1.00  0.00     0.049 A 
ATOM     46  H   UNL A   1      40.190  29.802  31.916  1.00  0.00     0.167 HD
ATOM     47  C   UNL A   1      42.218  27.211  29.069  1.00  0.00     0.037 A 
ATOM     48  C   UNL A   1      39.853  31.040  34.416  1.00  0.00     0.037 A 
ATOM     49  C   UNL A   1      43.034  27.177  30.258  1.00  0.00     0.049 A 
ATOM     50  C   UNL A   1      41.102  30.217  34.535  1.00  0.00     0.074 A 
ATOM     51  C   UNL A   1      44.238  26.522  30.458  1.00  0.00     0.029 A 
ATOM     52  N   UNL A   1      42.734  27.828  31.446  1.00  0.00    -0.354 N 
ATOM     53  N   UNL A   1      41.693  29.479  33.627  1.00  0.00    -0.248 NA
ATOM     54  C   UNL A   1      41.773  30.216  35.842  1.00  0.00     0.031 C 
ATOM     55  C   UNL A   1      44.638  26.733  31.781  1.00  0.00     0.029 A 
ATOM     56  C   UNL A   1      43.718  27.568  32.390  1.00  0.00     0.049 A 
ATOM     57  H   UNL A   1      41.942  28.392  31.598  1.00  0.00     0.167 HD
ATOM     58  C   UNL A   1      42.809  28.936  34.247  1.00  0.00     0.074 A 
ATOM     59  C   UNL A   1      42.828  29.449  35.602  1.00  0.00     0.031 C 
ATOM     60  C   UNL A   1      43.730  28.084  33.736  1.00  0.00     0.037 A 
BRANCH  47  61
ATOM     61  C   UNL A   1      42.690  26.424  27.877  1.00  0.00     0.064 A 
ATOM     62  C   UNL A   1      43.515  26.989  26.894  1.00  0.00     0.173 A 
ATOM     63  C   UNL A   1      42.363  25.064  27.750  1.00  0.00     0.173 A 
ATOM     64  F   UNL A   1      43.851  28.286  26.959  1.00  0.00    -0.203 F 
ATOM     65  C   UNL A   1      43.976  26.231  25.820  1.00  0.00     0.198 A 
ATOM     66  C   UNL A   1      42.853  24.300  26.693  1.00  0.00     0.198 A 
ATOM     67  F   UNL A   1      41.585  24.467  28.666  1.00  0.00    -0.203 F 
ATOM     68  F   UNL A   1      44.728  26.805  24.870  1.00  0.00    -0.200 F 
ATOM     69  C   UNL A   1      43.652  24.886  25.725  1.00  0.00     0.200 A 
ATOM     70  F   UNL A   1      42.552  22.996  26.614  1.00  0.00    -0.200 F 
ATOM     71  F   UNL A   1      44.108  24.155  24.697  1.00  0.00    -0.200 F 
ENDBRANCH  47  61
BRANCH  48  72
ATOM     72  C   UNL A   1      39.359  31.864  35.552  1.00  0.00     0.064 A 
ATOM     73  C   UNL A   1      39.758  33.199  35.695  1.00  0.00     0.173 A 
ATOM     74  C   UNL A   1      38.451  31.349  36.491  1.00  0.00     0.173 A 
ATOM     75  F   UNL A   1      40.642  33.730  34.840  1.00  0.00    -0.203 F 
ATOM     76  C   UNL A   1      39.265  33.989  36.733  1.00  0.00     0.198 A 
ATOM     77  C   UNL A   1      37.933  32.150  37.508  1.00  0.00     0.198 A 
ATOM     78  F   UNL A   1      38.038  30.077  36.400  1.00  0.00    -0.203 F 
ATOM     79  F   UNL A   1      39.686  35.255  36.866  1.00  0.00    -0.200 F 
ATOM     80  C   UNL A   1      38.344  33.468  37.631  1.00  0.00     0.200 A 
ATOM     81  F   UNL A   1      37.028  31.648  38.358  1.00  0.00    -0.200 F 
ATOM     82  F   UNL A   1      37.855  34.236  38.613  1.00  0.00    -0.200 F 
ENDBRANCH  48  72
BRANCH  60  83
ATOM     83  C   UNL A   1      44.856  27.661  34.634  1.00  0.00     0.064 A 
ATOM     84  C   UNL A   1      44.785  26.487  35.398  1.00  0.00     0.173 A 
ATOM     85  C   UNL A   1      46.049  28.402  34.679  1.00  0.00     0.173 A 
ATOM     86  F   UNL A   1      43.662  25.752  35.403  1.00  0.00    -0.203 F 
ATOM     87  C   UNL A   1      45.859  26.077  36.183  1.00  0.00     0.198 A 
ATOM     88  C   UNL A   1      47.131  27.973  35.441  1.00  0.00     0.198 A 
ATOM     89  F   UNL A   1      46.170  29.529  33.963  1.00  0.00    -0.203 F 
ATOM     90  F   UNL A   1      45.755  24.972  36.934  1.00  0.00    -0.200 F 
ATOM     91  C   UNL A   1      47.034  26.813  36.195  1.00  0.00     0.200 A 
ATOM     92  F   UNL A   1      48.272  28.676  35.436  1.00  0.00    -0.200 F 
ATOM     93  F   UNL A   1      48.074  26.407  36.936  1.00  0.00    -0.200 F 
ENDBRANCH  60  83
ENDBRANCH  34  35
ENDBRANCH  27  29
ENDBRANCH  26  27
ENDBRANCH  25  26
ENDBRANCH  24  25
ENDBRANCH  23  24
ENDBRANCH   1  23
TORSDOF 18
ENDMDL
MODEL 3
REMARK VINA RESULT:     -10.8      3.379      5.519
REMARK SMILES CC[C@H](CNC(=O)[C@H]1CSc2ccccc21)C(=O)OCCOCCOC(=O)c1ccc(-c2c3nc(c(-c4c(F)c(F)c(F)c(F)c4F)c4ccc([nH]4)c(-c4c(F)c(F)c(F)c(F)c4F)c4nc(c(-c5c(F)c(F)c(F)c(F)c5F)c5ccc2[nH]5)C=C4)C=C3)cc1
REMARK SMILES IDX 21 1 20 2 19 3 17 4 18 5 3 6 2 7 1 8 4 9 5 10 6 11 7 13 8 14
REMARK SMILES IDX 9 15 16 16 10 17 11 18 15 19 12 20 14 21 13 22 22 23 23 24
REMARK SMILES IDX 24 25 25 26 26 27 27 28 28 29 29 30 90 31 30 32 89 33 31 34
REMARK SMILES IDX 32 35 33 36 83 37 34 38 88 39 82 40 84 41 35 42 87 43 81 44
REMARK SMILES IDX 80 45 36 47 68 48 48 49 67 50 49 51 52 52 66 53 85 54 50 55
REMARK SMILES IDX 51 56 65 58 86 59 53 60 37 61 38 62 46 63 39 64 40 65 44 66
REMARK SMILES IDX 47 67 41 68 42 69 45 70 43 71 69 72 70 73 78 74 71 75 72 76
REMARK SMILES IDX 76 77 79 78 73 79 74 80 77 81 75 82 54 83 55 84 63 85 56 86
REMARK SMILES IDX 57 87 61 88 64 89 58 90 59 91 62 92 60 93
REMARK H PARENT 5 12 84 46 52 57
REMARK Flexibility Score: inf
ROOT
ATOM      1  C   UNL A   1      35.252  33.548  29.119  1.00  0.00     0.202 C 
ENDROOT
BRANCH   1   2
ATOM      2  C   UNL A   1      34.676  32.138  28.916  1.00  0.00     0.261 C 
BRANCH   2   3
ATOM      3  O   UNL A   1      34.423  31.741  27.558  1.00  0.00    -0.463 OA
BRANCH   3   4
ATOM      4  C   UNL A   1      34.383  30.395  27.338  1.00  0.00     0.310 C 
ATOM      5  O   UNL A   1      35.354  29.652  27.401  1.00  0.00    -0.252 OA
BRANCH   4   6
ATOM      6  C   UNL A   1      33.020  29.904  26.870  1.00  0.00     0.118 C 
BRANCH   6   7
ATOM      7  C   UNL A   1      32.772  28.606  27.676  1.00  0.00     0.014 C 
ATOM      8  C   UNL A   1      31.326  28.175  27.850  1.00  0.00     0.005 C 
ENDBRANCH   6   7
BRANCH   6   9
ATOM      9  C   UNL A   1      32.900  29.765  25.341  1.00  0.00     0.131 C 
BRANCH   9  10
ATOM     10  N   UNL A   1      31.573  30.073  24.795  1.00  0.00    -0.355 N 
ATOM     11  C   UNL A   1      30.725  29.354  23.999  1.00  0.00     0.228 C 
ATOM     12  H   UNL A   1      31.232  30.962  25.047  1.00  0.00     0.163 HD
ATOM     13  O   UNL A   1      29.634  29.890  23.760  1.00  0.00    -0.274 OA
BRANCH  11  14
ATOM     14  C   UNL A   1      31.044  28.018  23.309  1.00  0.00     0.120 C 
ATOM     15  C   UNL A   1      32.407  28.172  22.611  1.00  0.00     0.093 C 
ATOM     16  C   UNL A   1      31.080  26.795  24.182  1.00  0.00    -0.021 A 
ATOM     17  S   UNL A   1      33.537  26.941  23.298  1.00  0.00    -0.125 SA
ATOM     18  C   UNL A   1      32.358  26.330  24.451  1.00  0.00     0.011 A 
ATOM     19  C   UNL A   1      29.981  26.224  24.822  1.00  0.00     0.006 A 
ATOM     20  C   UNL A   1      32.581  25.514  25.550  1.00  0.00     0.015 A 
ATOM     21  C   UNL A   1      30.200  25.330  25.874  1.00  0.00     0.000 A 
ATOM     22  C   UNL A   1      31.500  25.030  26.280  1.00  0.00     0.001 A 
ENDBRANCH  11  14
ENDBRANCH   9  10
ENDBRANCH   6   9
ENDBRANCH   4   6
ENDBRANCH   3   4
ENDBRANCH   2   3
ENDBRANCH   1   2
BRANCH   1  23
ATOM     23  O   UNL A   1      34.468  34.672  28.750  1.00  0.00    -0.374 OA
BRANCH  23  24
ATOM     24  C   UNL A   1      33.203  34.840  29.370  1.00  0.00     0.202 C 
BRANCH  24  25
ATOM     25  C   UNL A   1      32.792  36.237  29.845  1.00  0.00     0.261 C 
BRANCH  25  26
ATOM     26  O   UNL A   1      33.071  36.525  31.228  1.00  0.00    -0.460 OA
BRANCH  26  27
ATOM     27  C   UNL A   1      32.788  35.518  32.103  1.00  0.00     0.338 C 
ATOM     28  O   UNL A   1      31.710  35.219  32.572  1.00  0.00    -0.246 OA
BRANCH  27  29
ATOM     29  C   UNL A   1      34.036  34.801  32.437  1.00  0.00     0.060 A 
ATOM     30  C   UNL A   1      35.243  35.491  32.404  1.00  0.00     0.016 A 
ATOM     31  C   UNL A   1      34.020  33.459  32.816  1.00  0.00     0.016 A 
ATOM     32  C   UNL A   1      36.446  34.810  32.581  1.00  0.00     0.010 A 
ATOM     33  C   UNL A   1      35.226  32.813  33.135  1.00  0.00     0.010 A 
ATOM     34  C   UNL A   1      36.461  33.473  32.999  1.00  0.00    -0.014 A 
BRANCH  34  35
ATOM     35  C   UNL A   1      37.756  32.811  33.348  1.00  0.00     0.031 A 
ATOM     36  C   UNL A   1      38.404  31.813  32.422  1.00  0.00     0.074 A 
ATOM     37  C   UNL A   1      38.367  33.113  34.515  1.00  0.00     0.049 A 
ATOM     38  N   UNL A   1      39.452  31.049  32.626  1.00  0.00    -0.248 NA
ATOM     39  C   UNL A   1      37.795  31.640  31.096  1.00  0.00     0.031 C 
ATOM     40  C   UNL A   1      37.880  34.083  35.499  1.00  0.00     0.029 A 
ATOM     41  N   UNL A   1      39.536  32.650  35.072  1.00  0.00    -0.354 N 
ATOM     42  C   UNL A   1      39.601  30.284  31.476  1.00  0.00     0.074 A 
ATOM     43  C   UNL A   1      38.525  30.658  30.583  1.00  0.00     0.031 C 
ATOM     44  C   UNL A   1      38.765  34.190  36.497  1.00  0.00     0.029 A 
ATOM     45  C   UNL A   1      39.828  33.216  36.291  1.00  0.00     0.049 A 
ATOM     46  H   UNL A   1      40.109  31.977  34.639  1.00  0.00     0.167 HD
ATOM     47  C   UNL A   1      40.553  29.361  31.190  1.00  0.00     0.037 A 
ATOM     48  C   UNL A   1      40.810  32.958  37.177  1.00  0.00     0.037 A 
ATOM     49  C   UNL A   1      41.643  29.014  32.070  1.00  0.00     0.049 A 
ATOM     50  C   UNL A   1      41.805  31.878  36.869  1.00  0.00     0.074 A 
ATOM     51  C   UNL A   1      42.660  28.098  31.861  1.00  0.00     0.029 A 
ATOM     52  N   UNL A   1      41.861  29.572  33.322  1.00  0.00    -0.354 N 
ATOM     53  N   UNL A   1      41.916  31.141  35.791  1.00  0.00    -0.248 NA
ATOM     54  C   UNL A   1      42.802  31.581  37.907  1.00  0.00     0.031 C 
ATOM     55  C   UNL A   1      43.461  28.062  33.006  1.00  0.00     0.029 A 
ATOM     56  C   UNL A   1      42.982  28.999  33.905  1.00  0.00     0.049 A 
ATOM     57  H   UNL A   1      41.305  30.270  33.734  1.00  0.00     0.167 HD
ATOM     58  C   UNL A   1      43.000  30.303  36.013  1.00  0.00     0.074 A 
ATOM     59  C   UNL A   1      43.528  30.639  37.320  1.00  0.00     0.031 C 
ATOM     60  C   UNL A   1      43.503  29.340  35.206  1.00  0.00     0.037 A 
BRANCH  47  61
ATOM     61  C   UNL A   1      40.460  28.636  29.875  1.00  0.00     0.064 A 
ATOM     62  C   UNL A   1      41.152  29.072  28.737  1.00  0.00     0.173 A 
ATOM     63  C   UNL A   1      39.718  27.447  29.772  1.00  0.00     0.173 A 
ATOM     64  F   UNL A   1      41.869  30.206  28.775  1.00  0.00    -0.203 F 
ATOM     65  C   UNL A   1      41.087  28.361  27.540  1.00  0.00     0.198 A 
ATOM     66  C   UNL A   1      39.681  26.722  28.583  1.00  0.00     0.198 A 
ATOM     67  F   UNL A   1      39.043  26.976  30.832  1.00  0.00    -0.203 F 
ATOM     68  F   UNL A   1      41.722  28.823  26.453  1.00  0.00    -0.200 F 
ATOM     69  C   UNL A   1      40.359  27.183  27.467  1.00  0.00     0.200 A 
ATOM     70  F   UNL A   1      38.991  25.574  28.520  1.00  0.00    -0.200 F 
ATOM     71  F   UNL A   1      40.309  26.495  26.317  1.00  0.00    -0.200 F 
ENDBRANCH  47  61
BRANCH  48  72
ATOM     72  C   UNL A   1      40.875  33.730  38.447  1.00  0.00     0.064 A 
ATOM     73  C   UNL A   1      41.726  34.836  38.571  1.00  0.00     0.173 A 
ATOM     74  C   UNL A   1      40.062  33.407  39.545  1.00  0.00     0.173 A 
ATOM     75  F   UNL A   1      42.541  35.170  37.560  1.00  0.00    -0.203 F 
ATOM     76  C   UNL A   1      41.760  35.590  39.743  1.00  0.00     0.198 A 
ATOM     77  C   UNL A   1      40.072  34.182  40.703  1.00  0.00     0.198 A 
ATOM     78  F   UNL A   1      39.230  32.358  39.479  1.00  0.00    -0.203 F 
ATOM     79  F   UNL A   1      42.607  36.624  39.846  1.00  0.00    -0.200 F 
ATOM     80  C   UNL A   1      40.925  35.270  40.803  1.00  0.00     0.200 A 
ATOM     81  F   UNL A   1      39.248  33.882  41.715  1.00  0.00    -0.200 F 
ATOM     82  F   UNL A   1      40.943  36.010  41.919  1.00  0.00    -0.200 F 
ENDBRANCH  48  72
BRANCH  60  83
ATOM     83  C   UNL A   1      44.704  28.583  35.695  1.00  0.00     0.064 A 
ATOM     84  C   UNL A   1      46.008  29.035  35.447  1.00  0.00     0.173 A 
ATOM     85  C   UNL A   1      44.547  27.429  36.480  1.00  0.00     0.173 A 
ATOM     86  F   UNL A   1      46.213  30.123  34.689  1.00  0.00    -0.203 F 
ATOM     87  C   UNL A   1      47.111  28.353  35.956  1.00  0.00     0.198 A 
ATOM     88  C   UNL A   1      45.650  26.768  37.012  1.00  0.00     0.198 A 
ATOM     89  F   UNL A   1      43.321  26.958  36.751  1.00  0.00    -0.203 F 
ATOM     90  F   UNL A   1      48.349  28.782  35.675  1.00  0.00    -0.200 F 
ATOM     91  C   UNL A   1      46.931  27.229  36.746  1.00  0.00     0.200 A 
ATOM     92  F   UNL A   1      45.473  25.693  37.791  1.00  0.00    -0.200 F 
ATOM     93  F   UNL A   1      47.993  26.585  37.251  1.00  0.00    -0.200 F 
ENDBRANCH  60  83
ENDBRANCH  34  35
ENDBRANCH  27  29
ENDBRANCH  26  27
ENDBRANCH  25  26
ENDBRANCH  24  25
ENDBRANCH  23  24
ENDBRANCH   1  23
TORSDOF 18
ENDMDL
