MODEL 1
REMARK VINA RESULT:     -11.9      0.000      0.000
REMARK SMILES O=C(CN1C(=O)CN(C(=O)OCC2c3ccccc3-c3ccccc32)c2ccccc21)OCCOCCOC(=O)c1ccc(-c2c3nc(c(-c4c(F)c(F)c(F)c(F)c4F)c4ccc([nH]4)c(-c4c(F)c(F)c(F)c(F)c4F)c4nc(c(-c5c(F)c(F)c(F)c(F)c5F)c5ccc2[nH]5)C=C4)C=C3)cc1
REMARK SMILES IDX 33 1 32 2 2 3 1 4 3 5 4 6 5 7 31 8 6 9 7 10 26 11 30 12 8 13
REMARK SMILES IDX 27 14 29 15 28 16 9 17 10 18 11 19 12 20 13 21 14 22 25 23
REMARK SMILES IDX 15 24 19 25 20 26 24 27 16 28 18 29 21 30 23 31 17 32 22 33
REMARK SMILES IDX 34 34 35 35 36 36 37 37 38 38 39 39 40 40 41 41 42 42 103 43
REMARK SMILES IDX 43 44 102 45 44 46 45 47 46 48 96 49 47 50 101 51 95 52
REMARK SMILES IDX 97 53 48 54 100 55 94 56 93 57 49 59 81 60 61 61 80 62 62 63
REMARK SMILES IDX 65 64 79 65 98 66 63 67 64 68 78 70 99 71 66 72 50 73 51 74
REMARK SMILES IDX 59 75 52 76 53 77 57 78 60 79 54 80 55 81 58 82 56 83 82 84
REMARK SMILES IDX 83 85 91 86 84 87 85 88 89 89 92 90 86 91 87 92 90 93 88 94
REMARK SMILES IDX 67 95 68 96 76 97 69 98 70 99 74 100 77 101 71 102 72 103
REMARK SMILES IDX 75 104 73 105
REMARK H PARENT 97 58 65 69
REMARK Flexibility Score: inf
ROOT
ATOM      1  C   UNL A   1      32.912  35.996  28.995  1.00  0.00     0.261 C 
ENDROOT
BRANCH   1   2
ATOM      2  O   UNL A   1      32.875  34.659  28.488  1.00  0.00    -0.462 OA
BRANCH   2   3
ATOM      3  C   UNL A   1      33.918  33.840  28.229  1.00  0.00     0.326 C 
ATOM      4  O   UNL A   1      34.749  34.215  27.393  1.00  0.00    -0.250 OA
BRANCH   3   5
ATOM      5  C   UNL A   1      33.986  32.389  28.723  1.00  0.00     0.248 C 
BRANCH   5   6
ATOM      6  N   UNL A   1      33.938  31.206  27.867  1.00  0.00    -0.298 N 
ATOM      7  C   UNL A   1      35.134  30.557  27.594  1.00  0.00     0.247 C 
ATOM      8  C   UNL A   1      32.840  30.999  26.961  1.00  0.00     0.068 A 
ATOM      9  O   UNL A   1      36.219  30.966  28.013  1.00  0.00    -0.272 OA
ATOM     10  C   UNL A   1      35.001  29.161  27.018  1.00  0.00     0.229 C 
ATOM     11  C   UNL A   1      32.828  29.878  26.096  1.00  0.00     0.071 A 
ATOM     12  C   UNL A   1      31.788  31.933  26.873  1.00  0.00     0.028 A 
ATOM     13  N   UNL A   1      33.805  28.853  26.264  1.00  0.00    -0.266 N 
ATOM     14  C   UNL A   1      31.795  29.765  25.149  1.00  0.00     0.029 A 
ATOM     15  C   UNL A   1      30.771  31.797  25.926  1.00  0.00     0.002 A 
ATOM     16  C   UNL A   1      30.784  30.721  25.054  1.00  0.00     0.002 A 
BRANCH  13  17
ATOM     17  C   UNL A   1      33.655  27.554  25.785  1.00  0.00     0.414 C 
ATOM     18  O   UNL A   1      33.661  26.531  26.456  1.00  0.00    -0.224 OA
BRANCH  17  19
ATOM     19  O   UNL A   1      33.605  27.544  24.419  1.00  0.00    -0.448 OA
BRANCH  19  20
ATOM     20  C   UNL A   1      34.030  26.334  23.747  1.00  0.00     0.248 C 
BRANCH  20  21
ATOM     21  C   UNL A   1      32.832  25.506  23.229  1.00  0.00     0.088 C 
ATOM     22  C   UNL A   1      32.402  24.389  24.179  1.00  0.00    -0.029 A 
ATOM     23  C   UNL A   1      31.556  26.353  23.180  1.00  0.00    -0.029 A 
ATOM     24  C   UNL A   1      33.078  23.229  24.525  1.00  0.00     0.005 A 
ATOM     25  C   UNL A   1      31.119  24.652  24.704  1.00  0.00    -0.014 A 
ATOM     26  C   UNL A   1      30.590  25.839  24.073  1.00  0.00    -0.014 A 
ATOM     27  C   UNL A   1      31.279  27.457  22.387  1.00  0.00     0.005 A 
ATOM     28  C   UNL A   1      32.510  22.382  25.477  1.00  0.00     0.000 A 
ATOM     29  C   UNL A   1      30.547  23.808  25.643  1.00  0.00     0.009 A 
ATOM     30  C   UNL A   1      29.344  26.436  24.189  1.00  0.00     0.009 A 
ATOM     31  C   UNL A   1      30.022  28.058  22.505  1.00  0.00     0.000 A 
ATOM     32  C   UNL A   1      31.261  22.675  26.044  1.00  0.00     0.001 A 
ATOM     33  C   UNL A   1      29.065  27.553  23.400  1.00  0.00     0.001 A 
ENDBRANCH  20  21
ENDBRANCH  19  20
ENDBRANCH  17  19
ENDBRANCH  13  17
ENDBRANCH   5   6
ENDBRANCH   3   5
ENDBRANCH   2   3
ENDBRANCH   1   2
BRANCH   1  34
ATOM     34  C   UNL A   1      32.952  36.141  30.514  1.00  0.00     0.202 C 
BRANCH  34  35
ATOM     35  O   UNL A   1      33.248  34.976  31.265  1.00  0.00    -0.374 OA
BRANCH  35  36
ATOM     36  C   UNL A   1      34.622  34.712  31.576  1.00  0.00     0.202 C 
BRANCH  36  37
ATOM     37  C   UNL A   1      34.973  34.330  33.019  1.00  0.00     0.261 C 
BRANCH  37  38
ATOM     38  O   UNL A   1      36.310  33.798  33.111  1.00  0.00    -0.460 OA
BRANCH  38  39
ATOM     39  C   UNL A   1      36.434  32.489  32.788  1.00  0.00     0.338 C 
ATOM     40  O   UNL A   1      35.571  31.628  32.830  1.00  0.00    -0.246 OA
BRANCH  39  41
ATOM     41  C   UNL A   1      37.748  32.253  32.170  1.00  0.00     0.060 A 
ATOM     42  C   UNL A   1      37.902  32.570  30.814  1.00  0.00     0.016 A 
ATOM     43  C   UNL A   1      38.777  31.630  32.880  1.00  0.00     0.016 A 
ATOM     44  C   UNL A   1      39.073  32.218  30.147  1.00  0.00     0.010 A 
ATOM     45  C   UNL A   1      39.947  31.269  32.205  1.00  0.00     0.010 A 
ATOM     46  C   UNL A   1      40.083  31.528  30.830  1.00  0.00    -0.014 A 
BRANCH  46  47
ATOM     47  C   UNL A   1      41.210  30.941  30.068  1.00  0.00     0.031 A 
ATOM     48  C   UNL A   1      42.400  31.804  29.755  1.00  0.00     0.074 A 
ATOM     49  C   UNL A   1      41.179  29.653  29.685  1.00  0.00     0.049 A 
ATOM     50  N   UNL A   1      43.479  31.518  29.071  1.00  0.00    -0.248 NA
ATOM     51  C   UNL A   1      42.371  33.177  30.284  1.00  0.00     0.031 C 
ATOM     52  C   UNL A   1      40.094  28.716  29.963  1.00  0.00     0.029 A 
ATOM     53  N   UNL A   1      42.088  28.916  28.968  1.00  0.00    -0.354 N 
ATOM     54  C   UNL A   1      44.252  32.672  29.086  1.00  0.00     0.074 A 
ATOM     55  C   UNL A   1      43.508  33.672  29.820  1.00  0.00     0.031 C 
ATOM     56  C   UNL A   1      40.393  27.527  29.410  1.00  0.00     0.029 A 
ATOM     57  C   UNL A   1      41.673  27.631  28.715  1.00  0.00     0.049 A 
ATOM     58  H   UNL A   1      42.954  29.273  28.665  1.00  0.00     0.167 HD
ATOM     59  C   UNL A   1      45.476  32.873  28.544  1.00  0.00     0.037 A 
ATOM     60  C   UNL A   1      42.257  26.663  27.982  1.00  0.00     0.037 A 
ATOM     61  C   UNL A   1      46.208  31.874  27.810  1.00  0.00     0.049 A 
ATOM     62  C   UNL A   1      43.587  26.936  27.331  1.00  0.00     0.074 A 
ATOM     63  C   UNL A   1      47.459  31.972  27.227  1.00  0.00     0.029 A 
ATOM     64  N   UNL A   1      45.746  30.591  27.553  1.00  0.00    -0.354 N 
ATOM     65  N   UNL A   1      44.325  28.021  27.372  1.00  0.00    -0.248 NA
ATOM     66  C   UNL A   1      44.171  25.848  26.535  1.00  0.00     0.031 C 
ATOM     67  C   UNL A   1      47.735  30.764  26.577  1.00  0.00     0.029 A 
ATOM     68  C   UNL A   1      46.678  29.895  26.800  1.00  0.00     0.049 A 
ATOM     69  H   UNL A   1      44.883  30.229  27.859  1.00  0.00     0.167 HD
ATOM     70  C   UNL A   1      45.466  27.736  26.633  1.00  0.00     0.074 A 
ATOM     71  C   UNL A   1      45.333  26.371  26.172  1.00  0.00     0.031 C 
ATOM     72  C   UNL A   1      46.528  28.533  26.358  1.00  0.00     0.037 A 
BRANCH  59  73
ATOM     73  C   UNL A   1      46.095  34.230  28.706  1.00  0.00     0.064 A 
ATOM     74  C   UNL A   1      45.921  35.238  27.745  1.00  0.00     0.173 A 
ATOM     75  C   UNL A   1      46.836  34.542  29.856  1.00  0.00     0.173 A 
ATOM     76  F   UNL A   1      45.233  34.987  26.621  1.00  0.00    -0.203 F 
ATOM     77  C   UNL A   1      46.481  36.501  27.921  1.00  0.00     0.198 A 
ATOM     78  C   UNL A   1      47.371  35.813  30.042  1.00  0.00     0.198 A 
ATOM     79  F   UNL A   1      47.030  33.616  30.807  1.00  0.00    -0.203 F 
ATOM     80  F   UNL A   1      46.334  37.436  26.973  1.00  0.00    -0.200 F 
ATOM     81  C   UNL A   1      47.198  36.790  29.072  1.00  0.00     0.200 A 
ATOM     82  F   UNL A   1      48.055  36.095  31.160  1.00  0.00    -0.200 F 
ATOM     83  F   UNL A   1      47.728  38.009  29.246  1.00  0.00    -0.200 F 
ENDBRANCH  59  73
BRANCH  60  84
ATOM     84  C   UNL A   1      41.582  25.350  27.808  1.00  0.00     0.064 A 
ATOM     85  C   UNL A   1      42.044  24.205  28.470  1.00  0.00     0.173 A 
ATOM     86  C   UNL A   1      40.481  25.207  26.950  1.00  0.00     0.173 A 
ATOM     87  F   UNL A   1      43.109  24.284  29.281  1.00  0.00    -0.203 F 
ATOM     88  C   UNL A   1      41.447  22.962  28.262  1.00  0.00     0.198 A 
ATOM     89  C   UNL A   1      39.865  23.970  26.767  1.00  0.00     0.198 A 
ATOM     90  F   UNL A   1      40.001  26.271  26.290  1.00  0.00    -0.203 F 
ATOM     91  F   UNL A   1      41.944  21.873  28.866  1.00  0.00    -0.200 F 
ATOM     92  C   UNL A   1      40.355  22.847  27.415  1.00  0.00     0.200 A 
ATOM     93  F   UNL A   1      38.804  23.866  25.955  1.00  0.00    -0.200 F 
ATOM     94  F   UNL A   1      39.784  21.652  27.214  1.00  0.00    -0.200 F 
ENDBRANCH  60  84
BRANCH  72  95
ATOM     95  C   UNL A   1      47.644  27.934  25.551  1.00  0.00     0.064 A 
ATOM     96  C   UNL A   1      47.577  27.847  24.152  1.00  0.00     0.173 A 
ATOM     97  C   UNL A   1      48.806  27.467  26.183  1.00  0.00     0.173 A 
ATOM     98  F   UNL A   1      46.481  28.266  23.501  1.00  0.00    -0.203 F 
ATOM     99  C   UNL A   1      48.620  27.285  23.420  1.00  0.00     0.198 A 
ATOM    100  C   UNL A   1      49.860  26.935  25.445  1.00  0.00     0.198 A 
ATOM    101  F   UNL A   1      48.924  27.535  27.518  1.00  0.00    -0.203 F 
ATOM    102  F   UNL A   1      48.511  27.162  22.090  1.00  0.00    -0.200 F 
ATOM    103  C   UNL A   1      49.762  26.836  24.066  1.00  0.00     0.200 A 
ATOM    104  F   UNL A   1      50.969  26.516  26.070  1.00  0.00    -0.200 F 
ATOM    105  F   UNL A   1      50.766  26.300  23.359  1.00  0.00    -0.200 F 
ENDBRANCH  72  95
ENDBRANCH  46  47
ENDBRANCH  39  41
ENDBRANCH  38  39
ENDBRANCH  37  38
ENDBRANCH  36  37
ENDBRANCH  35  36
ENDBRANCH  34  35
ENDBRANCH   1  34
TORSDOF 19
ENDMDL
MODEL 2
REMARK VINA RESULT:     -11.8      4.689      9.808
REMARK SMILES O=C(CN1C(=O)CN(C(=O)OCC2c3ccccc3-c3ccccc32)c2ccccc21)OCCOCCOC(=O)c1ccc(-c2c3nc(c(-c4c(F)c(F)c(F)c(F)c4F)c4ccc([nH]4)c(-c4c(F)c(F)c(F)c(F)c4F)c4nc(c(-c5c(F)c(F)c(F)c(F)c5F)c5ccc2[nH]5)C=C4)C=C3)cc1
REMARK SMILES IDX 33 1 32 2 2 3 1 4 3 5 4 6 5 7 31 8 6 9 7 10 26 11 30 12 8 13
REMARK SMILES IDX 27 14 29 15 28 16 9 17 10 18 11 19 12 20 13 21 14 22 25 23
REMARK SMILES IDX 15 24 19 25 20 26 24 27 16 28 18 29 21 30 23 31 17 32 22 33
REMARK SMILES IDX 34 34 35 35 36 36 37 37 38 38 39 39 40 40 41 41 42 42 103 43
REMARK SMILES IDX 43 44 102 45 44 46 45 47 46 48 96 49 47 50 101 51 95 52
REMARK SMILES IDX 97 53 48 54 100 55 94 56 93 57 49 59 81 60 61 61 80 62 62 63
REMARK SMILES IDX 65 64 79 65 98 66 63 67 64 68 78 70 99 71 66 72 50 73 51 74
REMARK SMILES IDX 59 75 52 76 53 77 57 78 60 79 54 80 55 81 58 82 56 83 82 84
REMARK SMILES IDX 83 85 91 86 84 87 85 88 89 89 92 90 86 91 87 92 90 93 88 94
REMARK SMILES IDX 67 95 68 96 76 97 69 98 70 99 74 100 77 101 71 102 72 103
REMARK SMILES IDX 75 104 73 105
REMARK H PARENT 97 58 65 69
REMARK Flexibility Score: inf
ROOT
ATOM      1  C   UNL A   1      38.320  33.868  39.486  1.00  0.00     0.261 C 
ENDROOT
BRANCH   1   2
ATOM      2  O   UNL A   1      38.233  34.221  38.102  1.00  0.00    -0.462 OA
BRANCH   2   3
ATOM      3  C   UNL A   1      37.664  33.517  37.100  1.00  0.00     0.326 C 
ATOM      4  O   UNL A   1      37.042  32.491  37.400  1.00  0.00    -0.250 OA
BRANCH   3   5
ATOM      5  C   UNL A   1      37.958  33.781  35.617  1.00  0.00     0.248 C 
BRANCH   5   6
ATOM      6  N   UNL A   1      37.166  33.274  34.499  1.00  0.00    -0.298 N 
ATOM      7  C   UNL A   1      35.894  33.800  34.319  1.00  0.00     0.247 C 
ATOM      8  C   UNL A   1      37.450  31.987  33.922  1.00  0.00     0.068 A 
ATOM      9  O   UNL A   1      35.409  34.636  35.083  1.00  0.00    -0.272 OA
ATOM     10  C   UNL A   1      35.260  33.522  32.969  1.00  0.00     0.229 C 
ATOM     11  C   UNL A   1      36.643  31.480  32.875  1.00  0.00     0.071 A 
ATOM     12  C   UNL A   1      38.493  31.183  34.422  1.00  0.00     0.028 A 
ATOM     13  N   UNL A   1      35.675  32.330  32.261  1.00  0.00    -0.266 N 
ATOM     14  C   UNL A   1      36.881  30.176  32.407  1.00  0.00     0.029 A 
ATOM     15  C   UNL A   1      38.712  29.892  33.939  1.00  0.00     0.002 A 
ATOM     16  C   UNL A   1      37.895  29.383  32.944  1.00  0.00     0.002 A 
BRANCH  13  17
ATOM     17  C   UNL A   1      35.137  32.105  30.997  1.00  0.00     0.414 C 
ATOM     18  O   UNL A   1      34.106  32.590  30.553  1.00  0.00    -0.224 OA
BRANCH  17  19
ATOM     19  O   UNL A   1      35.862  31.162  30.323  1.00  0.00    -0.448 OA
BRANCH  19  20
ATOM     20  C   UNL A   1      36.069  31.371  28.905  1.00  0.00     0.248 C 
BRANCH  20  21
ATOM     21  C   UNL A   1      37.557  31.608  28.563  1.00  0.00     0.088 C 
ATOM     22  C   UNL A   1      38.242  32.622  29.479  1.00  0.00    -0.029 A 
ATOM     23  C   UNL A   1      38.394  30.355  28.841  1.00  0.00    -0.029 A 
ATOM     24  C   UNL A   1      38.028  33.988  29.583  1.00  0.00     0.005 A 
ATOM     25  C   UNL A   1      39.227  31.990  30.268  1.00  0.00    -0.014 A 
ATOM     26  C   UNL A   1      39.339  30.609  29.858  1.00  0.00    -0.014 A 
ATOM     27  C   UNL A   1      38.333  29.117  28.217  1.00  0.00     0.005 A 
ATOM     28  C   UNL A   1      38.734  34.704  30.551  1.00  0.00     0.000 A 
ATOM     29  C   UNL A   1      39.936  32.700  31.224  1.00  0.00     0.009 A 
ATOM     30  C   UNL A   1      40.220  29.622  30.270  1.00  0.00     0.009 A 
ATOM     31  C   UNL A   1      39.223  28.123  28.632  1.00  0.00     0.000 A 
ATOM     32  C   UNL A   1      39.670  34.064  31.376  1.00  0.00     0.001 A 
ATOM     33  C   UNL A   1      40.156  28.372  29.651  1.00  0.00     0.001 A 
ENDBRANCH  20  21
ENDBRANCH  19  20
ENDBRANCH  17  19
ENDBRANCH  13  17
ENDBRANCH   5   6
ENDBRANCH   3   5
ENDBRANCH   2   3
ENDBRANCH   1   2
BRANCH   1  34
ATOM     34  C   UNL A   1      39.154  34.793  40.368  1.00  0.00     0.202 C 
BRANCH  34  35
ATOM     35  O   UNL A   1      38.589  36.051  40.699  1.00  0.00    -0.374 OA
BRANCH  35  36
ATOM     36  C   UNL A   1      38.917  37.171  39.867  1.00  0.00     0.202 C 
BRANCH  36  37
ATOM     37  C   UNL A   1      40.222  37.924  40.154  1.00  0.00     0.261 C 
BRANCH  37  38
ATOM     38  O   UNL A   1      41.373  37.084  39.927  1.00  0.00    -0.460 OA
BRANCH  38  39
ATOM     39  C   UNL A   1      42.161  37.454  38.890  1.00  0.00     0.338 C 
ATOM     40  O   UNL A   1      42.843  38.460  38.797  1.00  0.00    -0.246 OA
BRANCH  39  41
ATOM     41  C   UNL A   1      42.251  36.352  37.919  1.00  0.00     0.060 A 
ATOM     42  C   UNL A   1      43.513  35.791  37.679  1.00  0.00     0.016 A 
ATOM     43  C   UNL A   1      41.138  35.952  37.177  1.00  0.00     0.016 A 
ATOM     44  C   UNL A   1      43.674  34.858  36.658  1.00  0.00     0.010 A 
ATOM     45  C   UNL A   1      41.306  35.024  36.145  1.00  0.00     0.010 A 
ATOM     46  C   UNL A   1      42.580  34.503  35.858  1.00  0.00    -0.014 A 
BRANCH  46  47
ATOM     47  C   UNL A   1      42.802  33.708  34.628  1.00  0.00     0.031 A 
ATOM     48  C   UNL A   1      42.861  32.210  34.733  1.00  0.00     0.074 A 
ATOM     49  C   UNL A   1      42.922  34.315  33.434  1.00  0.00     0.049 A 
ATOM     50  N   UNL A   1      43.084  31.318  33.802  1.00  0.00    -0.248 NA
ATOM     51  C   UNL A   1      42.641  31.639  36.072  1.00  0.00     0.031 C 
ATOM     52  C   UNL A   1      42.846  35.757  33.209  1.00  0.00     0.029 A 
ATOM     53  N   UNL A   1      43.145  33.790  32.187  1.00  0.00    -0.354 N 
ATOM     54  C   UNL A   1      43.032  30.086  34.439  1.00  0.00     0.074 A 
ATOM     55  C   UNL A   1      42.789  30.343  35.842  1.00  0.00     0.031 C 
ATOM     56  C   UNL A   1      43.034  36.004  31.902  1.00  0.00     0.029 A 
ATOM     57  C   UNL A   1      43.273  34.742  31.206  1.00  0.00     0.049 A 
ATOM     58  H   UNL A   1      43.207  32.823  32.012  1.00  0.00     0.167 HD
ATOM     59  C   UNL A   1      43.168  28.852  33.900  1.00  0.00     0.037 A 
ATOM     60  C   UNL A   1      43.575  34.603  29.900  1.00  0.00     0.037 A 
ATOM     61  C   UNL A   1      43.416  28.603  32.504  1.00  0.00     0.049 A 
ATOM     62  C   UNL A   1      43.789  33.221  29.339  1.00  0.00     0.074 A 
ATOM     63  C   UNL A   1      43.560  27.392  31.853  1.00  0.00     0.029 A 
ATOM     64  N   UNL A   1      43.563  29.594  31.543  1.00  0.00    -0.354 N 
ATOM     65  N   UNL A   1      43.713  32.059  29.943  1.00  0.00    -0.248 NA
ATOM     66  C   UNL A   1      44.126  33.132  27.912  1.00  0.00     0.031 C 
ATOM     67  C   UNL A   1      43.842  27.649  30.507  1.00  0.00     0.029 A 
ATOM     68  C   UNL A   1      43.819  29.020  30.308  1.00  0.00     0.049 A 
ATOM     69  H   UNL A   1      43.497  30.561  31.713  1.00  0.00     0.167 HD
ATOM     70  C   UNL A   1      43.965  31.103  28.967  1.00  0.00     0.074 A 
ATOM     71  C   UNL A   1      44.177  31.821  27.728  1.00  0.00     0.031 C 
ATOM     72  C   UNL A   1      44.021  29.753  29.086  1.00  0.00     0.037 A 
BRANCH  59  73
ATOM     73  C   UNL A   1      43.071  27.673  34.824  1.00  0.00     0.064 A 
ATOM     74  C   UNL A   1      41.904  26.900  34.911  1.00  0.00     0.173 A 
ATOM     75  C   UNL A   1      44.173  27.287  35.602  1.00  0.00     0.173 A 
ATOM     76  F   UNL A   1      40.817  27.236  34.199  1.00  0.00    -0.203 F 
ATOM     77  C   UNL A   1      41.837  25.794  35.755  1.00  0.00     0.198 A 
ATOM     78  C   UNL A   1      44.112  26.165  36.425  1.00  0.00     0.198 A 
ATOM     79  F   UNL A   1      45.314  27.989  35.555  1.00  0.00    -0.203 F 
ATOM     80  F   UNL A   1      40.699  25.093  35.851  1.00  0.00    -0.200 F 
ATOM     81  C   UNL A   1      42.944  25.424  36.505  1.00  0.00     0.200 A 
ATOM     82  F   UNL A   1      45.186  25.800  37.139  1.00  0.00    -0.200 F 
ATOM     83  F   UNL A   1      42.882  24.353  37.309  1.00  0.00    -0.200 F 
ENDBRANCH  59  73
BRANCH  60  84
ATOM     84  C   UNL A   1      43.710  35.804  29.033  1.00  0.00     0.064 A 
ATOM     85  C   UNL A   1      42.606  36.335  28.355  1.00  0.00     0.173 A 
ATOM     86  C   UNL A   1      44.954  36.424  28.842  1.00  0.00     0.173 A 
ATOM     87  F   UNL A   1      41.400  35.762  28.486  1.00  0.00    -0.203 F 
ATOM     88  C   UNL A   1      42.744  37.425  27.497  1.00  0.00     0.198 A 
ATOM     89  C   UNL A   1      45.084  37.533  28.008  1.00  0.00     0.198 A 
ATOM     90  F   UNL A   1      46.043  35.953  29.466  1.00  0.00    -0.203 F 
ATOM     91  F   UNL A   1      41.681  37.879  26.818  1.00  0.00    -0.200 F 
ATOM     92  C   UNL A   1      43.981  38.027  27.329  1.00  0.00     0.200 A 
ATOM     93  F   UNL A   1      46.281  38.116  27.856  1.00  0.00    -0.200 F 
ATOM     94  F   UNL A   1      44.113  39.073  26.502  1.00  0.00    -0.200 F 
ENDBRANCH  60  84
BRANCH  72  95
ATOM     95  C   UNL A   1      44.285  28.966  27.834  1.00  0.00     0.064 A 
ATOM     96  C   UNL A   1      45.561  28.465  27.535  1.00  0.00     0.173 A 
ATOM     97  C   UNL A   1      43.242  28.685  26.938  1.00  0.00     0.173 A 
ATOM     98  F   UNL A   1      46.594  28.718  28.352  1.00  0.00    -0.203 F 
ATOM     99  C   UNL A   1      45.788  27.739  26.369  1.00  0.00     0.198 A 
ATOM    100  C   UNL A   1      43.467  27.932  25.789  1.00  0.00     0.198 A 
ATOM    101  F   UNL A   1      42.001  29.134  27.183  1.00  0.00    -0.203 F 
ATOM    102  F   UNL A   1      47.026  27.318  26.076  1.00  0.00    -0.200 F 
ATOM    103  C   UNL A   1      44.741  27.468  25.501  1.00  0.00     0.200 A 
ATOM    104  F   UNL A   1      42.450  27.658  24.960  1.00  0.00    -0.200 F 
ATOM    105  F   UNL A   1      44.961  26.766  24.381  1.00  0.00    -0.200 F 
ENDBRANCH  72  95
ENDBRANCH  46  47
ENDBRANCH  39  41
ENDBRANCH  38  39
ENDBRANCH  37  38
ENDBRANCH  36  37
ENDBRANCH  35  36
ENDBRANCH  34  35
ENDBRANCH   1  34
TORSDOF 19
ENDMDL
MODEL 3
REMARK VINA RESULT:     -11.6      4.611      7.909
REMARK SMILES O=C(CN1C(=O)CN(C(=O)OCC2c3ccccc3-c3ccccc32)c2ccccc21)OCCOCCOC(=O)c1ccc(-c2c3nc(c(-c4c(F)c(F)c(F)c(F)c4F)c4ccc([nH]4)c(-c4c(F)c(F)c(F)c(F)c4F)c4nc(c(-c5c(F)c(F)c(F)c(F)c5F)c5ccc2[nH]5)C=C4)C=C3)cc1
REMARK SMILES IDX 33 1 32 2 2 3 1 4 3 5 4 6 5 7 31 8 6 9 7 10 26 11 30 12 8 13
REMARK SMILES IDX 27 14 29 15 28 16 9 17 10 18 11 19 12 20 13 21 14 22 25 23
REMARK SMILES IDX 15 24 19 25 20 26 24 27 16 28 18 29 21 30 23 31 17 32 22 33
REMARK SMILES IDX 34 34 35 35 36 36 37 37 38 38 39 39 40 40 41 41 42 42 103 43
REMARK SMILES IDX 43 44 102 45 44 46 45 47 46 48 96 49 47 50 101 51 95 52
REMARK SMILES IDX 97 53 48 54 100 55 94 56 93 57 49 59 81 60 61 61 80 62 62 63
REMARK SMILES IDX 65 64 79 65 98 66 63 67 64 68 78 70 99 71 66 72 50 73 51 74
REMARK SMILES IDX 59 75 52 76 53 77 57 78 60 79 54 80 55 81 58 82 56 83 82 84
REMARK SMILES IDX 83 85 91 86 84 87 85 88 89 89 92 90 86 91 87 92 90 93 88 94
REMARK SMILES IDX 67 95 68 96 76 97 69 98 70 99 74 100 77 101 71 102 72 103
REMARK SMILES IDX 75 104 73 105
REMARK H PARENT 97 58 65 69
REMARK Flexibility Score: inf
ROOT
ATOM      1  C   UNL A   1      38.642  33.916  39.404  1.00  0.00     0.261 C 
ENDROOT
BRANCH   1   2
ATOM      2  O   UNL A   1      38.093  34.222  38.118  1.00  0.00    -0.462 OA
BRANCH   2   3
ATOM      3  C   UNL A   1      37.760  33.361  37.133  1.00  0.00     0.326 C 
ATOM      4  O   UNL A   1      37.384  32.229  37.460  1.00  0.00    -0.250 OA
BRANCH   3   5
ATOM      5  C   UNL A   1      38.061  33.626  35.651  1.00  0.00     0.248 C 
BRANCH   5   6
ATOM      6  N   UNL A   1      37.235  33.180  34.532  1.00  0.00    -0.298 N 
ATOM      7  C   UNL A   1      35.984  33.763  34.380  1.00  0.00     0.247 C 
ATOM      8  C   UNL A   1      37.456  31.896  33.921  1.00  0.00     0.068 A 
ATOM      9  O   UNL A   1      35.545  34.601  35.170  1.00  0.00    -0.272 OA
ATOM     10  C   UNL A   1      35.324  33.545  33.033  1.00  0.00     0.229 C 
ATOM     11  C   UNL A   1      36.616  31.449  32.873  1.00  0.00     0.071 A 
ATOM     12  C   UNL A   1      38.470  31.037  34.389  1.00  0.00     0.028 A 
ATOM     13  N   UNL A   1      35.678  32.353  32.292  1.00  0.00    -0.266 N 
ATOM     14  C   UNL A   1      36.792  30.147  32.372  1.00  0.00     0.029 A 
ATOM     15  C   UNL A   1      38.628  29.749  33.873  1.00  0.00     0.002 A 
ATOM     16  C   UNL A   1      37.778  29.299  32.877  1.00  0.00     0.002 A 
BRANCH  13  17
ATOM     17  C   UNL A   1      35.116  32.182  31.030  1.00  0.00     0.414 C 
ATOM     18  O   UNL A   1      34.096  32.713  30.615  1.00  0.00    -0.224 OA
BRANCH  17  19
ATOM     19  O   UNL A   1      35.800  31.235  30.320  1.00  0.00    -0.448 OA
BRANCH  19  20
ATOM     20  C   UNL A   1      36.020  31.490  28.912  1.00  0.00     0.248 C 
BRANCH  20  21
ATOM     21  C   UNL A   1      37.523  31.626  28.574  1.00  0.00     0.088 C 
ATOM     22  C   UNL A   1      38.274  32.584  29.498  1.00  0.00    -0.029 A 
ATOM     23  C   UNL A   1      38.269  30.316  28.844  1.00  0.00    -0.029 A 
ATOM     24  C   UNL A   1      38.156  33.960  29.611  1.00  0.00     0.005 A 
ATOM     25  C   UNL A   1      39.211  31.879  30.284  1.00  0.00    -0.014 A 
ATOM     26  C   UNL A   1      39.228  30.496  29.865  1.00  0.00    -0.014 A 
ATOM     27  C   UNL A   1      38.124  29.089  28.211  1.00  0.00     0.005 A 
ATOM     28  C   UNL A   1      38.907  34.619  30.586  1.00  0.00     0.000 A 
ATOM     29  C   UNL A   1      39.966  32.532  31.247  1.00  0.00     0.009 A 
ATOM     30  C   UNL A   1      40.038  29.448  30.271  1.00  0.00     0.009 A 
ATOM     31  C   UNL A   1      38.942  28.032  28.621  1.00  0.00     0.000 A 
ATOM     32  C   UNL A   1      39.794  33.909  31.407  1.00  0.00     0.001 A 
ATOM     33  C   UNL A   1      39.888  28.209  29.644  1.00  0.00     0.001 A 
ENDBRANCH  20  21
ENDBRANCH  19  20
ENDBRANCH  17  19
ENDBRANCH  13  17
ENDBRANCH   5   6
ENDBRANCH   3   5
ENDBRANCH   2   3
ENDBRANCH   1   2
BRANCH   1  34
ATOM     34  C   UNL A   1      39.433  35.032  40.082  1.00  0.00     0.202 C 
BRANCH  34  35
ATOM     35  O   UNL A   1      38.908  36.345  39.984  1.00  0.00    -0.374 OA
BRANCH  35  36
ATOM     36  C   UNL A   1      39.639  37.301  39.204  1.00  0.00     0.202 C 
BRANCH  36  37
ATOM     37  C   UNL A   1      40.988  37.791  39.745  1.00  0.00     0.261 C 
BRANCH  37  38
ATOM     38  O   UNL A   1      42.067  36.936  39.317  1.00  0.00    -0.460 OA
BRANCH  38  39
ATOM     39  C   UNL A   1      42.620  37.256  38.124  1.00  0.00     0.338 C 
ATOM     40  O   UNL A   1      43.138  38.312  37.805  1.00  0.00    -0.246 OA
BRANCH  39  41
ATOM     41  C   UNL A   1      42.693  36.057  37.274  1.00  0.00     0.060 A 
ATOM     42  C   UNL A   1      43.959  35.520  37.006  1.00  0.00     0.016 A 
ATOM     43  C   UNL A   1      41.552  35.535  36.662  1.00  0.00     0.016 A 
ATOM     44  C   UNL A   1      44.094  34.486  36.083  1.00  0.00     0.010 A 
ATOM     45  C   UNL A   1      41.691  34.505  35.728  1.00  0.00     0.010 A 
ATOM     46  C   UNL A   1      42.965  34.004  35.408  1.00  0.00    -0.014 A 
BRANCH  46  47
ATOM     47  C   UNL A   1      43.138  33.085  34.258  1.00  0.00     0.031 A 
ATOM     48  C   UNL A   1      43.280  33.668  32.880  1.00  0.00     0.074 A 
ATOM     49  C   UNL A   1      43.193  31.756  34.448  1.00  0.00     0.049 A 
ATOM     50  N   UNL A   1      43.402  33.059  31.728  1.00  0.00    -0.248 NA
ATOM     51  C   UNL A   1      43.284  35.137  32.787  1.00  0.00     0.031 C 
ATOM     52  C   UNL A   1      43.102  31.083  35.742  1.00  0.00     0.029 A 
ATOM     53  N   UNL A   1      43.329  30.733  33.544  1.00  0.00    -0.354 N 
ATOM     54  C   UNL A   1      43.495  34.067  30.777  1.00  0.00     0.074 A 
ATOM     55  C   UNL A   1      43.385  35.327  31.481  1.00  0.00     0.031 C 
ATOM     56  C   UNL A   1      43.170  29.755  35.548  1.00  0.00     0.029 A 
ATOM     57  C   UNL A   1      43.278  29.485  34.116  1.00  0.00     0.049 A 
ATOM     58  H   UNL A   1      43.451  30.878  32.578  1.00  0.00     0.167 HD
ATOM     59  C   UNL A   1      43.666  33.950  29.439  1.00  0.00     0.037 A 
ATOM     60  C   UNL A   1      43.294  28.268  33.539  1.00  0.00     0.037 A 
ATOM     61  C   UNL A   1      43.769  32.694  28.745  1.00  0.00     0.049 A 
ATOM     62  C   UNL A   1      43.415  28.167  32.041  1.00  0.00     0.074 A 
ATOM     63  C   UNL A   1      43.952  32.464  27.393  1.00  0.00     0.029 A 
ATOM     64  N   UNL A   1      43.689  31.450  29.355  1.00  0.00    -0.354 N 
ATOM     65  N   UNL A   1      43.528  29.124  31.151  1.00  0.00    -0.248 NA
ATOM     66  C   UNL A   1      43.415  26.815  31.467  1.00  0.00     0.031 C 
ATOM     67  C   UNL A   1      43.937  31.082  27.178  1.00  0.00     0.029 A 
ATOM     68  C   UNL A   1      43.798  30.449  28.403  1.00  0.00     0.049 A 
ATOM     69  H   UNL A   1      43.573  31.300  30.321  1.00  0.00     0.167 HD
ATOM     70  C   UNL A   1      43.641  28.491  29.920  1.00  0.00     0.074 A 
ATOM     71  C   UNL A   1      43.601  27.068  30.179  1.00  0.00     0.031 C 
ATOM     72  C   UNL A   1      43.762  29.037  28.684  1.00  0.00     0.037 A 
BRANCH  59  73
ATOM     73  C   UNL A   1      43.732  35.214  28.633  1.00  0.00     0.064 A 
ATOM     74  C   UNL A   1      42.572  35.863  28.183  1.00  0.00     0.173 A 
ATOM     75  C   UNL A   1      44.970  35.807  28.341  1.00  0.00     0.173 A 
ATOM     76  F   UNL A   1      41.365  35.329  28.423  1.00  0.00    -0.203 F 
ATOM     77  C   UNL A   1      42.649  37.048  27.457  1.00  0.00     0.198 A 
ATOM     78  C   UNL A   1      45.042  37.007  27.638  1.00  0.00     0.198 A 
ATOM     79  F   UNL A   1      46.110  35.231  28.749  1.00  0.00    -0.203 F 
ATOM     80  F   UNL A   1      41.530  37.630  27.005  1.00  0.00    -0.200 F 
ATOM     81  C   UNL A   1      43.883  37.623  27.192  1.00  0.00     0.200 A 
ATOM     82  F   UNL A   1      46.235  37.568  27.392  1.00  0.00    -0.200 F 
ATOM     83  F   UNL A   1      43.956  38.770  26.502  1.00  0.00    -0.200 F 
ENDBRANCH  59  73
BRANCH  60  84
ATOM     84  C   UNL A   1      43.174  27.044  34.375  1.00  0.00     0.064 A 
ATOM     85  C   UNL A   1      41.920  26.542  34.749  1.00  0.00     0.173 A 
ATOM     86  C   UNL A   1      44.312  26.370  34.843  1.00  0.00     0.173 A 
ATOM     87  F   UNL A   1      40.803  27.166  34.348  1.00  0.00    -0.203 F 
ATOM     88  C   UNL A   1      41.810  25.429  35.580  1.00  0.00     0.198 A 
ATOM     89  C   UNL A   1      44.199  25.239  35.648  1.00  0.00     0.198 A 
ATOM     90  F   UNL A   1      45.536  26.811  34.517  1.00  0.00    -0.203 F 
ATOM     91  F   UNL A   1      40.599  25.003  35.968  1.00  0.00    -0.200 F 
ATOM     92  C   UNL A   1      42.948  24.774  36.025  1.00  0.00     0.200 A 
ATOM     93  F   UNL A   1      45.303  24.605  36.067  1.00  0.00    -0.200 F 
ATOM     94  F   UNL A   1      42.840  23.706  36.826  1.00  0.00    -0.200 F 
ENDBRANCH  60  84
BRANCH  72  95
ATOM     95  C   UNL A   1      43.898  28.090  27.527  1.00  0.00     0.064 A 
ATOM     96  C   UNL A   1      45.120  27.471  27.221  1.00  0.00     0.173 A 
ATOM     97  C   UNL A   1      42.785  27.776  26.732  1.00  0.00     0.173 A 
ATOM     98  F   UNL A   1      46.216  27.749  27.943  1.00  0.00    -0.203 F 
ATOM     99  C   UNL A   1      45.228  26.597  26.143  1.00  0.00     0.198 A 
ATOM    100  C   UNL A   1      42.891  26.877  25.673  1.00  0.00     0.198 A 
ATOM    101  F   UNL A   1      41.592  28.334  26.987  1.00  0.00    -0.203 F 
ATOM    102  F   UNL A   1      46.418  26.060  25.836  1.00  0.00    -0.200 F 
ATOM    103  C   UNL A   1      44.114  26.297  25.374  1.00  0.00     0.200 A 
ATOM    104  F   UNL A   1      41.809  26.576  24.942  1.00  0.00    -0.200 F 
ATOM    105  F   UNL A   1      44.220  25.453  24.339  1.00  0.00    -0.200 F 
ENDBRANCH  72  95
ENDBRANCH  46  47
ENDBRANCH  39  41
ENDBRANCH  38  39
ENDBRANCH  37  38
ENDBRANCH  36  37
ENDBRANCH  35  36
ENDBRANCH  34  35
ENDBRANCH   1  34
TORSDOF 19
ENDMDL
