MODEL 1
REMARK VINA RESULT:     -12.2      0.000      0.000
REMARK SMILES O=C(Nc1ccc2c(c1)OCO2)N[C@H]1C=C[C@@H](C(=O)OCCOCCOC(=O)c2ccc(-c3c4nc(c(-c5c(F)c(F)c(F)c(F)c5F)c5ccc([nH]5)c(-c5c(F)c(F)c(F)c(F)c5F)c5nc(c(-c6c(F)c(F)c(F)c(F)c6F)c6ccc3[nH]6)C=C5)C=C4)cc2)C1
REMARK SMILES IDX 23 1 22 2 21 3 20 4 18 5 19 6 17 7 14 8 15 9 92 10 16 11
REMARK SMILES IDX 13 12 1 13 2 14 3 15 4 18 5 19 9 20 6 21 8 22 7 23 10 24
REMARK SMILES IDX 12 25 11 26 24 27 25 28 26 29 27 30 28 31 29 32 30 33 91 34
REMARK SMILES IDX 31 35 90 36 32 37 33 38 34 39 84 40 35 41 89 42 83 43 85 44
REMARK SMILES IDX 36 45 88 46 82 47 81 48 37 50 69 51 49 52 68 53 50 54 53 55
REMARK SMILES IDX 67 56 86 57 51 58 52 59 66 61 87 62 54 63 38 64 39 65 47 66
REMARK SMILES IDX 40 67 41 68 45 69 48 70 42 71 43 72 46 73 44 74 70 75 71 76
REMARK SMILES IDX 79 77 72 78 73 79 77 80 80 81 74 82 75 83 78 84 76 85 55 86
REMARK SMILES IDX 56 87 64 88 57 89 58 90 62 91 65 92 59 93 60 94 63 95 61 96
REMARK H PARENT 3 16 13 17 85 49 53 60
REMARK Flexibility Score: inf
ROOT
ATOM      1  O   UNL A   1      41.762  21.367  26.799  1.00  0.00    -0.374 OA
ENDROOT
BRANCH   1   2
ATOM      2  C   UNL A   1      40.448  21.008  26.373  1.00  0.00     0.202 C 
BRANCH   2   3
ATOM      3  C   UNL A   1      39.403  22.124  26.418  1.00  0.00     0.261 C 
BRANCH   3   4
ATOM      4  O   UNL A   1      38.225  21.749  25.684  1.00  0.00    -0.463 OA
BRANCH   4   5
ATOM      5  C   UNL A   1      37.201  22.638  25.728  1.00  0.00     0.312 C 
ATOM      6  O   UNL A   1      37.333  23.840  25.935  1.00  0.00    -0.252 OA
BRANCH   5   7
ATOM      7  C   UNL A   1      35.840  22.006  25.471  1.00  0.00     0.124 C 
ATOM      8  C   UNL A   1      33.448  22.324  25.228  1.00  0.00     0.107 C 
ATOM      9  C   UNL A   1      34.133  22.367  23.902  1.00  0.00    -0.006 C 
ATOM     10  C   UNL A   1      34.613  22.573  26.196  1.00  0.00     0.048 C 
ATOM     11  C   UNL A   1      35.452  22.176  24.031  1.00  0.00    -0.014 C 
BRANCH   8  12
ATOM     12  N   UNL A   1      32.441  23.347  25.285  1.00  0.00    -0.332 N 
ATOM     13  O   UNL A   1      30.727  21.942  25.820  1.00  0.00    -0.248 OA
ATOM     14  C   UNL A   1      31.134  23.068  25.549  1.00  0.00     0.319 C 
ATOM     15  N   UNL A   1      30.277  24.126  25.626  1.00  0.00    -0.308 N 
ATOM     16  H   UNL A   1      29.428  23.928  26.086  1.00  0.00     0.171 HD
ATOM     17  H   UNL A   1      32.705  24.283  25.128  1.00  0.00     0.165 HD
BRANCH  15  18
ATOM     18  C   UNL A   1      30.391  25.447  25.167  1.00  0.00     0.046 A 
ATOM     19  C   UNL A   1      29.946  25.857  23.893  1.00  0.00     0.030 A 
ATOM     20  C   UNL A   1      30.940  26.386  26.048  1.00  0.00     0.076 A 
ATOM     21  C   UNL A   1      30.116  27.179  23.465  1.00  0.00     0.053 A 
ATOM     22  C   UNL A   1      31.114  27.676  25.592  1.00  0.00     0.167 A 
ATOM     23  C   UNL A   1      30.722  28.059  24.332  1.00  0.00     0.165 A 
ATOM     24  O   UNL A   1      31.690  28.693  26.288  1.00  0.00    -0.454 OA
ATOM     25  O   UNL A   1      30.999  29.365  24.077  1.00  0.00    -0.454 OA
ATOM     26  C   UNL A   1      31.643  29.753  25.308  1.00  0.00     0.468 C 
ENDBRANCH  15  18
ENDBRANCH   8  12
ENDBRANCH   5   7
ENDBRANCH   4   5
ENDBRANCH   3   4
ENDBRANCH   2   3
ENDBRANCH   1   2
BRANCH   1  27
ATOM     27  C   UNL A   1      42.867  20.815  26.082  1.00  0.00     0.202 C 
BRANCH  27  28
ATOM     28  C   UNL A   1      43.656  21.785  25.193  1.00  0.00     0.261 C 
BRANCH  28  29
ATOM     29  O   UNL A   1      42.900  22.964  24.857  1.00  0.00    -0.460 OA
BRANCH  29  30
ATOM     30  C   UNL A   1      43.596  24.123  24.936  1.00  0.00     0.338 C 
ATOM     31  O   UNL A   1      44.576  24.447  24.280  1.00  0.00    -0.246 OA
BRANCH  30  32
ATOM     32  C   UNL A   1      42.914  25.071  25.834  1.00  0.00     0.060 A 
ATOM     33  C   UNL A   1      43.533  26.308  26.056  1.00  0.00     0.016 A 
ATOM     34  C   UNL A   1      41.749  24.727  26.523  1.00  0.00     0.016 A 
ATOM     35  C   UNL A   1      43.017  27.187  27.007  1.00  0.00     0.010 A 
ATOM     36  C   UNL A   1      41.237  25.606  27.484  1.00  0.00     0.010 A 
ATOM     37  C   UNL A   1      41.892  26.822  27.755  1.00  0.00    -0.014 A 
BRANCH  37  38
ATOM     38  C   UNL A   1      41.494  27.649  28.920  1.00  0.00     0.031 A 
ATOM     39  C   UNL A   1      42.272  27.531  30.200  1.00  0.00     0.074 A 
ATOM     40  C   UNL A   1      40.471  28.514  28.831  1.00  0.00     0.049 A 
ATOM     41  N   UNL A   1      42.087  28.137  31.345  1.00  0.00    -0.248 NA
ATOM     42  C   UNL A   1      43.412  26.602  30.187  1.00  0.00     0.031 C 
ATOM     43  C   UNL A   1      39.662  28.742  27.636  1.00  0.00     0.029 A 
ATOM     44  N   UNL A   1      39.934  29.357  29.772  1.00  0.00    -0.354 N 
ATOM     45  C   UNL A   1      43.084  27.664  32.188  1.00  0.00     0.074 A 
ATOM     46  C   UNL A   1      43.851  26.695  31.433  1.00  0.00     0.031 C 
ATOM     47  C   UNL A   1      38.716  29.653  27.921  1.00  0.00     0.029 A 
ATOM     48  C   UNL A   1      38.839  30.050  29.323  1.00  0.00     0.049 A 
ATOM     49  H   UNL A   1      40.299  29.454  30.681  1.00  0.00     0.167 HD
ATOM     50  C   UNL A   1      43.344  28.013  33.471  1.00  0.00     0.037 A 
ATOM     51  C   UNL A   1      38.016  30.893  29.977  1.00  0.00     0.037 A 
ATOM     52  C   UNL A   1      42.579  28.972  34.222  1.00  0.00     0.049 A 
ATOM     53  C   UNL A   1      38.284  31.221  31.421  1.00  0.00     0.074 A 
ATOM     54  C   UNL A   1      42.775  29.410  35.520  1.00  0.00     0.029 A 
ATOM     55  N   UNL A   1      41.460  29.638  33.741  1.00  0.00    -0.354 N 
ATOM     56  N   UNL A   1      39.245  30.791  32.203  1.00  0.00    -0.248 NA
ATOM     57  C   UNL A   1      37.356  32.157  32.073  1.00  0.00     0.031 C 
ATOM     58  C   UNL A   1      41.746  30.303  35.841  1.00  0.00     0.029 A 
ATOM     59  C   UNL A   1      40.938  30.461  34.727  1.00  0.00     0.049 A 
ATOM     60  H   UNL A   1      41.092  29.540  32.833  1.00  0.00     0.167 HD
ATOM     61  C   UNL A   1      39.050  31.415  33.429  1.00  0.00     0.074 A 
ATOM     62  C   UNL A   1      37.886  32.265  33.284  1.00  0.00     0.031 C 
ATOM     63  C   UNL A   1      39.774  31.297  34.569  1.00  0.00     0.037 A 
BRANCH  50  64
ATOM     64  C   UNL A   1      44.489  27.321  34.150  1.00  0.00     0.064 A 
ATOM     65  C   UNL A   1      45.813  27.758  33.993  1.00  0.00     0.173 A 
ATOM     66  C   UNL A   1      44.258  26.206  34.970  1.00  0.00     0.173 A 
ATOM     67  F   UNL A   1      46.087  28.810  33.206  1.00  0.00    -0.203 F 
ATOM     68  C   UNL A   1      46.867  27.083  34.605  1.00  0.00     0.198 A 
ATOM     69  C   UNL A   1      45.312  25.551  35.602  1.00  0.00     0.198 A 
ATOM     70  F   UNL A   1      43.011  25.749  35.155  1.00  0.00    -0.203 F 
ATOM     71  F   UNL A   1      48.129  27.485  34.395  1.00  0.00    -0.200 F 
ATOM     72  C   UNL A   1      46.616  25.984  35.411  1.00  0.00     0.200 A 
ATOM     73  F   UNL A   1      45.067  24.494  36.389  1.00  0.00    -0.200 F 
ATOM     74  F   UNL A   1      47.632  25.333  35.996  1.00  0.00    -0.200 F 
ENDBRANCH  50  64
BRANCH  51  75
ATOM     75  C   UNL A   1      36.851  31.474  29.263  1.00  0.00     0.064 A 
ATOM     76  C   UNL A   1      35.709  30.710  28.992  1.00  0.00     0.173 A 
ATOM     77  C   UNL A   1      36.852  32.817  28.856  1.00  0.00     0.173 A 
ATOM     78  F   UNL A   1      35.672  29.416  29.341  1.00  0.00    -0.203 F 
ATOM     79  C   UNL A   1      34.612  31.266  28.337  1.00  0.00     0.198 A 
ATOM     80  C   UNL A   1      35.746  33.378  28.223  1.00  0.00     0.198 A 
ATOM     81  F   UNL A   1      37.924  33.590  29.092  1.00  0.00    -0.203 F 
ATOM     82  F   UNL A   1      33.543  30.506  28.064  1.00  0.00    -0.200 F 
ATOM     83  C   UNL A   1      34.629  32.601  27.961  1.00  0.00     0.200 A 
ATOM     84  F   UNL A   1      35.762  34.671  27.873  1.00  0.00    -0.200 F 
ATOM     85  F   UNL A   1      33.568  33.138  27.343  1.00  0.00    -0.200 F 
ENDBRANCH  51  75
BRANCH  63  86
ATOM     86  C   UNL A   1      39.341  32.118  35.749  1.00  0.00     0.064 A 
ATOM     87  C   UNL A   1      39.821  33.420  35.953  1.00  0.00     0.173 A 
ATOM     88  C   UNL A   1      38.401  31.614  36.662  1.00  0.00     0.173 A 
ATOM     89  F   UNL A   1      40.731  33.942  35.117  1.00  0.00    -0.203 F 
ATOM     90  C   UNL A   1      39.390  34.181  37.037  1.00  0.00     0.198 A 
ATOM     91  C   UNL A   1      37.953  32.386  37.729  1.00  0.00     0.198 A 
ATOM     92  F   UNL A   1      37.907  30.376  36.508  1.00  0.00    -0.203 F 
ATOM     93  F   UNL A   1      39.891  35.408  37.235  1.00  0.00    -0.200 F 
ATOM     94  C   UNL A   1      38.451  33.666  37.920  1.00  0.00     0.200 A 
ATOM     95  F   UNL A   1      37.036  31.892  38.573  1.00  0.00    -0.200 F 
ATOM     96  F   UNL A   1      38.031  34.402  38.957  1.00  0.00    -0.200 F 
ENDBRANCH  63  86
ENDBRANCH  37  38
ENDBRANCH  30  32
ENDBRANCH  29  30
ENDBRANCH  28  29
ENDBRANCH  27  28
ENDBRANCH   1  27
TORSDOF 16
ENDMDL
MODEL 2
REMARK VINA RESULT:     -12.1      2.505      8.475
REMARK SMILES O=C(Nc1ccc2c(c1)OCO2)N[C@H]1C=C[C@@H](C(=O)OCCOCCOC(=O)c2ccc(-c3c4nc(c(-c5c(F)c(F)c(F)c(F)c5F)c5ccc([nH]5)c(-c5c(F)c(F)c(F)c(F)c5F)c5nc(c(-c6c(F)c(F)c(F)c(F)c6F)c6ccc3[nH]6)C=C5)C=C4)cc2)C1
REMARK SMILES IDX 23 1 22 2 21 3 20 4 18 5 19 6 17 7 14 8 15 9 92 10 16 11
REMARK SMILES IDX 13 12 1 13 2 14 3 15 4 18 5 19 9 20 6 21 8 22 7 23 10 24
REMARK SMILES IDX 12 25 11 26 24 27 25 28 26 29 27 30 28 31 29 32 30 33 91 34
REMARK SMILES IDX 31 35 90 36 32 37 33 38 34 39 84 40 35 41 89 42 83 43 85 44
REMARK SMILES IDX 36 45 88 46 82 47 81 48 37 50 69 51 49 52 68 53 50 54 53 55
REMARK SMILES IDX 67 56 86 57 51 58 52 59 66 61 87 62 54 63 38 64 39 65 47 66
REMARK SMILES IDX 40 67 41 68 45 69 48 70 42 71 43 72 46 73 44 74 70 75 71 76
REMARK SMILES IDX 79 77 72 78 73 79 77 80 80 81 74 82 75 83 78 84 76 85 55 86
REMARK SMILES IDX 56 87 64 88 57 89 58 90 62 91 65 92 59 93 60 94 63 95 61 96
REMARK H PARENT 3 16 13 17 85 49 53 60
REMARK Flexibility Score: inf
ROOT
ATOM      1  O   UNL A   1      29.746  30.859  24.258  1.00  0.00    -0.374 OA
ENDROOT
BRANCH   1   2
ATOM      2  C   UNL A   1      29.473  30.398  22.935  1.00  0.00     0.202 C 
BRANCH   2   3
ATOM      3  C   UNL A   1      29.004  28.947  22.816  1.00  0.00     0.261 C 
BRANCH   3   4
ATOM      4  O   UNL A   1      29.938  28.171  22.047  1.00  0.00    -0.463 OA
BRANCH   4   5
ATOM      5  C   UNL A   1      30.893  27.526  22.766  1.00  0.00     0.312 C 
ATOM      6  O   UNL A   1      32.096  27.583  22.530  1.00  0.00    -0.252 OA
BRANCH   5   7
ATOM      7  C   UNL A   1      30.333  26.726  23.933  1.00  0.00     0.124 C 
ATOM      8  C   UNL A   1      30.587  24.828  25.423  1.00  0.00     0.107 C 
ATOM      9  C   UNL A   1      31.172  26.065  26.022  1.00  0.00    -0.006 C 
ATOM     10  C   UNL A   1      30.511  25.202  23.936  1.00  0.00     0.048 C 
ATOM     11  C   UNL A   1      31.019  27.117  25.210  1.00  0.00    -0.014 C 
BRANCH   8  12
ATOM     12  N   UNL A   1      31.453  23.711  25.678  1.00  0.00    -0.332 N 
ATOM     13  O   UNL A   1      30.410  23.056  27.596  1.00  0.00    -0.248 OA
ATOM     14  C   UNL A   1      31.315  22.920  26.778  1.00  0.00     0.319 C 
ATOM     15  N   UNL A   1      32.164  21.859  26.891  1.00  0.00    -0.308 N 
ATOM     16  H   UNL A   1      31.865  21.164  27.521  1.00  0.00     0.171 HD
ATOM     17  H   UNL A   1      32.173  23.511  25.036  1.00  0.00     0.165 HD
BRANCH  15  18
ATOM     18  C   UNL A   1      33.390  21.582  26.265  1.00  0.00     0.046 A 
ATOM     19  C   UNL A   1      33.589  20.463  25.429  1.00  0.00     0.030 A 
ATOM     20  C   UNL A   1      34.433  22.493  26.468  1.00  0.00     0.076 A 
ATOM     21  C   UNL A   1      34.840  20.208  24.857  1.00  0.00     0.053 A 
ATOM     22  C   UNL A   1      35.661  22.205  25.909  1.00  0.00     0.167 A 
ATOM     23  C   UNL A   1      35.861  21.088  25.134  1.00  0.00     0.165 A 
ATOM     24  O   UNL A   1      36.794  22.942  26.061  1.00  0.00    -0.454 OA
ATOM     25  O   UNL A   1      37.143  20.984  24.697  1.00  0.00    -0.454 OA
ATOM     26  C   UNL A   1      37.739  22.144  25.315  1.00  0.00     0.468 C 
ENDBRANCH  15  18
ENDBRANCH   8  12
ENDBRANCH   5   7
ENDBRANCH   4   5
ENDBRANCH   3   4
ENDBRANCH   2   3
ENDBRANCH   1   2
BRANCH   1  27
ATOM     27  C   UNL A   1      31.005  30.513  24.835  1.00  0.00     0.202 C 
BRANCH  27  28
ATOM     28  C   UNL A   1      31.323  31.137  26.201  1.00  0.00     0.261 C 
BRANCH  28  29
ATOM     29  O   UNL A   1      32.675  30.874  26.625  1.00  0.00    -0.460 OA
BRANCH  29  30
ATOM     30  C   UNL A   1      33.281  31.910  27.253  1.00  0.00     0.338 C 
ATOM     31  O   UNL A   1      32.796  33.000  27.526  1.00  0.00    -0.246 OA
BRANCH  30  32
ATOM     32  C   UNL A   1      34.611  31.507  27.743  1.00  0.00     0.060 A 
ATOM     33  C   UNL A   1      34.791  30.159  28.082  1.00  0.00     0.016 A 
ATOM     34  C   UNL A   1      35.629  32.436  27.963  1.00  0.00     0.016 A 
ATOM     35  C   UNL A   1      35.974  29.744  28.690  1.00  0.00     0.010 A 
ATOM     36  C   UNL A   1      36.813  32.020  28.581  1.00  0.00     0.010 A 
ATOM     37  C   UNL A   1      36.974  30.680  28.981  1.00  0.00    -0.014 A 
BRANCH  37  38
ATOM     38  C   UNL A   1      38.118  30.280  29.834  1.00  0.00     0.031 A 
ATOM     39  C   UNL A   1      39.124  29.301  29.296  1.00  0.00     0.074 A 
ATOM     40  C   UNL A   1      38.276  30.801  31.061  1.00  0.00     0.049 A 
ATOM     41  N   UNL A   1      40.184  28.796  29.874  1.00  0.00    -0.248 NA
ATOM     42  C   UNL A   1      38.902  28.828  27.922  1.00  0.00     0.031 C 
ATOM     43  C   UNL A   1      37.388  31.782  31.681  1.00  0.00     0.029 A 
ATOM     44  N   UNL A   1      39.241  30.569  32.010  1.00  0.00    -0.354 N 
ATOM     45  C   UNL A   1      40.755  27.946  28.936  1.00  0.00     0.074 A 
ATOM     46  C   UNL A   1      39.905  27.978  27.764  1.00  0.00     0.031 C 
ATOM     47  C   UNL A   1      37.838  32.054  32.917  1.00  0.00     0.029 A 
ATOM     48  C   UNL A   1      39.029  31.248  33.183  1.00  0.00     0.049 A 
ATOM     49  H   UNL A   1      40.009  29.971  31.864  1.00  0.00     0.167 HD
ATOM     50  C   UNL A   1      41.890  27.213  29.038  1.00  0.00     0.037 A 
ATOM     51  C   UNL A   1      39.708  31.208  34.345  1.00  0.00     0.037 A 
ATOM     52  C   UNL A   1      42.732  27.178  30.204  1.00  0.00     0.049 A 
ATOM     53  C   UNL A   1      40.932  30.340  34.460  1.00  0.00     0.074 A 
ATOM     54  C   UNL A   1      43.913  26.485  30.398  1.00  0.00     0.029 A 
ATOM     55  N   UNL A   1      42.473  27.863  31.384  1.00  0.00    -0.354 N 
ATOM     56  N   UNL A   1      41.482  29.561  33.560  1.00  0.00    -0.248 NA
ATOM     57  C   UNL A   1      41.635  30.350  35.752  1.00  0.00     0.031 C 
ATOM     58  C   UNL A   1      44.343  26.711  31.711  1.00  0.00     0.029 A 
ATOM     59  C   UNL A   1      43.457  27.585  32.319  1.00  0.00     0.049 A 
ATOM     60  H   UNL A   1      41.703  28.459  31.533  1.00  0.00     0.167 HD
ATOM     61  C   UNL A   1      42.601  29.004  34.166  1.00  0.00     0.074 A 
ATOM     62  C   UNL A   1      42.660  29.545  35.509  1.00  0.00     0.031 C 
ATOM     63  C   UNL A   1      43.499  28.127  33.655  1.00  0.00     0.037 A 
BRANCH  50  64
ATOM     64  C   UNL A   1      42.265  26.363  27.859  1.00  0.00     0.064 A 
ATOM     65  C   UNL A   1      43.189  26.800  26.898  1.00  0.00     0.173 A 
ATOM     66  C   UNL A   1      41.692  25.094  27.690  1.00  0.00     0.173 A 
ATOM     67  F   UNL A   1      43.753  28.013  27.007  1.00  0.00    -0.203 F 
ATOM     68  C   UNL A   1      43.500  26.011  25.794  1.00  0.00     0.198 A 
ATOM     69  C   UNL A   1      42.026  24.297  26.599  1.00  0.00     0.198 A 
ATOM     70  F   UNL A   1      40.804  24.628  28.581  1.00  0.00    -0.203 F 
ATOM     71  F   UNL A   1      44.343  26.473  24.858  1.00  0.00    -0.200 F 
ATOM     72  C   UNL A   1      42.922  24.760  25.646  1.00  0.00     0.200 A 
ATOM     73  F   UNL A   1      41.473  23.083  26.463  1.00  0.00    -0.200 F 
ATOM     74  F   UNL A   1      43.218  24.003  24.580  1.00  0.00    -0.200 F 
ENDBRANCH  50  64
BRANCH  51  75
ATOM     75  C   UNL A   1      39.228  32.012  35.497  1.00  0.00     0.064 A 
ATOM     76  C   UNL A   1      38.407  31.452  36.484  1.00  0.00     0.173 A 
ATOM     77  C   UNL A   1      39.603  33.357  35.643  1.00  0.00     0.173 A 
ATOM     78  F   UNL A   1      38.004  30.178  36.374  1.00  0.00    -0.203 F 
ATOM     79  C   UNL A   1      37.975  32.207  37.572  1.00  0.00     0.198 A 
ATOM     80  C   UNL A   1      39.191  34.103  36.743  1.00  0.00     0.198 A 
ATOM     81  F   UNL A   1      40.388  33.939  34.724  1.00  0.00    -0.203 F 
ATOM     82  F   UNL A   1      37.166  31.656  38.487  1.00  0.00    -0.200 F 
ATOM     83  C   UNL A   1      38.373  33.529  37.705  1.00  0.00     0.200 A 
ATOM     84  F   UNL A   1      39.588  35.376  36.874  1.00  0.00    -0.200 F 
ATOM     85  F   UNL A   1      37.968  34.250  38.759  1.00  0.00    -0.200 F 
ENDBRANCH  51  75
BRANCH  63  86
ATOM     86  C   UNL A   1      44.636  27.708  34.540  1.00  0.00     0.064 A 
ATOM     87  C   UNL A   1      44.554  26.564  35.348  1.00  0.00     0.173 A 
ATOM     88  C   UNL A   1      45.838  28.432  34.547  1.00  0.00     0.173 A 
ATOM     89  F   UNL A   1      43.423  25.846  35.389  1.00  0.00    -0.203 F 
ATOM     90  C   UNL A   1      45.628  26.171  36.144  1.00  0.00     0.198 A 
ATOM     91  C   UNL A   1      46.918  28.023  35.323  1.00  0.00     0.198 A 
ATOM     92  F   UNL A   1      45.969  29.530  33.787  1.00  0.00    -0.203 F 
ATOM     93  F   UNL A   1      45.514  25.098  36.938  1.00  0.00    -0.200 F 
ATOM     94  C   UNL A   1      46.811  26.896  36.126  1.00  0.00     0.200 A 
ATOM     95  F   UNL A   1      48.065  28.716  35.294  1.00  0.00    -0.200 F 
ATOM     96  F   UNL A   1      47.846  26.512  36.885  1.00  0.00    -0.200 F 
ENDBRANCH  63  86
ENDBRANCH  37  38
ENDBRANCH  30  32
ENDBRANCH  29  30
ENDBRANCH  28  29
ENDBRANCH  27  28
ENDBRANCH   1  27
TORSDOF 16
ENDMDL
MODEL 3
REMARK VINA RESULT:     -12.0      4.886     10.434
REMARK SMILES O=C(Nc1ccc2c(c1)OCO2)N[C@H]1C=C[C@@H](C(=O)OCCOCCOC(=O)c2ccc(-c3c4nc(c(-c5c(F)c(F)c(F)c(F)c5F)c5ccc([nH]5)c(-c5c(F)c(F)c(F)c(F)c5F)c5nc(c(-c6c(F)c(F)c(F)c(F)c6F)c6ccc3[nH]6)C=C5)C=C4)cc2)C1
REMARK SMILES IDX 23 1 22 2 21 3 20 4 18 5 19 6 17 7 14 8 15 9 92 10 16 11
REMARK SMILES IDX 13 12 1 13 2 14 3 15 4 18 5 19 9 20 6 21 8 22 7 23 10 24
REMARK SMILES IDX 12 25 11 26 24 27 25 28 26 29 27 30 28 31 29 32 30 33 91 34
REMARK SMILES IDX 31 35 90 36 32 37 33 38 34 39 84 40 35 41 89 42 83 43 85 44
REMARK SMILES IDX 36 45 88 46 82 47 81 48 37 50 69 51 49 52 68 53 50 54 53 55
REMARK SMILES IDX 67 56 86 57 51 58 52 59 66 61 87 62 54 63 38 64 39 65 47 66
REMARK SMILES IDX 40 67 41 68 45 69 48 70 42 71 43 72 46 73 44 74 70 75 71 76
REMARK SMILES IDX 79 77 72 78 73 79 77 80 80 81 74 82 75 83 78 84 76 85 55 86
REMARK SMILES IDX 56 87 64 88 57 89 58 90 62 91 65 92 59 93 60 94 63 95 61 96
REMARK H PARENT 3 16 13 17 85 49 53 60
REMARK Flexibility Score: inf
ROOT
ATOM      1  O   UNL A   1      34.793  33.946  29.110  1.00  0.00    -0.374 OA
ENDROOT
BRANCH   1   2
ATOM      2  C   UNL A   1      34.174  33.211  28.055  1.00  0.00     0.202 C 
BRANCH   2   3
ATOM      3  C   UNL A   1      34.360  31.694  28.099  1.00  0.00     0.261 C 
BRANCH   3   4
ATOM      4  O   UNL A   1      33.304  31.030  27.383  1.00  0.00    -0.463 OA
BRANCH   4   5
ATOM      5  C   UNL A   1      33.641  29.845  26.812  1.00  0.00     0.312 C 
ATOM      6  O   UNL A   1      34.440  29.046  27.289  1.00  0.00    -0.252 OA
BRANCH   5   7
ATOM      7  C   UNL A   1      32.905  29.573  25.507  1.00  0.00     0.124 C 
ATOM      8  C   UNL A   1      32.299  27.965  23.795  1.00  0.00     0.107 C 
ATOM      9  C   UNL A   1      31.242  28.057  24.845  1.00  0.00    -0.006 C 
ATOM     10  C   UNL A   1      33.511  28.576  24.511  1.00  0.00     0.048 C 
ATOM     11  C   UNL A   1      31.566  28.955  25.783  1.00  0.00    -0.014 C 
BRANCH   8  12
ATOM     12  N   UNL A   1      32.497  26.591  23.427  1.00  0.00    -0.332 N 
ATOM     13  O   UNL A   1      31.151  26.657  21.589  1.00  0.00    -0.248 OA
ATOM     14  C   UNL A   1      31.873  26.027  22.356  1.00  0.00     0.319 C 
ATOM     15  N   UNL A   1      32.176  24.727  22.074  1.00  0.00    -0.308 N 
ATOM     16  H   UNL A   1      31.941  24.445  21.160  1.00  0.00     0.171 HD
ATOM     17  H   UNL A   1      33.105  26.037  23.969  1.00  0.00     0.165 HD
BRANCH  15  18
ATOM     18  C   UNL A   1      32.764  23.721  22.856  1.00  0.00     0.046 A 
ATOM     19  C   UNL A   1      34.161  23.553  22.965  1.00  0.00     0.030 A 
ATOM     20  C   UNL A   1      31.904  22.886  23.578  1.00  0.00     0.076 A 
ATOM     21  C   UNL A   1      34.700  22.511  23.728  1.00  0.00     0.053 A 
ATOM     22  C   UNL A   1      32.462  21.855  24.304  1.00  0.00     0.167 A 
ATOM     23  C   UNL A   1      33.822  21.667  24.369  1.00  0.00     0.165 A 
ATOM     24  O   UNL A   1      31.774  20.915  25.006  1.00  0.00    -0.454 OA
ATOM     25  O   UNL A   1      34.161  20.588  25.122  1.00  0.00    -0.454 OA
ATOM     26  C   UNL A   1      32.857  20.095  25.496  1.00  0.00     0.468 C 
ENDBRANCH  15  18
ENDBRANCH   8  12
ENDBRANCH   5   7
ENDBRANCH   4   5
ENDBRANCH   3   4
ENDBRANCH   2   3
ENDBRANCH   1   2
BRANCH   1  27
ATOM     27  C   UNL A   1      33.982  34.319  30.224  1.00  0.00     0.202 C 
BRANCH  27  28
ATOM     28  C   UNL A   1      34.539  33.987  31.615  1.00  0.00     0.261 C 
BRANCH  28  29
ATOM     29  O   UNL A   1      34.692  32.570  31.823  1.00  0.00    -0.460 OA
BRANCH  29  30
ATOM     30  C   UNL A   1      35.707  32.227  32.652  1.00  0.00     0.338 C 
ATOM     31  O   UNL A   1      35.771  32.405  33.861  1.00  0.00    -0.246 OA
BRANCH  30  32
ATOM     32  C   UNL A   1      36.713  31.430  31.930  1.00  0.00     0.060 A 
ATOM     33  C   UNL A   1      37.761  30.881  32.681  1.00  0.00     0.016 A 
ATOM     34  C   UNL A   1      36.693  31.301  30.540  1.00  0.00     0.016 A 
ATOM     35  C   UNL A   1      38.822  30.245  32.039  1.00  0.00     0.010 A 
ATOM     36  C   UNL A   1      37.763  30.669  29.896  1.00  0.00     0.010 A 
ATOM     37  C   UNL A   1      38.849  30.173  30.641  1.00  0.00    -0.014 A 
BRANCH  37  38
ATOM     38  C   UNL A   1      40.082  29.712  29.960  1.00  0.00     0.031 A 
ATOM     39  C   UNL A   1      41.226  30.672  29.789  1.00  0.00     0.074 A 
ATOM     40  C   UNL A   1      40.195  28.447  29.525  1.00  0.00     0.049 A 
ATOM     41  N   UNL A   1      42.384  30.492  29.207  1.00  0.00    -0.248 NA
ATOM     42  C   UNL A   1      41.035  32.019  30.349  1.00  0.00     0.031 C 
ATOM     43  C   UNL A   1      39.171  27.415  29.661  1.00  0.00     0.029 A 
ATOM     44  N   UNL A   1      41.226  27.819  28.870  1.00  0.00    -0.354 N 
ATOM     45  C   UNL A   1      43.059  31.700  29.329  1.00  0.00     0.074 A 
ATOM     46  C   UNL A   1      42.168  32.615  30.011  1.00  0.00     0.031 C 
ATOM     47  C   UNL A   1      39.616  26.283  29.089  1.00  0.00     0.029 A 
ATOM     48  C   UNL A   1      40.945  26.522  28.525  1.00  0.00     0.049 A 
ATOM     49  H   UNL A   1      42.083  28.258  28.667  1.00  0.00     0.167 HD
ATOM     50  C   UNL A   1      44.312  32.013  28.919  1.00  0.00     0.037 A 
ATOM     51  C   UNL A   1      41.668  25.635  27.816  1.00  0.00     0.037 A 
ATOM     52  C   UNL A   1      45.195  31.104  28.238  1.00  0.00     0.049 A 
ATOM     53  C   UNL A   1      43.034  26.023  27.315  1.00  0.00     0.074 A 
ATOM     54  C   UNL A   1      46.490  31.320  27.802  1.00  0.00     0.029 A 
ATOM     55  N   UNL A   1      44.867  29.803  27.884  1.00  0.00    -0.354 N 
ATOM     56  N   UNL A   1      43.677  27.156  27.459  1.00  0.00    -0.248 NA
ATOM     57  C   UNL A   1      43.778  25.004  26.559  1.00  0.00     0.031 C 
ATOM     58  C   UNL A   1      46.927  30.166  27.141  1.00  0.00     0.029 A 
ATOM     59  C   UNL A   1      45.924  29.214  27.209  1.00  0.00     0.049 A 
ATOM     60  H   UNL A   1      44.008  29.363  28.084  1.00  0.00     0.167 HD
ATOM     61  C   UNL A   1      44.904  26.984  26.830  1.00  0.00     0.074 A 
ATOM     62  C   UNL A   1      44.921  25.630  26.314  1.00  0.00     0.031 C 
ATOM     63  C   UNL A   1      45.924  27.867  26.696  1.00  0.00     0.037 A 
BRANCH  50  64
ATOM     64  C   UNL A   1      44.784  33.415  29.173  1.00  0.00     0.064 A 
ATOM     65  C   UNL A   1      45.508  33.753  30.327  1.00  0.00     0.173 A 
ATOM     66  C   UNL A   1      44.509  34.433  28.248  1.00  0.00     0.173 A 
ATOM     67  F   UNL A   1      45.781  32.817  31.249  1.00  0.00    -0.203 F 
ATOM     68  C   UNL A   1      45.909  35.065  30.561  1.00  0.00     0.198 A 
ATOM     69  C   UNL A   1      44.937  35.739  28.473  1.00  0.00     0.198 A 
ATOM     70  F   UNL A   1      43.823  34.164  27.127  1.00  0.00    -0.203 F 
ATOM     71  F   UNL A   1      46.550  35.375  31.697  1.00  0.00    -0.200 F 
ATOM     72  C   UNL A   1      45.627  36.056  29.633  1.00  0.00     0.200 A 
ATOM     73  F   UNL A   1      44.671  36.694  27.571  1.00  0.00    -0.200 F 
ATOM     74  F   UNL A   1      46.010  37.320  29.863  1.00  0.00    -0.200 F 
ENDBRANCH  50  64
BRANCH  51  75
ATOM     75  C   UNL A   1      41.100  24.293  27.531  1.00  0.00     0.064 A 
ATOM     76  C   UNL A   1      40.044  24.128  26.626  1.00  0.00     0.173 A 
ATOM     77  C   UNL A   1      41.622  23.144  28.145  1.00  0.00     0.173 A 
ATOM     78  F   UNL A   1      39.498  25.199  26.033  1.00  0.00    -0.203 F 
ATOM     79  C   UNL A   1      39.527  22.864  26.349  1.00  0.00     0.198 A 
ATOM     80  C   UNL A   1      41.121  21.879  27.850  1.00  0.00     0.198 A 
ATOM     81  F   UNL A   1      42.634  23.251  29.020  1.00  0.00    -0.203 F 
ATOM     82  F   UNL A   1      38.497  22.736  25.502  1.00  0.00    -0.200 F 
ATOM     83  C   UNL A   1      40.071  21.741  26.955  1.00  0.00     0.200 A 
ATOM     84  F   UNL A   1      41.657  20.796  28.427  1.00  0.00    -0.200 F 
ATOM     85  F   UNL A   1      39.581  20.525  26.677  1.00  0.00    -0.200 F 
ENDBRANCH  51  75
BRANCH  63  86
ATOM     86  C   UNL A   1      47.155  27.395  25.978  1.00  0.00     0.064 A 
ATOM     87  C   UNL A   1      47.328  27.604  24.602  1.00  0.00     0.173 A 
ATOM     88  C   UNL A   1      48.194  26.768  26.683  1.00  0.00     0.173 A 
ATOM     89  F   UNL A   1      46.359  28.186  23.880  1.00  0.00    -0.203 F 
ATOM     90  C   UNL A   1      48.488  27.186  23.955  1.00  0.00     0.198 A 
ATOM     91  C   UNL A   1      49.363  26.375  26.038  1.00  0.00     0.198 A 
ATOM     92  F   UNL A   1      48.080  26.550  28.002  1.00  0.00    -0.203 F 
ATOM     93  F   UNL A   1      48.616  27.360  22.632  1.00  0.00    -0.200 F 
ATOM     94  C   UNL A   1      49.507  26.578  24.674  1.00  0.00     0.200 A 
ATOM     95  F   UNL A   1      50.352  25.800  26.737  1.00  0.00    -0.200 F 
ATOM     96  F   UNL A   1      50.626  26.184  24.051  1.00  0.00    -0.200 F 
ENDBRANCH  63  86
ENDBRANCH  37  38
ENDBRANCH  30  32
ENDBRANCH  29  30
ENDBRANCH  28  29
ENDBRANCH  27  28
ENDBRANCH   1  27
TORSDOF 16
ENDMDL
