MODEL 1
REMARK VINA RESULT:     -11.7      0.000      0.000
REMARK SMILES C[C@H]1CC[C@@]2(CO)C(C(=O)OCCOCCOC(=O)c3ccc(-c4c5nc(c(-c6c(F)c(F)c(F)c(F)c6F)c6ccc([nH]6)c(-c6c(F)c(F)c(F)c(F)c6F)c6nc(c(-c7c(F)c(F)c(F)c(F)c7F)c7ccc4[nH]7)C=C6)C=C5)cc3)=C[C@@H](O)C[C@@H]2[C@@]1(C)CCc1ccoc1
REMARK SMILES IDX 13 1 12 2 11 3 9 4 10 5 8 6 1 7 2 8 3 9 88 10 4 11 87 12
REMARK SMILES IDX 89 13 5 14 86 15 84 16 83 17 90 18 91 19 92 20 93 21 96 22
REMARK SMILES IDX 94 23 95 24 6 25 7 26 85 28 14 30 15 31 16 32 17 33 18 34
REMARK SMILES IDX 19 35 20 36 21 37 82 38 22 39 81 40 23 41 24 42 25 43 75 44
REMARK SMILES IDX 26 45 80 46 74 47 76 48 27 49 79 50 73 51 72 52 28 54 60 55
REMARK SMILES IDX 40 56 59 57 41 58 44 59 58 60 77 61 42 62 43 63 57 65 78 66
REMARK SMILES IDX 45 67 29 68 30 69 38 70 31 71 32 72 36 73 39 74 33 75 34 76
REMARK SMILES IDX 37 77 35 78 61 79 62 80 70 81 63 82 64 83 68 84 71 85 65 86
REMARK SMILES IDX 66 87 69 88 67 89 46 90 47 91 55 92 48 93 49 94 53 95 56 96
REMARK SMILES IDX 50 97 51 98 54 99 52 100
REMARK H PARENT 7 27 85 29 76 53 44 64
REMARK Flexibility Score: inf
ROOT
ATOM      1  C   UNL A   1      31.349  28.602  23.223  1.00  0.00     0.202 C 
ENDROOT
BRANCH   1   2
ATOM      2  C   UNL A   1      30.665  27.519  22.376  1.00  0.00     0.261 C 
BRANCH   2   3
ATOM      3  O   UNL A   1      30.257  26.356  23.111  1.00  0.00    -0.460 OA
BRANCH   3   4
ATOM      4  C   UNL A   1      31.036  25.273  22.848  1.00  0.00     0.334 C 
ATOM      5  O   UNL A   1      31.920  25.278  22.004  1.00  0.00    -0.247 OA
BRANCH   4   6
ATOM      6  C   UNL A   1      30.734  24.084  23.739  1.00  0.00     0.044 C 
ATOM      7  C   UNL A   1      34.057  26.700  24.590  1.00  0.00     0.008 C 
ATOM      8  C   UNL A   1      33.922  25.763  25.820  1.00  0.00    -0.008 C 
ATOM      9  C   UNL A   1      32.593  26.010  26.542  1.00  0.00     0.005 C 
ATOM     10  C   UNL A   1      34.178  24.224  25.528  1.00  0.00    -0.026 C 
ATOM     11  C   UNL A   1      31.347  25.433  25.886  1.00  0.00     0.015 C 
ATOM     12  C   UNL A   1      32.997  23.753  24.604  1.00  0.00     0.011 C 
ATOM     13  C   UNL A   1      34.254  23.428  26.850  1.00  0.00     0.012 C 
ATOM     14  C   UNL A   1      31.514  24.097  25.096  1.00  0.00     0.029 C 
ATOM     15  C   UNL A   1      33.015  22.317  24.007  1.00  0.00     0.041 C 
ATOM     16  C   UNL A   1      31.958  22.137  22.881  1.00  0.00     0.138 C 
ATOM     17  C   UNL A   1      30.653  22.893  23.094  1.00  0.00     0.016 C 
BRANCH  10  18
ATOM     18  C   UNL A   1      35.592  24.150  24.838  1.00  0.00     0.012 C 
BRANCH  18  19
ATOM     19  C   UNL A   1      36.344  22.806  24.811  1.00  0.00     0.039 C 
BRANCH  19  20
ATOM     20  C   UNL A   1      37.624  22.831  25.592  1.00  0.00    -0.010 A 
ATOM     21  C   UNL A   1      38.152  23.921  26.340  1.00  0.00     0.045 A 
ATOM     22  C   UNL A   1      38.542  21.809  25.753  1.00  0.00     0.198 A 
ATOM     23  C   UNL A   1      39.346  23.493  26.873  1.00  0.00     0.195 A 
ATOM     24  O   UNL A   1      39.589  22.207  26.518  1.00  0.00    -0.472 OA
ENDBRANCH  19  20
ENDBRANCH  18  19
ENDBRANCH  10  18
BRANCH  14  25
ATOM     25  C   UNL A   1      30.859  22.994  26.019  1.00  0.00     0.168 C 
BRANCH  25  26
ATOM     26  O   UNL A   1      29.708  23.452  26.718  1.00  0.00    -0.395 OA
ATOM     27  H   UNL A   1      29.810  24.395  26.923  1.00  0.00     0.210 HD
ENDBRANCH  25  26
ENDBRANCH  14  25
BRANCH  16  28
ATOM     28  O   UNL A   1      32.530  22.590  21.656  1.00  0.00    -0.389 OA
ATOM     29  H   UNL A   1      32.174  23.465  21.437  1.00  0.00     0.211 HD
ENDBRANCH  16  28
ENDBRANCH   4   6
ENDBRANCH   3   4
ENDBRANCH   2   3
ENDBRANCH   1   2
BRANCH   1  30
ATOM     30  O   UNL A   1      30.926  28.831  24.558  1.00  0.00    -0.374 OA
BRANCH  30  31
ATOM     31  C   UNL A   1      31.404  29.959  25.282  1.00  0.00     0.202 C 
BRANCH  31  32
ATOM     32  C   UNL A   1      32.851  29.998  25.793  1.00  0.00     0.261 C 
BRANCH  32  33
ATOM     33  O   UNL A   1      32.977  30.264  27.200  1.00  0.00    -0.460 OA
BRANCH  33  34
ATOM     34  C   UNL A   1      33.692  31.371  27.501  1.00  0.00     0.338 C 
ATOM     35  O   UNL A   1      33.280  32.518  27.620  1.00  0.00    -0.246 OA
BRANCH  34  36
ATOM     36  C   UNL A   1      35.076  31.014  27.840  1.00  0.00     0.060 A 
ATOM     37  C   UNL A   1      35.352  29.678  28.165  1.00  0.00     0.016 A 
ATOM     38  C   UNL A   1      36.042  32.006  28.007  1.00  0.00     0.016 A 
ATOM     39  C   UNL A   1      36.582  29.336  28.716  1.00  0.00     0.010 A 
ATOM     40  C   UNL A   1      37.269  31.665  28.580  1.00  0.00     0.010 A 
ATOM     41  C   UNL A   1      37.520  30.341  28.980  1.00  0.00    -0.014 A 
BRANCH  41  42
ATOM     42  C   UNL A   1      38.672  30.042  29.858  1.00  0.00     0.031 A 
ATOM     43  C   UNL A   1      39.732  29.102  29.355  1.00  0.00     0.074 A 
ATOM     44  C   UNL A   1      38.775  30.608  31.070  1.00  0.00     0.049 A 
ATOM     45  N   UNL A   1      40.779  28.620  29.973  1.00  0.00    -0.248 NA
ATOM     46  C   UNL A   1      39.588  28.640  27.964  1.00  0.00     0.031 C 
ATOM     47  C   UNL A   1      37.834  31.573  31.632  1.00  0.00     0.029 A 
ATOM     48  N   UNL A   1      39.715  30.436  32.054  1.00  0.00    -0.354 N 
ATOM     49  C   UNL A   1      41.408  27.789  29.055  1.00  0.00     0.074 A 
ATOM     50  C   UNL A   1      40.621  27.820  27.842  1.00  0.00     0.031 C 
ATOM     51  C   UNL A   1      38.229  31.891  32.876  1.00  0.00     0.029 A 
ATOM     52  C   UNL A   1      39.428  31.121  33.206  1.00  0.00     0.049 A 
ATOM     53  H   UNL A   1      40.517  29.875  31.944  1.00  0.00     0.167 HD
ATOM     54  C   UNL A   1      42.542  27.068  29.215  1.00  0.00     0.037 A 
ATOM     55  C   UNL A   1      40.047  31.098  34.402  1.00  0.00     0.037 A 
ATOM     56  C   UNL A   1      43.317  27.050  30.425  1.00  0.00     0.049 A 
ATOM     57  C   UNL A   1      41.269  30.235  34.578  1.00  0.00     0.074 A 
ATOM     58  C   UNL A   1      44.493  26.370  30.689  1.00  0.00     0.029 A 
ATOM     59  N   UNL A   1      42.986  27.744  31.581  1.00  0.00    -0.354 N 
ATOM     60  N   UNL A   1      41.867  29.460  33.705  1.00  0.00    -0.248 NA
ATOM     61  C   UNL A   1      41.902  30.242  35.904  1.00  0.00     0.031 C 
ATOM     62  C   UNL A   1      44.847  26.614  32.020  1.00  0.00     0.029 A 
ATOM     63  C   UNL A   1      43.921  27.487  32.569  1.00  0.00     0.049 A 
ATOM     64  H   UNL A   1      42.203  28.332  31.682  1.00  0.00     0.167 HD
ATOM     65  C   UNL A   1      42.956  28.908  34.366  1.00  0.00     0.074 A 
ATOM     66  C   UNL A   1      42.942  29.442  35.712  1.00  0.00     0.031 C 
ATOM     67  C   UNL A   1      43.888  28.039  33.900  1.00  0.00     0.037 A 
BRANCH  54  68
ATOM     68  C   UNL A   1      42.985  26.210  28.068  1.00  0.00     0.064 A 
ATOM     69  C   UNL A   1      42.598  24.866  27.955  1.00  0.00     0.173 A 
ATOM     70  C   UNL A   1      43.789  26.748  27.052  1.00  0.00     0.173 A 
ATOM     71  F   UNL A   1      41.843  24.299  28.908  1.00  0.00    -0.203 F 
ATOM     72  C   UNL A   1      43.019  24.088  26.880  1.00  0.00     0.198 A 
ATOM     73  C   UNL A   1      44.187  25.975  25.965  1.00  0.00     0.198 A 
ATOM     74  F   UNL A   1      44.187  28.029  27.112  1.00  0.00    -0.203 F 
ATOM     75  F   UNL A   1      42.674  22.794  26.814  1.00  0.00    -0.200 F 
ATOM     76  C   UNL A   1      43.808  24.644  25.882  1.00  0.00     0.200 A 
ATOM     77  F   UNL A   1      44.941  26.517  24.999  1.00  0.00    -0.200 F 
ATOM     78  F   UNL A   1      44.208  23.895  24.846  1.00  0.00    -0.200 F 
ENDBRANCH  54  68
BRANCH  55  79
ATOM     79  C   UNL A   1      39.498  31.895  35.528  1.00  0.00     0.064 A 
ATOM     80  C   UNL A   1      38.581  31.342  36.430  1.00  0.00     0.173 A 
ATOM     81  C   UNL A   1      39.889  33.229  35.729  1.00  0.00     0.173 A 
ATOM     82  F   UNL A   1      38.156  30.080  36.263  1.00  0.00    -0.203 F 
ATOM     83  C   UNL A   1      38.069  32.093  37.486  1.00  0.00     0.198 A 
ATOM     84  C   UNL A   1      39.397  33.970  36.800  1.00  0.00     0.198 A 
ATOM     85  F   UNL A   1      40.760  33.806  34.889  1.00  0.00    -0.203 F 
ATOM     86  F   UNL A   1      37.163  31.552  38.313  1.00  0.00    -0.200 F 
ATOM     87  C   UNL A   1      38.484  33.403  37.675  1.00  0.00     0.200 A 
ATOM     88  F   UNL A   1      39.805  35.233  36.983  1.00  0.00    -0.200 F 
ATOM     89  F   UNL A   1      37.994  34.122  38.695  1.00  0.00    -0.200 F 
ENDBRANCH  55  79
BRANCH  67  90
ATOM     90  C   UNL A   1      44.987  27.637  34.837  1.00  0.00     0.064 A 
ATOM     91  C   UNL A   1      44.882  26.495  35.644  1.00  0.00     0.173 A 
ATOM     92  C   UNL A   1      46.186  28.365  34.877  1.00  0.00     0.173 A 
ATOM     93  F   UNL A   1      43.752  25.774  35.651  1.00  0.00    -0.203 F 
ATOM     94  C   UNL A   1      45.935  26.106  36.468  1.00  0.00     0.198 A 
ATOM     95  C   UNL A   1      47.244  27.958  35.681  1.00  0.00     0.198 A 
ATOM     96  F   UNL A   1      46.336  29.460  34.115  1.00  0.00    -0.203 F 
ATOM     97  F   UNL A   1      45.803  25.030  37.257  1.00  0.00    -0.200 F 
ATOM     98  C   UNL A   1      47.117  26.832  36.479  1.00  0.00     0.200 A 
ATOM     99  F   UNL A   1      48.391  28.653  35.680  1.00  0.00    -0.200 F 
ATOM    100  F   UNL A   1      48.134  26.446  37.263  1.00  0.00    -0.200 F 
ENDBRANCH  67  90
ENDBRANCH  41  42
ENDBRANCH  34  36
ENDBRANCH  33  34
ENDBRANCH  32  33
ENDBRANCH  31  32
ENDBRANCH  30  31
ENDBRANCH   1  30
TORSDOF 20
ENDMDL
MODEL 2
REMARK VINA RESULT:     -11.7      3.879      7.309
REMARK SMILES C[C@H]1CC[C@@]2(CO)C(C(=O)OCCOCCOC(=O)c3ccc(-c4c5nc(c(-c6c(F)c(F)c(F)c(F)c6F)c6ccc([nH]6)c(-c6c(F)c(F)c(F)c(F)c6F)c6nc(c(-c7c(F)c(F)c(F)c(F)c7F)c7ccc4[nH]7)C=C6)C=C5)cc3)=C[C@@H](O)C[C@@H]2[C@@]1(C)CCc1ccoc1
REMARK SMILES IDX 13 1 12 2 11 3 9 4 10 5 8 6 1 7 2 8 3 9 88 10 4 11 87 12
REMARK SMILES IDX 89 13 5 14 86 15 84 16 83 17 90 18 91 19 92 20 93 21 96 22
REMARK SMILES IDX 94 23 95 24 6 25 7 26 85 28 14 30 15 31 16 32 17 33 18 34
REMARK SMILES IDX 19 35 20 36 21 37 82 38 22 39 81 40 23 41 24 42 25 43 75 44
REMARK SMILES IDX 26 45 80 46 74 47 76 48 27 49 79 50 73 51 72 52 28 54 60 55
REMARK SMILES IDX 40 56 59 57 41 58 44 59 58 60 77 61 42 62 43 63 57 65 78 66
REMARK SMILES IDX 45 67 29 68 30 69 38 70 31 71 32 72 36 73 39 74 33 75 34 76
REMARK SMILES IDX 37 77 35 78 61 79 62 80 70 81 63 82 64 83 68 84 71 85 65 86
REMARK SMILES IDX 66 87 69 88 67 89 46 90 47 91 55 92 48 93 49 94 53 95 56 96
REMARK SMILES IDX 50 97 51 98 54 99 52 100
REMARK H PARENT 7 27 85 29 76 53 44 64
REMARK Flexibility Score: inf
ROOT
ATOM      1  C   UNL A   1      37.139  22.131  24.477  1.00  0.00     0.202 C 
ENDROOT
BRANCH   1   2
ATOM      2  C   UNL A   1      35.801  22.819  24.169  1.00  0.00     0.261 C 
BRANCH   2   3
ATOM      3  O   UNL A   1      34.645  21.993  24.374  1.00  0.00    -0.460 OA
BRANCH   3   4
ATOM      4  C   UNL A   1      33.763  22.540  25.254  1.00  0.00     0.334 C 
ATOM      5  O   UNL A   1      34.092  22.951  26.357  1.00  0.00    -0.247 OA
BRANCH   4   6
ATOM      6  C   UNL A   1      32.351  22.634  24.711  1.00  0.00     0.044 C 
ATOM      7  C   UNL A   1      34.653  26.191  25.523  1.00  0.00     0.008 C 
ATOM      8  C   UNL A   1      33.381  26.665  24.773  1.00  0.00    -0.008 C 
ATOM      9  C   UNL A   1      33.363  26.116  23.342  1.00  0.00     0.005 C 
ATOM     10  C   UNL A   1      32.013  26.413  25.537  1.00  0.00    -0.026 C 
ATOM     11  C   UNL A   1      32.987  24.650  23.182  1.00  0.00     0.015 C 
ATOM     12  C   UNL A   1      31.822  24.854  25.588  1.00  0.00     0.011 C 
ATOM     13  C   UNL A   1      30.850  27.132  24.816  1.00  0.00     0.012 C 
ATOM     14  C   UNL A   1      31.964  24.064  24.204  1.00  0.00     0.029 C 
ATOM     15  C   UNL A   1      30.641  24.251  26.400  1.00  0.00     0.041 C 
ATOM     16  C   UNL A   1      30.791  22.717  26.604  1.00  0.00     0.138 C 
ATOM     17  C   UNL A   1      31.415  21.968  25.433  1.00  0.00     0.016 C 
BRANCH  10  18
ATOM     18  C   UNL A   1      32.187  27.078  26.955  1.00  0.00     0.012 C 
BRANCH  18  19
ATOM     19  C   UNL A   1      31.776  28.550  27.149  1.00  0.00     0.039 C 
BRANCH  19  20
ATOM     20  C   UNL A   1      32.948  29.475  27.285  1.00  0.00    -0.010 A 
ATOM     21  C   UNL A   1      34.310  29.114  27.483  1.00  0.00     0.045 A 
ATOM     22  C   UNL A   1      32.949  30.858  27.239  1.00  0.00     0.198 A 
ATOM     23  C   UNL A   1      35.023  30.287  27.564  1.00  0.00     0.195 A 
ATOM     24  O   UNL A   1      34.199  31.353  27.417  1.00  0.00    -0.472 OA
ENDBRANCH  19  20
ENDBRANCH  18  19
ENDBRANCH  10  18
BRANCH  14  25
ATOM     25  C   UNL A   1      30.615  23.920  23.392  1.00  0.00     0.168 C 
BRANCH  25  26
ATOM     26  O   UNL A   1      30.552  24.762  22.248  1.00  0.00    -0.395 OA
ATOM     27  H   UNL A   1      29.762  24.544  21.730  1.00  0.00     0.210 HD
ENDBRANCH  25  26
ENDBRANCH  14  25
BRANCH  16  28
ATOM     28  O   UNL A   1      31.613  22.498  27.749  1.00  0.00    -0.389 OA
ATOM     29  H   UNL A   1      32.535  22.390  27.470  1.00  0.00     0.211 HD
ENDBRANCH  16  28
ENDBRANCH   4   6
ENDBRANCH   3   4
ENDBRANCH   2   3
ENDBRANCH   1   2
BRANCH   1  30
ATOM     30  O   UNL A   1      37.178  21.018  25.356  1.00  0.00    -0.374 OA
BRANCH  30  31
ATOM     31  C   UNL A   1      37.851  19.823  24.976  1.00  0.00     0.202 C 
BRANCH  31  32
ATOM     32  C   UNL A   1      39.171  19.426  25.652  1.00  0.00     0.261 C 
BRANCH  32  33
ATOM     33  O   UNL A   1      40.123  20.496  25.771  1.00  0.00    -0.460 OA
BRANCH  33  34
ATOM     34  C   UNL A   1      40.786  20.531  26.949  1.00  0.00     0.338 C 
ATOM     35  O   UNL A   1      41.382  19.614  27.498  1.00  0.00    -0.246 OA
BRANCH  34  36
ATOM     36  C   UNL A   1      40.851  21.906  27.462  1.00  0.00     0.060 A 
ATOM     37  C   UNL A   1      40.101  22.891  26.806  1.00  0.00     0.016 A 
ATOM     38  C   UNL A   1      41.768  22.246  28.457  1.00  0.00     0.016 A 
ATOM     39  C   UNL A   1      40.308  24.234  27.101  1.00  0.00     0.010 A 
ATOM     40  C   UNL A   1      41.990  23.596  28.737  1.00  0.00     0.010 A 
ATOM     41  C   UNL A   1      41.297  24.591  28.025  1.00  0.00    -0.014 A 
BRANCH  41  42
ATOM     42  C   UNL A   1      41.749  25.997  28.094  1.00  0.00     0.031 A 
ATOM     43  C   UNL A   1      43.085  26.350  27.502  1.00  0.00     0.074 A 
ATOM     44  C   UNL A   1      40.978  26.939  28.660  1.00  0.00     0.049 A 
ATOM     45  N   UNL A   1      43.730  27.487  27.524  1.00  0.00    -0.248 NA
ATOM     46  C   UNL A   1      43.791  25.270  26.793  1.00  0.00     0.031 C 
ATOM     47  C   UNL A   1      39.645  26.715  29.213  1.00  0.00     0.029 A 
ATOM     48  N   UNL A   1      41.218  28.271  28.875  1.00  0.00    -0.354 N 
ATOM     49  C   UNL A   1      44.920  27.257  26.846  1.00  0.00     0.074 A 
ATOM     50  C   UNL A   1      44.917  25.869  26.436  1.00  0.00     0.031 C 
ATOM     51  C   UNL A   1      39.191  27.869  29.732  1.00  0.00     0.029 A 
ATOM     52  C   UNL A   1      40.219  28.897  29.578  1.00  0.00     0.049 A 
ATOM     53  H   UNL A   1      42.027  28.734  28.558  1.00  0.00     0.167 HD
ATOM     54  C   UNL A   1      45.924  28.128  26.590  1.00  0.00     0.037 A 
ATOM     55  C   UNL A   1      40.164  30.149  30.070  1.00  0.00     0.037 A 
ATOM     56  C   UNL A   1      45.913  29.506  26.999  1.00  0.00     0.049 A 
ATOM     57  C   UNL A   1      41.321  31.083  29.831  1.00  0.00     0.074 A 
ATOM     58  C   UNL A   1      46.868  30.482  26.775  1.00  0.00     0.029 A 
ATOM     59  N   UNL A   1      44.891  30.102  27.725  1.00  0.00    -0.354 N 
ATOM     60  N   UNL A   1      42.440  30.865  29.181  1.00  0.00    -0.248 NA
ATOM     61  C   UNL A   1      41.211  32.435  30.394  1.00  0.00     0.031 C 
ATOM     62  C   UNL A   1      46.446  31.656  27.408  1.00  0.00     0.029 A 
ATOM     63  C   UNL A   1      45.205  31.426  27.982  1.00  0.00     0.049 A 
ATOM     64  H   UNL A   1      44.066  29.650  28.015  1.00  0.00     0.167 HD
ATOM     65  C   UNL A   1      43.154  32.055  29.235  1.00  0.00     0.074 A 
ATOM     66  C   UNL A   1      42.339  32.995  29.976  1.00  0.00     0.031 C 
ATOM     67  C   UNL A   1      44.372  32.344  28.715  1.00  0.00     0.037 A 
BRANCH  54  68
ATOM     68  C   UNL A   1      47.131  27.604  25.871  1.00  0.00     0.064 A 
ATOM     69  C   UNL A   1      47.252  27.679  24.476  1.00  0.00     0.173 A 
ATOM     70  C   UNL A   1      48.194  27.041  26.593  1.00  0.00     0.173 A 
ATOM     71  F   UNL A   1      46.257  28.193  23.738  1.00  0.00    -0.203 F 
ATOM     72  C   UNL A   1      48.383  27.188  23.828  1.00  0.00     0.198 A 
ATOM     73  C   UNL A   1      49.335  26.575  25.945  1.00  0.00     0.198 A 
ATOM     74  F   UNL A   1      48.128  26.945  27.930  1.00  0.00    -0.203 F 
ATOM     75  F   UNL A   1      48.460  27.231  22.491  1.00  0.00    -0.200 F 
ATOM     76  C   UNL A   1      49.426  26.643  24.563  1.00  0.00     0.200 A 
ATOM     77  F   UNL A   1      50.344  26.056  26.658  1.00  0.00    -0.200 F 
ATOM     78  F   UNL A   1      50.516  26.175  23.939  1.00  0.00    -0.200 F 
ENDBRANCH  54  68
BRANCH  55  79
ATOM     79  C   UNL A   1      38.981  30.575  30.860  1.00  0.00     0.064 A 
ATOM     80  C   UNL A   1      38.939  30.407  32.250  1.00  0.00     0.173 A 
ATOM     81  C   UNL A   1      37.871  31.168  30.239  1.00  0.00     0.173 A 
ATOM     82  F   UNL A   1      39.965  29.821  32.885  1.00  0.00    -0.203 F 
ATOM     83  C   UNL A   1      37.828  30.809  32.989  1.00  0.00     0.198 A 
ATOM     84  C   UNL A   1      36.772  31.594  30.982  1.00  0.00     0.198 A 
ATOM     85  F   UNL A   1      37.860  31.345  28.910  1.00  0.00    -0.203 F 
ATOM     86  F   UNL A   1      37.796  30.602  34.313  1.00  0.00    -0.200 F 
ATOM     87  C   UNL A   1      36.750  31.409  32.356  1.00  0.00     0.200 A 
ATOM     88  F   UNL A   1      35.735  32.179  30.367  1.00  0.00    -0.200 F 
ATOM     89  F   UNL A   1      35.684  31.800  33.069  1.00  0.00    -0.200 F 
ENDBRANCH  55  79
BRANCH  67  90
ATOM     90  C   UNL A   1      44.886  33.741  28.898  1.00  0.00     0.064 A 
ATOM     91  C   UNL A   1      45.713  34.083  29.978  1.00  0.00     0.173 A 
ATOM     92  C   UNL A   1      44.603  34.730  27.945  1.00  0.00     0.173 A 
ATOM     93  F   UNL A   1      46.002  33.175  30.922  1.00  0.00    -0.203 F 
ATOM     94  C   UNL A   1      46.226  35.372  30.103  1.00  0.00     0.198 A 
ATOM     95  C   UNL A   1      45.139  36.009  28.059  1.00  0.00     0.198 A 
ATOM     96  F   UNL A   1      43.823  34.448  26.890  1.00  0.00    -0.203 F 
ATOM     97  F   UNL A   1      46.988  35.688  31.159  1.00  0.00    -0.200 F 
ATOM     98  C   UNL A   1      45.946  36.330  29.140  1.00  0.00     0.200 A 
ATOM     99  F   UNL A   1      44.878  36.929  27.120  1.00  0.00    -0.200 F 
ATOM    100  F   UNL A   1      46.453  37.565  29.254  1.00  0.00    -0.200 F 
ENDBRANCH  67  90
ENDBRANCH  41  42
ENDBRANCH  34  36
ENDBRANCH  33  34
ENDBRANCH  32  33
ENDBRANCH  31  32
ENDBRANCH  30  31
ENDBRANCH   1  30
TORSDOF 20
ENDMDL
MODEL 3
REMARK VINA RESULT:     -11.7      1.594      2.633
REMARK SMILES C[C@H]1CC[C@@]2(CO)C(C(=O)OCCOCCOC(=O)c3ccc(-c4c5nc(c(-c6c(F)c(F)c(F)c(F)c6F)c6ccc([nH]6)c(-c6c(F)c(F)c(F)c(F)c6F)c6nc(c(-c7c(F)c(F)c(F)c(F)c7F)c7ccc4[nH]7)C=C6)C=C5)cc3)=C[C@@H](O)C[C@@H]2[C@@]1(C)CCc1ccoc1
REMARK SMILES IDX 13 1 12 2 11 3 9 4 10 5 8 6 1 7 2 8 3 9 88 10 4 11 87 12
REMARK SMILES IDX 89 13 5 14 86 15 84 16 83 17 90 18 91 19 92 20 93 21 96 22
REMARK SMILES IDX 94 23 95 24 6 25 7 26 85 28 14 30 15 31 16 32 17 33 18 34
REMARK SMILES IDX 19 35 20 36 21 37 82 38 22 39 81 40 23 41 24 42 25 43 75 44
REMARK SMILES IDX 26 45 80 46 74 47 76 48 27 49 79 50 73 51 72 52 28 54 60 55
REMARK SMILES IDX 40 56 59 57 41 58 44 59 58 60 77 61 42 62 43 63 57 65 78 66
REMARK SMILES IDX 45 67 29 68 30 69 38 70 31 71 32 72 36 73 39 74 33 75 34 76
REMARK SMILES IDX 37 77 35 78 61 79 62 80 70 81 63 82 64 83 68 84 71 85 65 86
REMARK SMILES IDX 66 87 69 88 67 89 46 90 47 91 55 92 48 93 49 94 53 95 56 96
REMARK SMILES IDX 50 97 51 98 54 99 52 100
REMARK H PARENT 7 27 85 29 76 53 44 64
REMARK Flexibility Score: inf
ROOT
ATOM      1  C   UNL A   1      33.153  28.596  22.553  1.00  0.00     0.202 C 
ENDROOT
BRANCH   1   2
ATOM      2  C   UNL A   1      33.916  27.321  22.940  1.00  0.00     0.261 C 
BRANCH   2   3
ATOM      3  O   UNL A   1      33.802  26.248  21.994  1.00  0.00    -0.460 OA
BRANCH   3   4
ATOM      4  C   UNL A   1      33.462  25.069  22.582  1.00  0.00     0.334 C 
ATOM      5  O   UNL A   1      33.769  23.981  22.120  1.00  0.00    -0.247 OA
BRANCH   4   6
ATOM      6  C   UNL A   1      32.712  25.243  23.888  1.00  0.00     0.044 C 
ATOM      7  C   UNL A   1      36.023  22.495  23.585  1.00  0.00     0.008 C 
ATOM      8  C   UNL A   1      35.669  22.576  25.094  1.00  0.00    -0.008 C 
ATOM      9  C   UNL A   1      35.936  23.985  25.634  1.00  0.00     0.005 C 
ATOM     10  C   UNL A   1      34.226  22.040  25.479  1.00  0.00    -0.026 C 
ATOM     11  C   UNL A   1      34.915  25.055  25.273  1.00  0.00     0.015 C 
ATOM     12  C   UNL A   1      33.202  23.041  24.830  1.00  0.00     0.011 C 
ATOM     13  C   UNL A   1      34.076  21.947  27.014  1.00  0.00     0.012 C 
ATOM     14  C   UNL A   1      33.430  24.597  25.120  1.00  0.00     0.029 C 
ATOM     15  C   UNL A   1      31.680  22.729  24.894  1.00  0.00     0.041 C 
ATOM     16  C   UNL A   1      30.854  23.639  23.941  1.00  0.00     0.138 C 
ATOM     17  C   UNL A   1      31.369  25.067  23.805  1.00  0.00     0.016 C 
BRANCH  10  18
ATOM     18  C   UNL A   1      34.143  20.579  24.896  1.00  0.00     0.012 C 
BRANCH  18  19
ATOM     19  C   UNL A   1      33.042  19.630  25.404  1.00  0.00     0.039 C 
BRANCH  19  20
ATOM     20  C   UNL A   1      33.215  18.219  24.929  1.00  0.00    -0.010 A 
ATOM     21  C   UNL A   1      33.859  17.786  23.736  1.00  0.00     0.045 A 
ATOM     22  C   UNL A   1      32.796  17.055  25.550  1.00  0.00     0.198 A 
ATOM     23  C   UNL A   1      33.765  16.415  23.710  1.00  0.00     0.195 A 
ATOM     24  O   UNL A   1      33.117  15.963  24.812  1.00  0.00    -0.472 OA
ENDBRANCH  19  20
ENDBRANCH  18  19
ENDBRANCH  10  18
BRANCH  14  25
ATOM     25  C   UNL A   1      32.704  25.135  26.417  1.00  0.00     0.168 C 
BRANCH  25  26
ATOM     26  O   UNL A   1      32.855  26.535  26.609  1.00  0.00    -0.395 OA
ATOM     27  H   UNL A   1      33.689  26.828  26.208  1.00  0.00     0.210 HD
ENDBRANCH  25  26
ENDBRANCH  14  25
BRANCH  16  28
ATOM     28  O   UNL A   1      30.861  23.047  22.643  1.00  0.00    -0.389 OA
ATOM     29  H   UNL A   1      30.629  22.109  22.714  1.00  0.00     0.211 HD
ENDBRANCH  16  28
ENDBRANCH   4   6
ENDBRANCH   3   4
ENDBRANCH   2   3
ENDBRANCH   1   2
BRANCH   1  30
ATOM     30  O   UNL A   1      32.370  29.276  23.522  1.00  0.00    -0.374 OA
BRANCH  30  31
ATOM     31  C   UNL A   1      32.775  29.302  24.886  1.00  0.00     0.202 C 
BRANCH  31  32
ATOM     32  C   UNL A   1      32.109  30.269  25.876  1.00  0.00     0.261 C 
BRANCH  32  33
ATOM     33  O   UNL A   1      32.725  30.309  27.174  1.00  0.00    -0.460 OA
BRANCH  33  34
ATOM     34  C   UNL A   1      33.440  31.429  27.423  1.00  0.00     0.338 C 
ATOM     35  O   UNL A   1      33.022  32.576  27.521  1.00  0.00    -0.246 OA
BRANCH  34  36
ATOM     36  C   UNL A   1      34.836  31.091  27.732  1.00  0.00     0.060 A 
ATOM     37  C   UNL A   1      35.151  29.746  27.972  1.00  0.00     0.016 A 
ATOM     38  C   UNL A   1      35.774  32.098  27.957  1.00  0.00     0.016 A 
ATOM     39  C   UNL A   1      36.394  29.406  28.495  1.00  0.00     0.010 A 
ATOM     40  C   UNL A   1      37.013  31.757  28.502  1.00  0.00     0.010 A 
ATOM     41  C   UNL A   1      37.305  30.418  28.817  1.00  0.00    -0.014 A 
BRANCH  41  42
ATOM     42  C   UNL A   1      38.470  30.098  29.669  1.00  0.00     0.031 A 
ATOM     43  C   UNL A   1      39.496  29.132  29.147  1.00  0.00     0.074 A 
ATOM     44  C   UNL A   1      38.615  30.668  30.875  1.00  0.00     0.049 A 
ATOM     45  N   UNL A   1      40.546  28.630  29.743  1.00  0.00    -0.248 NA
ATOM     46  C   UNL A   1      39.310  28.666  27.763  1.00  0.00     0.031 C 
ATOM     47  C   UNL A   1      37.709  31.658  31.453  1.00  0.00     0.029 A 
ATOM     48  N   UNL A   1      39.574  30.480  31.837  1.00  0.00    -0.354 N 
ATOM     49  C   UNL A   1      41.135  27.780  28.816  1.00  0.00     0.074 A 
ATOM     50  C   UNL A   1      40.320  27.822  27.621  1.00  0.00     0.031 C 
ATOM     51  C   UNL A   1      38.141  31.973  32.686  1.00  0.00     0.029 A 
ATOM     52  C   UNL A   1      39.329  31.179  32.992  1.00  0.00     0.049 A 
ATOM     53  H   UNL A   1      40.360  29.901  31.712  1.00  0.00     0.167 HD
ATOM     54  C   UNL A   1      42.256  27.034  28.953  1.00  0.00     0.037 A 
ATOM     55  C   UNL A   1      39.976  31.148  34.173  1.00  0.00     0.037 A 
ATOM     56  C   UNL A   1      43.059  27.005  30.145  1.00  0.00     0.049 A 
ATOM     57  C   UNL A   1      41.182  30.259  34.325  1.00  0.00     0.074 A 
ATOM     58  C   UNL A   1      44.225  26.300  30.385  1.00  0.00     0.029 A 
ATOM     59  N   UNL A   1      42.772  27.713  31.303  1.00  0.00    -0.354 N 
ATOM     60  N   UNL A   1      41.742  29.465  33.443  1.00  0.00    -0.248 NA
ATOM     61  C   UNL A   1      41.847  30.259  35.636  1.00  0.00     0.031 C 
ATOM     62  C   UNL A   1      44.617  26.544  31.705  1.00  0.00     0.029 A 
ATOM     63  C   UNL A   1      43.723  27.440  32.271  1.00  0.00     0.049 A 
ATOM     64  H   UNL A   1      42.005  28.319  31.419  1.00  0.00     0.167 HD
ATOM     65  C   UNL A   1      42.834  28.892  34.081  1.00  0.00     0.074 A 
ATOM     66  C   UNL A   1      42.864  29.434  35.424  1.00  0.00     0.031 C 
ATOM     67  C   UNL A   1      43.734  28.001  33.598  1.00  0.00     0.037 A 
BRANCH  54  68
ATOM     68  C   UNL A   1      42.652  26.160  27.801  1.00  0.00     0.064 A 
ATOM     69  C   UNL A   1      42.092  24.888  27.610  1.00  0.00     0.173 A 
ATOM     70  C   UNL A   1      43.589  26.613  26.859  1.00  0.00     0.173 A 
ATOM     71  F   UNL A   1      41.205  24.401  28.490  1.00  0.00    -0.203 F 
ATOM     72  C   UNL A   1      42.473  24.093  26.531  1.00  0.00     0.198 A 
ATOM     73  C   UNL A   1      43.948  25.827  25.768  1.00  0.00     0.198 A 
ATOM     74  F   UNL A   1      44.154  27.822  26.997  1.00  0.00    -0.203 F 
ATOM     75  F   UNL A   1      41.959  22.864  26.390  1.00  0.00    -0.200 F 
ATOM     76  C   UNL A   1      43.395  24.566  25.608  1.00  0.00     0.200 A 
ATOM     77  F   UNL A   1      44.832  26.289  24.874  1.00  0.00    -0.200 F 
ATOM     78  F   UNL A   1      43.758  23.802  24.568  1.00  0.00    -0.200 F 
ENDBRANCH  54  68
BRANCH  55  79
ATOM     79  C   UNL A   1      39.473  31.964  35.307  1.00  0.00     0.064 A 
ATOM     80  C   UNL A   1      39.874  33.295  35.477  1.00  0.00     0.173 A 
ATOM     81  C   UNL A   1      38.570  31.429  36.240  1.00  0.00     0.173 A 
ATOM     82  F   UNL A   1      40.755  33.842  34.627  1.00  0.00    -0.203 F 
ATOM     83  C   UNL A   1      39.399  34.058  36.541  1.00  0.00     0.198 A 
ATOM     84  C   UNL A   1      38.076  32.201  37.288  1.00  0.00     0.198 A 
ATOM     85  F   UNL A   1      38.161  30.157  36.125  1.00  0.00    -0.203 F 
ATOM     86  F   UNL A   1      39.828  35.318  36.704  1.00  0.00    -0.200 F 
ATOM     87  C   UNL A   1      38.494  33.514  37.441  1.00  0.00     0.200 A 
ATOM     88  F   UNL A   1      37.197  31.673  38.151  1.00  0.00    -0.200 F 
ATOM     89  F   UNL A   1      38.034  34.251  38.461  1.00  0.00    -0.200 F 
ENDBRANCH  55  79
BRANCH  67  90
ATOM     90  C   UNL A   1      44.846  27.579  34.512  1.00  0.00     0.064 A 
ATOM     91  C   UNL A   1      44.739  26.440  35.322  1.00  0.00     0.173 A 
ATOM     92  C   UNL A   1      46.059  28.285  34.524  1.00  0.00     0.173 A 
ATOM     93  F   UNL A   1      43.595  25.740  35.355  1.00  0.00    -0.203 F 
ATOM     94  C   UNL A   1      45.802  26.032  36.124  1.00  0.00     0.198 A 
ATOM     95  C   UNL A   1      47.127  27.859  35.306  1.00  0.00     0.198 A 
ATOM     96  F   UNL A   1      46.212  29.377  33.759  1.00  0.00    -0.203 F 
ATOM     97  F   UNL A   1      45.667  24.959  36.916  1.00  0.00    -0.200 F 
ATOM     98  C   UNL A   1      46.996  26.736  36.108  1.00  0.00     0.200 A 
ATOM     99  F   UNL A   1      48.286  28.532  35.279  1.00  0.00    -0.200 F 
ATOM    100  F   UNL A   1      48.023  26.332  36.870  1.00  0.00    -0.200 F 
ENDBRANCH  67  90
ENDBRANCH  41  42
ENDBRANCH  34  36
ENDBRANCH  33  34
ENDBRANCH  32  33
ENDBRANCH  31  32
ENDBRANCH  30  31
ENDBRANCH   1  30
TORSDOF 20
ENDMDL
