MODEL 1
REMARK VINA RESULT:     -11.1      0.000      0.000
REMARK SMILES C[C@@H]1[C@@H](C(=O)OCCOCCOC(=O)c2ccc(-c3c4nc(c(-c5c(F)c(F)c(F)c(F)c5F)c5ccc([nH]5)c(-c5c(F)c(F)c(F)c(F)c5F)c5nc(c(-c6c(F)c(F)c(F)c(F)c6F)c6ccc3[nH]6)C=C5)C=C4)cc2)CCN1C(=O)[C@]1([NH3+])CCOC1
REMARK SMILES IDX 8 1 7 2 6 3 4 4 5 5 3 6 1 7 2 8 80 9 78 10 79 11 81 12 82 13
REMARK SMILES IDX 83 14 85 15 88 16 86 17 87 18 84 19 9 23 10 24 11 25 12 26
REMARK SMILES IDX 13 27 14 28 15 29 16 30 77 31 17 32 76 33 18 34 19 35 20 36
REMARK SMILES IDX 70 37 21 38 75 39 69 40 71 41 22 42 74 43 68 44 67 45 23 47
REMARK SMILES IDX 55 48 35 49 54 50 36 51 39 52 53 53 72 54 37 55 38 56 52 58
REMARK SMILES IDX 73 59 40 60 24 61 25 62 33 63 26 64 27 65 31 66 34 67 28 68
REMARK SMILES IDX 29 69 32 70 30 71 56 72 57 73 65 74 58 75 59 76 63 77 66 78
REMARK SMILES IDX 60 79 61 80 64 81 62 82 41 83 42 84 50 85 43 86 44 87 48 88
REMARK SMILES IDX 51 89 45 90 46 91 49 92 47 93
REMARK H PARENT 84 20 84 21 84 22 71 46 39 57
REMARK Flexibility Score: inf
ROOT
ATOM      1  C   UNL A   1      34.571  29.598  27.580  1.00  0.00     0.202 C 
ENDROOT
BRANCH   1   2
ATOM      2  C   UNL A   1      33.535  28.657  26.963  1.00  0.00     0.261 C 
BRANCH   2   3
ATOM      3  O   UNL A   1      34.081  27.919  25.858  1.00  0.00    -0.463 OA
BRANCH   3   4
ATOM      4  C   UNL A   1      33.502  28.200  24.657  1.00  0.00     0.311 C 
ATOM      5  O   UNL A   1      33.232  29.325  24.264  1.00  0.00    -0.252 OA
BRANCH   4   6
ATOM      6  C   UNL A   1      33.263  26.925  23.866  1.00  0.00     0.123 C 
ATOM      7  C   UNL A   1      32.247  26.114  21.691  1.00  0.00     0.032 C 
ATOM      8  C   UNL A   1      32.183  27.170  22.800  1.00  0.00     0.096 C 
ATOM      9  N   UNL A   1      30.940  27.061  23.566  1.00  0.00    -0.334 N 
ATOM     10  C   UNL A   1      32.634  25.860  24.755  1.00  0.00     0.039 C 
ATOM     11  C   UNL A   1      31.157  26.245  24.762  1.00  0.00     0.121 C 
BRANCH   9  12
ATOM     12  C   UNL A   1      29.778  27.800  23.494  1.00  0.00     0.286 C 
ATOM     13  O   UNL A   1      28.697  27.211  23.678  1.00  0.00    -0.267 OA
BRANCH  12  14
ATOM     14  C   UNL A   1      29.722  29.344  23.173  1.00  0.00     0.199 C 
ATOM     15  C   UNL A   1      28.322  29.924  23.197  1.00  0.00     0.110 C 
ATOM     16  C   UNL A   1      30.279  29.755  21.815  1.00  0.00     0.239 C 
ATOM     17  C   UNL A   1      28.028  30.350  21.772  1.00  0.00     0.167 C 
ATOM     18  O   UNL A   1      29.177  30.108  20.963  1.00  0.00    -0.374 OA
BRANCH  14  19
ATOM     19  N   UNL A   1      30.518  30.024  24.251  1.00  0.00    -0.343 N 
ATOM     20  H   UNL A   1      31.511  29.975  24.023  1.00  0.00     0.345 HD
ATOM     21  H   UNL A   1      30.350  29.557  25.143  1.00  0.00     0.345 HD
ATOM     22  H   UNL A   1      30.232  31.001  24.320  1.00  0.00     0.345 HD
ENDBRANCH  14  19
ENDBRANCH  12  14
ENDBRANCH   9  12
ENDBRANCH   4   6
ENDBRANCH   3   4
ENDBRANCH   2   3
ENDBRANCH   1   2
BRANCH   1  23
ATOM     23  O   UNL A   1      34.461  30.980  27.259  1.00  0.00    -0.374 OA
BRANCH  23  24
ATOM     24  C   UNL A   1      33.282  31.678  27.660  1.00  0.00     0.202 C 
BRANCH  24  25
ATOM     25  C   UNL A   1      33.168  33.151  27.251  1.00  0.00     0.261 C 
BRANCH  25  26
ATOM     26  O   UNL A   1      32.325  33.902  28.147  1.00  0.00    -0.460 OA
BRANCH  26  27
ATOM     27  C   UNL A   1      32.923  34.962  28.732  1.00  0.00     0.338 C 
ATOM     28  O   UNL A   1      32.531  36.123  28.752  1.00  0.00    -0.246 OA
BRANCH  27  29
ATOM     29  C   UNL A   1      34.070  34.518  29.543  1.00  0.00     0.060 A 
ATOM     30  C   UNL A   1      35.347  34.617  28.971  1.00  0.00     0.016 A 
ATOM     31  C   UNL A   1      33.896  33.926  30.796  1.00  0.00     0.016 A 
ATOM     32  C   UNL A   1      36.449  34.079  29.630  1.00  0.00     0.010 A 
ATOM     33  C   UNL A   1      35.003  33.375  31.449  1.00  0.00     0.010 A 
ATOM     34  C   UNL A   1      36.277  33.417  30.851  1.00  0.00    -0.014 A 
BRANCH  34  35
ATOM     35  C   UNL A   1      37.401  32.633  31.416  1.00  0.00     0.031 A 
ATOM     36  C   UNL A   1      37.909  32.977  32.788  1.00  0.00     0.074 A 
ATOM     37  C   UNL A   1      37.934  31.605  30.734  1.00  0.00     0.049 A 
ATOM     38  N   UNL A   1      38.888  32.440  33.471  1.00  0.00    -0.248 NA
ATOM     39  C   UNL A   1      37.221  34.075  33.485  1.00  0.00     0.031 C 
ATOM     40  C   UNL A   1      37.499  31.150  29.416  1.00  0.00     0.029 A 
ATOM     41  N   UNL A   1      38.964  30.759  31.061  1.00  0.00    -0.354 N 
ATOM     42  C   UNL A   1      38.934  33.134  34.674  1.00  0.00     0.074 A 
ATOM     43  C   UNL A   1      37.905  34.150  34.616  1.00  0.00     0.031 C 
ATOM     44  C   UNL A   1      38.265  30.111  29.039  1.00  0.00     0.029 A 
ATOM     45  C   UNL A   1      39.260  29.849  30.078  1.00  0.00     0.049 A 
ATOM     46  H   UNL A   1      39.447  30.802  31.918  1.00  0.00     0.167 HD
ATOM     47  C   UNL A   1      39.754  32.936  35.732  1.00  0.00     0.037 A 
ATOM     48  C   UNL A   1      40.236  28.921  30.019  1.00  0.00     0.037 A 
ATOM     49  C   UNL A   1      40.776  31.924  35.788  1.00  0.00     0.049 A 
ATOM     50  C   UNL A   1      41.179  28.766  31.183  1.00  0.00     0.074 A 
ATOM     51  C   UNL A   1      41.647  31.633  36.824  1.00  0.00     0.029 A 
ATOM     52  N   UNL A   1      41.067  31.041  34.759  1.00  0.00    -0.354 N 
ATOM     53  N   UNL A   1      41.200  29.409  32.325  1.00  0.00    -0.248 NA
ATOM     54  C   UNL A   1      42.234  27.749  31.050  1.00  0.00     0.031 C 
ATOM     55  C   UNL A   1      42.495  30.603  36.403  1.00  0.00     0.029 A 
ATOM     56  C   UNL A   1      42.121  30.221  35.125  1.00  0.00     0.049 A 
ATOM     57  H   UNL A   1      40.594  31.003  33.896  1.00  0.00     0.167 HD
ATOM     58  C   UNL A   1      42.247  28.861  33.055  1.00  0.00     0.074 A 
ATOM     59  C   UNL A   1      42.831  27.822  32.231  1.00  0.00     0.031 C 
ATOM     60  C   UNL A   1      42.685  29.186  34.295  1.00  0.00     0.037 A 
BRANCH  47  61
ATOM     61  C   UNL A   1      39.594  33.848  36.912  1.00  0.00     0.064 A 
ATOM     62  C   UNL A   1      40.214  35.105  36.961  1.00  0.00     0.173 A 
ATOM     63  C   UNL A   1      38.784  33.471  37.994  1.00  0.00     0.173 A 
ATOM     64  F   UNL A   1      41.011  35.504  35.958  1.00  0.00    -0.203 F 
ATOM     65  C   UNL A   1      40.046  35.943  38.060  1.00  0.00     0.198 A 
ATOM     66  C   UNL A   1      38.598  34.323  39.079  1.00  0.00     0.198 A 
ATOM     67  F   UNL A   1      38.168  32.280  37.995  1.00  0.00    -0.203 F 
ATOM     68  F   UNL A   1      40.680  37.123  38.104  1.00  0.00    -0.200 F 
ATOM     69  C   UNL A   1      39.233  35.554  39.115  1.00  0.00     0.200 A 
ATOM     70  F   UNL A   1      37.805  33.949  40.094  1.00  0.00    -0.200 F 
ATOM     71  F   UNL A   1      39.068  36.365  40.169  1.00  0.00    -0.200 F 
ENDBRANCH  47  61
BRANCH  48  72
ATOM     72  C   UNL A   1      40.378  28.072  28.808  1.00  0.00     0.064 A 
ATOM     73  C   UNL A   1      41.143  28.495  27.713  1.00  0.00     0.173 A 
ATOM     74  C   UNL A   1      39.736  26.829  28.714  1.00  0.00     0.173 A 
ATOM     75  F   UNL A   1      41.756  29.689  27.747  1.00  0.00    -0.203 F 
ATOM     76  C   UNL A   1      41.248  27.715  26.564  1.00  0.00     0.198 A 
ATOM     77  C   UNL A   1      39.862  26.037  27.576  1.00  0.00     0.198 A 
ATOM     78  F   UNL A   1      38.989  26.380  29.735  1.00  0.00    -0.203 F 
ATOM     79  F   UNL A   1      41.950  28.163  25.514  1.00  0.00    -0.200 F 
ATOM     80  C   UNL A   1      40.612  26.483  26.498  1.00  0.00     0.200 A 
ATOM     81  F   UNL A   1      39.254  24.845  27.520  1.00  0.00    -0.200 F 
ATOM     82  F   UNL A   1      40.714  25.733  25.393  1.00  0.00    -0.200 F 
ENDBRANCH  48  72
BRANCH  60  83
ATOM     83  C   UNL A   1      43.828  28.391  34.855  1.00  0.00     0.064 A 
ATOM     84  C   UNL A   1      43.616  27.196  35.559  1.00  0.00     0.173 A 
ATOM     85  C   UNL A   1      45.151  28.806  34.647  1.00  0.00     0.173 A 
ATOM     86  F   UNL A   1      42.369  26.764  35.796  1.00  0.00    -0.203 F 
ATOM     87  C   UNL A   1      44.688  26.459  36.054  1.00  0.00     0.198 A 
ATOM     88  C   UNL A   1      46.222  28.053  35.120  1.00  0.00     0.198 A 
ATOM     89  F   UNL A   1      45.407  29.938  33.974  1.00  0.00    -0.203 F 
ATOM     90  F   UNL A   1      44.462  25.343  36.762  1.00  0.00    -0.200 F 
ATOM     91  C   UNL A   1      45.989  26.883  35.828  1.00  0.00     0.200 A 
ATOM     92  F   UNL A   1      47.478  28.457  34.889  1.00  0.00    -0.200 F 
ATOM     93  F   UNL A   1      47.021  26.168  36.299  1.00  0.00    -0.200 F 
ENDBRANCH  60  83
ENDBRANCH  34  35
ENDBRANCH  27  29
ENDBRANCH  26  27
ENDBRANCH  25  26
ENDBRANCH  24  25
ENDBRANCH  23  24
ENDBRANCH   1  23
TORSDOF 17
ENDMDL
MODEL 2
REMARK VINA RESULT:     -11.0      6.387     11.710
REMARK SMILES C[C@@H]1[C@@H](C(=O)OCCOCCOC(=O)c2ccc(-c3c4nc(c(-c5c(F)c(F)c(F)c(F)c5F)c5ccc([nH]5)c(-c5c(F)c(F)c(F)c(F)c5F)c5nc(c(-c6c(F)c(F)c(F)c(F)c6F)c6ccc3[nH]6)C=C5)C=C4)cc2)CCN1C(=O)[C@]1([NH3+])CCOC1
REMARK SMILES IDX 8 1 7 2 6 3 4 4 5 5 3 6 1 7 2 8 80 9 78 10 79 11 81 12 82 13
REMARK SMILES IDX 83 14 85 15 88 16 86 17 87 18 84 19 9 23 10 24 11 25 12 26
REMARK SMILES IDX 13 27 14 28 15 29 16 30 77 31 17 32 76 33 18 34 19 35 20 36
REMARK SMILES IDX 70 37 21 38 75 39 69 40 71 41 22 42 74 43 68 44 67 45 23 47
REMARK SMILES IDX 55 48 35 49 54 50 36 51 39 52 53 53 72 54 37 55 38 56 52 58
REMARK SMILES IDX 73 59 40 60 24 61 25 62 33 63 26 64 27 65 31 66 34 67 28 68
REMARK SMILES IDX 29 69 32 70 30 71 56 72 57 73 65 74 58 75 59 76 63 77 66 78
REMARK SMILES IDX 60 79 61 80 64 81 62 82 41 83 42 84 50 85 43 86 44 87 48 88
REMARK SMILES IDX 51 89 45 90 46 91 49 92 47 93
REMARK H PARENT 84 20 84 21 84 22 71 46 39 57
REMARK Flexibility Score: inf
ROOT
ATOM      1  C   UNL A   1      37.448  22.611  25.519  1.00  0.00     0.202 C 
ENDROOT
BRANCH   1   2
ATOM      2  C   UNL A   1      36.662  23.298  24.401  1.00  0.00     0.261 C 
BRANCH   2   3
ATOM      3  O   UNL A   1      35.398  23.795  24.871  1.00  0.00    -0.463 OA
BRANCH   3   4
ATOM      4  C   UNL A   1      34.420  23.821  23.924  1.00  0.00     0.311 C 
ATOM      5  O   UNL A   1      34.605  24.072  22.742  1.00  0.00    -0.252 OA
BRANCH   4   6
ATOM      6  C   UNL A   1      33.073  23.472  24.534  1.00  0.00     0.123 C 
ATOM      7  C   UNL A   1      32.057  22.226  26.492  1.00  0.00     0.032 C 
ATOM      8  C   UNL A   1      33.233  22.299  25.513  1.00  0.00     0.096 C 
ATOM      9  N   UNL A   1      33.258  21.135  24.623  1.00  0.00    -0.334 N 
ATOM     10  C   UNL A   1      32.139  22.908  23.470  1.00  0.00     0.039 C 
ATOM     11  C   UNL A   1      32.576  21.450  23.367  1.00  0.00     0.121 C 
BRANCH   9  12
ATOM     12  C   UNL A   1      34.026  19.991  24.670  1.00  0.00     0.286 C 
ATOM     13  O   UNL A   1      35.264  20.115  24.626  1.00  0.00    -0.267 OA
BRANCH  12  14
ATOM     14  C   UNL A   1      33.442  18.527  24.752  1.00  0.00     0.199 C 
ATOM     15  C   UNL A   1      34.477  17.442  24.534  1.00  0.00     0.110 C 
ATOM     16  C   UNL A   1      32.337  18.202  23.755  1.00  0.00     0.239 C 
ATOM     17  C   UNL A   1      34.085  16.752  23.242  1.00  0.00     0.167 C 
ATOM     18  O   UNL A   1      32.877  17.328  22.751  1.00  0.00    -0.374 OA
BRANCH  14  19
ATOM     19  N   UNL A   1      32.903  18.371  26.146  1.00  0.00    -0.343 N 
ATOM     20  H   UNL A   1      33.624  17.973  26.747  1.00  0.00     0.345 HD
ATOM     21  H   UNL A   1      32.092  17.751  26.129  1.00  0.00     0.345 HD
ATOM     22  H   UNL A   1      32.624  19.284  26.507  1.00  0.00     0.345 HD
ENDBRANCH  14  19
ENDBRANCH  12  14
ENDBRANCH   9  12
ENDBRANCH   4   6
ENDBRANCH   3   4
ENDBRANCH   2   3
ENDBRANCH   1   2
BRANCH   1  23
ATOM     23  O   UNL A   1      38.211  21.463  25.161  1.00  0.00    -0.374 OA
BRANCH  23  24
ATOM     24  C   UNL A   1      39.389  21.170  25.912  1.00  0.00     0.202 C 
BRANCH  24  25
ATOM     25  C   UNL A   1      39.733  19.692  26.125  1.00  0.00     0.261 C 
BRANCH  25  26
ATOM     26  O   UNL A   1      40.898  19.291  25.376  1.00  0.00    -0.460 OA
BRANCH  26  27
ATOM     27  C   UNL A   1      42.016  19.123  26.116  1.00  0.00     0.338 C 
ATOM     28  O   UNL A   1      42.550  18.066  26.432  1.00  0.00    -0.246 OA
BRANCH  27  29
ATOM     29  C   UNL A   1      42.662  20.423  26.366  1.00  0.00     0.060 A 
ATOM     30  C   UNL A   1      42.617  20.930  27.673  1.00  0.00     0.016 A 
ATOM     31  C   UNL A   1      43.215  21.178  25.330  1.00  0.00     0.016 A 
ATOM     32  C   UNL A   1      43.080  22.215  27.938  1.00  0.00     0.010 A 
ATOM     33  C   UNL A   1      43.668  22.474  25.597  1.00  0.00     0.010 A 
ATOM     34  C   UNL A   1      43.568  23.010  26.894  1.00  0.00    -0.014 A 
BRANCH  34  35
ATOM     35  C   UNL A   1      43.819  24.451  27.135  1.00  0.00     0.031 A 
ATOM     36  C   UNL A   1      45.187  25.007  26.855  1.00  0.00     0.074 A 
ATOM     37  C   UNL A   1      42.832  25.260  27.559  1.00  0.00     0.049 A 
ATOM     38  N   UNL A   1      45.637  26.227  27.008  1.00  0.00    -0.248 NA
ATOM     39  C   UNL A   1      46.184  24.060  26.332  1.00  0.00     0.031 C 
ATOM     40  C   UNL A   1      41.457  24.846  27.823  1.00  0.00     0.029 A 
ATOM     41  N   UNL A   1      42.843  26.602  27.844  1.00  0.00    -0.354 N 
ATOM     42  C   UNL A   1      46.965  26.193  26.603  1.00  0.00     0.074 A 
ATOM     43  C   UNL A   1      47.258  24.827  26.226  1.00  0.00     0.031 C 
ATOM     44  C   UNL A   1      40.755  25.913  28.243  1.00  0.00     0.029 A 
ATOM     45  C   UNL A   1      41.639  27.075  28.302  1.00  0.00     0.049 A 
ATOM     46  H   UNL A   1      43.639  27.171  27.731  1.00  0.00     0.167 HD
ATOM     47  C   UNL A   1      47.855  27.210  26.543  1.00  0.00     0.037 A 
ATOM     48  C   UNL A   1      41.299  28.305  28.737  1.00  0.00     0.037 A 
ATOM     49  C   UNL A   1      47.561  28.569  26.918  1.00  0.00     0.049 A 
ATOM     50  C   UNL A   1      42.329  29.404  28.724  1.00  0.00     0.074 A 
ATOM     51  C   UNL A   1      48.392  29.674  26.876  1.00  0.00     0.029 A 
ATOM     52  N   UNL A   1      46.339  29.003  27.408  1.00  0.00    -0.354 N 
ATOM     53  N   UNL A   1      43.574  29.370  28.318  1.00  0.00    -0.248 NA
ATOM     54  C   UNL A   1      41.901  30.718  29.228  1.00  0.00     0.031 C 
ATOM     55  C   UNL A   1      47.686  30.770  27.385  1.00  0.00     0.029 A 
ATOM     56  C   UNL A   1      46.401  30.356  27.698  1.00  0.00     0.049 A 
ATOM     57  H   UNL A   1      45.545  28.434  27.533  1.00  0.00     0.167 HD
ATOM     58  C   UNL A   1      44.070  30.656  28.490  1.00  0.00     0.074 A 
ATOM     59  C   UNL A   1      42.986  31.452  29.028  1.00  0.00     0.031 C 
ATOM     60  C   UNL A   1      45.310  31.135  28.226  1.00  0.00     0.037 A 
BRANCH  47  61
ATOM     61  C   UNL A   1      49.242  26.889  26.074  1.00  0.00     0.064 A 
ATOM     62  C   UNL A   1      50.226  26.411  26.953  1.00  0.00     0.173 A 
ATOM     63  C   UNL A   1      49.584  27.032  24.720  1.00  0.00     0.173 A 
ATOM     64  F   UNL A   1      49.953  26.272  28.259  1.00  0.00    -0.203 F 
ATOM     65  C   UNL A   1      51.506  26.108  26.498  1.00  0.00     0.198 A 
ATOM     66  C   UNL A   1      50.858  26.703  24.265  1.00  0.00     0.198 A 
ATOM     67  F   UNL A   1      48.680  27.484  23.839  1.00  0.00    -0.203 F 
ATOM     68  F   UNL A   1      52.441  25.691  27.363  1.00  0.00    -0.200 F 
ATOM     69  C   UNL A   1      51.819  26.247  25.154  1.00  0.00     0.200 A 
ATOM     70  F   UNL A   1      51.156  26.830  22.964  1.00  0.00    -0.200 F 
ATOM     71  F   UNL A   1      53.050  25.949  24.717  1.00  0.00    -0.200 F 
ENDBRANCH  47  61
BRANCH  48  72
ATOM     72  C   UNL A   1      39.922  28.560  29.233  1.00  0.00     0.064 A 
ATOM     73  C   UNL A   1      38.928  29.063  28.383  1.00  0.00     0.173 A 
ATOM     74  C   UNL A   1      39.578  28.326  30.572  1.00  0.00     0.173 A 
ATOM     75  F   UNL A   1      39.217  29.327  27.099  1.00  0.00    -0.203 F 
ATOM     76  C   UNL A   1      37.647  29.336  28.856  1.00  0.00     0.198 A 
ATOM     77  C   UNL A   1      38.290  28.574  31.038  1.00  0.00     0.198 A 
ATOM     78  F   UNL A   1      40.495  27.848  31.427  1.00  0.00    -0.203 F 
ATOM     79  F   UNL A   1      36.728  29.858  28.032  1.00  0.00    -0.200 F 
ATOM     80  C   UNL A   1      37.327  29.086  30.182  1.00  0.00     0.200 A 
ATOM     81  F   UNL A   1      37.982  28.323  32.318  1.00  0.00    -0.200 F 
ATOM     82  F   UNL A   1      36.094  29.348  30.637  1.00  0.00    -0.200 F 
ENDBRANCH  48  72
BRANCH  60  83
ATOM     83  C   UNL A   1      45.555  32.594  28.480  1.00  0.00     0.064 A 
ATOM     84  C   UNL A   1      46.065  33.050  29.704  1.00  0.00     0.173 A 
ATOM     85  C   UNL A   1      45.316  33.540  27.473  1.00  0.00     0.173 A 
ATOM     86  F   UNL A   1      46.296  32.187  30.704  1.00  0.00    -0.203 F 
ATOM     87  C   UNL A   1      46.306  34.405  29.917  1.00  0.00     0.198 A 
ATOM     88  C   UNL A   1      45.584  34.890  27.679  1.00  0.00     0.198 A 
ATOM     89  F   UNL A   1      44.835  33.153  26.282  1.00  0.00    -0.203 F 
ATOM     90  F   UNL A   1      46.753  34.825  31.109  1.00  0.00    -0.200 F 
ATOM     91  C   UNL A   1      46.073  35.322  28.903  1.00  0.00     0.200 A 
ATOM     92  F   UNL A   1      45.370  35.773  26.695  1.00  0.00    -0.200 F 
ATOM     93  F   UNL A   1      46.312  36.625  29.108  1.00  0.00    -0.200 F 
ENDBRANCH  60  83
ENDBRANCH  34  35
ENDBRANCH  27  29
ENDBRANCH  26  27
ENDBRANCH  25  26
ENDBRANCH  24  25
ENDBRANCH  23  24
ENDBRANCH   1  23
TORSDOF 17
ENDMDL
MODEL 3
REMARK VINA RESULT:     -11.0      2.235      8.106
REMARK SMILES C[C@@H]1[C@@H](C(=O)OCCOCCOC(=O)c2ccc(-c3c4nc(c(-c5c(F)c(F)c(F)c(F)c5F)c5ccc([nH]5)c(-c5c(F)c(F)c(F)c(F)c5F)c5nc(c(-c6c(F)c(F)c(F)c(F)c6F)c6ccc3[nH]6)C=C5)C=C4)cc2)CCN1C(=O)[C@]1([NH3+])CCOC1
REMARK SMILES IDX 8 1 7 2 6 3 4 4 5 5 3 6 1 7 2 8 80 9 78 10 79 11 81 12 82 13
REMARK SMILES IDX 83 14 85 15 88 16 86 17 87 18 84 19 9 23 10 24 11 25 12 26
REMARK SMILES IDX 13 27 14 28 15 29 16 30 77 31 17 32 76 33 18 34 19 35 20 36
REMARK SMILES IDX 70 37 21 38 75 39 69 40 71 41 22 42 74 43 68 44 67 45 23 47
REMARK SMILES IDX 55 48 35 49 54 50 36 51 39 52 53 53 72 54 37 55 38 56 52 58
REMARK SMILES IDX 73 59 40 60 24 61 25 62 33 63 26 64 27 65 31 66 34 67 28 68
REMARK SMILES IDX 29 69 32 70 30 71 56 72 57 73 65 74 58 75 59 76 63 77 66 78
REMARK SMILES IDX 60 79 61 80 64 81 62 82 41 83 42 84 50 85 43 86 44 87 48 88
REMARK SMILES IDX 51 89 45 90 46 91 49 92 47 93
REMARK H PARENT 84 20 84 21 84 22 71 46 39 57
REMARK Flexibility Score: inf
ROOT
ATOM      1  C   UNL A   1      30.675  29.258  22.877  1.00  0.00     0.202 C 
ENDROOT
BRANCH   1   2
ATOM      2  C   UNL A   1      30.996  27.858  22.350  1.00  0.00     0.261 C 
BRANCH   2   3
ATOM      3  O   UNL A   1      32.409  27.601  22.356  1.00  0.00    -0.463 OA
BRANCH   3   4
ATOM      4  C   UNL A   1      32.739  26.283  22.271  1.00  0.00     0.311 C 
ATOM      5  O   UNL A   1      32.212  25.483  21.513  1.00  0.00    -0.252 OA
BRANCH   4   6
ATOM      6  C   UNL A   1      33.867  25.949  23.233  1.00  0.00     0.123 C 
ATOM      7  C   UNL A   1      35.066  23.965  24.256  1.00  0.00     0.032 C 
ATOM      8  C   UNL A   1      33.738  24.491  23.701  1.00  0.00     0.096 C 
ATOM      9  N   UNL A   1      32.719  24.576  24.750  1.00  0.00    -0.334 N 
ATOM     10  C   UNL A   1      33.715  26.740  24.525  1.00  0.00     0.039 C 
ATOM     11  C   UNL A   1      32.684  25.930  25.306  1.00  0.00     0.121 C 
BRANCH   9  12
ATOM     12  C   UNL A   1      31.674  23.730  25.052  1.00  0.00     0.286 C 
ATOM     13  O   UNL A   1      30.562  23.970  24.546  1.00  0.00    -0.267 OA
BRANCH  12  14
ATOM     14  C   UNL A   1      31.783  22.485  26.015  1.00  0.00     0.199 C 
ATOM     15  C   UNL A   1      32.660  22.724  27.227  1.00  0.00     0.110 C 
ATOM     16  C   UNL A   1      32.344  21.213  25.388  1.00  0.00     0.239 C 
ATOM     17  C   UNL A   1      33.847  21.795  27.068  1.00  0.00     0.167 C 
ATOM     18  O   UNL A   1      33.675  21.011  25.889  1.00  0.00    -0.374 OA
BRANCH  14  19
ATOM     19  N   UNL A   1      30.389  22.212  26.505  1.00  0.00    -0.343 N 
ATOM     20  H   UNL A   1      30.340  22.390  27.508  1.00  0.00     0.345 HD
ATOM     21  H   UNL A   1      30.148  21.238  26.319  1.00  0.00     0.345 HD
ATOM     22  H   UNL A   1      29.732  22.823  26.019  1.00  0.00     0.345 HD
ENDBRANCH  14  19
ENDBRANCH  12  14
ENDBRANCH   9  12
ENDBRANCH   4   6
ENDBRANCH   3   4
ENDBRANCH   2   3
ENDBRANCH   1   2
BRANCH   1  23
ATOM     23  O   UNL A   1      30.571  29.408  24.289  1.00  0.00    -0.374 OA
BRANCH  23  24
ATOM     24  C   UNL A   1      31.724  29.836  25.013  1.00  0.00     0.202 C 
BRANCH  24  25
ATOM     25  C   UNL A   1      31.514  30.893  26.103  1.00  0.00     0.261 C 
BRANCH  25  26
ATOM     26  O   UNL A   1      32.471  30.769  27.173  1.00  0.00    -0.460 OA
BRANCH  26  27
ATOM     27  C   UNL A   1      33.251  31.857  27.363  1.00  0.00     0.338 C 
ATOM     28  O   UNL A   1      32.914  33.034  27.317  1.00  0.00    -0.246 OA
BRANCH  27  29
ATOM     29  C   UNL A   1      34.587  31.451  27.834  1.00  0.00     0.060 A 
ATOM     30  C   UNL A   1      34.777  30.101  28.162  1.00  0.00     0.016 A 
ATOM     31  C   UNL A   1      35.604  32.384  28.044  1.00  0.00     0.016 A 
ATOM     32  C   UNL A   1      35.970  29.688  28.748  1.00  0.00     0.010 A 
ATOM     33  C   UNL A   1      36.796  31.969  28.646  1.00  0.00     0.010 A 
ATOM     34  C   UNL A   1      36.968  30.627  29.033  1.00  0.00    -0.014 A 
BRANCH  34  35
ATOM     35  C   UNL A   1      38.118  30.229  29.880  1.00  0.00     0.031 A 
ATOM     36  C   UNL A   1      39.133  29.270  29.324  1.00  0.00     0.074 A 
ATOM     37  C   UNL A   1      38.277  30.745  31.112  1.00  0.00     0.049 A 
ATOM     38  N   UNL A   1      40.204  28.772  29.888  1.00  0.00    -0.248 NA
ATOM     39  C   UNL A   1      38.911  28.810  27.944  1.00  0.00     0.031 C 
ATOM     40  C   UNL A   1      37.384  31.713  31.742  1.00  0.00     0.029 A 
ATOM     41  N   UNL A   1      39.250  30.518  32.052  1.00  0.00    -0.354 N 
ATOM     42  C   UNL A   1      40.781  27.941  28.936  1.00  0.00     0.074 A 
ATOM     43  C   UNL A   1      39.927  27.978  27.769  1.00  0.00     0.031 C 
ATOM     44  C   UNL A   1      37.845  31.992  32.974  1.00  0.00     0.029 A 
ATOM     45  C   UNL A   1      39.048  31.200  33.226  1.00  0.00     0.049 A 
ATOM     46  H   UNL A   1      40.019  29.922  31.901  1.00  0.00     0.167 HD
ATOM     47  C   UNL A   1      41.923  27.221  29.025  1.00  0.00     0.037 A 
ATOM     48  C   UNL A   1      39.748  31.173  34.377  1.00  0.00     0.037 A 
ATOM     49  C   UNL A   1      42.772  27.186  30.187  1.00  0.00     0.049 A 
ATOM     50  C   UNL A   1      40.979  30.310  34.473  1.00  0.00     0.074 A 
ATOM     51  C   UNL A   1      43.960  26.500  30.367  1.00  0.00     0.029 A 
ATOM     52  N   UNL A   1      42.518  27.866  31.368  1.00  0.00    -0.354 N 
ATOM     53  N   UNL A   1      41.530  29.547  33.561  1.00  0.00    -0.248 NA
ATOM     54  C   UNL A   1      41.688  30.309  35.762  1.00  0.00     0.031 C 
ATOM     55  C   UNL A   1      44.401  26.729  31.676  1.00  0.00     0.029 A 
ATOM     56  C   UNL A   1      43.513  27.596  32.293  1.00  0.00     0.049 A 
ATOM     57  H   UNL A   1      41.744  28.454  31.527  1.00  0.00     0.167 HD
ATOM     58  C   UNL A   1      42.661  28.997  34.152  1.00  0.00     0.074 A 
ATOM     59  C   UNL A   1      42.724  29.524  35.500  1.00  0.00     0.031 C 
ATOM     60  C   UNL A   1      43.565  28.136  33.627  1.00  0.00     0.037 A 
BRANCH  47  61
ATOM     61  C   UNL A   1      42.312  26.391  27.838  1.00  0.00     0.064 A 
ATOM     62  C   UNL A   1      43.216  26.862  26.874  1.00  0.00     0.173 A 
ATOM     63  C   UNL A   1      41.796  25.096  27.679  1.00  0.00     0.173 A 
ATOM     64  F   UNL A   1      43.724  28.099  26.973  1.00  0.00    -0.203 F 
ATOM     65  C   UNL A   1      43.573  26.074  25.784  1.00  0.00     0.198 A 
ATOM     66  C   UNL A   1      42.177  24.301  26.601  1.00  0.00     0.198 A 
ATOM     67  F   UNL A   1      40.930  24.599  28.574  1.00  0.00    -0.203 F 
ATOM     68  F   UNL A   1      44.407  26.559  24.853  1.00  0.00    -0.200 F 
ATOM     69  C   UNL A   1      43.059  24.792  25.651  1.00  0.00     0.200 A 
ATOM     70  F   UNL A   1      41.686  23.060  26.480  1.00  0.00    -0.200 F 
ATOM     71  F   UNL A   1      43.410  24.033  24.604  1.00  0.00    -0.200 F 
ENDBRANCH  47  61
BRANCH  48  72
ATOM     72  C   UNL A   1      39.296  31.982  35.538  1.00  0.00     0.064 A 
ATOM     73  C   UNL A   1      39.671  33.325  35.675  1.00  0.00     0.173 A 
ATOM     74  C   UNL A   1      38.496  31.421  36.545  1.00  0.00     0.173 A 
ATOM     75  F   UNL A   1      40.457  33.897  34.751  1.00  0.00    -0.203 F 
ATOM     76  C   UNL A   1      39.277  34.072  36.782  1.00  0.00     0.198 A 
ATOM     77  C   UNL A   1      38.080  32.177  37.638  1.00  0.00     0.198 A 
ATOM     78  F   UNL A   1      38.113  30.138  36.462  1.00  0.00    -0.203 F 
ATOM     79  F   UNL A   1      39.685  35.342  36.911  1.00  0.00    -0.200 F 
ATOM     80  C   UNL A   1      38.476  33.500  37.760  1.00  0.00     0.200 A 
ATOM     81  F   UNL A   1      37.300  31.622  38.576  1.00  0.00    -0.200 F 
ATOM     82  F   UNL A   1      38.096  34.220  38.824  1.00  0.00    -0.200 F 
ENDBRANCH  48  72
BRANCH  60  83
ATOM     83  C   UNL A   1      44.721  27.734  34.496  1.00  0.00     0.064 A 
ATOM     84  C   UNL A   1      44.671  26.588  35.302  1.00  0.00     0.173 A 
ATOM     85  C   UNL A   1      45.908  28.481  34.489  1.00  0.00     0.173 A 
ATOM     86  F   UNL A   1      43.553  25.848  35.355  1.00  0.00    -0.203 F 
ATOM     87  C   UNL A   1      45.759  26.217  36.087  1.00  0.00     0.198 A 
ATOM     88  C   UNL A   1      47.005  28.093  35.254  1.00  0.00     0.198 A 
ATOM     89  F   UNL A   1      46.009  29.582  33.729  1.00  0.00    -0.203 F 
ATOM     90  F   UNL A   1      45.675  25.143  36.884  1.00  0.00    -0.200 F 
ATOM     91  C   UNL A   1      46.927  26.965  36.057  1.00  0.00     0.200 A 
ATOM     92  F   UNL A   1      48.136  28.809  35.213  1.00  0.00    -0.200 F 
ATOM     93  F   UNL A   1      47.977  26.603  36.808  1.00  0.00    -0.200 F 
ENDBRANCH  60  83
ENDBRANCH  34  35
ENDBRANCH  27  29
ENDBRANCH  26  27
ENDBRANCH  25  26
ENDBRANCH  24  25
ENDBRANCH  23  24
ENDBRANCH   1  23
TORSDOF 17
ENDMDL
