MODEL 1
REMARK VINA RESULT:     -11.4      0.000      0.000
REMARK SMILES C[C@]12CC[C@@H]3[C@@H](CCC4=C/C(=N\OCC(=O)N5CCC[C@@H]5C(=O)OCCOCCOC(=O)c5ccc(-c6c7nc(c(-c8c(F)c(F)c(F)c(F)c8F)c8ccc([nH]8)c(-c8c(F)c(F)c(F)c(F)c8F)c8nc(c(-c9c(F)c(F)c(F)c(F)c9F)c9ccc6[nH]9)C=C8)C=C7)cc5)CC[C@@]43C)[C@@H]1CC[C@@H]2O
REMARK SMILES IDX 25 1 24 2 22 3 23 4 21 5 17 6 18 7 19 8 20 9 15 10 16 11
REMARK SMILES IDX 14 12 13 13 12 14 1 15 2 16 3 17 100 18 103 19 4 20 6 21
REMARK SMILES IDX 101 22 102 23 5 24 7 25 98 26 8 27 9 28 97 29 99 30 10 31
REMARK SMILES IDX 96 32 11 33 104 34 26 36 27 37 28 38 29 39 30 40 31 41 32 42
REMARK SMILES IDX 33 43 34 44 95 45 35 46 94 47 36 48 37 49 38 50 88 51 39 52
REMARK SMILES IDX 93 53 87 54 89 55 40 56 92 57 86 58 85 59 41 61 73 62 53 63
REMARK SMILES IDX 72 64 54 65 57 66 71 67 90 68 55 69 56 70 70 72 91 73 58 74
REMARK SMILES IDX 42 75 43 76 51 77 44 78 45 79 49 80 52 81 46 82 47 83 50 84
REMARK SMILES IDX 48 85 74 86 75 87 83 88 76 89 77 90 81 91 84 92 78 93 79 94
REMARK SMILES IDX 82 95 80 96 59 97 60 98 68 99 61 100 62 101 66 102 69 103
REMARK SMILES IDX 63 104 64 105 67 106 65 107
REMARK H PARENT 104 35 89 60 57 71
REMARK Flexibility Score: inf
ROOT
ATOM      1  C   UNL A   1      37.626  31.609  29.210  1.00  0.00     0.261 C 
ENDROOT
BRANCH   1   2
ATOM      2  O   UNL A   1      36.609  32.586  29.233  1.00  0.00    -0.462 OA
BRANCH   2   3
ATOM      3  C   UNL A   1      36.458  33.112  30.481  1.00  0.00     0.328 C 
ATOM      4  O   UNL A   1      37.333  33.694  31.107  1.00  0.00    -0.250 OA
BRANCH   3   5
ATOM      5  C   UNL A   1      35.011  32.916  30.919  1.00  0.00     0.195 C 
ATOM      6  N   UNL A   1      34.223  34.079  30.552  1.00  0.00    -0.326 N 
ATOM      7  C   UNL A   1      33.925  34.822  31.775  1.00  0.00     0.120 C 
ATOM      8  C   UNL A   1      34.840  34.246  32.858  1.00  0.00     0.024 C 
ATOM      9  C   UNL A   1      34.973  32.800  32.444  1.00  0.00     0.039 C 
BRANCH   6  10
ATOM     10  C   UNL A   1      33.931  34.605  29.294  1.00  0.00     0.264 C 
ATOM     11  O   UNL A   1      33.685  35.824  29.242  1.00  0.00    -0.271 OA
BRANCH  10  12
ATOM     12  C   UNL A   1      33.617  33.762  27.943  1.00  0.00     0.363 C 
BRANCH  12  13
ATOM     13  O   UNL A   1      32.950  32.571  27.541  1.00  0.00    -0.385 OA
BRANCH  13  14
ATOM     14  N   UNL A   1      33.733  31.394  27.707  1.00  0.00    -0.091 NA
ATOM     15  C   UNL A   1      31.725  23.693  23.525  1.00  0.00     0.014 C 
ATOM     16  C   UNL A   1      32.446  25.051  23.808  1.00  0.00    -0.003 C 
ATOM     17  C   UNL A   1      32.816  25.013  25.278  1.00  0.00     0.010 C 
ATOM     18  C   UNL A   1      31.627  26.290  23.354  1.00  0.00     0.001 C 
ATOM     19  C   UNL A   1      33.613  25.359  22.851  1.00  0.00     0.120 C 
ATOM     20  C   UNL A   1      31.589  25.323  26.123  1.00  0.00     0.005 C 
ATOM     21  C   UNL A   1      30.487  26.690  24.271  1.00  0.00    -0.003 C 
ATOM     22  C   UNL A   1      31.492  26.014  21.840  1.00  0.00     0.007 C 
ATOM     23  C   UNL A   1      32.893  25.412  21.492  1.00  0.00     0.032 C 
ATOM     24  C   UNL A   1      30.980  26.680  25.745  1.00  0.00     0.002 C 
ATOM     25  C   UNL A   1      29.896  28.075  23.983  1.00  0.00     0.008 C 
ATOM     26  C   UNL A   1      31.837  27.916  26.304  1.00  0.00    -0.008 C 
ATOM     27  C   UNL A   1      30.889  29.226  24.196  1.00  0.00     0.032 C 
ATOM     28  C   UNL A   1      31.729  29.209  25.468  1.00  0.00    -0.062 C 
ATOM     29  C   UNL A   1      33.381  27.807  26.512  1.00  0.00     0.018 C 
ATOM     30  C   UNL A   1      31.300  27.970  27.756  1.00  0.00     0.016 C 
ATOM     31  C   UNL A   1      32.405  30.340  25.810  1.00  0.00     0.027 C 
ATOM     32  C   UNL A   1      34.017  29.020  27.258  1.00  0.00     0.061 C 
ATOM     33  C   UNL A   1      33.363  30.376  26.966  1.00  0.00     0.080 C 
BRANCH  19  34
ATOM     34  O   UNL A   1      34.718  24.507  22.967  1.00  0.00    -0.393 OA
ATOM     35  H   UNL A   1      35.531  25.006  22.789  1.00  0.00     0.210 HD
ENDBRANCH  19  34
ENDBRANCH  13  14
ENDBRANCH  12  13
ENDBRANCH  10  12
ENDBRANCH   6  10
ENDBRANCH   3   5
ENDBRANCH   2   3
ENDBRANCH   1   2
BRANCH   1  36
ATOM     36  C   UNL A   1      37.049  30.203  29.104  1.00  0.00     0.202 C 
BRANCH  36  37
ATOM     37  O   UNL A   1      37.069  29.278  30.182  1.00  0.00    -0.374 OA
BRANCH  37  38
ATOM     38  C   UNL A   1      36.737  29.605  31.519  1.00  0.00     0.202 C 
BRANCH  38  39
ATOM     39  C   UNL A   1      37.581  29.069  32.684  1.00  0.00     0.261 C 
BRANCH  39  40
ATOM     40  O   UNL A   1      38.706  29.915  32.890  1.00  0.00    -0.460 OA
BRANCH  40  41
ATOM     41  C   UNL A   1      39.801  29.169  32.809  1.00  0.00     0.338 C 
ATOM     42  O   UNL A   1      40.007  28.097  33.381  1.00  0.00    -0.246 OA
BRANCH  41  43
ATOM     43  C   UNL A   1      40.791  29.600  31.886  1.00  0.00     0.060 A 
ATOM     44  C   UNL A   1      41.903  30.217  32.479  1.00  0.00     0.016 A 
ATOM     45  C   UNL A   1      40.547  29.597  30.524  1.00  0.00     0.016 A 
ATOM     46  C   UNL A   1      42.745  30.954  31.711  1.00  0.00     0.010 A 
ATOM     47  C   UNL A   1      41.465  30.244  29.733  1.00  0.00     0.010 A 
ATOM     48  C   UNL A   1      42.547  30.917  30.336  1.00  0.00    -0.014 A 
BRANCH  48  49
ATOM     49  C   UNL A   1      43.556  31.526  29.492  1.00  0.00     0.031 A 
ATOM     50  C   UNL A   1      44.746  30.727  29.133  1.00  0.00     0.074 A 
ATOM     51  C   UNL A   1      43.360  32.815  29.176  1.00  0.00     0.049 A 
ATOM     52  N   UNL A   1      45.890  31.144  28.679  1.00  0.00    -0.248 NA
ATOM     53  C   UNL A   1      44.660  29.272  29.353  1.00  0.00     0.031 C 
ATOM     54  C   UNL A   1      42.155  33.598  29.493  1.00  0.00     0.029 A 
ATOM     55  N   UNL A   1      44.182  33.703  28.557  1.00  0.00    -0.354 N 
ATOM     56  C   UNL A   1      46.683  30.013  28.601  1.00  0.00     0.074 A 
ATOM     57  C   UNL A   1      45.895  28.891  29.061  1.00  0.00     0.031 C 
ATOM     58  C   UNL A   1      42.327  34.856  29.075  1.00  0.00     0.029 A 
ATOM     59  C   UNL A   1      43.681  34.979  28.563  1.00  0.00     0.049 A 
ATOM     60  H   UNL A   1      45.044  33.457  28.149  1.00  0.00     0.167 HD
ATOM     61  C   UNL A   1      47.966  29.961  28.187  1.00  0.00     0.037 A 
ATOM     62  C   UNL A   1      44.296  36.129  28.260  1.00  0.00     0.037 A 
ATOM     63  C   UNL A   1      48.680  31.132  27.748  1.00  0.00     0.049 A 
ATOM     64  C   UNL A   1      45.730  36.039  27.846  1.00  0.00     0.074 A 
ATOM     65  C   UNL A   1      49.975  31.235  27.285  1.00  0.00     0.029 A 
ATOM     66  N   UNL A   1      48.139  32.416  27.727  1.00  0.00    -0.354 N 
ATOM     67  N   UNL A   1      46.504  34.979  27.778  1.00  0.00    -0.248 NA
ATOM     68  C   UNL A   1      46.381  37.294  27.473  1.00  0.00     0.031 C 
ATOM     69  C   UNL A   1      50.234  32.586  27.029  1.00  0.00     0.029 A 
ATOM     70  C   UNL A   1      49.081  33.321  27.273  1.00  0.00     0.049 A 
ATOM     71  H   UNL A   1      47.220  32.646  27.994  1.00  0.00     0.167 HD
ATOM     72  C   UNL A   1      47.729  35.432  27.326  1.00  0.00     0.074 A 
ATOM     73  C   UNL A   1      47.586  36.864  27.127  1.00  0.00     0.031 C 
ATOM     74  C   UNL A   1      48.872  34.739  27.094  1.00  0.00     0.037 A 
BRANCH  61  75
ATOM     75  C   UNL A   1      48.661  28.636  28.240  1.00  0.00     0.064 A 
ATOM     76  C   UNL A   1      48.659  27.751  27.151  1.00  0.00     0.173 A 
ATOM     77  C   UNL A   1      49.342  28.241  29.402  1.00  0.00     0.173 A 
ATOM     78  F   UNL A   1      47.998  28.065  26.026  1.00  0.00    -0.203 F 
ATOM     79  C   UNL A   1      49.296  26.514  27.230  1.00  0.00     0.198 A 
ATOM     80  C   UNL A   1      50.003  27.017  29.467  1.00  0.00     0.198 A 
ATOM     81  F   UNL A   1      49.361  29.041  30.478  1.00  0.00    -0.203 F 
ATOM     82  F   UNL A   1      49.235  25.664  26.195  1.00  0.00    -0.200 F 
ATOM     83  C   UNL A   1      49.974  26.153  28.382  1.00  0.00     0.200 A 
ATOM     84  F   UNL A   1      50.661  26.672  30.581  1.00  0.00    -0.200 F 
ATOM     85  F   UNL A   1      50.592  24.965  28.455  1.00  0.00    -0.200 F 
ENDBRANCH  61  75
BRANCH  62  86
ATOM     86  C   UNL A   1      43.556  37.407  28.363  1.00  0.00     0.064 A 
ATOM     87  C   UNL A   1      42.672  37.796  27.349  1.00  0.00     0.173 A 
ATOM     88  C   UNL A   1      43.656  38.229  29.496  1.00  0.00     0.173 A 
ATOM     89  F   UNL A   1      42.540  37.037  26.252  1.00  0.00    -0.203 F 
ATOM     90  C   UNL A   1      41.934  38.972  27.453  1.00  0.00     0.198 A 
ATOM     91  C   UNL A   1      42.894  39.389  29.613  1.00  0.00     0.198 A 
ATOM     92  F   UNL A   1      44.464  37.884  30.509  1.00  0.00    -0.203 F 
ATOM     93  F   UNL A   1      41.121  39.337  26.453  1.00  0.00    -0.200 F 
ATOM     94  C   UNL A   1      42.041  39.764  28.587  1.00  0.00     0.200 A 
ATOM     95  F   UNL A   1      42.975  40.133  30.724  1.00  0.00    -0.200 F 
ATOM     96  F   UNL A   1      41.318  40.887  28.691  1.00  0.00    -0.200 F 
ENDBRANCH  62  86
BRANCH  74  97
ATOM     97  C   UNL A   1      50.022  35.532  26.558  1.00  0.00     0.064 A 
ATOM     98  C   UNL A   1      50.166  35.786  25.187  1.00  0.00     0.173 A 
ATOM     99  C   UNL A   1      50.979  36.059  27.436  1.00  0.00     0.173 A 
ATOM    100  F   UNL A   1      49.284  35.280  24.310  1.00  0.00    -0.203 F 
ATOM    101  C   UNL A   1      51.250  36.514  24.710  1.00  0.00     0.198 A 
ATOM    102  C   UNL A   1      52.041  36.818  26.959  1.00  0.00     0.198 A 
ATOM    103  F   UNL A   1      50.879  35.844  28.756  1.00  0.00    -0.203 F 
ATOM    104  F   UNL A   1      51.405  36.692  23.391  1.00  0.00    -0.200 F 
ATOM    105  C   UNL A   1      52.180  37.036  25.596  1.00  0.00     0.200 A 
ATOM    106  F   UNL A   1      52.931  37.335  27.817  1.00  0.00    -0.200 F 
ATOM    107  F   UNL A   1      53.221  37.743  25.135  1.00  0.00    -0.200 F 
ENDBRANCH  74  97
ENDBRANCH  48  49
ENDBRANCH  41  43
ENDBRANCH  40  41
ENDBRANCH  39  40
ENDBRANCH  38  39
ENDBRANCH  37  38
ENDBRANCH  36  37
ENDBRANCH   1  36
TORSDOF 19
ENDMDL
MODEL 2
REMARK VINA RESULT:     -11.4      5.134      8.146
REMARK SMILES C[C@]12CC[C@@H]3[C@@H](CCC4=C/C(=N\OCC(=O)N5CCC[C@@H]5C(=O)OCCOCCOC(=O)c5ccc(-c6c7nc(c(-c8c(F)c(F)c(F)c(F)c8F)c8ccc([nH]8)c(-c8c(F)c(F)c(F)c(F)c8F)c8nc(c(-c9c(F)c(F)c(F)c(F)c9F)c9ccc6[nH]9)C=C8)C=C7)cc5)CC[C@@]43C)[C@@H]1CC[C@@H]2O
REMARK SMILES IDX 25 1 24 2 22 3 23 4 21 5 17 6 18 7 19 8 20 9 15 10 16 11
REMARK SMILES IDX 14 12 13 13 12 14 1 15 2 16 3 17 100 18 103 19 4 20 6 21
REMARK SMILES IDX 101 22 102 23 5 24 7 25 98 26 8 27 9 28 97 29 99 30 10 31
REMARK SMILES IDX 96 32 11 33 104 34 26 36 27 37 28 38 29 39 30 40 31 41 32 42
REMARK SMILES IDX 33 43 34 44 95 45 35 46 94 47 36 48 37 49 38 50 88 51 39 52
REMARK SMILES IDX 93 53 87 54 89 55 40 56 92 57 86 58 85 59 41 61 73 62 53 63
REMARK SMILES IDX 72 64 54 65 57 66 71 67 90 68 55 69 56 70 70 72 91 73 58 74
REMARK SMILES IDX 42 75 43 76 51 77 44 78 45 79 49 80 52 81 46 82 47 83 50 84
REMARK SMILES IDX 48 85 74 86 75 87 83 88 76 89 77 90 81 91 84 92 78 93 79 94
REMARK SMILES IDX 82 95 80 96 59 97 60 98 68 99 61 100 62 101 66 102 69 103
REMARK SMILES IDX 63 104 64 105 67 106 65 107
REMARK H PARENT 104 35 89 60 57 71
REMARK Flexibility Score: inf
ROOT
ATOM      1  C   UNL A   1      37.296  31.698  28.880  1.00  0.00     0.261 C 
ENDROOT
BRANCH   1   2
ATOM      2  O   UNL A   1      36.392  31.633  29.960  1.00  0.00    -0.462 OA
BRANCH   2   3
ATOM      3  C   UNL A   1      36.207  32.861  30.523  1.00  0.00     0.328 C 
ATOM      4  O   UNL A   1      37.040  33.757  30.538  1.00  0.00    -0.250 OA
BRANCH   3   5
ATOM      5  C   UNL A   1      34.780  32.943  31.052  1.00  0.00     0.195 C 
ATOM      6  N   UNL A   1      34.157  34.175  30.605  1.00  0.00    -0.326 N 
ATOM      7  C   UNL A   1      34.060  35.072  31.755  1.00  0.00     0.120 C 
ATOM      8  C   UNL A   1      34.946  34.465  32.845  1.00  0.00     0.024 C 
ATOM      9  C   UNL A   1      34.827  32.983  32.581  1.00  0.00     0.039 C 
BRANCH   6  10
ATOM     10  C   UNL A   1      33.866  34.616  29.314  1.00  0.00     0.264 C 
ATOM     11  O   UNL A   1      33.505  35.802  29.197  1.00  0.00    -0.271 OA
BRANCH  10  12
ATOM     12  C   UNL A   1      33.689  33.689  27.993  1.00  0.00     0.363 C 
BRANCH  12  13
ATOM     13  O   UNL A   1      33.000  32.515  27.579  1.00  0.00    -0.385 OA
BRANCH  13  14
ATOM     14  N   UNL A   1      33.764  31.323  27.730  1.00  0.00    -0.091 NA
ATOM     15  C   UNL A   1      31.645  23.720  23.424  1.00  0.00     0.014 C 
ATOM     16  C   UNL A   1      32.387  25.061  23.730  1.00  0.00    -0.003 C 
ATOM     17  C   UNL A   1      32.751  24.995  25.201  1.00  0.00     0.010 C 
ATOM     18  C   UNL A   1      31.591  26.321  23.292  1.00  0.00     0.001 C 
ATOM     19  C   UNL A   1      33.563  25.365  22.782  1.00  0.00     0.120 C 
ATOM     20  C   UNL A   1      31.526  25.313  26.046  1.00  0.00     0.005 C 
ATOM     21  C   UNL A   1      30.454  26.726  24.211  1.00  0.00    -0.003 C 
ATOM     22  C   UNL A   1      31.457  26.070  21.774  1.00  0.00     0.007 C 
ATOM     23  C   UNL A   1      32.850  25.451  21.422  1.00  0.00     0.032 C 
ATOM     24  C   UNL A   1      30.941  26.685  25.687  1.00  0.00     0.002 C 
ATOM     25  C   UNL A   1      29.887  28.125  23.942  1.00  0.00     0.008 C 
ATOM     26  C   UNL A   1      31.816  27.898  26.267  1.00  0.00    -0.008 C 
ATOM     27  C   UNL A   1      30.898  29.256  24.176  1.00  0.00     0.032 C 
ATOM     28  C   UNL A   1      31.733  29.205  25.451  1.00  0.00    -0.062 C 
ATOM     29  C   UNL A   1      33.357  27.761  26.480  1.00  0.00     0.018 C 
ATOM     30  C   UNL A   1      31.275  27.939  27.718  1.00  0.00     0.016 C 
ATOM     31  C   UNL A   1      32.426  30.319  25.812  1.00  0.00     0.027 C 
ATOM     32  C   UNL A   1      34.011  28.951  27.246  1.00  0.00     0.061 C 
ATOM     33  C   UNL A   1      33.380  30.323  26.972  1.00  0.00     0.080 C 
BRANCH  19  34
ATOM     34  O   UNL A   1      34.654  24.493  22.889  1.00  0.00    -0.393 OA
ATOM     35  H   UNL A   1      35.213  24.578  22.100  1.00  0.00     0.210 HD
ENDBRANCH  19  34
ENDBRANCH  13  14
ENDBRANCH  12  13
ENDBRANCH  10  12
ENDBRANCH   6  10
ENDBRANCH   3   5
ENDBRANCH   2   3
ENDBRANCH   1   2
BRANCH   1  36
ATOM     36  C   UNL A   1      37.367  30.376  28.129  1.00  0.00     0.202 C 
BRANCH  36  37
ATOM     37  O   UNL A   1      38.577  29.652  27.953  1.00  0.00    -0.374 OA
BRANCH  37  38
ATOM     38  C   UNL A   1      39.192  28.871  28.961  1.00  0.00     0.202 C 
BRANCH  38  39
ATOM     39  C   UNL A   1      38.344  28.171  30.031  1.00  0.00     0.261 C 
BRANCH  39  40
ATOM     40  O   UNL A   1      39.164  27.816  31.137  1.00  0.00    -0.460 OA
BRANCH  40  41
ATOM     41  C   UNL A   1      38.621  28.331  32.233  1.00  0.00     0.338 C 
ATOM     42  O   UNL A   1      37.715  27.839  32.908  1.00  0.00    -0.246 OA
BRANCH  41  43
ATOM     43  C   UNL A   1      39.220  29.517  32.737  1.00  0.00     0.060 A 
ATOM     44  C   UNL A   1      38.382  30.641  32.713  1.00  0.00     0.016 A 
ATOM     45  C   UNL A   1      40.576  29.571  33.010  1.00  0.00     0.016 A 
ATOM     46  C   UNL A   1      38.923  31.879  32.852  1.00  0.00     0.010 A 
ATOM     47  C   UNL A   1      41.102  30.814  33.267  1.00  0.00     0.010 A 
ATOM     48  C   UNL A   1      40.271  31.949  33.180  1.00  0.00    -0.014 A 
BRANCH  48  49
ATOM     49  C   UNL A   1      40.813  33.247  33.533  1.00  0.00     0.031 A 
ATOM     50  C   UNL A   1      41.604  33.976  32.521  1.00  0.00     0.074 A 
ATOM     51  C   UNL A   1      40.619  33.640  34.801  1.00  0.00     0.049 A 
ATOM     52  N   UNL A   1      42.431  34.963  32.701  1.00  0.00    -0.248 NA
ATOM     53  C   UNL A   1      41.490  33.511  31.127  1.00  0.00     0.031 C 
ATOM     54  C   UNL A   1      39.793  32.939  35.796  1.00  0.00     0.029 A 
ATOM     55  N   UNL A   1      41.132  34.701  35.480  1.00  0.00    -0.354 N 
ATOM     56  C   UNL A   1      42.976  35.211  31.454  1.00  0.00     0.074 A 
ATOM     57  C   UNL A   1      42.394  34.269  30.524  1.00  0.00     0.031 C 
ATOM     58  C   UNL A   1      39.869  33.585  36.964  1.00  0.00     0.029 A 
ATOM     59  C   UNL A   1      40.823  34.671  36.815  1.00  0.00     0.049 A 
ATOM     60  H   UNL A   1      41.668  35.411  35.059  1.00  0.00     0.167 HD
ATOM     61  C   UNL A   1      43.897  36.151  31.154  1.00  0.00     0.037 A 
ATOM     62  C   UNL A   1      41.330  35.402  37.816  1.00  0.00     0.037 A 
ATOM     63  C   UNL A   1      44.428  37.049  32.146  1.00  0.00     0.049 A 
ATOM     64  C   UNL A   1      42.380  36.404  37.454  1.00  0.00     0.074 A 
ATOM     65  C   UNL A   1      45.352  38.062  31.992  1.00  0.00     0.029 A 
ATOM     66  N   UNL A   1      44.071  37.027  33.493  1.00  0.00    -0.354 N 
ATOM     67  N   UNL A   1      42.919  36.647  36.281  1.00  0.00    -0.248 NA
ATOM     68  C   UNL A   1      42.896  37.229  38.545  1.00  0.00     0.031 C 
ATOM     69  C   UNL A   1      45.590  38.621  33.253  1.00  0.00     0.029 A 
ATOM     70  C   UNL A   1      44.770  38.000  34.185  1.00  0.00     0.049 A 
ATOM     71  H   UNL A   1      43.417  36.410  33.893  1.00  0.00     0.167 HD
ATOM     72  C   UNL A   1      43.822  37.675  36.484  1.00  0.00     0.074 A 
ATOM     73  C   UNL A   1      43.743  38.014  37.894  1.00  0.00     0.031 C 
ATOM     74  C   UNL A   1      44.643  38.288  35.595  1.00  0.00     0.037 A 
BRANCH  61  75
ATOM     75  C   UNL A   1      44.398  36.209  29.744  1.00  0.00     0.064 A 
ATOM     76  C   UNL A   1      43.799  37.028  28.775  1.00  0.00     0.173 A 
ATOM     77  C   UNL A   1      45.498  35.431  29.354  1.00  0.00     0.173 A 
ATOM     78  F   UNL A   1      42.726  37.771  29.087  1.00  0.00    -0.203 F 
ATOM     79  C   UNL A   1      44.271  37.052  27.464  1.00  0.00     0.198 A 
ATOM     80  C   UNL A   1      45.986  35.479  28.050  1.00  0.00     0.198 A 
ATOM     81  F   UNL A   1      46.098  34.617  30.235  1.00  0.00    -0.203 F 
ATOM     82  F   UNL A   1      43.649  37.802  26.544  1.00  0.00    -0.200 F 
ATOM     83  C   UNL A   1      45.368  36.285  27.106  1.00  0.00     0.200 A 
ATOM     84  F   UNL A   1      47.050  34.741  27.708  1.00  0.00    -0.200 F 
ATOM     85  F   UNL A   1      45.825  36.313  25.846  1.00  0.00    -0.200 F 
ENDBRANCH  61  75
BRANCH  62  86
ATOM     86  C   UNL A   1      40.858  35.179  39.201  1.00  0.00     0.064 A 
ATOM     87  C   UNL A   1      41.620  34.416  40.093  1.00  0.00     0.173 A 
ATOM     88  C   UNL A   1      39.683  35.774  39.686  1.00  0.00     0.173 A 
ATOM     89  F   UNL A   1      42.754  33.835  39.674  1.00  0.00    -0.203 F 
ATOM     90  C   UNL A   1      41.214  34.236  41.412  1.00  0.00     0.198 A 
ATOM     91  C   UNL A   1      39.293  35.619  41.013  1.00  0.00     0.198 A 
ATOM     92  F   UNL A   1      38.934  36.541  38.880  1.00  0.00    -0.203 F 
ATOM     93  F   UNL A   1      41.945  33.473  42.236  1.00  0.00    -0.200 F 
ATOM     94  C   UNL A   1      40.054  34.843  41.873  1.00  0.00     0.200 A 
ATOM     95  F   UNL A   1      38.190  36.234  41.463  1.00  0.00    -0.200 F 
ATOM     96  F   UNL A   1      39.673  34.680  43.147  1.00  0.00    -0.200 F 
ENDBRANCH  62  86
BRANCH  74  97
ATOM     97  C   UNL A   1      45.472  39.410  36.136  1.00  0.00     0.064 A 
ATOM     98  C   UNL A   1      46.699  39.178  36.772  1.00  0.00     0.173 A 
ATOM     99  C   UNL A   1      45.035  40.734  35.996  1.00  0.00     0.173 A 
ATOM    100  F   UNL A   1      47.143  37.924  36.947  1.00  0.00    -0.203 F 
ATOM    101  C   UNL A   1      47.446  40.236  37.279  1.00  0.00     0.198 A 
ATOM    102  C   UNL A   1      45.801  41.791  36.471  1.00  0.00     0.198 A 
ATOM    103  F   UNL A   1      43.867  41.002  35.391  1.00  0.00    -0.203 F 
ATOM    104  F   UNL A   1      48.586  39.990  37.940  1.00  0.00    -0.200 F 
ATOM    105  C   UNL A   1      47.002  41.540  37.120  1.00  0.00     0.200 A 
ATOM    106  F   UNL A   1      45.379  43.051  36.304  1.00  0.00    -0.200 F 
ATOM    107  F   UNL A   1      47.726  42.558  37.604  1.00  0.00    -0.200 F 
ENDBRANCH  74  97
ENDBRANCH  48  49
ENDBRANCH  41  43
ENDBRANCH  40  41
ENDBRANCH  39  40
ENDBRANCH  38  39
ENDBRANCH  37  38
ENDBRANCH  36  37
ENDBRANCH   1  36
TORSDOF 19
ENDMDL
MODEL 3
REMARK VINA RESULT:     -11.4      1.396      2.689
REMARK SMILES C[C@]12CC[C@@H]3[C@@H](CCC4=C/C(=N\OCC(=O)N5CCC[C@@H]5C(=O)OCCOCCOC(=O)c5ccc(-c6c7nc(c(-c8c(F)c(F)c(F)c(F)c8F)c8ccc([nH]8)c(-c8c(F)c(F)c(F)c(F)c8F)c8nc(c(-c9c(F)c(F)c(F)c(F)c9F)c9ccc6[nH]9)C=C8)C=C7)cc5)CC[C@@]43C)[C@@H]1CC[C@@H]2O
REMARK SMILES IDX 25 1 24 2 22 3 23 4 21 5 17 6 18 7 19 8 20 9 15 10 16 11
REMARK SMILES IDX 14 12 13 13 12 14 1 15 2 16 3 17 100 18 103 19 4 20 6 21
REMARK SMILES IDX 101 22 102 23 5 24 7 25 98 26 8 27 9 28 97 29 99 30 10 31
REMARK SMILES IDX 96 32 11 33 104 34 26 36 27 37 28 38 29 39 30 40 31 41 32 42
REMARK SMILES IDX 33 43 34 44 95 45 35 46 94 47 36 48 37 49 38 50 88 51 39 52
REMARK SMILES IDX 93 53 87 54 89 55 40 56 92 57 86 58 85 59 41 61 73 62 53 63
REMARK SMILES IDX 72 64 54 65 57 66 71 67 90 68 55 69 56 70 70 72 91 73 58 74
REMARK SMILES IDX 42 75 43 76 51 77 44 78 45 79 49 80 52 81 46 82 47 83 50 84
REMARK SMILES IDX 48 85 74 86 75 87 83 88 76 89 77 90 81 91 84 92 78 93 79 94
REMARK SMILES IDX 82 95 80 96 59 97 60 98 68 99 61 100 62 101 66 102 69 103
REMARK SMILES IDX 63 104 64 105 67 106 65 107
REMARK H PARENT 104 35 89 60 57 71
REMARK Flexibility Score: inf
ROOT
ATOM      1  C   UNL A   1      35.647  34.564  32.831  1.00  0.00     0.261 C 
ENDROOT
BRANCH   1   2
ATOM      2  O   UNL A   1      36.236  33.810  31.795  1.00  0.00    -0.462 OA
BRANCH   2   3
ATOM      3  C   UNL A   1      35.323  33.490  30.836  1.00  0.00     0.328 C 
ATOM      4  O   UNL A   1      34.227  32.988  31.052  1.00  0.00    -0.250 OA
BRANCH   3   5
ATOM      5  C   UNL A   1      35.864  33.931  29.481  1.00  0.00     0.195 C 
ATOM      6  N   UNL A   1      35.365  33.052  28.440  1.00  0.00    -0.326 N 
ATOM      7  C   UNL A   1      36.471  32.204  28.001  1.00  0.00     0.120 C 
ATOM      8  C   UNL A   1      37.578  32.373  29.043  1.00  0.00     0.024 C 
ATOM      9  C   UNL A   1      37.388  33.800  29.499  1.00  0.00     0.039 C 
BRANCH   6  10
ATOM     10  C   UNL A   1      34.058  32.819  28.012  1.00  0.00     0.264 C 
ATOM     11  O   UNL A   1      33.260  33.769  28.112  1.00  0.00    -0.271 OA
BRANCH  10  12
ATOM     12  C   UNL A   1      33.401  31.379  27.651  1.00  0.00     0.363 C 
BRANCH  12  13
ATOM     13  O   UNL A   1      32.477  30.810  26.730  1.00  0.00    -0.385 OA
BRANCH  13  14
ATOM     14  N   UNL A   1      31.809  29.657  27.231  1.00  0.00    -0.091 NA
ATOM     15  C   UNL A   1      32.146  21.733  22.997  1.00  0.00     0.014 C 
ATOM     16  C   UNL A   1      32.495  22.840  24.044  1.00  0.00    -0.003 C 
ATOM     17  C   UNL A   1      31.160  23.337  24.567  1.00  0.00     0.010 C 
ATOM     18  C   UNL A   1      33.448  23.934  23.490  1.00  0.00     0.001 C 
ATOM     19  C   UNL A   1      33.492  22.393  25.129  1.00  0.00     0.120 C 
ATOM     20  C   UNL A   1      30.537  24.288  23.555  1.00  0.00     0.005 C 
ATOM     21  C   UNL A   1      32.800  24.970  22.591  1.00  0.00    -0.003 C 
ATOM     22  C   UNL A   1      34.683  23.085  23.116  1.00  0.00     0.007 C 
ATOM     23  C   UNL A   1      34.733  22.048  24.286  1.00  0.00     0.032 C 
ATOM     24  C   UNL A   1      31.475  25.461  23.240  1.00  0.00     0.002 C 
ATOM     25  C   UNL A   1      33.670  26.202  22.311  1.00  0.00     0.008 C 
ATOM     26  C   UNL A   1      31.523  26.544  24.422  1.00  0.00    -0.008 C 
ATOM     27  C   UNL A   1      33.991  27.028  23.564  1.00  0.00     0.032 C 
ATOM     28  C   UNL A   1      32.844  27.336  24.521  1.00  0.00    -0.062 C 
ATOM     29  C   UNL A   1      31.292  26.135  25.911  1.00  0.00     0.018 C 
ATOM     30  C   UNL A   1      30.244  27.352  24.088  1.00  0.00     0.016 C 
ATOM     31  C   UNL A   1      33.040  28.283  25.479  1.00  0.00     0.027 C 
ATOM     32  C   UNL A   1      31.162  27.336  26.897  1.00  0.00     0.061 C 
ATOM     33  C   UNL A   1      32.023  28.557  26.549  1.00  0.00     0.080 C 
BRANCH  19  34
ATOM     34  O   UNL A   1      33.015  21.415  26.010  1.00  0.00    -0.393 OA
ATOM     35  H   UNL A   1      32.074  21.252  25.833  1.00  0.00     0.210 HD
ENDBRANCH  19  34
ENDBRANCH  13  14
ENDBRANCH  12  13
ENDBRANCH  10  12
ENDBRANCH   6  10
ENDBRANCH   3   5
ENDBRANCH   2   3
ENDBRANCH   1   2
BRANCH   1  36
ATOM     36  C   UNL A   1      36.303  34.276  34.175  1.00  0.00     0.202 C 
BRANCH  36  37
ATOM     37  O   UNL A   1      36.282  32.994  34.785  1.00  0.00    -0.374 OA
BRANCH  37  38
ATOM     38  C   UNL A   1      37.405  32.137  34.878  1.00  0.00     0.202 C 
BRANCH  38  39
ATOM     39  C   UNL A   1      37.791  31.228  33.703  1.00  0.00     0.261 C 
BRANCH  39  40
ATOM     40  O   UNL A   1      38.786  30.301  34.121  1.00  0.00    -0.460 OA
BRANCH  40  41
ATOM     41  C   UNL A   1      39.004  29.455  33.122  1.00  0.00     0.338 C 
ATOM     42  O   UNL A   1      38.375  28.423  32.880  1.00  0.00    -0.246 OA
BRANCH  41  43
ATOM     43  C   UNL A   1      39.994  29.835  32.176  1.00  0.00     0.060 A 
ATOM     44  C   UNL A   1      41.161  30.364  32.745  1.00  0.00     0.016 A 
ATOM     45  C   UNL A   1      39.710  29.872  30.822  1.00  0.00     0.016 A 
ATOM     46  C   UNL A   1      42.029  31.057  31.964  1.00  0.00     0.010 A 
ATOM     47  C   UNL A   1      40.646  30.471  30.014  1.00  0.00     0.010 A 
ATOM     48  C   UNL A   1      41.789  31.059  30.595  1.00  0.00    -0.014 A 
BRANCH  48  49
ATOM     49  C   UNL A   1      42.812  31.614  29.731  1.00  0.00     0.031 A 
ATOM     50  C   UNL A   1      43.912  30.731  29.290  1.00  0.00     0.074 A 
ATOM     51  C   UNL A   1      42.716  32.927  29.473  1.00  0.00     0.049 A 
ATOM     52  N   UNL A   1      45.069  31.068  28.802  1.00  0.00    -0.248 NA
ATOM     53  C   UNL A   1      43.709  29.281  29.459  1.00  0.00     0.031 C 
ATOM     54  C   UNL A   1      41.598  33.795  29.871  1.00  0.00     0.029 A 
ATOM     55  N   UNL A   1      43.586  33.766  28.851  1.00  0.00    -0.354 N 
ATOM     56  C   UNL A   1      45.756  29.877  28.647  1.00  0.00     0.074 A 
ATOM     57  C   UNL A   1      44.893  28.809  29.099  1.00  0.00     0.031 C 
ATOM     58  C   UNL A   1      41.861  35.051  29.494  1.00  0.00     0.029 A 
ATOM     59  C   UNL A   1      43.198  35.078  28.928  1.00  0.00     0.049 A 
ATOM     60  H   UNL A   1      44.406  33.464  28.397  1.00  0.00     0.167 HD
ATOM     61  C   UNL A   1      47.012  29.733  28.175  1.00  0.00     0.037 A 
ATOM     62  C   UNL A   1      43.898  36.183  28.641  1.00  0.00     0.037 A 
ATOM     63  C   UNL A   1      47.807  30.856  27.749  1.00  0.00     0.049 A 
ATOM     64  C   UNL A   1      45.301  35.989  28.161  1.00  0.00     0.074 A 
ATOM     65  C   UNL A   1      49.086  30.867  27.233  1.00  0.00     0.029 A 
ATOM     66  N   UNL A   1      47.378  32.182  27.799  1.00  0.00    -0.354 N 
ATOM     67  N   UNL A   1      45.976  34.870  28.019  1.00  0.00    -0.248 NA
ATOM     68  C   UNL A   1      46.043  37.198  27.807  1.00  0.00     0.031 C 
ATOM     69  C   UNL A   1      49.450  32.201  27.017  1.00  0.00     0.029 A 
ATOM     70  C   UNL A   1      48.377  33.021  27.338  1.00  0.00     0.049 A 
ATOM     71  H   UNL A   1      46.495  32.477  28.115  1.00  0.00     0.167 HD
ATOM     72  C   UNL A   1      47.217  35.236  27.531  1.00  0.00     0.074 A 
ATOM     73  C   UNL A   1      47.191  36.681  27.392  1.00  0.00     0.031 C 
ATOM     74  C   UNL A   1      48.285  34.457  27.223  1.00  0.00     0.037 A 
BRANCH  61  75
ATOM     75  C   UNL A   1      47.591  28.352  28.147  1.00  0.00     0.064 A 
ATOM     76  C   UNL A   1      48.266  27.807  29.249  1.00  0.00     0.173 A 
ATOM     77  C   UNL A   1      47.469  27.559  26.996  1.00  0.00     0.173 A 
ATOM     78  F   UNL A   1      48.437  28.533  30.365  1.00  0.00    -0.203 F 
ATOM     79  C   UNL A   1      48.814  26.527  29.194  1.00  0.00     0.198 A 
ATOM     80  C   UNL A   1      47.991  26.268  26.955  1.00  0.00     0.198 A 
ATOM     81  F   UNL A   1      46.848  28.037  25.908  1.00  0.00    -0.203 F 
ATOM     82  F   UNL A   1      49.500  26.048  30.241  1.00  0.00    -0.200 F 
ATOM     83  C   UNL A   1      48.668  25.756  28.052  1.00  0.00     0.200 A 
ATOM     84  F   UNL A   1      47.845  25.524  25.851  1.00  0.00    -0.200 F 
ATOM     85  F   UNL A   1      49.190  24.523  28.002  1.00  0.00    -0.200 F 
ENDBRANCH  61  75
BRANCH  62  86
ATOM     86  C   UNL A   1      43.277  37.515  28.824  1.00  0.00     0.064 A 
ATOM     87  C   UNL A   1      43.579  38.286  29.952  1.00  0.00     0.173 A 
ATOM     88  C   UNL A   1      42.429  38.075  27.855  1.00  0.00     0.173 A 
ATOM     89  F   UNL A   1      44.390  37.794  30.900  1.00  0.00    -0.203 F 
ATOM     90  C   UNL A   1      43.040  39.559  30.116  1.00  0.00     0.198 A 
ATOM     91  C   UNL A   1      41.916  39.360  28.005  1.00  0.00     0.198 A 
ATOM     92  F   UNL A   1      42.134  37.388  26.741  1.00  0.00    -0.203 F 
ATOM     93  F   UNL A   1      43.320  40.263  31.221  1.00  0.00    -0.200 F 
ATOM     94  C   UNL A   1      42.214  40.097  29.140  1.00  0.00     0.200 A 
ATOM     95  F   UNL A   1      41.145  39.889  27.044  1.00  0.00    -0.200 F 
ATOM     96  F   UNL A   1      41.708  41.328  29.294  1.00  0.00    -0.200 F 
ENDBRANCH  62  86
BRANCH  74  97
ATOM     97  C   UNL A   1      49.476  35.171  26.666  1.00  0.00     0.064 A 
ATOM     98  C   UNL A   1      49.556  35.526  25.313  1.00  0.00     0.173 A 
ATOM     99  C   UNL A   1      50.542  35.518  27.509  1.00  0.00     0.173 A 
ATOM    100  F   UNL A   1      48.569  35.193  24.468  1.00  0.00    -0.203 F 
ATOM    101  C   UNL A   1      50.679  36.178  24.816  1.00  0.00     0.198 A 
ATOM    102  C   UNL A   1      51.646  36.202  27.016  1.00  0.00     0.198 A 
ATOM    103  F   UNL A   1      50.506  35.200  28.812  1.00  0.00    -0.203 F 
ATOM    104  F   UNL A   1      50.765  36.452  23.507  1.00  0.00    -0.200 F 
ATOM    105  C   UNL A   1      51.718  36.522  25.668  1.00  0.00     0.200 A 
ATOM    106  F   UNL A   1      52.642  36.547  27.842  1.00  0.00    -0.200 F 
ATOM    107  F   UNL A   1      52.796  37.155  25.188  1.00  0.00    -0.200 F 
ENDBRANCH  74  97
ENDBRANCH  48  49
ENDBRANCH  41  43
ENDBRANCH  40  41
ENDBRANCH  39  40
ENDBRANCH  38  39
ENDBRANCH  37  38
ENDBRANCH  36  37
ENDBRANCH   1  36
TORSDOF 19
ENDMDL
