MODEL 1
REMARK VINA RESULT:     -13.1      0.000      0.000
REMARK SMILES COc1cc2ccccc2cc1C(=O)Nc1cc(C(=O)OCCOCCOC(=O)c2ccc(-c3c4nc(c(-c5c(F)c(F)c(F)c(F)c5F)c5ccc([nH]5)c(-c5c(F)c(F)c(F)c(F)c5F)c5nc(c(-c6c(F)c(F)c(F)c(F)c6F)c6ccc3[nH]6)C=C5)C=C4)cc2)ccc1C
REMARK SMILES IDX 23 1 22 2 21 3 19 4 20 5 18 6 16 7 17 8 95 9 94 10 96 11
REMARK SMILES IDX 93 12 15 13 13 14 14 15 12 17 3 18 4 19 5 20 11 21 6 22
REMARK SMILES IDX 10 23 7 24 9 25 8 26 2 27 1 28 24 29 25 30 26 31 27 32 28 33
REMARK SMILES IDX 29 34 30 35 31 36 92 37 32 38 91 39 33 40 34 41 35 42 85 43
REMARK SMILES IDX 36 44 90 45 84 46 86 47 37 48 89 49 83 50 82 51 38 53 70 54
REMARK SMILES IDX 50 55 69 56 51 57 54 58 68 59 87 60 52 61 53 62 67 64 88 65
REMARK SMILES IDX 55 66 39 67 40 68 48 69 41 70 42 71 46 72 49 73 43 74 44 75
REMARK SMILES IDX 47 76 45 77 71 78 72 79 80 80 73 81 74 82 78 83 81 84 75 85
REMARK SMILES IDX 76 86 79 87 77 88 56 89 57 90 65 91 58 92 59 93 63 94 66 95
REMARK SMILES IDX 60 96 61 97 64 98 62 99
REMARK H PARENT 15 16 86 52 54 63
REMARK Flexibility Score: inf
ROOT
ATOM      1  C   UNL A   1      35.591  21.057  25.482  1.00  0.00     0.202 C 
ENDROOT
BRANCH   1   2
ATOM      2  C   UNL A   1      34.674  20.021  24.943  1.00  0.00     0.261 C 
BRANCH   2   3
ATOM      3  O   UNL A   1      33.372  20.582  24.926  1.00  0.00    -0.460 OA
BRANCH   3   4
ATOM      4  C   UNL A   1      32.638  20.566  23.787  1.00  0.00     0.338 C 
ATOM      5  O   UNL A   1      32.219  19.655  23.103  1.00  0.00    -0.246 OA
BRANCH   4   6
ATOM      6  C   UNL A   1      32.474  21.983  23.498  1.00  0.00     0.062 A 
ATOM      7  C   UNL A   1      31.260  24.001  23.984  1.00  0.00     0.045 A 
ATOM      8  C   UNL A   1      31.502  22.681  24.223  1.00  0.00     0.042 A 
ATOM      9  C   UNL A   1      31.800  24.555  22.814  1.00  0.00    -0.027 A 
ATOM     10  C   UNL A   1      32.837  23.871  22.130  1.00  0.00     0.006 A 
ATOM     11  C   UNL A   1      31.401  25.898  22.290  1.00  0.00     0.046 C 
ATOM     12  C   UNL A   1      33.225  22.595  22.513  1.00  0.00     0.016 A 
BRANCH   7  13
ATOM     13  N   UNL A   1      30.453  24.710  24.882  1.00  0.00    -0.322 N 
ATOM     14  C   UNL A   1      30.671  25.842  25.675  1.00  0.00     0.259 C 
ATOM     15  O   UNL A   1      29.779  26.049  26.511  1.00  0.00    -0.269 OA
ATOM     16  H   UNL A   1      29.546  24.336  24.975  1.00  0.00     0.170 HD
BRANCH  14  17
ATOM     17  C   UNL A   1      31.841  26.835  25.648  1.00  0.00     0.082 A 
ATOM     18  C   UNL A   1      33.219  26.591  25.900  1.00  0.00     0.132 A 
ATOM     19  C   UNL A   1      34.135  27.638  26.272  1.00  0.00     0.056 A 
ATOM     20  C   UNL A   1      33.718  28.963  26.608  1.00  0.00    -0.015 A 
ATOM     21  C   UNL A   1      31.401  28.192  25.457  1.00  0.00     0.026 A 
ATOM     22  C   UNL A   1      34.568  30.303  27.611  1.00  0.00     0.009 A 
ATOM     23  C   UNL A   1      32.110  29.311  25.936  1.00  0.00    -0.017 A 
ATOM     24  C   UNL A   1      33.804  31.943  27.839  1.00  0.00     0.001 A 
ATOM     25  C   UNL A   1      31.387  30.953  26.128  1.00  0.00     0.009 A 
ATOM     26  C   UNL A   1      32.185  32.265  27.095  1.00  0.00     0.001 A 
BRANCH  18  27
ATOM     27  O   UNL A   1      33.791  25.359  26.122  1.00  0.00    -0.496 OA
ATOM     28  C   UNL A   1      34.745  24.897  25.181  1.00  0.00     0.278 C 
ENDBRANCH  18  27
ENDBRANCH  14  17
ENDBRANCH   7  13
ENDBRANCH   4   6
ENDBRANCH   3   4
ENDBRANCH   2   3
ENDBRANCH   1   2
BRANCH   1  29
ATOM     29  O   UNL A   1      36.117  21.635  24.301  1.00  0.00    -0.374 OA
BRANCH  29  30
ATOM     30  C   UNL A   1      37.307  22.371  24.429  1.00  0.00     0.202 C 
BRANCH  30  31
ATOM     31  C   UNL A   1      37.837  22.153  25.840  1.00  0.00     0.261 C 
BRANCH  31  32
ATOM     32  O   UNL A   1      39.295  22.151  25.794  1.00  0.00    -0.460 OA
BRANCH  32  33
ATOM     33  C   UNL A   1      39.946  22.729  26.852  1.00  0.00     0.338 C 
ATOM     34  O   UNL A   1      40.482  22.108  27.758  1.00  0.00    -0.246 OA
BRANCH  33  35
ATOM     35  C   UNL A   1      39.650  24.209  26.942  1.00  0.00     0.060 A 
ATOM     36  C   UNL A   1      40.321  25.115  26.089  1.00  0.00     0.016 A 
ATOM     37  C   UNL A   1      39.099  24.680  28.126  1.00  0.00     0.016 A 
ATOM     38  C   UNL A   1      40.614  26.425  26.516  1.00  0.00     0.010 A 
ATOM     39  C   UNL A   1      39.541  25.902  28.606  1.00  0.00     0.010 A 
ATOM     40  C   UNL A   1      40.302  26.791  27.822  1.00  0.00    -0.014 A 
BRANCH  40  41
ATOM     41  C   UNL A   1      40.791  28.001  28.519  1.00  0.00     0.031 A 
ATOM     42  C   UNL A   1      39.813  29.051  28.929  1.00  0.00     0.074 A 
ATOM     43  C   UNL A   1      41.963  27.950  29.177  1.00  0.00     0.049 A 
ATOM     44  N   UNL A   1      40.021  30.098  29.662  1.00  0.00    -0.248 NA
ATOM     45  C   UNL A   1      38.470  29.008  28.363  1.00  0.00     0.031 C 
ATOM     46  C   UNL A   1      42.053  27.774  30.622  1.00  0.00     0.029 A 
ATOM     47  N   UNL A   1      43.233  27.568  28.742  1.00  0.00    -0.354 N 
ATOM     48  C   UNL A   1      38.824  30.810  29.728  1.00  0.00     0.074 A 
ATOM     49  C   UNL A   1      37.894  30.059  28.933  1.00  0.00     0.031 C 
ATOM     50  C   UNL A   1      43.310  27.378  30.897  1.00  0.00     0.029 A 
ATOM     51  C   UNL A   1      44.192  27.684  29.804  1.00  0.00     0.049 A 
ATOM     52  H   UNL A   1      43.441  27.261  27.831  1.00  0.00     0.167 HD
ATOM     53  C   UNL A   1      38.720  31.974  30.435  1.00  0.00     0.037 A 
ATOM     54  C   UNL A   1      45.260  28.672  29.768  1.00  0.00     0.037 A 
ATOM     55  C   UNL A   1      40.025  32.355  30.973  1.00  0.00     0.049 A 
ATOM     56  C   UNL A   1      45.621  30.724  30.365  1.00  0.00     0.074 A 
ATOM     57  C   UNL A   1      40.618  32.183  32.207  1.00  0.00     0.029 A 
ATOM     58  N   UNL A   1      41.029  32.800  30.117  1.00  0.00    -0.354 N 
ATOM     59  N   UNL A   1      44.819  31.637  31.099  1.00  0.00    -0.248 NA
ATOM     60  C   UNL A   1      46.683  31.930  29.901  1.00  0.00     0.031 C 
ATOM     61  C   UNL A   1      41.990  32.529  32.085  1.00  0.00     0.029 A 
ATOM     62  C   UNL A   1      42.247  32.924  30.781  1.00  0.00     0.049 A 
ATOM     63  H   UNL A   1      40.895  33.000  29.162  1.00  0.00     0.167 HD
ATOM     64  C   UNL A   1      44.670  32.825  30.404  1.00  0.00     0.074 A 
ATOM     65  C   UNL A   1      45.988  33.075  29.917  1.00  0.00     0.031 C 
ATOM     66  C   UNL A   1      43.452  33.400  30.090  1.00  0.00     0.037 A 
BRANCH  53  67
ATOM     67  C   UNL A   1      37.430  32.744  30.779  1.00  0.00     0.064 A 
ATOM     68  C   UNL A   1      36.862  32.613  32.071  1.00  0.00     0.173 A 
ATOM     69  C   UNL A   1      36.665  33.573  29.925  1.00  0.00     0.173 A 
ATOM     70  F   UNL A   1      37.489  31.933  33.040  1.00  0.00    -0.203 F 
ATOM     71  C   UNL A   1      35.626  33.176  32.432  1.00  0.00     0.198 A 
ATOM     72  C   UNL A   1      35.421  34.120  30.277  1.00  0.00     0.198 A 
ATOM     73  F   UNL A   1      37.085  33.958  28.722  1.00  0.00    -0.203 F 
ATOM     74  F   UNL A   1      35.147  32.989  33.670  1.00  0.00    -0.200 F 
ATOM     75  C   UNL A   1      34.894  33.912  31.527  1.00  0.00     0.200 A 
ATOM     76  F   UNL A   1      34.746  34.859  29.382  1.00  0.00    -0.200 F 
ATOM     77  F   UNL A   1      33.707  34.434  31.862  1.00  0.00    -0.200 F 
ENDBRANCH  53  67
BRANCH  54  78
ATOM     78  C   UNL A   1      46.088  27.584  28.681  1.00  0.00     0.064 A 
ATOM     79  C   UNL A   1      46.477  28.174  27.450  1.00  0.00     0.173 A 
ATOM     80  C   UNL A   1      47.012  26.635  29.224  1.00  0.00     0.173 A 
ATOM     81  F   UNL A   1      45.632  28.973  26.784  1.00  0.00    -0.203 F 
ATOM     82  C   UNL A   1      47.806  28.122  27.020  1.00  0.00     0.198 A 
ATOM     83  C   UNL A   1      48.344  26.610  28.794  1.00  0.00     0.198 A 
ATOM     84  F   UNL A   1      46.742  25.954  30.348  1.00  0.00    -0.203 F 
ATOM     85  F   UNL A   1      48.207  28.894  26.000  1.00  0.00    -0.200 F 
ATOM     86  C   UNL A   1      48.751  27.413  27.745  1.00  0.00     0.200 A 
ATOM     87  F   UNL A   1      49.269  26.001  29.554  1.00  0.00    -0.200 F 
ATOM     88  F   UNL A   1      50.059  27.597  27.512  1.00  0.00    -0.200 F 
ENDBRANCH  54  78
BRANCH  66  89
ATOM     89  C   UNL A   1      43.358  34.530  29.085  1.00  0.00     0.064 A 
ATOM     90  C   UNL A   1      43.214  35.878  29.453  1.00  0.00     0.173 A 
ATOM     91  C   UNL A   1      43.395  34.281  27.698  1.00  0.00     0.173 A 
ATOM     92  F   UNL A   1      43.446  36.283  30.710  1.00  0.00    -0.203 F 
ATOM     93  C   UNL A   1      42.831  36.850  28.530  1.00  0.00     0.198 A 
ATOM     94  C   UNL A   1      43.099  35.273  26.764  1.00  0.00     0.198 A 
ATOM     95  F   UNL A   1      43.719  33.074  27.212  1.00  0.00    -0.203 F 
ATOM     96  F   UNL A   1      42.530  38.086  28.953  1.00  0.00    -0.200 F 
ATOM     97  C   UNL A   1      42.738  36.536  27.188  1.00  0.00     0.200 A 
ATOM     98  F   UNL A   1      43.140  34.991  25.455  1.00  0.00    -0.200 F 
ATOM     99  F   UNL A   1      42.320  37.454  26.305  1.00  0.00    -0.200 F 
ENDBRANCH  66  89
ENDBRANCH  40  41
ENDBRANCH  33  35
ENDBRANCH  32  33
ENDBRANCH  31  32
ENDBRANCH  30  31
ENDBRANCH  29  30
ENDBRANCH   1  29
TORSDOF 17
ENDMDL
MODEL 2
REMARK VINA RESULT:     -12.6      1.406      2.376
REMARK SMILES COc1cc2ccccc2cc1C(=O)Nc1cc(C(=O)OCCOCCOC(=O)c2ccc(-c3c4nc(c(-c5c(F)c(F)c(F)c(F)c5F)c5ccc([nH]5)c(-c5c(F)c(F)c(F)c(F)c5F)c5nc(c(-c6c(F)c(F)c(F)c(F)c6F)c6ccc3[nH]6)C=C5)C=C4)cc2)ccc1C
REMARK SMILES IDX 23 1 22 2 21 3 19 4 20 5 18 6 16 7 17 8 95 9 94 10 96 11
REMARK SMILES IDX 93 12 15 13 13 14 14 15 12 17 3 18 4 19 5 20 11 21 6 22
REMARK SMILES IDX 10 23 7 24 9 25 8 26 2 27 1 28 24 29 25 30 26 31 27 32 28 33
REMARK SMILES IDX 29 34 30 35 31 36 92 37 32 38 91 39 33 40 34 41 35 42 85 43
REMARK SMILES IDX 36 44 90 45 84 46 86 47 37 48 89 49 83 50 82 51 38 53 70 54
REMARK SMILES IDX 50 55 69 56 51 57 54 58 68 59 87 60 52 61 53 62 67 64 88 65
REMARK SMILES IDX 55 66 39 67 40 68 48 69 41 70 42 71 46 72 49 73 43 74 44 75
REMARK SMILES IDX 47 76 45 77 71 78 72 79 80 80 73 81 74 82 78 83 81 84 75 85
REMARK SMILES IDX 76 86 79 87 77 88 56 89 57 90 65 91 58 92 59 93 63 94 66 95
REMARK SMILES IDX 60 96 61 97 64 98 62 99
REMARK H PARENT 15 16 86 52 54 63
REMARK Flexibility Score: inf
ROOT
ATOM      1  C   UNL A   1      38.457  21.739  25.375  1.00  0.00     0.202 C 
ENDROOT
BRANCH   1   2
ATOM      2  C   UNL A   1      37.366  20.804  25.002  1.00  0.00     0.261 C 
BRANCH   2   3
ATOM      3  O   UNL A   1      36.226  21.592  24.699  1.00  0.00    -0.460 OA
BRANCH   3   4
ATOM      4  C   UNL A   1      35.228  21.723  25.605  1.00  0.00     0.338 C 
ATOM      5  O   UNL A   1      35.161  21.449  26.787  1.00  0.00    -0.246 OA
BRANCH   4   6
ATOM      6  C   UNL A   1      34.142  22.265  24.802  1.00  0.00     0.062 A 
ATOM      7  C   UNL A   1      33.377  24.086  23.432  1.00  0.00     0.045 A 
ATOM      8  C   UNL A   1      34.357  23.494  24.170  1.00  0.00     0.042 A 
ATOM      9  C   UNL A   1      32.075  23.579  23.563  1.00  0.00    -0.027 A 
ATOM     10  C   UNL A   1      31.877  22.299  24.139  1.00  0.00     0.006 A 
ATOM     11  C   UNL A   1      30.870  24.287  23.031  1.00  0.00     0.046 C 
ATOM     12  C   UNL A   1      32.932  21.602  24.710  1.00  0.00     0.016 A 
BRANCH   7  13
ATOM     13  N   UNL A   1      33.708  25.188  22.634  1.00  0.00    -0.322 N 
ATOM     14  C   UNL A   1      33.383  26.547  22.698  1.00  0.00     0.259 C 
ATOM     15  O   UNL A   1      33.691  27.186  21.682  1.00  0.00    -0.269 OA
ATOM     16  H   UNL A   1      34.289  24.960  21.872  1.00  0.00     0.170 HD
BRANCH  14  17
ATOM     17  C   UNL A   1      32.709  27.331  23.834  1.00  0.00     0.082 A 
ATOM     18  C   UNL A   1      31.463  28.015  23.823  1.00  0.00     0.132 A 
ATOM     19  C   UNL A   1      31.142  29.055  24.766  1.00  0.00     0.056 A 
ATOM     20  C   UNL A   1      32.099  29.625  25.660  1.00  0.00    -0.015 A 
ATOM     21  C   UNL A   1      33.557  27.454  24.989  1.00  0.00     0.026 A 
ATOM     22  C   UNL A   1      32.116  31.275  26.557  1.00  0.00     0.009 A 
ATOM     23  C   UNL A   1      33.476  28.527  25.899  1.00  0.00    -0.017 A 
ATOM     24  C   UNL A   1      33.469  31.720  27.694  1.00  0.00     0.001 A 
ATOM     25  C   UNL A   1      34.785  28.960  27.064  1.00  0.00     0.009 A 
ATOM     26  C   UNL A   1      34.828  30.549  27.939  1.00  0.00     0.001 A 
BRANCH  18  27
ATOM     27  O   UNL A   1      30.552  28.014  22.789  1.00  0.00    -0.496 OA
ATOM     28  C   UNL A   1      30.034  29.264  22.367  1.00  0.00     0.278 C 
ENDBRANCH  18  27
ENDBRANCH  14  17
ENDBRANCH   7  13
ENDBRANCH   4   6
ENDBRANCH   3   4
ENDBRANCH   2   3
ENDBRANCH   1   2
BRANCH   1  29
ATOM     29  O   UNL A   1      39.097  21.046  26.431  1.00  0.00    -0.374 OA
BRANCH  29  30
ATOM     30  C   UNL A   1      40.011  20.041  26.070  1.00  0.00     0.202 C 
BRANCH  30  31
ATOM     31  C   UNL A   1      41.378  20.441  26.609  1.00  0.00     0.261 C 
BRANCH  31  32
ATOM     32  O   UNL A   1      41.298  21.809  27.108  1.00  0.00    -0.460 OA
BRANCH  32  33
ATOM     33  C   UNL A   1      41.752  22.797  26.274  1.00  0.00     0.338 C 
ATOM     34  O   UNL A   1      42.736  22.699  25.556  1.00  0.00    -0.246 OA
BRANCH  33  35
ATOM     35  C   UNL A   1      41.095  24.124  26.580  1.00  0.00     0.060 A 
ATOM     36  C   UNL A   1      41.330  25.237  25.740  1.00  0.00     0.016 A 
ATOM     37  C   UNL A   1      40.668  24.341  27.883  1.00  0.00     0.016 A 
ATOM     38  C   UNL A   1      41.337  26.545  26.263  1.00  0.00     0.010 A 
ATOM     39  C   UNL A   1      40.850  25.603  28.424  1.00  0.00     0.010 A 
ATOM     40  C   UNL A   1      41.187  26.721  27.636  1.00  0.00    -0.014 A 
BRANCH  40  41
ATOM     41  C   UNL A   1      41.457  27.970  28.380  1.00  0.00     0.031 A 
ATOM     42  C   UNL A   1      40.332  28.910  28.658  1.00  0.00     0.074 A 
ATOM     43  C   UNL A   1      42.538  28.039  29.178  1.00  0.00     0.049 A 
ATOM     44  N   UNL A   1      40.336  29.968  29.405  1.00  0.00    -0.248 NA
ATOM     45  C   UNL A   1      39.081  28.730  27.931  1.00  0.00     0.031 C 
ATOM     46  C   UNL A   1      42.466  27.864  30.624  1.00  0.00     0.029 A 
ATOM     47  N   UNL A   1      43.884  27.794  28.906  1.00  0.00    -0.354 N 
ATOM     48  C   UNL A   1      39.072  30.551  29.318  1.00  0.00     0.074 A 
ATOM     49  C   UNL A   1      38.332  29.711  28.419  1.00  0.00     0.031 C 
ATOM     50  C   UNL A   1      43.714  27.599  31.055  1.00  0.00     0.029 A 
ATOM     51  C   UNL A   1      44.688  28.003  30.077  1.00  0.00     0.049 A 
ATOM     52  H   UNL A   1      44.235  27.516  28.029  1.00  0.00     0.167 HD
ATOM     53  C   UNL A   1      38.760  31.693  29.999  1.00  0.00     0.037 A 
ATOM     54  C   UNL A   1      45.642  29.098  30.167  1.00  0.00     0.037 A 
ATOM     55  C   UNL A   1      39.942  32.205  30.692  1.00  0.00     0.049 A 
ATOM     56  C   UNL A   1      45.710  31.173  30.791  1.00  0.00     0.074 A 
ATOM     57  C   UNL A   1      40.392  32.087  31.991  1.00  0.00     0.029 A 
ATOM     58  N   UNL A   1      40.992  32.758  29.964  1.00  0.00    -0.354 N 
ATOM     59  N   UNL A   1      44.732  31.991  31.415  1.00  0.00    -0.248 NA
ATOM     60  C   UNL A   1      46.689  32.486  30.454  1.00  0.00     0.031 C 
ATOM     61  C   UNL A   1      41.726  32.576  32.037  1.00  0.00     0.029 A 
ATOM     62  C   UNL A   1      42.098  33.004  30.773  1.00  0.00     0.049 A 
ATOM     63  H   UNL A   1      40.956  32.949  28.999  1.00  0.00     0.167 HD
ATOM     64  C   UNL A   1      44.546  33.162  30.699  1.00  0.00     0.074 A 
ATOM     65  C   UNL A   1      45.881  33.552  30.377  1.00  0.00     0.031 C 
ATOM     66  C   UNL A   1      43.323  33.608  30.233  1.00  0.00     0.037 A 
BRANCH  53  67
ATOM     67  C   UNL A   1      37.364  32.321  30.176  1.00  0.00     0.064 A 
ATOM     68  C   UNL A   1      36.919  33.305  29.258  1.00  0.00     0.173 A 
ATOM     69  C   UNL A   1      36.431  32.074  31.212  1.00  0.00     0.173 A 
ATOM     70  F   UNL A   1      37.633  33.610  28.167  1.00  0.00    -0.203 F 
ATOM     71  C   UNL A   1      35.718  34.018  29.413  1.00  0.00     0.198 A 
ATOM     72  C   UNL A   1      35.241  32.799  31.379  1.00  0.00     0.198 A 
ATOM     73  F   UNL A   1      36.572  31.087  32.093  1.00  0.00    -0.203 F 
ATOM     74  F   UNL A   1      35.377  34.947  28.510  1.00  0.00    -0.200 F 
ATOM     75  C   UNL A   1      34.889  33.781  30.486  1.00  0.00     0.200 A 
ATOM     76  F   UNL A   1      34.438  32.522  32.419  1.00  0.00    -0.200 F 
ATOM     77  F   UNL A   1      33.753  34.472  30.647  1.00  0.00    -0.200 F 
ENDBRANCH  53  67
BRANCH  54  78
ATOM     78  C   UNL A   1      46.707  28.110  29.198  1.00  0.00     0.064 A 
ATOM     79  C   UNL A   1      47.103  28.707  27.973  1.00  0.00     0.173 A 
ATOM     80  C   UNL A   1      47.715  27.332  29.853  1.00  0.00     0.173 A 
ATOM     81  F   UNL A   1      46.205  29.344  27.208  1.00  0.00    -0.203 F 
ATOM     82  C   UNL A   1      48.456  28.842  27.646  1.00  0.00     0.198 A 
ATOM     83  C   UNL A   1      49.067  27.494  29.525  1.00  0.00     0.198 A 
ATOM     84  F   UNL A   1      47.460  26.659  30.985  1.00  0.00    -0.203 F 
ATOM     85  F   UNL A   1      48.818  29.629  26.622  1.00  0.00    -0.200 F 
ATOM     86  C   UNL A   1      49.434  28.311  28.471  1.00  0.00     0.200 A 
ATOM     87  F   UNL A   1      50.008  27.061  30.379  1.00  0.00    -0.200 F 
ATOM     88  F   UNL A   1      50.714  28.684  28.328  1.00  0.00    -0.200 F 
ENDBRANCH  54  78
BRANCH  66  89
ATOM     89  C   UNL A   1      43.237  34.729  29.217  1.00  0.00     0.064 A 
ATOM     90  C   UNL A   1      43.061  36.077  29.570  1.00  0.00     0.173 A 
ATOM     91  C   UNL A   1      43.313  34.470  27.832  1.00  0.00     0.173 A 
ATOM     92  F   UNL A   1      43.254  36.495  30.829  1.00  0.00    -0.203 F 
ATOM     93  C   UNL A   1      42.686  37.036  28.629  1.00  0.00     0.198 A 
ATOM     94  C   UNL A   1      43.024  35.449  26.884  1.00  0.00     0.198 A 
ATOM     95  F   UNL A   1      43.669  33.264  27.365  1.00  0.00    -0.203 F 
ATOM     96  F   UNL A   1      42.354  38.269  29.034  1.00  0.00    -0.200 F 
ATOM     97  C   UNL A   1      42.632  36.710  27.288  1.00  0.00     0.200 A 
ATOM     98  F   UNL A   1      43.104  35.158  25.578  1.00  0.00    -0.200 F 
ATOM     99  F   UNL A   1      42.222  37.613  26.388  1.00  0.00    -0.200 F 
ENDBRANCH  66  89
ENDBRANCH  40  41
ENDBRANCH  33  35
ENDBRANCH  32  33
ENDBRANCH  31  32
ENDBRANCH  30  31
ENDBRANCH  29  30
ENDBRANCH   1  29
TORSDOF 17
ENDMDL
MODEL 3
REMARK VINA RESULT:     -12.6      3.462      9.446
REMARK SMILES COc1cc2ccccc2cc1C(=O)Nc1cc(C(=O)OCCOCCOC(=O)c2ccc(-c3c4nc(c(-c5c(F)c(F)c(F)c(F)c5F)c5ccc([nH]5)c(-c5c(F)c(F)c(F)c(F)c5F)c5nc(c(-c6c(F)c(F)c(F)c(F)c6F)c6ccc3[nH]6)C=C5)C=C4)cc2)ccc1C
REMARK SMILES IDX 23 1 22 2 21 3 19 4 20 5 18 6 16 7 17 8 95 9 94 10 96 11
REMARK SMILES IDX 93 12 15 13 13 14 14 15 12 17 3 18 4 19 5 20 11 21 6 22
REMARK SMILES IDX 10 23 7 24 9 25 8 26 2 27 1 28 24 29 25 30 26 31 27 32 28 33
REMARK SMILES IDX 29 34 30 35 31 36 92 37 32 38 91 39 33 40 34 41 35 42 85 43
REMARK SMILES IDX 36 44 90 45 84 46 86 47 37 48 89 49 83 50 82 51 38 53 70 54
REMARK SMILES IDX 50 55 69 56 51 57 54 58 68 59 87 60 52 61 53 62 67 64 88 65
REMARK SMILES IDX 55 66 39 67 40 68 48 69 41 70 42 71 46 72 49 73 43 74 44 75
REMARK SMILES IDX 47 76 45 77 71 78 72 79 80 80 73 81 74 82 78 83 81 84 75 85
REMARK SMILES IDX 76 86 79 87 77 88 56 89 57 90 65 91 58 92 59 93 63 94 66 95
REMARK SMILES IDX 60 96 61 97 64 98 62 99
REMARK H PARENT 15 16 86 52 54 63
REMARK Flexibility Score: inf
ROOT
ATOM      1  C   UNL A   1      33.851  28.732  24.539  1.00  0.00     0.202 C 
ENDROOT
BRANCH   1   2
ATOM      2  C   UNL A   1      34.023  28.470  23.088  1.00  0.00     0.261 C 
BRANCH   2   3
ATOM      3  O   UNL A   1      32.893  27.727  22.661  1.00  0.00    -0.460 OA
BRANCH   3   4
ATOM      4  C   UNL A   1      32.875  26.379  22.791  1.00  0.00     0.338 C 
ATOM      5  O   UNL A   1      33.479  25.498  22.215  1.00  0.00    -0.246 OA
BRANCH   4   6
ATOM      6  C   UNL A   1      31.865  26.176  23.820  1.00  0.00     0.062 A 
ATOM      7  C   UNL A   1      31.233  24.961  25.796  1.00  0.00     0.045 A 
ATOM      8  C   UNL A   1      32.142  25.237  24.819  1.00  0.00     0.042 A 
ATOM      9  C   UNL A   1      29.922  25.423  25.606  1.00  0.00    -0.027 A 
ATOM     10  C   UNL A   1      29.667  26.428  24.640  1.00  0.00     0.006 A 
ATOM     11  C   UNL A   1      28.771  24.972  26.449  1.00  0.00     0.046 C 
ATOM     12  C   UNL A   1      30.664  26.858  23.777  1.00  0.00     0.016 A 
BRANCH   7  13
ATOM     13  N   UNL A   1      31.639  24.196  26.897  1.00  0.00    -0.322 N 
ATOM     14  C   UNL A   1      32.567  23.160  27.051  1.00  0.00     0.259 C 
ATOM     15  O   UNL A   1      32.495  22.580  28.144  1.00  0.00    -0.269 OA
ATOM     16  H   UNL A   1      31.178  24.436  27.734  1.00  0.00     0.170 HD
BRANCH  14  17
ATOM     17  C   UNL A   1      33.634  22.659  26.067  1.00  0.00     0.082 A 
ATOM     18  C   UNL A   1      33.580  21.539  25.193  1.00  0.00     0.132 A 
ATOM     19  C   UNL A   1      34.764  20.919  24.656  1.00  0.00     0.056 A 
ATOM     20  C   UNL A   1      36.085  21.239  25.096  1.00  0.00    -0.015 A 
ATOM     21  C   UNL A   1      34.869  23.389  26.184  1.00  0.00     0.026 A 
ATOM     22  C   UNL A   1      37.686  20.263  24.992  1.00  0.00     0.009 A 
ATOM     23  C   UNL A   1      36.127  22.838  25.868  1.00  0.00    -0.017 A 
ATOM     24  C   UNL A   1      39.258  20.956  25.604  1.00  0.00     0.001 A 
ATOM     25  C   UNL A   1      37.697  23.531  26.426  1.00  0.00     0.009 A 
ATOM     26  C   UNL A   1      39.257  22.609  26.342  1.00  0.00     0.001 A 
BRANCH  18  27
ATOM     27  O   UNL A   1      32.485  20.730  24.986  1.00  0.00    -0.496 OA
ATOM     28  C   UNL A   1      32.590  19.370  25.371  1.00  0.00     0.278 C 
ENDBRANCH  18  27
ENDBRANCH  14  17
ENDBRANCH   7  13
ENDBRANCH   4   6
ENDBRANCH   3   4
ENDBRANCH   2   3
ENDBRANCH   1   2
BRANCH   1  29
ATOM     29  O   UNL A   1      32.728  29.595  24.556  1.00  0.00    -0.374 OA
BRANCH  29  30
ATOM     30  C   UNL A   1      32.329  30.094  25.809  1.00  0.00     0.202 C 
BRANCH  30  31
ATOM     31  C   UNL A   1      33.504  29.940  26.764  1.00  0.00     0.261 C 
BRANCH  31  32
ATOM     32  O   UNL A   1      33.682  31.193  27.488  1.00  0.00    -0.460 OA
BRANCH  32  33
ATOM     33  C   UNL A   1      34.966  31.534  27.825  1.00  0.00     0.338 C 
ATOM     34  O   UNL A   1      35.466  32.630  27.627  1.00  0.00    -0.246 OA
BRANCH  33  35
ATOM     35  C   UNL A   1      35.788  30.314  28.172  1.00  0.00     0.060 A 
ATOM     36  C   UNL A   1      35.881  29.886  29.517  1.00  0.00     0.016 A 
ATOM     37  C   UNL A   1      36.774  29.929  27.273  1.00  0.00     0.016 A 
ATOM     38  C   UNL A   1      37.049  29.260  29.995  1.00  0.00     0.010 A 
ATOM     39  C   UNL A   1      37.978  29.477  27.785  1.00  0.00     0.010 A 
ATOM     40  C   UNL A   1      38.143  29.139  29.143  1.00  0.00    -0.014 A 
BRANCH  40  41
ATOM     41  C   UNL A   1      39.519  28.782  29.551  1.00  0.00     0.031 A 
ATOM     42  C   UNL A   1      40.180  27.597  28.932  1.00  0.00     0.074 A 
ATOM     43  C   UNL A   1      40.312  29.731  30.082  1.00  0.00     0.049 A 
ATOM     44  N   UNL A   1      41.411  27.212  29.048  1.00  0.00    -0.248 NA
ATOM     45  C   UNL A   1      39.355  26.652  28.188  1.00  0.00     0.031 C 
ATOM     46  C   UNL A   1      41.331  30.433  29.310  1.00  0.00     0.029 A 
ATOM     47  N   UNL A   1      40.106  30.585  31.166  1.00  0.00    -0.354 N 
ATOM     48  C   UNL A   1      41.551  26.024  28.331  1.00  0.00     0.074 A 
ATOM     49  C   UNL A   1      40.248  25.755  27.791  1.00  0.00     0.031 C 
ATOM     50  C   UNL A   1      41.654  31.546  29.996  1.00  0.00     0.029 A 
ATOM     51  C   UNL A   1      41.245  31.434  31.371  1.00  0.00     0.049 A 
ATOM     52  H   UNL A   1      39.290  30.602  31.716  1.00  0.00     0.167 HD
ATOM     53  C   UNL A   1      42.744  25.364  28.262  1.00  0.00     0.037 A 
ATOM     54  C   UNL A   1      42.093  31.309  32.546  1.00  0.00     0.037 A 
ATOM     55  C   UNL A   1      43.737  26.029  29.106  1.00  0.00     0.049 A 
ATOM     56  C   UNL A   1      43.855  30.225  33.195  1.00  0.00     0.074 A 
ATOM     57  C   UNL A   1      44.737  26.941  28.837  1.00  0.00     0.029 A 
ATOM     58  N   UNL A   1      43.624  25.971  30.492  1.00  0.00    -0.354 N 
ATOM     59  N   UNL A   1      44.729  29.359  32.488  1.00  0.00    -0.248 NA
ATOM     60  C   UNL A   1      44.504  29.783  34.671  1.00  0.00     0.031 C 
ATOM     61  C   UNL A   1      45.225  27.432  30.078  1.00  0.00     0.029 A 
ATOM     62  C   UNL A   1      44.538  26.820  31.113  1.00  0.00     0.049 A 
ATOM     63  H   UNL A   1      42.980  25.402  30.972  1.00  0.00     0.167 HD
ATOM     64  C   UNL A   1      44.860  28.150  33.151  1.00  0.00     0.074 A 
ATOM     65  C   UNL A   1      44.999  28.548  34.514  1.00  0.00     0.031 C 
ATOM     66  C   UNL A   1      44.624  26.914  32.576  1.00  0.00     0.037 A 
BRANCH  53  67
ATOM     67  C   UNL A   1      43.105  24.181  27.342  1.00  0.00     0.064 A 
ATOM     68  C   UNL A   1      42.614  22.887  27.644  1.00  0.00     0.173 A 
ATOM     69  C   UNL A   1      43.941  24.199  26.201  1.00  0.00     0.173 A 
ATOM     70  F   UNL A   1      41.742  22.690  28.641  1.00  0.00    -0.203 F 
ATOM     71  C   UNL A   1      42.991  21.733  26.936  1.00  0.00     0.198 A 
ATOM     72  C   UNL A   1      44.335  23.046  25.504  1.00  0.00     0.198 A 
ATOM     73  F   UNL A   1      44.387  25.324  25.647  1.00  0.00    -0.203 F 
ATOM     74  F   UNL A   1      42.497  20.541  27.297  1.00  0.00    -0.200 F 
ATOM     75  C   UNL A   1      43.869  21.810  25.879  1.00  0.00     0.200 A 
ATOM     76  F   UNL A   1      45.168  23.157  24.458  1.00  0.00    -0.200 F 
ATOM     77  F   UNL A   1      44.246  20.710  25.213  1.00  0.00    -0.200 F 
ENDBRANCH  53  67
BRANCH  54  78
ATOM     78  C   UNL A   1      40.855  32.192  33.404  1.00  0.00     0.064 A 
ATOM     79  C   UNL A   1      40.489  31.621  34.651  1.00  0.00     0.173 A 
ATOM     80  C   UNL A   1      40.876  33.623  33.370  1.00  0.00     0.173 A 
ATOM     81  F   UNL A   1      40.305  30.298  34.763  1.00  0.00    -0.203 F 
ATOM     82  C   UNL A   1      40.531  32.379  35.825  1.00  0.00     0.198 A 
ATOM     83  C   UNL A   1      40.937  34.366  34.556  1.00  0.00     0.198 A 
ATOM     84  F   UNL A   1      41.141  34.296  32.240  1.00  0.00    -0.203 F 
ATOM     85  F   UNL A   1      40.435  31.769  37.015  1.00  0.00    -0.200 F 
ATOM     86  C   UNL A   1      40.843  33.728  35.779  1.00  0.00     0.200 A 
ATOM     87  F   UNL A   1      41.333  35.648  34.510  1.00  0.00    -0.200 F 
ATOM     88  F   UNL A   1      41.171  34.385  36.902  1.00  0.00    -0.200 F 
ENDBRANCH  54  78
BRANCH  66  89
ATOM     89  C   UNL A   1      44.500  25.668  33.429  1.00  0.00     0.064 A 
ATOM     90  C   UNL A   1      45.517  24.705  33.540  1.00  0.00     0.173 A 
ATOM     91  C   UNL A   1      43.324  25.394  34.159  1.00  0.00     0.173 A 
ATOM     92  F   UNL A   1      46.769  24.970  33.138  1.00  0.00    -0.203 F 
ATOM     93  C   UNL A   1      45.272  23.442  34.076  1.00  0.00     0.198 A 
ATOM     94  C   UNL A   1      43.110  24.161  34.773  1.00  0.00     0.198 A 
ATOM     95  F   UNL A   1      42.357  26.312  34.296  1.00  0.00    -0.203 F 
ATOM     96  F   UNL A   1      46.217  22.494  34.000  1.00  0.00    -0.200 F 
ATOM     97  C   UNL A   1      44.053  23.159  34.660  1.00  0.00     0.200 A 
ATOM     98  F   UNL A   1      41.976  23.942  35.452  1.00  0.00    -0.200 F 
ATOM     99  F   UNL A   1      43.796  21.931  35.129  1.00  0.00    -0.200 F 
ENDBRANCH  66  89
ENDBRANCH  40  41
ENDBRANCH  33  35
ENDBRANCH  32  33
ENDBRANCH  31  32
ENDBRANCH  30  31
ENDBRANCH  29  30
ENDBRANCH   1  29
TORSDOF 17
ENDMDL
