MODEL 1
REMARK VINA RESULT:     -11.6      0.000      0.000
REMARK SMILES CCn1ccc([C@@H](C)NC(=O)c2cnn([C@H](C)C(=O)OCCOCCOC(=O)c3ccc(-c4c5nc(c(-c6c(F)c(F)c(F)c(F)c6F)c6ccc([nH]6)c(-c6c(F)c(F)c(F)c(F)c6F)c6nc(c(-c7c(F)c(F)c(F)c(F)c7F)c7ccc4[nH]7)C=C6)C=C5)cc3)c2)n1
REMARK SMILES IDX 21 1 20 2 18 3 19 4 16 5 17 6 15 7 12 8 13 9 92 10 14 11
REMARK SMILES IDX 10 12 9 13 11 15 7 16 8 17 6 18 3 19 4 20 93 21 5 22 2 23
REMARK SMILES IDX 1 24 22 25 23 26 24 27 25 28 26 29 27 30 28 31 29 32 30 33
REMARK SMILES IDX 91 34 31 35 90 36 32 37 33 38 34 39 84 40 35 41 89 42 83 43
REMARK SMILES IDX 85 44 36 45 88 46 82 47 81 48 37 50 69 51 49 52 68 53 50 54
REMARK SMILES IDX 53 55 67 56 86 57 51 58 52 59 66 61 87 62 54 63 38 64 39 65
REMARK SMILES IDX 47 66 40 67 41 68 45 69 48 70 42 71 43 72 46 73 44 74 70 75
REMARK SMILES IDX 71 76 79 77 72 78 73 79 77 80 80 81 74 82 75 83 78 84 76 85
REMARK SMILES IDX 55 86 56 87 64 88 57 89 58 90 62 91 65 92 59 93 60 94 63 95
REMARK SMILES IDX 61 96
REMARK H PARENT 9 14 85 49 53 60
REMARK Flexibility Score: inf
ROOT
ATOM      1  C   UNL A   1      40.427  21.811  27.504  1.00  0.00     0.261 C 
ENDROOT
BRANCH   1   2
ATOM      2  O   UNL A   1      39.937  22.149  26.197  1.00  0.00    -0.462 OA
BRANCH   2   3
ATOM      3  C   UNL A   1      38.753  22.819  26.182  1.00  0.00     0.330 C 
ATOM      4  O   UNL A   1      38.515  23.827  26.842  1.00  0.00    -0.250 OA
BRANCH   3   5
ATOM      5  C   UNL A   1      37.755  22.245  25.199  1.00  0.00     0.213 C 
ATOM      6  C   UNL A   1      37.758  20.736  25.000  1.00  0.00     0.046 C 
BRANCH   5   7
ATOM      7  N   UNL A   1      36.436  22.742  25.534  1.00  0.00    -0.258 N 
ATOM      8  C   UNL A   1      34.305  22.816  26.006  1.00  0.00     0.077 A 
ATOM      9  C   UNL A   1      34.778  24.035  25.473  1.00  0.00     0.149 A 
ATOM     10  C   UNL A   1      35.433  22.032  26.119  1.00  0.00     0.123 A 
ATOM     11  N   UNL A   1      36.087  24.004  25.215  1.00  0.00    -0.180 NA
BRANCH   8  12
ATOM     12  C   UNL A   1      32.968  22.413  26.356  1.00  0.00     0.254 C 
ATOM     13  N   UNL A   1      32.208  21.801  25.398  1.00  0.00    -0.344 N 
ATOM     14  H   UNL A   1      31.263  21.654  25.631  1.00  0.00     0.164 HD
ATOM     15  O   UNL A   1      32.514  22.568  27.486  1.00  0.00    -0.269 OA
BRANCH  13  16
ATOM     16  C   UNL A   1      32.616  21.338  24.074  1.00  0.00     0.130 C 
ATOM     17  C   UNL A   1      31.737  21.980  23.006  1.00  0.00     0.038 C 
BRANCH  16  18
ATOM     18  C   UNL A   1      32.560  19.834  24.037  1.00  0.00     0.084 A 
ATOM     19  N   UNL A   1      32.515  17.848  24.791  1.00  0.00    -0.273 N 
ATOM     20  C   UNL A   1      32.497  17.703  23.432  1.00  0.00     0.109 A 
ATOM     21  N   UNL A   1      32.554  19.133  25.181  1.00  0.00    -0.176 NA
ATOM     22  C   UNL A   1      32.525  18.975  22.911  1.00  0.00     0.047 A 
BRANCH  19  23
ATOM     23  C   UNL A   1      32.532  16.760  25.752  1.00  0.00     0.141 C 
ATOM     24  C   UNL A   1      33.259  15.496  25.315  1.00  0.00     0.029 C 
ENDBRANCH  19  23
ENDBRANCH  16  18
ENDBRANCH  13  16
ENDBRANCH   8  12
ENDBRANCH   5   7
ENDBRANCH   3   5
ENDBRANCH   2   3
ENDBRANCH   1   2
BRANCH   1  25
ATOM     25  C   UNL A   1      41.350  20.594  27.472  1.00  0.00     0.202 C 
BRANCH  25  26
ATOM     26  O   UNL A   1      41.593  19.963  26.216  1.00  0.00    -0.374 OA
BRANCH  26  27
ATOM     27  C   UNL A   1      42.537  18.904  26.108  1.00  0.00     0.202 C 
BRANCH  27  28
ATOM     28  C   UNL A   1      43.602  19.003  25.027  1.00  0.00     0.261 C 
BRANCH  28  29
ATOM     29  O   UNL A   1      43.820  20.349  24.630  1.00  0.00    -0.460 OA
BRANCH  29  30
ATOM     30  C   UNL A   1      45.093  20.766  24.746  1.00  0.00     0.338 C 
ATOM     31  O   UNL A   1      46.090  20.067  24.930  1.00  0.00    -0.246 OA
BRANCH  30  32
ATOM     32  C   UNL A   1      45.115  22.225  24.796  1.00  0.00     0.060 A 
ATOM     33  C   UNL A   1      46.092  22.782  25.620  1.00  0.00     0.016 A 
ATOM     34  C   UNL A   1      43.991  22.951  24.369  1.00  0.00     0.016 A 
ATOM     35  C   UNL A   1      45.793  23.956  26.261  1.00  0.00     0.010 A 
ATOM     36  C   UNL A   1      43.689  24.122  25.017  1.00  0.00     0.010 A 
ATOM     37  C   UNL A   1      44.544  24.545  26.028  1.00  0.00    -0.014 A 
BRANCH  37  38
ATOM     38  C   UNL A   1      44.215  25.725  26.792  1.00  0.00     0.031 A 
ATOM     39  C   UNL A   1      45.194  26.797  26.537  1.00  0.00     0.074 A 
ATOM     40  C   UNL A   1      43.124  25.806  27.577  1.00  0.00     0.049 A 
ATOM     41  N   UNL A   1      46.135  27.189  27.325  1.00  0.00    -0.248 NA
ATOM     42  C   UNL A   1      45.305  27.316  25.163  1.00  0.00     0.031 C 
ATOM     43  C   UNL A   1      42.002  24.866  27.657  1.00  0.00     0.029 A 
ATOM     44  N   UNL A   1      42.744  26.810  28.418  1.00  0.00    -0.354 N 
ATOM     45  C   UNL A   1      46.798  28.191  26.626  1.00  0.00     0.074 A 
ATOM     46  C   UNL A   1      46.414  28.050  25.250  1.00  0.00     0.031 C 
ATOM     47  C   UNL A   1      40.971  25.453  28.311  1.00  0.00     0.029 A 
ATOM     48  C   UNL A   1      41.412  26.740  28.817  1.00  0.00     0.049 A 
ATOM     49  H   UNL A   1      43.356  27.520  28.716  1.00  0.00     0.167 HD
ATOM     50  C   UNL A   1      47.290  29.262  27.304  1.00  0.00     0.037 A 
ATOM     51  C   UNL A   1      40.733  27.724  29.458  1.00  0.00     0.037 A 
ATOM     52  C   UNL A   1      47.380  28.964  28.712  1.00  0.00     0.049 A 
ATOM     53  C   UNL A   1      41.741  28.599  30.103  1.00  0.00     0.074 A 
ATOM     54  C   UNL A   1      48.193  28.205  29.525  1.00  0.00     0.029 A 
ATOM     55  N   UNL A   1      46.209  29.179  29.389  1.00  0.00    -0.354 N 
ATOM     56  N   UNL A   1      42.496  28.211  31.092  1.00  0.00    -0.248 NA
ATOM     57  C   UNL A   1      42.195  29.795  29.402  1.00  0.00     0.031 C 
ATOM     58  C   UNL A   1      47.397  27.842  30.654  1.00  0.00     0.029 A 
ATOM     59  C   UNL A   1      46.139  28.430  30.529  1.00  0.00     0.049 A 
ATOM     60  H   UNL A   1      45.504  29.799  29.090  1.00  0.00     0.167 HD
ATOM     61  C   UNL A   1      43.708  28.835  30.865  1.00  0.00     0.074 A 
ATOM     62  C   UNL A   1      43.417  29.915  29.929  1.00  0.00     0.031 C 
ATOM     63  C   UNL A   1      44.877  28.216  31.198  1.00  0.00     0.037 A 
BRANCH  50  64
ATOM     64  C   UNL A   1      47.141  30.695  26.827  1.00  0.00     0.064 A 
ATOM     65  C   UNL A   1      48.252  31.557  26.940  1.00  0.00     0.173 A 
ATOM     66  C   UNL A   1      45.905  31.336  26.583  1.00  0.00     0.173 A 
ATOM     67  F   UNL A   1      49.474  31.066  27.197  1.00  0.00    -0.203 F 
ATOM     68  C   UNL A   1      48.117  32.948  26.886  1.00  0.00     0.198 A 
ATOM     69  C   UNL A   1      45.783  32.719  26.479  1.00  0.00     0.198 A 
ATOM     70  F   UNL A   1      44.743  30.678  26.550  1.00  0.00    -0.203 F 
ATOM     71  F   UNL A   1      49.180  33.729  27.120  1.00  0.00    -0.200 F 
ATOM     72  C   UNL A   1      46.882  33.527  26.661  1.00  0.00     0.200 A 
ATOM     73  F   UNL A   1      44.571  33.258  26.288  1.00  0.00    -0.200 F 
ATOM     74  F   UNL A   1      46.739  34.859  26.667  1.00  0.00    -0.200 F 
ENDBRANCH  50  64
BRANCH  51  75
ATOM     75  C   UNL A   1      39.322  28.149  29.285  1.00  0.00     0.064 A 
ATOM     76  C   UNL A   1      38.456  28.255  30.388  1.00  0.00     0.173 A 
ATOM     77  C   UNL A   1      38.889  28.754  28.091  1.00  0.00     0.173 A 
ATOM     78  F   UNL A   1      38.811  27.743  31.576  1.00  0.00    -0.203 F 
ATOM     79  C   UNL A   1      37.250  28.962  30.311  1.00  0.00     0.198 A 
ATOM     80  C   UNL A   1      37.685  29.456  28.013  1.00  0.00     0.198 A 
ATOM     81  F   UNL A   1      39.674  28.765  27.003  1.00  0.00    -0.203 F 
ATOM     82  F   UNL A   1      36.485  29.103  31.402  1.00  0.00    -0.200 F 
ATOM     83  C   UNL A   1      36.874  29.574  29.127  1.00  0.00     0.200 A 
ATOM     84  F   UNL A   1      37.350  30.078  26.873  1.00  0.00    -0.200 F 
ATOM     85  F   UNL A   1      35.756  30.312  29.070  1.00  0.00    -0.200 F 
ENDBRANCH  51  75
BRANCH  63  86
ATOM     86  C   UNL A   1      44.812  27.136  32.232  1.00  0.00     0.064 A 
ATOM     87  C   UNL A   1      44.770  27.356  33.618  1.00  0.00     0.173 A 
ATOM     88  C   UNL A   1      44.697  25.816  31.778  1.00  0.00     0.173 A 
ATOM     89  F   UNL A   1      44.801  28.598  34.121  1.00  0.00    -0.203 F 
ATOM     90  C   UNL A   1      44.648  26.289  34.508  1.00  0.00     0.198 A 
ATOM     91  C   UNL A   1      44.537  24.759  32.665  1.00  0.00     0.198 A 
ATOM     92  F   UNL A   1      44.693  25.559  30.461  1.00  0.00    -0.203 F 
ATOM     93  F   UNL A   1      44.624  26.514  35.830  1.00  0.00    -0.200 F 
ATOM     94  C   UNL A   1      44.523  24.994  34.029  1.00  0.00     0.200 A 
ATOM     95  F   UNL A   1      44.372  23.515  32.193  1.00  0.00    -0.200 F 
ATOM     96  F   UNL A   1      44.367  23.971  34.883  1.00  0.00    -0.200 F 
ENDBRANCH  63  86
ENDBRANCH  37  38
ENDBRANCH  30  32
ENDBRANCH  29  30
ENDBRANCH  28  29
ENDBRANCH  27  28
ENDBRANCH  26  27
ENDBRANCH  25  26
ENDBRANCH   1  25
TORSDOF 19
ENDMDL
MODEL 2
REMARK VINA RESULT:     -11.6      2.136      3.483
REMARK SMILES CCn1ccc([C@@H](C)NC(=O)c2cnn([C@H](C)C(=O)OCCOCCOC(=O)c3ccc(-c4c5nc(c(-c6c(F)c(F)c(F)c(F)c6F)c6ccc([nH]6)c(-c6c(F)c(F)c(F)c(F)c6F)c6nc(c(-c7c(F)c(F)c(F)c(F)c7F)c7ccc4[nH]7)C=C6)C=C5)cc3)c2)n1
REMARK SMILES IDX 21 1 20 2 18 3 19 4 16 5 17 6 15 7 12 8 13 9 92 10 14 11
REMARK SMILES IDX 10 12 9 13 11 15 7 16 8 17 6 18 3 19 4 20 93 21 5 22 2 23
REMARK SMILES IDX 1 24 22 25 23 26 24 27 25 28 26 29 27 30 28 31 29 32 30 33
REMARK SMILES IDX 91 34 31 35 90 36 32 37 33 38 34 39 84 40 35 41 89 42 83 43
REMARK SMILES IDX 85 44 36 45 88 46 82 47 81 48 37 50 69 51 49 52 68 53 50 54
REMARK SMILES IDX 53 55 67 56 86 57 51 58 52 59 66 61 87 62 54 63 38 64 39 65
REMARK SMILES IDX 47 66 40 67 41 68 45 69 48 70 42 71 43 72 46 73 44 74 70 75
REMARK SMILES IDX 71 76 79 77 72 78 73 79 77 80 80 81 74 82 75 83 78 84 76 85
REMARK SMILES IDX 55 86 56 87 64 88 57 89 58 90 62 91 65 92 59 93 60 94 63 95
REMARK SMILES IDX 61 96
REMARK H PARENT 9 14 85 49 53 60
REMARK Flexibility Score: inf
ROOT
ATOM      1  C   UNL A   1      39.328  22.672  26.571  1.00  0.00     0.261 C 
ENDROOT
BRANCH   1   2
ATOM      2  O   UNL A   1      38.218  22.065  25.891  1.00  0.00    -0.462 OA
BRANCH   2   3
ATOM      3  C   UNL A   1      37.165  22.893  25.655  1.00  0.00     0.330 C 
ATOM      4  O   UNL A   1      37.168  24.102  25.876  1.00  0.00    -0.250 OA
BRANCH   3   5
ATOM      5  C   UNL A   1      35.989  22.194  25.009  1.00  0.00     0.213 C 
ATOM      6  C   UNL A   1      35.701  20.764  25.444  1.00  0.00     0.046 C 
BRANCH   5   7
ATOM      7  N   UNL A   1      34.820  23.041  25.135  1.00  0.00    -0.258 N 
ATOM      8  C   UNL A   1      32.975  23.931  25.892  1.00  0.00     0.077 A 
ATOM      9  C   UNL A   1      33.127  24.117  24.501  1.00  0.00     0.149 A 
ATOM     10  C   UNL A   1      34.142  23.311  26.284  1.00  0.00     0.123 A 
ATOM     11  N   UNL A   1      34.270  23.604  24.041  1.00  0.00    -0.180 NA
BRANCH   8  12
ATOM     12  C   UNL A   1      31.876  24.271  26.759  1.00  0.00     0.254 C 
ATOM     13  N   UNL A   1      31.517  25.587  26.857  1.00  0.00    -0.344 N 
ATOM     14  H   UNL A   1      30.851  25.798  27.550  1.00  0.00     0.164 HD
ATOM     15  O   UNL A   1      31.241  23.419  27.373  1.00  0.00    -0.269 OA
BRANCH  13  16
ATOM     16  C   UNL A   1      31.996  26.720  26.069  1.00  0.00     0.130 C 
ATOM     17  C   UNL A   1      32.313  27.895  26.988  1.00  0.00     0.038 C 
BRANCH  16  18
ATOM     18  C   UNL A   1      30.966  27.068  25.027  1.00  0.00     0.084 A 
ATOM     19  N   UNL A   1      29.960  28.243  23.570  1.00  0.00    -0.273 N 
ATOM     20  C   UNL A   1      29.242  27.082  23.634  1.00  0.00     0.109 A 
ATOM     21  N   UNL A   1      31.011  28.257  24.408  1.00  0.00    -0.176 NA
ATOM     22  C   UNL A   1      29.869  26.296  24.572  1.00  0.00     0.047 A 
BRANCH  19  23
ATOM     23  C   UNL A   1      29.639  29.385  22.733  1.00  0.00     0.141 C 
ATOM     24  C   UNL A   1      29.092  30.608  23.455  1.00  0.00     0.029 C 
ENDBRANCH  19  23
ENDBRANCH  16  18
ENDBRANCH  13  16
ENDBRANCH   8  12
ENDBRANCH   5   7
ENDBRANCH   3   5
ENDBRANCH   2   3
ENDBRANCH   1   2
BRANCH   1  25
ATOM     25  C   UNL A   1      40.371  21.641  26.999  1.00  0.00     0.202 C 
BRANCH  25  26
ATOM     26  O   UNL A   1      40.160  20.277  26.639  1.00  0.00    -0.374 OA
BRANCH  26  27
ATOM     27  C   UNL A   1      41.219  19.498  26.096  1.00  0.00     0.202 C 
BRANCH  27  28
ATOM     28  C   UNL A   1      42.643  20.005  26.272  1.00  0.00     0.261 C 
BRANCH  28  29
ATOM     29  O   UNL A   1      43.170  20.516  25.056  1.00  0.00    -0.460 OA
BRANCH  29  30
ATOM     30  C   UNL A   1      44.492  20.756  25.079  1.00  0.00     0.338 C 
ATOM     31  O   UNL A   1      45.398  19.924  25.150  1.00  0.00    -0.246 OA
BRANCH  30  32
ATOM     32  C   UNL A   1      44.714  22.196  25.183  1.00  0.00     0.060 A 
ATOM     33  C   UNL A   1      45.544  22.600  26.228  1.00  0.00     0.016 A 
ATOM     34  C   UNL A   1      43.839  23.081  24.534  1.00  0.00     0.016 A 
ATOM     35  C   UNL A   1      45.278  23.806  26.822  1.00  0.00     0.010 A 
ATOM     36  C   UNL A   1      43.569  24.284  25.135  1.00  0.00     0.010 A 
ATOM     37  C   UNL A   1      44.217  24.576  26.329  1.00  0.00    -0.014 A 
BRANCH  37  38
ATOM     38  C   UNL A   1      43.895  25.792  27.037  1.00  0.00     0.031 A 
ATOM     39  C   UNL A   1      44.880  26.845  26.731  1.00  0.00     0.074 A 
ATOM     40  C   UNL A   1      42.805  25.915  27.818  1.00  0.00     0.049 A 
ATOM     41  N   UNL A   1      45.824  27.269  27.499  1.00  0.00    -0.248 NA
ATOM     42  C   UNL A   1      44.992  27.298  25.334  1.00  0.00     0.031 C 
ATOM     43  C   UNL A   1      41.678  24.986  27.943  1.00  0.00     0.029 A 
ATOM     44  N   UNL A   1      42.432  26.960  28.611  1.00  0.00    -0.354 N 
ATOM     45  C   UNL A   1      46.492  28.233  26.753  1.00  0.00     0.074 A 
ATOM     46  C   UNL A   1      46.106  28.030  25.386  1.00  0.00     0.031 C 
ATOM     47  C   UNL A   1      40.651  25.608  28.568  1.00  0.00     0.029 A 
ATOM     48  C   UNL A   1      41.099  26.915  29.013  1.00  0.00     0.049 A 
ATOM     49  H   UNL A   1      43.048  27.680  28.875  1.00  0.00     0.167 HD
ATOM     50  C   UNL A   1      46.990  29.332  27.380  1.00  0.00     0.037 A 
ATOM     51  C   UNL A   1      40.426  27.932  29.608  1.00  0.00     0.037 A 
ATOM     52  C   UNL A   1      47.079  29.100  28.801  1.00  0.00     0.049 A 
ATOM     53  C   UNL A   1      41.439  28.831  30.211  1.00  0.00     0.074 A 
ATOM     54  C   UNL A   1      47.888  28.376  29.647  1.00  0.00     0.029 A 
ATOM     55  N   UNL A   1      45.910  29.354  29.467  1.00  0.00    -0.354 N 
ATOM     56  N   UNL A   1      42.194  28.486  31.217  1.00  0.00    -0.248 NA
ATOM     57  C   UNL A   1      41.899  29.990  29.453  1.00  0.00     0.031 C 
ATOM     58  C   UNL A   1      47.092  28.071  30.793  1.00  0.00     0.029 A 
ATOM     59  C   UNL A   1      45.837  28.659  30.641  1.00  0.00     0.049 A 
ATOM     60  H   UNL A   1      45.207  29.962  29.140  1.00  0.00     0.167 HD
ATOM     61  C   UNL A   1      43.408  29.093  30.960  1.00  0.00     0.074 A 
ATOM     62  C   UNL A   1      43.122  30.128  29.974  1.00  0.00     0.031 C 
ATOM     63  C   UNL A   1      44.574  28.483  31.320  1.00  0.00     0.037 A 
BRANCH  50  64
ATOM     64  C   UNL A   1      46.848  30.742  26.837  1.00  0.00     0.064 A 
ATOM     65  C   UNL A   1      47.968  31.598  26.893  1.00  0.00     0.173 A 
ATOM     66  C   UNL A   1      45.615  31.383  26.577  1.00  0.00     0.173 A 
ATOM     67  F   UNL A   1      49.188  31.107  27.158  1.00  0.00    -0.203 F 
ATOM     68  C   UNL A   1      47.845  32.985  26.774  1.00  0.00     0.198 A 
ATOM     69  C   UNL A   1      45.505  32.761  26.408  1.00  0.00     0.198 A 
ATOM     70  F   UNL A   1      44.446  30.735  26.590  1.00  0.00    -0.203 F 
ATOM     71  F   UNL A   1      48.918  33.766  26.956  1.00  0.00    -0.200 F 
ATOM     72  C   UNL A   1      46.613  33.565  26.536  1.00  0.00     0.200 A 
ATOM     73  F   UNL A   1      44.295  33.302  26.207  1.00  0.00    -0.200 F 
ATOM     74  F   UNL A   1      46.483  34.898  26.480  1.00  0.00    -0.200 F 
ENDBRANCH  50  64
BRANCH  51  75
ATOM     75  C   UNL A   1      39.017  28.356  29.416  1.00  0.00     0.064 A 
ATOM     76  C   UNL A   1      38.169  28.571  30.516  1.00  0.00     0.173 A 
ATOM     77  C   UNL A   1      38.573  28.856  28.178  1.00  0.00     0.173 A 
ATOM     78  F   UNL A   1      38.535  28.164  31.740  1.00  0.00    -0.203 F 
ATOM     79  C   UNL A   1      36.969  29.282  30.392  1.00  0.00     0.198 A 
ATOM     80  C   UNL A   1      37.376  29.562  28.053  1.00  0.00     0.198 A 
ATOM     81  F   UNL A   1      39.344  28.761  27.084  1.00  0.00    -0.203 F 
ATOM     82  F   UNL A   1      36.221  29.529  31.476  1.00  0.00    -0.200 F 
ATOM     83  C   UNL A   1      36.582  29.789  29.162  1.00  0.00     0.200 A 
ATOM     84  F   UNL A   1      37.032  30.083  26.866  1.00  0.00    -0.200 F 
ATOM     85  F   UNL A   1      35.471  30.532  29.054  1.00  0.00    -0.200 F 
ENDBRANCH  51  75
BRANCH  63  86
ATOM     86  C   UNL A   1      44.504  27.454  32.404  1.00  0.00     0.064 A 
ATOM     87  C   UNL A   1      44.320  26.079  32.193  1.00  0.00     0.173 A 
ATOM     88  C   UNL A   1      44.727  27.888  33.718  1.00  0.00     0.173 A 
ATOM     89  F   UNL A   1      44.174  25.584  30.956  1.00  0.00    -0.203 F 
ATOM     90  C   UNL A   1      44.328  25.184  33.263  1.00  0.00     0.198 A 
ATOM     91  C   UNL A   1      44.774  26.990  34.777  1.00  0.00     0.198 A 
ATOM     92  F   UNL A   1      44.947  29.188  33.966  1.00  0.00    -0.203 F 
ATOM     93  F   UNL A   1      44.136  23.874  33.046  1.00  0.00    -0.200 F 
ATOM     94  C   UNL A   1      44.564  25.639  34.551  1.00  0.00     0.200 A 
ATOM     95  F   UNL A   1      45.046  27.432  36.012  1.00  0.00    -0.200 F 
ATOM     96  F   UNL A   1      44.612  24.775  35.574  1.00  0.00    -0.200 F 
ENDBRANCH  63  86
ENDBRANCH  37  38
ENDBRANCH  30  32
ENDBRANCH  29  30
ENDBRANCH  28  29
ENDBRANCH  27  28
ENDBRANCH  26  27
ENDBRANCH  25  26
ENDBRANCH   1  25
TORSDOF 19
ENDMDL
MODEL 3
REMARK VINA RESULT:     -11.5      2.027      3.633
REMARK SMILES CCn1ccc([C@@H](C)NC(=O)c2cnn([C@H](C)C(=O)OCCOCCOC(=O)c3ccc(-c4c5nc(c(-c6c(F)c(F)c(F)c(F)c6F)c6ccc([nH]6)c(-c6c(F)c(F)c(F)c(F)c6F)c6nc(c(-c7c(F)c(F)c(F)c(F)c7F)c7ccc4[nH]7)C=C6)C=C5)cc3)c2)n1
REMARK SMILES IDX 21 1 20 2 18 3 19 4 16 5 17 6 15 7 12 8 13 9 92 10 14 11
REMARK SMILES IDX 10 12 9 13 11 15 7 16 8 17 6 18 3 19 4 20 93 21 5 22 2 23
REMARK SMILES IDX 1 24 22 25 23 26 24 27 25 28 26 29 27 30 28 31 29 32 30 33
REMARK SMILES IDX 91 34 31 35 90 36 32 37 33 38 34 39 84 40 35 41 89 42 83 43
REMARK SMILES IDX 85 44 36 45 88 46 82 47 81 48 37 50 69 51 49 52 68 53 50 54
REMARK SMILES IDX 53 55 67 56 86 57 51 58 52 59 66 61 87 62 54 63 38 64 39 65
REMARK SMILES IDX 47 66 40 67 41 68 45 69 48 70 42 71 43 72 46 73 44 74 70 75
REMARK SMILES IDX 71 76 79 77 72 78 73 79 77 80 80 81 74 82 75 83 78 84 76 85
REMARK SMILES IDX 55 86 56 87 64 88 57 89 58 90 62 91 65 92 59 93 60 94 63 95
REMARK SMILES IDX 61 96
REMARK H PARENT 9 14 85 49 53 60
REMARK Flexibility Score: inf
ROOT
ATOM      1  C   UNL A   1      38.228  21.314  25.413  1.00  0.00     0.261 C 
ENDROOT
BRANCH   1   2
ATOM      2  O   UNL A   1      37.412  22.362  24.868  1.00  0.00    -0.462 OA
BRANCH   2   3
ATOM      3  C   UNL A   1      36.132  22.395  25.329  1.00  0.00     0.330 C 
ATOM      4  O   UNL A   1      35.754  23.066  26.285  1.00  0.00    -0.250 OA
BRANCH   3   5
ATOM      5  C   UNL A   1      35.175  21.572  24.493  1.00  0.00     0.213 C 
ATOM      6  C   UNL A   1      34.510  20.378  25.164  1.00  0.00     0.046 C 
BRANCH   5   7
ATOM      7  N   UNL A   1      34.204  22.461  23.890  1.00  0.00    -0.258 N 
ATOM      8  C   UNL A   1      33.277  24.237  23.018  1.00  0.00     0.077 A 
ATOM      9  C   UNL A   1      32.325  23.352  23.571  1.00  0.00     0.149 A 
ATOM     10  C   UNL A   1      34.479  23.577  23.159  1.00  0.00     0.123 A 
ATOM     11  N   UNL A   1      32.886  22.251  24.074  1.00  0.00    -0.180 NA
BRANCH   8  12
ATOM     12  C   UNL A   1      33.104  25.544  22.439  1.00  0.00     0.254 C 
ATOM     13  N   UNL A   1      32.379  26.467  23.141  1.00  0.00    -0.344 N 
ATOM     14  H   UNL A   1      32.174  27.303  22.663  1.00  0.00     0.164 HD
ATOM     15  O   UNL A   1      33.613  25.856  21.367  1.00  0.00    -0.269 OA
BRANCH  13  16
ATOM     16  C   UNL A   1      31.869  26.374  24.506  1.00  0.00     0.130 C 
ATOM     17  C   UNL A   1      30.368  26.639  24.519  1.00  0.00     0.038 C 
BRANCH  16  18
ATOM     18  C   UNL A   1      32.629  27.332  25.385  1.00  0.00     0.084 A 
ATOM     19  N   UNL A   1      33.060  29.144  26.408  1.00  0.00    -0.273 N 
ATOM     20  C   UNL A   1      34.117  28.325  26.693  1.00  0.00     0.109 A 
ATOM     21  N   UNL A   1      32.144  28.562  25.615  1.00  0.00    -0.176 NA
ATOM     22  C   UNL A   1      33.869  27.140  26.043  1.00  0.00     0.047 A 
BRANCH  19  23
ATOM     23  C   UNL A   1      32.915  30.517  26.857  1.00  0.00     0.141 C 
ATOM     24  C   UNL A   1      31.599  31.197  26.507  1.00  0.00     0.029 C 
ENDBRANCH  19  23
ENDBRANCH  16  18
ENDBRANCH  13  16
ENDBRANCH   8  12
ENDBRANCH   5   7
ENDBRANCH   3   5
ENDBRANCH   2   3
ENDBRANCH   1   2
BRANCH   1  25
ATOM     25  C   UNL A   1      39.463  21.862  26.125  1.00  0.00     0.202 C 
BRANCH  25  26
ATOM     26  O   UNL A   1      40.233  20.969  26.928  1.00  0.00    -0.374 OA
BRANCH  26  27
ATOM     27  C   UNL A   1      40.755  19.766  26.377  1.00  0.00     0.202 C 
BRANCH  27  28
ATOM     28  C   UNL A   1      42.266  19.622  26.274  1.00  0.00     0.261 C 
BRANCH  28  29
ATOM     29  O   UNL A   1      42.778  20.294  25.132  1.00  0.00    -0.460 OA
BRANCH  29  30
ATOM     30  C   UNL A   1      44.102  20.519  25.165  1.00  0.00     0.338 C 
ATOM     31  O   UNL A   1      44.997  19.680  25.266  1.00  0.00    -0.246 OA
BRANCH  30  32
ATOM     32  C   UNL A   1      44.340  21.959  25.237  1.00  0.00     0.060 A 
ATOM     33  C   UNL A   1      45.233  22.370  26.224  1.00  0.00     0.016 A 
ATOM     34  C   UNL A   1      43.432  22.842  24.631  1.00  0.00     0.016 A 
ATOM     35  C   UNL A   1      45.012  23.585  26.818  1.00  0.00     0.010 A 
ATOM     36  C   UNL A   1      43.207  24.055  25.232  1.00  0.00     0.010 A 
ATOM     37  C   UNL A   1      43.929  24.356  26.381  1.00  0.00    -0.014 A 
BRANCH  37  38
ATOM     38  C   UNL A   1      43.658  25.583  27.092  1.00  0.00     0.031 A 
ATOM     39  C   UNL A   1      44.679  26.599  26.778  1.00  0.00     0.074 A 
ATOM     40  C   UNL A   1      42.579  25.747  27.881  1.00  0.00     0.049 A 
ATOM     41  N   UNL A   1      45.644  26.986  27.539  1.00  0.00    -0.248 NA
ATOM     42  C   UNL A   1      44.798  27.048  25.380  1.00  0.00     0.031 C 
ATOM     43  C   UNL A   1      41.419  24.861  28.015  1.00  0.00     0.029 A 
ATOM     44  N   UNL A   1      42.252  26.805  28.677  1.00  0.00    -0.354 N 
ATOM     45  C   UNL A   1      46.342  27.925  26.788  1.00  0.00     0.074 A 
ATOM     46  C   UNL A   1      45.938  27.737  25.424  1.00  0.00     0.031 C 
ATOM     47  C   UNL A   1      40.422  25.521  28.648  1.00  0.00     0.029 A 
ATOM     48  C   UNL A   1      40.922  26.810  29.090  1.00  0.00     0.049 A 
ATOM     49  H   UNL A   1      42.897  27.501  28.936  1.00  0.00     0.167 HD
ATOM     50  C   UNL A   1      46.886  29.004  27.411  1.00  0.00     0.037 A 
ATOM     51  C   UNL A   1      40.292  27.851  29.690  1.00  0.00     0.037 A 
ATOM     52  C   UNL A   1      46.978  28.768  28.831  1.00  0.00     0.049 A 
ATOM     53  C   UNL A   1      41.343  28.711  30.285  1.00  0.00     0.074 A 
ATOM     54  C   UNL A   1      47.766  28.014  29.671  1.00  0.00     0.029 A 
ATOM     55  N   UNL A   1      45.824  29.065  29.507  1.00  0.00    -0.354 N 
ATOM     56  N   UNL A   1      42.092  28.337  31.285  1.00  0.00    -0.248 NA
ATOM     57  C   UNL A   1      41.840  29.853  29.524  1.00  0.00     0.031 C 
ATOM     58  C   UNL A   1      46.968  27.739  30.823  1.00  0.00     0.029 A 
ATOM     59  C   UNL A   1      45.735  28.374  30.681  1.00  0.00     0.049 A 
ATOM     60  H   UNL A   1      45.143  29.700  29.185  1.00  0.00     0.167 HD
ATOM     61  C   UNL A   1      43.326  28.898  31.019  1.00  0.00     0.074 A 
ATOM     62  C   UNL A   1      43.071  29.944  30.035  1.00  0.00     0.031 C 
ATOM     63  C   UNL A   1      44.471  28.245  31.370  1.00  0.00     0.037 A 
BRANCH  50  64
ATOM     64  C   UNL A   1      46.794  30.419  26.869  1.00  0.00     0.064 A 
ATOM     65  C   UNL A   1      47.943  31.234  26.924  1.00  0.00     0.173 A 
ATOM     66  C   UNL A   1      45.583  31.104  26.614  1.00  0.00     0.173 A 
ATOM     67  F   UNL A   1      49.146  30.700  27.184  1.00  0.00    -0.203 F 
ATOM     68  C   UNL A   1      47.870  32.625  26.806  1.00  0.00     0.198 A 
ATOM     69  C   UNL A   1      45.522  32.485  26.446  1.00  0.00     0.198 A 
ATOM     70  F   UNL A   1      44.392  30.498  26.630  1.00  0.00    -0.203 F 
ATOM     71  F   UNL A   1      48.971  33.367  26.985  1.00  0.00    -0.200 F 
ATOM     72  C   UNL A   1      46.659  33.249  26.572  1.00  0.00     0.200 A 
ATOM     73  F   UNL A   1      44.331  33.069  26.249  1.00  0.00    -0.200 F 
ATOM     74  F   UNL A   1      46.576  34.585  26.517  1.00  0.00    -0.200 F 
ENDBRANCH  50  64
BRANCH  51  75
ATOM     75  C   UNL A   1      38.899  28.328  29.509  1.00  0.00     0.064 A 
ATOM     76  C   UNL A   1      38.073  28.591  30.617  1.00  0.00     0.173 A 
ATOM     77  C   UNL A   1      38.460  28.829  28.270  1.00  0.00     0.173 A 
ATOM     78  F   UNL A   1      38.438  28.185  31.842  1.00  0.00    -0.203 F 
ATOM     79  C   UNL A   1      36.901  29.347  30.497  1.00  0.00     0.198 A 
ATOM     80  C   UNL A   1      37.289  29.580  28.150  1.00  0.00     0.198 A 
ATOM     81  F   UNL A   1      39.212  28.688  27.168  1.00  0.00    -0.203 F 
ATOM     82  F   UNL A   1      36.177  29.638  31.587  1.00  0.00    -0.200 F 
ATOM     83  C   UNL A   1      36.519  29.853  29.265  1.00  0.00     0.200 A 
ATOM     84  F   UNL A   1      36.951  30.098  26.960  1.00  0.00    -0.200 F 
ATOM     85  F   UNL A   1      35.436  30.637  29.161  1.00  0.00    -0.200 F 
ENDBRANCH  51  75
BRANCH  63  86
ATOM     86  C   UNL A   1      44.371  27.218  32.454  1.00  0.00     0.064 A 
ATOM     87  C   UNL A   1      44.260  27.508  33.823  1.00  0.00     0.173 A 
ATOM     88  C   UNL A   1      44.296  25.875  32.064  1.00  0.00     0.173 A 
ATOM     89  F   UNL A   1      44.250  28.773  34.263  1.00  0.00    -0.203 F 
ATOM     90  C   UNL A   1      44.110  26.485  34.760  1.00  0.00     0.198 A 
ATOM     91  C   UNL A   1      44.108  24.862  32.995  1.00  0.00     0.198 A 
ATOM     92  F   UNL A   1      44.358  25.551  30.763  1.00  0.00    -0.203 F 
ATOM     93  F   UNL A   1      44.019  26.777  36.067  1.00  0.00    -0.200 F 
ATOM     94  C   UNL A   1      44.025  25.165  34.344  1.00  0.00     0.200 A 
ATOM     95  F   UNL A   1      43.982  23.594  32.581  1.00  0.00    -0.200 F 
ATOM     96  F   UNL A   1      43.842  24.185  35.240  1.00  0.00    -0.200 F 
ENDBRANCH  63  86
ENDBRANCH  37  38
ENDBRANCH  30  32
ENDBRANCH  29  30
ENDBRANCH  28  29
ENDBRANCH  27  28
ENDBRANCH  26  27
ENDBRANCH  25  26
ENDBRANCH   1  25
TORSDOF 19
ENDMDL
