MODEL 1
REMARK VINA RESULT:      -9.7      0.000      0.000
REMARK SMILES CC[NH2+][C@@]1(C(=O)OCCOCCOC(=O)c2ccc(-c3c4nc(c(-c5c(F)c(F)c(F)c(F)c5F)c5ccc([nH]5)c(-c5c(F)c(F)c(F)c(F)c5F)c5nc(c(-c6c(F)c(F)c(F)c(F)c6F)c6ccc3[nH]6)C=C5)C=C4)cc2)CC[C@@H](OCCOC)C1
REMARK SMILES IDX 9 1 8 2 7 3 5 4 6 5 4 6 79 7 87 8 80 9 81 10 3 11 2 14 1 15
REMARK SMILES IDX 82 16 83 17 84 18 85 19 86 20 10 21 11 22 12 23 13 24 14 25
REMARK SMILES IDX 15 26 16 27 17 28 78 29 18 30 77 31 19 32 20 33 21 34 71 35
REMARK SMILES IDX 22 36 76 37 70 38 72 39 23 40 75 41 69 42 68 43 24 45 56 46
REMARK SMILES IDX 36 47 55 48 37 49 40 50 54 51 73 52 38 53 39 54 53 56 74 57
REMARK SMILES IDX 41 58 25 59 26 60 34 61 27 62 28 63 32 64 35 65 29 66 30 67
REMARK SMILES IDX 33 68 31 69 57 70 58 71 66 72 59 73 60 74 64 75 67 76 61 77
REMARK SMILES IDX 62 78 65 79 63 80 42 81 43 82 51 83 44 84 45 85 49 86 52 87
REMARK SMILES IDX 46 88 47 89 50 90 48 91
REMARK H PARENT 3 12 3 13 72 44 40 55
REMARK Flexibility Score: inf
ROOT
ATOM      1  C   UNL A   1      33.876  20.343  25.420  1.00  0.00     0.202 C 
ENDROOT
BRANCH   1   2
ATOM      2  C   UNL A   1      32.789  21.149  24.704  1.00  0.00     0.261 C 
BRANCH   2   3
ATOM      3  O   UNL A   1      32.860  22.530  25.099  1.00  0.00    -0.459 OA
BRANCH   3   4
ATOM      4  C   UNL A   1      33.093  23.428  24.105  1.00  0.00     0.368 C 
ATOM      5  O   UNL A   1      33.670  23.168  23.053  1.00  0.00    -0.245 OA
BRANCH   4   6
ATOM      6  C   UNL A   1      32.549  24.848  24.442  1.00  0.00     0.196 C 
ATOM      7  C   UNL A   1      31.024  24.714  24.569  1.00  0.00     0.084 C 
ATOM      8  C   UNL A   1      32.663  25.932  23.358  1.00  0.00     0.113 C 
ATOM      9  C   UNL A   1      30.524  24.753  23.123  1.00  0.00     0.039 C 
ATOM     10  C   UNL A   1      31.535  25.627  22.363  1.00  0.00     0.125 C 
BRANCH   6  11
ATOM     11  N   UNL A   1      33.120  25.292  25.743  1.00  0.00    -0.332 N 
ATOM     12  H   UNL A   1      32.393  25.219  26.456  1.00  0.00     0.347 HD
ATOM     13  H   UNL A   1      33.919  24.689  25.938  1.00  0.00     0.347 HD
BRANCH  11  14
ATOM     14  C   UNL A   1      33.616  26.672  25.729  1.00  0.00     0.257 C 
ATOM     15  C   UNL A   1      32.606  27.596  26.393  1.00  0.00     0.071 C 
ENDBRANCH  11  14
ENDBRANCH   6  11
BRANCH  10  16
ATOM     16  O   UNL A   1      31.036  26.806  21.733  1.00  0.00    -0.376 OA
BRANCH  16  17
ATOM     17  C   UNL A   1      30.990  27.983  22.535  1.00  0.00     0.189 C 
BRANCH  17  18
ATOM     18  C   UNL A   1      29.618  28.213  23.195  1.00  0.00     0.188 C 
BRANCH  18  19
ATOM     19  O   UNL A   1      29.251  29.576  23.410  1.00  0.00    -0.382 OA
ATOM     20  C   UNL A   1      28.250  30.039  22.507  1.00  0.00     0.195 C 
ENDBRANCH  18  19
ENDBRANCH  17  18
ENDBRANCH  16  17
ENDBRANCH  10  16
ENDBRANCH   4   6
ENDBRANCH   3   4
ENDBRANCH   2   3
ENDBRANCH   1   2
BRANCH   1  21
ATOM     21  O   UNL A   1      35.077  20.133  24.667  1.00  0.00    -0.374 OA
BRANCH  21  22
ATOM     22  C   UNL A   1      36.024  21.198  24.666  1.00  0.00     0.202 C 
BRANCH  22  23
ATOM     23  C   UNL A   1      37.103  21.149  25.753  1.00  0.00     0.261 C 
BRANCH  23  24
ATOM     24  O   UNL A   1      38.375  21.610  25.272  1.00  0.00    -0.460 OA
BRANCH  24  25
ATOM     25  C   UNL A   1      39.407  21.308  26.096  1.00  0.00     0.338 C 
ATOM     26  O   UNL A   1      40.027  20.260  26.153  1.00  0.00    -0.246 OA
BRANCH  25  27
ATOM     27  C   UNL A   1      39.827  22.500  26.853  1.00  0.00     0.060 A 
ATOM     28  C   UNL A   1      39.239  23.714  26.481  1.00  0.00     0.016 A 
ATOM     29  C   UNL A   1      40.828  22.461  27.827  1.00  0.00     0.016 A 
ATOM     30  C   UNL A   1      39.705  24.905  27.025  1.00  0.00     0.010 A 
ATOM     31  C   UNL A   1      41.299  23.663  28.372  1.00  0.00     0.010 A 
ATOM     32  C   UNL A   1      40.771  24.891  27.936  1.00  0.00    -0.014 A 
BRANCH  32  33
ATOM     33  C   UNL A   1      41.404  26.185  28.283  1.00  0.00     0.031 A 
ATOM     34  C   UNL A   1      42.798  26.471  27.797  1.00  0.00     0.074 A 
ATOM     35  C   UNL A   1      40.700  27.135  28.923  1.00  0.00     0.049 A 
ATOM     36  N   UNL A   1      43.485  27.584  27.850  1.00  0.00    -0.248 NA
ATOM     37  C   UNL A   1      43.511  25.355  27.155  1.00  0.00     0.031 C 
ATOM     38  C   UNL A   1      39.335  26.979  29.421  1.00  0.00     0.029 A 
ATOM     39  N   UNL A   1      41.031  28.428  29.239  1.00  0.00    -0.354 N 
ATOM     40  C   UNL A   1      44.701  27.307  27.240  1.00  0.00     0.074 A 
ATOM     41  C   UNL A   1      44.676  25.911  26.860  1.00  0.00     0.031 C 
ATOM     42  C   UNL A   1      38.937  28.139  29.970  1.00  0.00     0.029 A 
ATOM     43  C   UNL A   1      40.022  29.113  29.867  1.00  0.00     0.049 A 
ATOM     44  H   UNL A   1      41.908  28.825  29.036  1.00  0.00     0.167 HD
ATOM     45  C   UNL A   1      45.737  28.146  27.001  1.00  0.00     0.037 A 
ATOM     46  C   UNL A   1      39.978  30.388  30.300  1.00  0.00     0.037 A 
ATOM     47  C   UNL A   1      45.762  29.533  27.384  1.00  0.00     0.049 A 
ATOM     48  C   UNL A   1      41.158  31.291  30.052  1.00  0.00     0.074 A 
ATOM     49  C   UNL A   1      46.763  30.468  27.186  1.00  0.00     0.029 A 
ATOM     50  N   UNL A   1      44.735  30.183  28.054  1.00  0.00    -0.354 N 
ATOM     51  N   UNL A   1      42.287  31.031  29.438  1.00  0.00    -0.248 NA
ATOM     52  C   UNL A   1      41.046  32.672  30.542  1.00  0.00     0.031 C 
ATOM     53  C   UNL A   1      46.357  31.674  27.771  1.00  0.00     0.029 A 
ATOM     54  C   UNL A   1      45.085  31.503  28.292  1.00  0.00     0.049 A 
ATOM     55  H   UNL A   1      43.882  29.768  28.320  1.00  0.00     0.167 HD
ATOM     56  C   UNL A   1      43.010  32.217  29.448  1.00  0.00     0.074 A 
ATOM     57  C   UNL A   1      42.181  33.203  30.110  1.00  0.00     0.031 C 
ATOM     58  C   UNL A   1      44.247  32.469  28.954  1.00  0.00     0.037 A 
BRANCH  45  59
ATOM     59  C   UNL A   1      46.939  27.577  26.307  1.00  0.00     0.064 A 
ATOM     60  C   UNL A   1      47.972  26.951  27.020  1.00  0.00     0.173 A 
ATOM     61  C   UNL A   1      47.047  27.635  24.909  1.00  0.00     0.173 A 
ATOM     62  F   UNL A   1      47.923  26.884  28.359  1.00  0.00    -0.203 F 
ATOM     63  C   UNL A   1      49.079  26.422  26.360  1.00  0.00     0.198 A 
ATOM     64  C   UNL A   1      48.143  27.083  24.251  1.00  0.00     0.198 A 
ATOM     65  F   UNL A   1      46.086  28.222  24.181  1.00  0.00    -0.203 F 
ATOM     66  F   UNL A   1      50.074  25.866  27.066  1.00  0.00    -0.200 F 
ATOM     67  C   UNL A   1      49.162  26.483  24.977  1.00  0.00     0.200 A 
ATOM     68  F   UNL A   1      48.217  27.136  22.914  1.00  0.00    -0.200 F 
ATOM     69  F   UNL A   1      50.225  25.970  24.344  1.00  0.00    -0.200 F 
ENDBRANCH  45  59
BRANCH  46  70
ATOM     70  C   UNL A   1      38.765  30.892  30.992  1.00  0.00     0.064 A 
ATOM     71  C   UNL A   1      38.653  30.846  32.388  1.00  0.00     0.173 A 
ATOM     72  C   UNL A   1      37.688  31.424  30.267  1.00  0.00     0.173 A 
ATOM     73  F   UNL A   1      39.646  30.325  33.123  1.00  0.00    -0.203 F 
ATOM     74  C   UNL A   1      37.502  31.296  33.032  1.00  0.00     0.198 A 
ATOM     75  C   UNL A   1      36.549  31.898  30.914  1.00  0.00     0.198 A 
ATOM     76  F   UNL A   1      37.747  31.490  28.929  1.00  0.00    -0.203 F 
ATOM     77  F   UNL A   1      37.402  31.200  34.365  1.00  0.00    -0.200 F 
ATOM     78  C   UNL A   1      36.454  31.827  32.295  1.00  0.00     0.200 A 
ATOM     79  F   UNL A   1      35.544  32.420  30.198  1.00  0.00    -0.200 F 
ATOM     80  F   UNL A   1      35.349  32.264  32.915  1.00  0.00    -0.200 F 
ENDBRANCH  46  70
BRANCH  58  81
ATOM     81  C   UNL A   1      44.764  33.871  29.094  1.00  0.00     0.064 A 
ATOM     82  C   UNL A   1      44.513  34.848  28.120  1.00  0.00     0.173 A 
ATOM     83  C   UNL A   1      45.508  34.244  30.224  1.00  0.00     0.173 A 
ATOM     84  F   UNL A   1      43.817  34.536  27.016  1.00  0.00    -0.203 F 
ATOM     85  C   UNL A   1      45.021  36.137  28.253  1.00  0.00     0.198 A 
ATOM     86  C   UNL A   1      45.990  35.543  30.367  1.00  0.00     0.198 A 
ATOM     87  F   UNL A   1      45.768  33.349  31.189  1.00  0.00    -0.203 F 
ATOM     88  F   UNL A   1      44.818  37.038  27.281  1.00  0.00    -0.200 F 
ATOM     89  C   UNL A   1      45.755  36.485  29.377  1.00  0.00     0.200 A 
ATOM     90  F   UNL A   1      46.689  35.880  31.460  1.00  0.00    -0.200 F 
ATOM     91  F   UNL A   1      46.247  37.725  29.501  1.00  0.00    -0.200 F 
ENDBRANCH  58  81
ENDBRANCH  32  33
ENDBRANCH  25  27
ENDBRANCH  24  25
ENDBRANCH  23  24
ENDBRANCH  22  23
ENDBRANCH  21  22
ENDBRANCH   1  21
TORSDOF 20
ENDMDL
MODEL 2
REMARK VINA RESULT:      -9.6      1.118      2.096
REMARK SMILES CC[NH2+][C@@]1(C(=O)OCCOCCOC(=O)c2ccc(-c3c4nc(c(-c5c(F)c(F)c(F)c(F)c5F)c5ccc([nH]5)c(-c5c(F)c(F)c(F)c(F)c5F)c5nc(c(-c6c(F)c(F)c(F)c(F)c6F)c6ccc3[nH]6)C=C5)C=C4)cc2)CC[C@@H](OCCOC)C1
REMARK SMILES IDX 9 1 8 2 7 3 5 4 6 5 4 6 79 7 87 8 80 9 81 10 3 11 2 14 1 15
REMARK SMILES IDX 82 16 83 17 84 18 85 19 86 20 10 21 11 22 12 23 13 24 14 25
REMARK SMILES IDX 15 26 16 27 17 28 78 29 18 30 77 31 19 32 20 33 21 34 71 35
REMARK SMILES IDX 22 36 76 37 70 38 72 39 23 40 75 41 69 42 68 43 24 45 56 46
REMARK SMILES IDX 36 47 55 48 37 49 40 50 54 51 73 52 38 53 39 54 53 56 74 57
REMARK SMILES IDX 41 58 25 59 26 60 34 61 27 62 28 63 32 64 35 65 29 66 30 67
REMARK SMILES IDX 33 68 31 69 57 70 58 71 66 72 59 73 60 74 64 75 67 76 61 77
REMARK SMILES IDX 62 78 65 79 63 80 42 81 43 82 51 83 44 84 45 85 49 86 52 87
REMARK SMILES IDX 46 88 47 89 50 90 48 91
REMARK H PARENT 3 12 3 13 72 44 40 55
REMARK Flexibility Score: inf
ROOT
ATOM      1  C   UNL A   1      33.749  20.106  25.277  1.00  0.00     0.202 C 
ENDROOT
BRANCH   1   2
ATOM      2  C   UNL A   1      32.566  20.354  24.337  1.00  0.00     0.261 C 
BRANCH   2   3
ATOM      3  O   UNL A   1      32.132  21.721  24.443  1.00  0.00    -0.459 OA
BRANCH   3   4
ATOM      4  C   UNL A   1      32.245  22.477  23.320  1.00  0.00     0.368 C 
ATOM      5  O   UNL A   1      32.494  22.032  22.203  1.00  0.00    -0.245 OA
BRANCH   4   6
ATOM      6  C   UNL A   1      32.027  23.995  23.595  1.00  0.00     0.196 C 
ATOM      7  C   UNL A   1      33.154  24.739  22.864  1.00  0.00     0.084 C 
ATOM      8  C   UNL A   1      32.226  24.496  25.035  1.00  0.00     0.113 C 
ATOM      9  C   UNL A   1      34.349  24.633  23.813  1.00  0.00     0.039 C 
ATOM     10  C   UNL A   1      33.746  24.577  25.226  1.00  0.00     0.125 C 
BRANCH   6  11
ATOM     11  N   UNL A   1      30.711  24.408  23.033  1.00  0.00    -0.332 N 
ATOM     12  H   UNL A   1      30.880  24.981  22.206  1.00  0.00     0.347 HD
ATOM     13  H   UNL A   1      30.199  23.552  22.817  1.00  0.00     0.347 HD
BRANCH  11  14
ATOM     14  C   UNL A   1      29.886  25.178  23.969  1.00  0.00     0.257 C 
ATOM     15  C   UNL A   1      29.608  26.562  23.401  1.00  0.00     0.071 C 
ENDBRANCH  11  14
ENDBRANCH   6  11
BRANCH  10  16
ATOM     16  O   UNL A   1      34.122  25.608  26.138  1.00  0.00    -0.376 OA
BRANCH  16  17
ATOM     17  C   UNL A   1      33.345  26.802  26.101  1.00  0.00     0.189 C 
BRANCH  17  18
ATOM     18  C   UNL A   1      34.136  28.024  25.596  1.00  0.00     0.188 C 
BRANCH  18  19
ATOM     19  O   UNL A   1      33.690  29.294  26.071  1.00  0.00    -0.382 OA
ATOM     20  C   UNL A   1      34.439  29.774  27.185  1.00  0.00     0.195 C 
ENDBRANCH  18  19
ENDBRANCH  17  18
ENDBRANCH  16  17
ENDBRANCH  10  16
ENDBRANCH   4   6
ENDBRANCH   3   4
ENDBRANCH   2   3
ENDBRANCH   1   2
BRANCH   1  21
ATOM     21  O   UNL A   1      35.026  19.994  24.638  1.00  0.00    -0.374 OA
BRANCH  21  22
ATOM     22  C   UNL A   1      35.828  21.172  24.606  1.00  0.00     0.202 C 
BRANCH  22  23
ATOM     23  C   UNL A   1      36.882  21.306  25.710  1.00  0.00     0.261 C 
BRANCH  23  24
ATOM     24  O   UNL A   1      38.158  21.710  25.192  1.00  0.00    -0.460 OA
BRANCH  24  25
ATOM     25  C   UNL A   1      39.199  21.371  25.990  1.00  0.00     0.338 C 
ATOM     26  O   UNL A   1      39.807  20.314  26.006  1.00  0.00    -0.246 OA
BRANCH  25  27
ATOM     27  C   UNL A   1      39.646  22.535  26.776  1.00  0.00     0.060 A 
ATOM     28  C   UNL A   1      39.037  23.759  26.480  1.00  0.00     0.016 A 
ATOM     29  C   UNL A   1      40.689  22.463  27.704  1.00  0.00     0.016 A 
ATOM     30  C   UNL A   1      39.520  24.930  27.052  1.00  0.00     0.010 A 
ATOM     31  C   UNL A   1      41.176  23.645  28.277  1.00  0.00     0.010 A 
ATOM     32  C   UNL A   1      40.624  24.886  27.914  1.00  0.00    -0.014 A 
BRANCH  32  33
ATOM     33  C   UNL A   1      41.265  26.169  28.286  1.00  0.00     0.031 A 
ATOM     34  C   UNL A   1      42.657  26.459  27.798  1.00  0.00     0.074 A 
ATOM     35  C   UNL A   1      40.569  27.108  28.951  1.00  0.00     0.049 A 
ATOM     36  N   UNL A   1      43.350  27.568  27.872  1.00  0.00    -0.248 NA
ATOM     37  C   UNL A   1      43.362  25.355  27.128  1.00  0.00     0.031 C 
ATOM     38  C   UNL A   1      39.206  26.947  29.453  1.00  0.00     0.029 A 
ATOM     39  N   UNL A   1      40.908  28.392  29.293  1.00  0.00    -0.354 N 
ATOM     40  C   UNL A   1      44.561  27.298  27.249  1.00  0.00     0.074 A 
ATOM     41  C   UNL A   1      44.528  25.912  26.839  1.00  0.00     0.031 C 
ATOM     42  C   UNL A   1      38.817  28.097  30.029  1.00  0.00     0.029 A 
ATOM     43  C   UNL A   1      39.905  29.068  29.942  1.00  0.00     0.049 A 
ATOM     44  H   UNL A   1      41.785  28.790  29.094  1.00  0.00     0.167 HD
ATOM     45  C   UNL A   1      45.600  28.138  27.023  1.00  0.00     0.037 A 
ATOM     46  C   UNL A   1      39.870  30.333  30.402  1.00  0.00     0.037 A 
ATOM     47  C   UNL A   1      45.634  29.516  27.436  1.00  0.00     0.049 A 
ATOM     48  C   UNL A   1      41.053  31.236  30.168  1.00  0.00     0.074 A 
ATOM     49  C   UNL A   1      46.638  30.451  27.252  1.00  0.00     0.029 A 
ATOM     50  N   UNL A   1      44.613  30.155  28.125  1.00  0.00    -0.354 N 
ATOM     51  N   UNL A   1      42.177  30.985  29.542  1.00  0.00    -0.248 NA
ATOM     52  C   UNL A   1      40.950  32.606  30.689  1.00  0.00     0.031 C 
ATOM     53  C   UNL A   1      46.241  31.646  27.866  1.00  0.00     0.029 A 
ATOM     54  C   UNL A   1      44.971  31.468  28.390  1.00  0.00     0.049 A 
ATOM     55  H   UNL A   1      43.761  29.739  28.387  1.00  0.00     0.167 HD
ATOM     56  C   UNL A   1      42.905  32.166  29.574  1.00  0.00     0.074 A 
ATOM     57  C   UNL A   1      42.085  33.142  30.262  1.00  0.00     0.031 C 
ATOM     58  C   UNL A   1      44.142  32.424  29.079  1.00  0.00     0.037 A 
BRANCH  45  59
ATOM     59  C   UNL A   1      46.795  27.579  26.309  1.00  0.00     0.064 A 
ATOM     60  C   UNL A   1      47.818  26.911  27.000  1.00  0.00     0.173 A 
ATOM     61  C   UNL A   1      46.908  27.689  24.915  1.00  0.00     0.173 A 
ATOM     62  F   UNL A   1      47.765  26.792  28.335  1.00  0.00    -0.203 F 
ATOM     63  C   UNL A   1      48.919  26.392  26.323  1.00  0.00     0.198 A 
ATOM     64  C   UNL A   1      47.998  27.147  24.239  1.00  0.00     0.198 A 
ATOM     65  F   UNL A   1      45.958  28.318  24.208  1.00  0.00    -0.203 F 
ATOM     66  F   UNL A   1      49.904  25.794  27.008  1.00  0.00    -0.200 F 
ATOM     67  C   UNL A   1      49.005  26.505  24.943  1.00  0.00     0.200 A 
ATOM     68  F   UNL A   1      48.076  27.250  22.905  1.00  0.00    -0.200 F 
ATOM     69  F   UNL A   1      50.063  26.001  24.292  1.00  0.00    -0.200 F 
ENDBRANCH  45  59
BRANCH  46  70
ATOM     70  C   UNL A   1      38.663  30.828  31.112  1.00  0.00     0.064 A 
ATOM     71  C   UNL A   1      37.566  31.341  30.408  1.00  0.00     0.173 A 
ATOM     72  C   UNL A   1      38.588  30.805  32.512  1.00  0.00     0.173 A 
ATOM     73  F   UNL A   1      37.599  31.406  29.068  1.00  0.00    -0.203 F 
ATOM     74  C   UNL A   1      36.446  31.829  31.078  1.00  0.00     0.198 A 
ATOM     75  C   UNL A   1      37.457  31.269  33.180  1.00  0.00     0.198 A 
ATOM     76  F   UNL A   1      39.613  30.323  33.231  1.00  0.00    -0.203 F 
ATOM     77  F   UNL A   1      35.428  32.356  30.383  1.00  0.00    -0.200 F 
ATOM     78  C   UNL A   1      36.391  31.788  32.464  1.00  0.00     0.200 A 
ATOM     79  F   UNL A   1      37.404  31.215  34.518  1.00  0.00    -0.200 F 
ATOM     80  F   UNL A   1      35.312  32.253  33.108  1.00  0.00    -0.200 F 
ENDBRANCH  46  70
BRANCH  58  81
ATOM     81  C   UNL A   1      44.666  33.820  29.247  1.00  0.00     0.064 A 
ATOM     82  C   UNL A   1      44.416  34.819  28.295  1.00  0.00     0.173 A 
ATOM     83  C   UNL A   1      45.416  34.165  30.381  1.00  0.00     0.173 A 
ATOM     84  F   UNL A   1      43.713  34.534  27.187  1.00  0.00    -0.203 F 
ATOM     85  C   UNL A   1      44.930  36.102  28.453  1.00  0.00     0.198 A 
ATOM     86  C   UNL A   1      45.905  35.458  30.550  1.00  0.00     0.198 A 
ATOM     87  F   UNL A   1      45.676  33.249  31.325  1.00  0.00    -0.203 F 
ATOM     88  F   UNL A   1      44.728  37.025  27.502  1.00  0.00    -0.200 F 
ATOM     89  C   UNL A   1      45.670  36.422  29.581  1.00  0.00     0.200 A 
ATOM     90  F   UNL A   1      46.611  35.768  31.646  1.00  0.00    -0.200 F 
ATOM     91  F   UNL A   1      46.169  37.657  29.729  1.00  0.00    -0.200 F 
ENDBRANCH  58  81
ENDBRANCH  32  33
ENDBRANCH  25  27
ENDBRANCH  24  25
ENDBRANCH  23  24
ENDBRANCH  22  23
ENDBRANCH  21  22
ENDBRANCH   1  21
TORSDOF 20
ENDMDL
MODEL 3
REMARK VINA RESULT:      -9.6      2.426      4.354
REMARK SMILES CC[NH2+][C@@]1(C(=O)OCCOCCOC(=O)c2ccc(-c3c4nc(c(-c5c(F)c(F)c(F)c(F)c5F)c5ccc([nH]5)c(-c5c(F)c(F)c(F)c(F)c5F)c5nc(c(-c6c(F)c(F)c(F)c(F)c6F)c6ccc3[nH]6)C=C5)C=C4)cc2)CC[C@@H](OCCOC)C1
REMARK SMILES IDX 9 1 8 2 7 3 5 4 6 5 4 6 79 7 87 8 80 9 81 10 3 11 2 14 1 15
REMARK SMILES IDX 82 16 83 17 84 18 85 19 86 20 10 21 11 22 12 23 13 24 14 25
REMARK SMILES IDX 15 26 16 27 17 28 78 29 18 30 77 31 19 32 20 33 21 34 71 35
REMARK SMILES IDX 22 36 76 37 70 38 72 39 23 40 75 41 69 42 68 43 24 45 56 46
REMARK SMILES IDX 36 47 55 48 37 49 40 50 54 51 73 52 38 53 39 54 53 56 74 57
REMARK SMILES IDX 41 58 25 59 26 60 34 61 27 62 28 63 32 64 35 65 29 66 30 67
REMARK SMILES IDX 33 68 31 69 57 70 58 71 66 72 59 73 60 74 64 75 67 76 61 77
REMARK SMILES IDX 62 78 65 79 63 80 42 81 43 82 51 83 44 84 45 85 49 86 52 87
REMARK SMILES IDX 46 88 47 89 50 90 48 91
REMARK H PARENT 3 12 3 13 72 44 40 55
REMARK Flexibility Score: inf
ROOT
ATOM      1  C   UNL A   1      37.368  22.006  24.746  1.00  0.00     0.202 C 
ENDROOT
BRANCH   1   2
ATOM      2  C   UNL A   1      36.727  22.939  23.715  1.00  0.00     0.261 C 
BRANCH   2   3
ATOM      3  O   UNL A   1      35.297  22.786  23.735  1.00  0.00    -0.459 OA
BRANCH   3   4
ATOM      4  C   UNL A   1      34.628  23.515  24.667  1.00  0.00     0.368 C 
ATOM      5  O   UNL A   1      35.063  24.532  25.199  1.00  0.00    -0.245 OA
BRANCH   4   6
ATOM      6  C   UNL A   1      33.229  22.918  25.002  1.00  0.00     0.196 C 
ATOM      7  C   UNL A   1      33.166  22.782  26.530  1.00  0.00     0.084 C 
ATOM      8  C   UNL A   1      32.945  21.472  24.563  1.00  0.00     0.113 C 
ATOM      9  C   UNL A   1      33.907  21.475  26.821  1.00  0.00     0.039 C 
ATOM     10  C   UNL A   1      33.677  20.591  25.585  1.00  0.00     0.125 C 
BRANCH   6  11
ATOM     11  N   UNL A   1      32.174  23.862  24.542  1.00  0.00    -0.332 N 
ATOM     12  H   UNL A   1      31.322  23.677  25.073  1.00  0.00     0.347 HD
ATOM     13  H   UNL A   1      32.532  24.805  24.694  1.00  0.00     0.347 HD
BRANCH  11  14
ATOM     14  C   UNL A   1      31.863  23.747  23.114  1.00  0.00     0.257 C 
ATOM     15  C   UNL A   1      32.164  25.060  22.407  1.00  0.00     0.071 C 
ENDBRANCH  11  14
ENDBRANCH   6  11
BRANCH  10  16
ATOM     16  O   UNL A   1      33.020  19.340  25.788  1.00  0.00    -0.376 OA
BRANCH  16  17
ATOM     17  C   UNL A   1      32.505  18.697  24.626  1.00  0.00     0.189 C 
BRANCH  17  18
ATOM     18  C   UNL A   1      32.851  17.198  24.560  1.00  0.00     0.188 C 
BRANCH  18  19
ATOM     19  O   UNL A   1      32.759  16.482  25.792  1.00  0.00    -0.382 OA
ATOM     20  C   UNL A   1      32.476  15.096  25.620  1.00  0.00     0.195 C 
ENDBRANCH  18  19
ENDBRANCH  17  18
ENDBRANCH  16  17
ENDBRANCH  10  16
ENDBRANCH   4   6
ENDBRANCH   3   4
ENDBRANCH   2   3
ENDBRANCH   1   2
BRANCH   1  21
ATOM     21  O   UNL A   1      38.078  22.660  25.805  1.00  0.00    -0.374 OA
BRANCH  21  22
ATOM     22  C   UNL A   1      39.175  21.948  26.372  1.00  0.00     0.202 C 
BRANCH  22  23
ATOM     23  C   UNL A   1      39.570  20.641  25.675  1.00  0.00     0.261 C 
BRANCH  23  24
ATOM     24  O   UNL A   1      40.488  19.866  26.462  1.00  0.00    -0.460 OA
BRANCH  24  25
ATOM     25  C   UNL A   1      41.757  19.886  25.989  1.00  0.00     0.338 C 
ATOM     26  O   UNL A   1      42.267  19.108  25.201  1.00  0.00    -0.246 OA
BRANCH  25  27
ATOM     27  C   UNL A   1      42.453  21.107  26.435  1.00  0.00     0.060 A 
ATOM     28  C   UNL A   1      42.527  21.313  27.817  1.00  0.00     0.016 A 
ATOM     29  C   UNL A   1      42.934  22.069  25.543  1.00  0.00     0.016 A 
ATOM     30  C   UNL A   1      43.011  22.518  28.312  1.00  0.00     0.010 A 
ATOM     31  C   UNL A   1      43.419  23.283  26.044  1.00  0.00     0.010 A 
ATOM     32  C   UNL A   1      43.413  23.529  27.429  1.00  0.00    -0.014 A 
BRANCH  32  33
ATOM     33  C   UNL A   1      43.668  24.878  27.987  1.00  0.00     0.031 A 
ATOM     34  C   UNL A   1      45.087  25.354  28.133  1.00  0.00     0.074 A 
ATOM     35  C   UNL A   1      42.643  25.708  28.249  1.00  0.00     0.049 A 
ATOM     36  N   UNL A   1      45.537  26.541  28.452  1.00  0.00    -0.248 NA
ATOM     37  C   UNL A   1      46.142  24.360  27.876  1.00  0.00     0.031 C 
ATOM     38  C   UNL A   1      41.228  25.364  28.124  1.00  0.00     0.029 A 
ATOM     39  N   UNL A   1      42.640  27.019  28.652  1.00  0.00    -0.354 N 
ATOM     40  C   UNL A   1      46.922  26.440  28.421  1.00  0.00     0.074 A 
ATOM     41  C   UNL A   1      47.240  25.068  28.093  1.00  0.00     0.031 C 
ATOM     42  C   UNL A   1      40.490  26.445  28.430  1.00  0.00     0.029 A 
ATOM     43  C   UNL A   1      41.380  27.549  28.779  1.00  0.00     0.049 A 
ATOM     44  H   UNL A   1      43.461  27.530  28.832  1.00  0.00     0.167 HD
ATOM     45  C   UNL A   1      47.844  27.411  28.629  1.00  0.00     0.037 A 
ATOM     46  C   UNL A   1      40.994  28.792  29.127  1.00  0.00     0.037 A 
ATOM     47  C   UNL A   1      47.525  28.775  28.960  1.00  0.00     0.049 A 
ATOM     48  C   UNL A   1      42.041  29.844  29.386  1.00  0.00     0.074 A 
ATOM     49  C   UNL A   1      48.386  29.834  29.187  1.00  0.00     0.029 A 
ATOM     50  N   UNL A   1      46.237  29.265  29.117  1.00  0.00    -0.354 N 
ATOM     51  N   UNL A   1      43.347  29.749  29.315  1.00  0.00    -0.248 NA
ATOM     52  C   UNL A   1      41.555  31.180  29.757  1.00  0.00     0.031 C 
ATOM     53  C   UNL A   1      47.620  30.957  29.521  1.00  0.00     0.029 A 
ATOM     54  C   UNL A   1      46.281  30.609  29.456  1.00  0.00     0.049 A 
ATOM     55  H   UNL A   1      45.414  28.738  29.004  1.00  0.00     0.167 HD
ATOM     56  C   UNL A   1      43.838  31.015  29.608  1.00  0.00     0.074 A 
ATOM     57  C   UNL A   1      42.687  31.865  29.837  1.00  0.00     0.031 C 
ATOM     58  C   UNL A   1      45.124  31.438  29.682  1.00  0.00     0.037 A 
BRANCH  45  59
ATOM     59  C   UNL A   1      49.289  27.023  28.521  1.00  0.00     0.064 A 
ATOM     60  C   UNL A   1      50.006  26.543  29.628  1.00  0.00     0.173 A 
ATOM     61  C   UNL A   1      49.959  27.106  27.291  1.00  0.00     0.173 A 
ATOM     62  F   UNL A   1      49.415  26.460  30.829  1.00  0.00    -0.203 F 
ATOM     63  C   UNL A   1      51.345  26.181  29.511  1.00  0.00     0.198 A 
ATOM     64  C   UNL A   1      51.291  26.718  27.173  1.00  0.00     0.198 A 
ATOM     65  F   UNL A   1      49.318  27.556  26.202  1.00  0.00    -0.203 F 
ATOM     66  F   UNL A   1      52.022  25.766  30.591  1.00  0.00    -0.200 F 
ATOM     67  C   UNL A   1      51.985  26.263  28.283  1.00  0.00     0.200 A 
ATOM     68  F   UNL A   1      51.905  26.791  25.983  1.00  0.00    -0.200 F 
ATOM     69  F   UNL A   1      53.273  25.910  28.171  1.00  0.00    -0.200 F 
ENDBRANCH  45  59
BRANCH  46  70
ATOM     70  C   UNL A   1      39.548  29.115  29.229  1.00  0.00     0.064 A 
ATOM     71  C   UNL A   1      38.876  29.056  30.457  1.00  0.00     0.173 A 
ATOM     72  C   UNL A   1      38.809  29.482  28.095  1.00  0.00     0.173 A 
ATOM     73  F   UNL A   1      39.535  28.687  31.565  1.00  0.00    -0.203 F 
ATOM     74  C   UNL A   1      37.513  29.334  30.544  1.00  0.00     0.198 A 
ATOM     75  C   UNL A   1      37.452  29.785  28.188  1.00  0.00     0.198 A 
ATOM     76  F   UNL A   1      39.407  29.553  26.898  1.00  0.00    -0.203 F 
ATOM     77  F   UNL A   1      36.883  29.227  31.722  1.00  0.00    -0.200 F 
ATOM     78  C   UNL A   1      36.804  29.703  29.410  1.00  0.00     0.200 A 
ATOM     79  F   UNL A   1      36.774  30.153  27.093  1.00  0.00    -0.200 F 
ATOM     80  F   UNL A   1      35.494  29.975  29.495  1.00  0.00    -0.200 F 
ENDBRANCH  46  70
BRANCH  58  81
ATOM     81  C   UNL A   1      45.348  32.887  30.001  1.00  0.00     0.064 A 
ATOM     82  C   UNL A   1      45.512  33.332  31.320  1.00  0.00     0.173 A 
ATOM     83  C   UNL A   1      45.412  33.839  28.972  1.00  0.00     0.173 A 
ATOM     84  F   UNL A   1      45.447  32.461  32.339  1.00  0.00    -0.203 F 
ATOM     85  C   UNL A   1      45.694  34.683  31.602  1.00  0.00     0.198 A 
ATOM     86  C   UNL A   1      45.623  35.186  29.256  1.00  0.00     0.198 A 
ATOM     87  F   UNL A   1      45.269  33.464  27.693  1.00  0.00    -0.203 F 
ATOM     88  F   UNL A   1      45.790  35.094  32.874  1.00  0.00    -0.200 F 
ATOM     89  C   UNL A   1      45.753  35.608  30.571  1.00  0.00     0.200 A 
ATOM     90  F   UNL A   1      45.690  36.077  28.256  1.00  0.00    -0.200 F 
ATOM     91  F   UNL A   1      45.923  36.909  30.844  1.00  0.00    -0.200 F 
ENDBRANCH  58  81
ENDBRANCH  32  33
ENDBRANCH  25  27
ENDBRANCH  24  25
ENDBRANCH  23  24
ENDBRANCH  22  23
ENDBRANCH  21  22
ENDBRANCH   1  21
TORSDOF 20
ENDMDL
