MODEL 1
REMARK VINA RESULT:     -11.7      0.000      0.000
REMARK SMILES Cc1ccc(N2CC[C@H]([NH+]3CCOCC3)[C@H](CCC(=O)OCCOCCOC(=O)c3ccc(-c4c5nc(c(-c6c(F)c(F)c(F)c(F)c6F)c6ccc([nH]6)c(-c6c(F)c(F)c(F)c(F)c6F)c6nc(c(-c7c(F)c(F)c(F)c(F)c7F)c7ccc4[nH]7)C=C6)C=C5)cc3)C2)nc1
REMARK SMILES IDX 23 1 22 2 21 3 19 4 20 5 18 6 17 7 16 8 6 9 7 10 93 11 8 12
REMARK SMILES IDX 9 13 5 14 1 15 2 16 3 17 95 18 4 19 94 20 10 21 11 22 15 23
REMARK SMILES IDX 12 25 14 26 13 27 24 28 25 29 26 30 27 31 28 32 29 33 30 34
REMARK SMILES IDX 31 35 92 36 32 37 91 38 33 39 34 40 35 41 85 42 36 43 90 44
REMARK SMILES IDX 84 45 86 46 37 47 89 48 83 49 82 50 38 52 70 53 50 54 69 55
REMARK SMILES IDX 51 56 54 57 68 58 87 59 52 60 53 61 67 63 88 64 55 65 39 66
REMARK SMILES IDX 40 67 48 68 41 69 42 70 46 71 49 72 43 73 44 74 47 75 45 76
REMARK SMILES IDX 71 77 72 78 80 79 73 80 74 81 78 82 81 83 75 84 76 85 79 86
REMARK SMILES IDX 77 87 56 88 57 89 65 90 58 91 59 92 63 93 66 94 60 95 61 96
REMARK SMILES IDX 64 97 62 98
REMARK H PARENT 10 24 86 51 54 62
REMARK Flexibility Score: inf
ROOT
ATOM      1  C   UNL A   1      35.919  23.542  24.096  1.00  0.00     0.202 C 
ENDROOT
BRANCH   1   2
ATOM      2  C   UNL A   1      34.650  23.864  23.305  1.00  0.00     0.261 C 
BRANCH   2   3
ATOM      3  O   UNL A   1      34.104  25.121  23.738  1.00  0.00    -0.463 OA
BRANCH   3   4
ATOM      4  C   UNL A   1      33.725  25.959  22.742  1.00  0.00     0.305 C 
ATOM      5  O   UNL A   1      33.641  25.651  21.558  1.00  0.00    -0.252 OA
BRANCH   4   6
ATOM      6  C   UNL A   1      33.242  27.293  23.263  1.00  0.00     0.123 C 
BRANCH   6   7
ATOM      7  C   UNL A   1      32.821  27.460  24.725  1.00  0.00     0.023 C 
BRANCH   7   8
ATOM      8  C   UNL A   1      31.452  28.043  25.176  1.00  0.00     0.067 C 
ATOM      9  N   UNL A   1      30.262  25.848  25.404  1.00  0.00    -0.356 N 
ATOM     10  C   UNL A   1      29.307  26.141  24.351  1.00  0.00     0.124 C 
ATOM     11  C   UNL A   1      30.816  26.979  26.144  1.00  0.00     0.127 C 
ATOM     12  C   UNL A   1      29.872  27.155  23.363  1.00  0.00     0.087 C 
ATOM     13  C   UNL A   1      30.342  28.413  24.112  1.00  0.00     0.190 C 
BRANCH   9  14
ATOM     14  C   UNL A   1      30.959  24.660  25.274  1.00  0.00     0.128 A 
ATOM     15  C   UNL A   1      32.688  20.765  24.979  1.00  0.00     0.046 C 
ATOM     16  C   UNL A   1      32.117  22.140  25.115  1.00  0.00    -0.033 A 
ATOM     17  C   UNL A   1      32.339  22.931  26.239  1.00  0.00     0.009 A 
ATOM     18  C   UNL A   1      31.341  22.688  24.106  1.00  0.00     0.117 A 
ATOM     19  C   UNL A   1      31.767  24.203  26.312  1.00  0.00     0.047 A 
ATOM     20  N   UNL A   1      30.755  23.905  24.173  1.00  0.00    -0.239 NA
ENDBRANCH   9  14
BRANCH  13  21
ATOM     21  N   UNL A   1      30.492  29.646  23.308  1.00  0.00    -0.328 N 
ATOM     22  C   UNL A   1      30.064  30.892  23.999  1.00  0.00     0.291 C 
ATOM     23  C   UNL A   1      29.994  29.708  21.938  1.00  0.00     0.291 C 
ATOM     24  H   UNL A   1      31.506  29.583  23.214  1.00  0.00     0.348 HD
ATOM     25  C   UNL A   1      28.611  31.361  23.732  1.00  0.00     0.221 C 
ATOM     26  C   UNL A   1      28.521  30.075  21.775  1.00  0.00     0.221 C 
ATOM     27  O   UNL A   1      28.273  31.361  22.343  1.00  0.00    -0.370 OA
ENDBRANCH  13  21
ENDBRANCH   7   8
ENDBRANCH   6   7
ENDBRANCH   4   6
ENDBRANCH   3   4
ENDBRANCH   2   3
ENDBRANCH   1   2
BRANCH   1  28
ATOM     28  O   UNL A   1      36.572  22.305  23.806  1.00  0.00    -0.374 OA
BRANCH  28  29
ATOM     29  C   UNL A   1      36.339  21.199  24.672  1.00  0.00     0.202 C 
BRANCH  29  30
ATOM     30  C   UNL A   1      37.551  20.573  25.382  1.00  0.00     0.261 C 
BRANCH  30  31
ATOM     31  O   UNL A   1      38.778  21.305  25.226  1.00  0.00    -0.460 OA
BRANCH  31  32
ATOM     32  C   UNL A   1      39.685  21.070  26.206  1.00  0.00     0.338 C 
ATOM     33  O   UNL A   1      40.249  20.015  26.459  1.00  0.00    -0.246 OA
BRANCH  32  34
ATOM     34  C   UNL A   1      40.043  22.314  26.906  1.00  0.00     0.060 A 
ATOM     35  C   UNL A   1      39.410  23.489  26.485  1.00  0.00     0.016 A 
ATOM     36  C   UNL A   1      41.080  22.360  27.841  1.00  0.00     0.016 A 
ATOM     37  C   UNL A   1      39.848  24.723  26.958  1.00  0.00     0.010 A 
ATOM     38  C   UNL A   1      41.524  23.604  28.311  1.00  0.00     0.010 A 
ATOM     39  C   UNL A   1      40.937  24.792  27.838  1.00  0.00    -0.014 A 
BRANCH  39  40
ATOM     40  C   UNL A   1      41.528  26.122  28.135  1.00  0.00     0.031 A 
ATOM     41  C   UNL A   1      42.902  26.450  27.619  1.00  0.00     0.074 A 
ATOM     42  C   UNL A   1      40.816  27.054  28.792  1.00  0.00     0.049 A 
ATOM     43  N   UNL A   1      43.571  27.574  27.695  1.00  0.00    -0.248 NA
ATOM     44  C   UNL A   1      43.618  25.371  26.920  1.00  0.00     0.031 C 
ATOM     45  C   UNL A   1      39.467  26.867  29.319  1.00  0.00     0.029 A 
ATOM     46  N   UNL A   1      41.130  28.350  29.117  1.00  0.00    -0.354 N 
ATOM     47  C   UNL A   1      44.779  27.339  27.051  1.00  0.00     0.074 A 
ATOM     48  C   UNL A   1      44.767  25.959  26.618  1.00  0.00     0.031 C 
ATOM     49  C   UNL A   1      39.066  28.008  29.904  1.00  0.00     0.029 A 
ATOM     50  C   UNL A   1      40.135  29.000  29.804  1.00  0.00     0.049 A 
ATOM     51  H   UNL A   1      41.986  28.773  28.880  1.00  0.00     0.167 HD
ATOM     52  C   UNL A   1      45.799  28.201  26.828  1.00  0.00     0.037 A 
ATOM     53  C   UNL A   1      40.097  30.252  30.300  1.00  0.00     0.037 A 
ATOM     54  C   UNL A   1      45.813  29.577  27.250  1.00  0.00     0.049 A 
ATOM     55  C   UNL A   1      41.265  31.176  30.079  1.00  0.00     0.074 A 
ATOM     56  C   UNL A   1      46.787  30.536  27.036  1.00  0.00     0.029 A 
ATOM     57  N   UNL A   1      44.806  30.187  27.981  1.00  0.00    -0.354 N 
ATOM     58  N   UNL A   1      42.382  30.958  29.428  1.00  0.00    -0.248 NA
ATOM     59  C   UNL A   1      41.162  32.524  30.657  1.00  0.00     0.031 C 
ATOM     60  C   UNL A   1      46.389  31.715  27.677  1.00  0.00     0.029 A 
ATOM     61  C   UNL A   1      45.148  31.502  28.253  1.00  0.00     0.049 A 
ATOM     62  H   UNL A   1      43.969  29.751  28.265  1.00  0.00     0.167 HD
ATOM     63  C   UNL A   1      43.104  32.142  29.502  1.00  0.00     0.074 A 
ATOM     64  C   UNL A   1      42.293  33.082  30.245  1.00  0.00     0.031 C 
ATOM     65  C   UNL A   1      44.332  32.424  29.000  1.00  0.00     0.037 A 
BRANCH  52  66
ATOM     66  C   UNL A   1      47.004  27.677  26.103  1.00  0.00     0.064 A 
ATOM     67  C   UNL A   1      47.097  27.723  24.704  1.00  0.00     0.173 A 
ATOM     68  C   UNL A   1      48.095  27.164  26.819  1.00  0.00     0.173 A 
ATOM     69  F   UNL A   1      46.074  28.194  23.975  1.00  0.00    -0.203 F 
ATOM     70  C   UNL A   1      48.233  27.257  24.047  1.00  0.00     0.198 A 
ATOM     71  C   UNL A   1      49.239  26.720  26.161  1.00  0.00     0.198 A 
ATOM     72  F   UNL A   1      48.056  27.101  28.159  1.00  0.00    -0.203 F 
ATOM     73  F   UNL A   1      48.288  27.279  22.709  1.00  0.00    -0.200 F 
ATOM     74  C   UNL A   1      49.305  26.763  24.777  1.00  0.00     0.200 A 
ATOM     75  F   UNL A   1      50.277  26.252  26.867  1.00  0.00    -0.200 F 
ATOM     76  F   UNL A   1      50.401  26.323  24.143  1.00  0.00    -0.200 F 
ENDBRANCH  52  66
BRANCH  53  77
ATOM     77  C   UNL A   1      38.906  30.706  31.062  1.00  0.00     0.064 A 
ATOM     78  C   UNL A   1      37.818  31.308  30.418  1.00  0.00     0.173 A 
ATOM     79  C   UNL A   1      38.841  30.556  32.455  1.00  0.00     0.173 A 
ATOM     80  F   UNL A   1      37.846  31.497  29.090  1.00  0.00    -0.203 F 
ATOM     81  C   UNL A   1      36.714  31.758  31.140  1.00  0.00     0.198 A 
ATOM     82  C   UNL A   1      37.727  30.983  33.174  1.00  0.00     0.198 A 
ATOM     83  F   UNL A   1      39.859  29.989  33.117  1.00  0.00    -0.203 F 
ATOM     84  F   UNL A   1      35.704  32.369  30.505  1.00  0.00    -0.200 F 
ATOM     85  C   UNL A   1      36.666  31.590  32.516  1.00  0.00     0.200 A 
ATOM     86  F   UNL A   1      37.681  30.812  34.501  1.00  0.00    -0.200 F 
ATOM     87  F   UNL A   1      35.604  32.021  33.209  1.00  0.00    -0.200 F 
ENDBRANCH  53  77
BRANCH  65  88
ATOM     88  C   UNL A   1      44.866  33.807  29.230  1.00  0.00     0.064 A 
ATOM     89  C   UNL A   1      44.585  34.856  28.343  1.00  0.00     0.173 A 
ATOM     90  C   UNL A   1      45.639  34.094  30.365  1.00  0.00     0.173 A 
ATOM     91  F   UNL A   1      43.863  34.629  27.236  1.00  0.00    -0.203 F 
ATOM     92  C   UNL A   1      45.081  36.138  28.571  1.00  0.00     0.198 A 
ATOM     93  C   UNL A   1      46.111  35.382  30.603  1.00  0.00     0.198 A 
ATOM     94  F   UNL A   1      45.929  33.127  31.248  1.00  0.00    -0.203 F 
ATOM     95  F   UNL A   1      44.838  37.115  27.686  1.00  0.00    -0.200 F 
ATOM     96  C   UNL A   1      45.838  36.401  29.703  1.00  0.00     0.200 A 
ATOM     97  F   UNL A   1      46.833  35.637  31.703  1.00  0.00    -0.200 F 
ATOM     98  F   UNL A   1      46.312  37.635  29.922  1.00  0.00    -0.200 F 
ENDBRANCH  65  88
ENDBRANCH  39  40
ENDBRANCH  32  34
ENDBRANCH  31  32
ENDBRANCH  30  31
ENDBRANCH  29  30
ENDBRANCH  28  29
ENDBRANCH   1  28
TORSDOF 18
ENDMDL
MODEL 2
REMARK VINA RESULT:     -11.6      4.612     10.317
REMARK SMILES Cc1ccc(N2CC[C@H]([NH+]3CCOCC3)[C@H](CCC(=O)OCCOCCOC(=O)c3ccc(-c4c5nc(c(-c6c(F)c(F)c(F)c(F)c6F)c6ccc([nH]6)c(-c6c(F)c(F)c(F)c(F)c6F)c6nc(c(-c7c(F)c(F)c(F)c(F)c7F)c7ccc4[nH]7)C=C6)C=C5)cc3)C2)nc1
REMARK SMILES IDX 23 1 22 2 21 3 19 4 20 5 18 6 17 7 16 8 6 9 7 10 93 11 8 12
REMARK SMILES IDX 9 13 5 14 1 15 2 16 3 17 95 18 4 19 94 20 10 21 11 22 15 23
REMARK SMILES IDX 12 25 14 26 13 27 24 28 25 29 26 30 27 31 28 32 29 33 30 34
REMARK SMILES IDX 31 35 92 36 32 37 91 38 33 39 34 40 35 41 85 42 36 43 90 44
REMARK SMILES IDX 84 45 86 46 37 47 89 48 83 49 82 50 38 52 70 53 50 54 69 55
REMARK SMILES IDX 51 56 54 57 68 58 87 59 52 60 53 61 67 63 88 64 55 65 39 66
REMARK SMILES IDX 40 67 48 68 41 69 42 70 46 71 49 72 43 73 44 74 47 75 45 76
REMARK SMILES IDX 71 77 72 78 80 79 73 80 74 81 78 82 81 83 75 84 76 85 79 86
REMARK SMILES IDX 77 87 56 88 57 89 65 90 58 91 59 92 63 93 66 94 60 95 61 96
REMARK SMILES IDX 64 97 62 98
REMARK H PARENT 10 24 86 51 54 62
REMARK Flexibility Score: inf
ROOT
ATOM      1  C   UNL A   1      33.173  30.689  27.621  1.00  0.00     0.202 C 
ENDROOT
BRANCH   1   2
ATOM      2  C   UNL A   1      34.497  30.371  26.924  1.00  0.00     0.261 C 
BRANCH   2   3
ATOM      3  O   UNL A   1      34.764  28.960  26.990  1.00  0.00    -0.463 OA
BRANCH   3   4
ATOM      4  C   UNL A   1      33.875  28.175  26.334  1.00  0.00     0.305 C 
ATOM      5  O   UNL A   1      33.061  27.432  26.873  1.00  0.00    -0.252 OA
BRANCH   4   6
ATOM      6  C   UNL A   1      33.866  28.433  24.845  1.00  0.00     0.123 C 
BRANCH   6   7
ATOM      7  C   UNL A   1      32.596  28.220  24.019  1.00  0.00     0.023 C 
BRANCH   7   8
ATOM      8  C   UNL A   1      32.145  26.843  23.453  1.00  0.00     0.067 C 
ATOM      9  N   UNL A   1      29.862  27.566  22.711  1.00  0.00    -0.356 N 
ATOM     10  C   UNL A   1      29.172  26.683  23.634  1.00  0.00     0.124 C 
ATOM     11  C   UNL A   1      31.185  27.153  22.247  1.00  0.00     0.127 C 
ATOM     12  C   UNL A   1      30.046  26.359  24.841  1.00  0.00     0.087 C 
ATOM     13  C   UNL A   1      31.398  25.797  24.374  1.00  0.00     0.190 C 
BRANCH   9  14
ATOM     14  C   UNL A   1      29.501  28.901  22.767  1.00  0.00     0.128 A 
ATOM     15  C   UNL A   1      28.795  33.112  22.681  1.00  0.00     0.046 C 
ATOM     16  C   UNL A   1      29.040  31.640  22.760  1.00  0.00    -0.033 A 
ATOM     17  C   UNL A   1      29.531  31.026  23.909  1.00  0.00     0.009 A 
ATOM     18  C   UNL A   1      28.773  30.819  21.676  1.00  0.00     0.117 A 
ATOM     19  C   UNL A   1      29.750  29.646  23.916  1.00  0.00     0.047 A 
ATOM     20  N   UNL A   1      29.007  29.487  21.655  1.00  0.00    -0.239 NA
ENDBRANCH   9  14
BRANCH  13  21
ATOM     21  N   UNL A   1      32.175  25.025  25.369  1.00  0.00    -0.328 N 
ATOM     22  C   UNL A   1      33.143  24.058  24.786  1.00  0.00     0.291 C 
ATOM     23  C   UNL A   1      31.506  24.360  26.484  1.00  0.00     0.291 C 
ATOM     24  H   UNL A   1      32.636  25.833  25.787  1.00  0.00     0.348 HD
ATOM     25  C   UNL A   1      32.644  22.600  24.620  1.00  0.00     0.221 C 
ATOM     26  C   UNL A   1      30.951  22.967  26.199  1.00  0.00     0.221 C 
ATOM     27  O   UNL A   1      32.007  22.094  25.796  1.00  0.00    -0.370 OA
ENDBRANCH  13  21
ENDBRANCH   7   8
ENDBRANCH   6   7
ENDBRANCH   4   6
ENDBRANCH   3   4
ENDBRANCH   2   3
ENDBRANCH   1   2
BRANCH   1  28
ATOM     28  O   UNL A   1      32.047  30.969  26.786  1.00  0.00    -0.374 OA
BRANCH  28  29
ATOM     29  C   UNL A   1      31.516  32.290  26.789  1.00  0.00     0.202 C 
BRANCH  29  30
ATOM     30  C   UNL A   1      32.446  33.438  27.215  1.00  0.00     0.261 C 
BRANCH  30  31
ATOM     31  O   UNL A   1      32.261  33.886  28.568  1.00  0.00    -0.460 OA
BRANCH  31  32
ATOM     32  C   UNL A   1      32.967  35.001  28.878  1.00  0.00     0.338 C 
ATOM     33  O   UNL A   1      32.647  36.164  28.677  1.00  0.00    -0.246 OA
BRANCH  32  34
ATOM     34  C   UNL A   1      34.181  34.666  29.639  1.00  0.00     0.060 A 
ATOM     35  C   UNL A   1      35.383  34.595  28.925  1.00  0.00     0.016 A 
ATOM     36  C   UNL A   1      34.126  34.278  30.979  1.00  0.00     0.016 A 
ATOM     37  C   UNL A   1      36.526  34.085  29.535  1.00  0.00     0.010 A 
ATOM     38  C   UNL A   1      35.277  33.758  31.590  1.00  0.00     0.010 A 
ATOM     39  C   UNL A   1      36.469  33.621  30.856  1.00  0.00    -0.014 A 
BRANCH  39  40
ATOM     40  C   UNL A   1      37.630  32.870  31.396  1.00  0.00     0.031 A 
ATOM     41  C   UNL A   1      38.159  33.212  32.763  1.00  0.00     0.074 A 
ATOM     42  C   UNL A   1      38.159  31.843  30.708  1.00  0.00     0.049 A 
ATOM     43  N   UNL A   1      39.109  32.631  33.454  1.00  0.00    -0.248 NA
ATOM     44  C   UNL A   1      37.532  34.355  33.444  1.00  0.00     0.031 C 
ATOM     45  C   UNL A   1      37.719  31.398  29.388  1.00  0.00     0.029 A 
ATOM     46  N   UNL A   1      39.176  30.981  31.035  1.00  0.00    -0.354 N 
ATOM     47  C   UNL A   1      39.189  33.334  34.650  1.00  0.00     0.074 A 
ATOM     48  C   UNL A   1      38.216  34.403  34.579  1.00  0.00     0.031 C 
ATOM     49  C   UNL A   1      38.463  30.344  29.014  1.00  0.00     0.029 A 
ATOM     50  C   UNL A   1      39.440  30.050  30.061  1.00  0.00     0.049 A 
ATOM     51  H   UNL A   1      39.670  31.027  31.885  1.00  0.00     0.167 HD
ATOM     52  C   UNL A   1      39.991  33.099  35.716  1.00  0.00     0.037 A 
ATOM     53  C   UNL A   1      40.368  29.074  30.020  1.00  0.00     0.037 A 
ATOM     54  C   UNL A   1      40.955  32.034  35.794  1.00  0.00     0.049 A 
ATOM     55  C   UNL A   1      41.280  28.865  31.200  1.00  0.00     0.074 A 
ATOM     56  C   UNL A   1      41.785  31.696  36.848  1.00  0.00     0.029 A 
ATOM     57  N   UNL A   1      41.222  31.138  34.771  1.00  0.00    -0.354 N 
ATOM     58  N   UNL A   1      41.314  29.505  32.344  1.00  0.00    -0.248 NA
ATOM     59  C   UNL A   1      42.276  27.791  31.085  1.00  0.00     0.031 C 
ATOM     60  C   UNL A   1      42.588  30.622  36.446  1.00  0.00     0.029 A 
ATOM     61  C   UNL A   1      42.227  30.265  35.158  1.00  0.00     0.049 A 
ATOM     62  H   UNL A   1      40.766  31.122  33.899  1.00  0.00     0.167 HD
ATOM     63  C   UNL A   1      42.320  28.903  33.089  1.00  0.00     0.074 A 
ATOM     64  C   UNL A   1      42.859  27.833  32.276  1.00  0.00     0.031 C 
ATOM     65  C   UNL A   1      42.758  29.209  34.335  1.00  0.00     0.037 A 
BRANCH  52  66
ATOM     66  C   UNL A   1      39.873  34.028  36.889  1.00  0.00     0.064 A 
ATOM     67  C   UNL A   1      39.055  33.723  37.987  1.00  0.00     0.173 A 
ATOM     68  C   UNL A   1      40.622  35.213  36.933  1.00  0.00     0.173 A 
ATOM     69  F   UNL A   1      38.311  32.607  37.986  1.00  0.00    -0.203 F 
ATOM     70  C   UNL A   1      38.978  34.582  39.081  1.00  0.00     0.198 A 
ATOM     71  C   UNL A   1      40.559  36.058  38.038  1.00  0.00     0.198 A 
ATOM     72  F   UNL A   1      41.421  35.547  35.909  1.00  0.00    -0.203 F 
ATOM     73  F   UNL A   1      38.165  34.289  40.104  1.00  0.00    -0.200 F 
ATOM     74  C   UNL A   1      39.735  35.744  39.108  1.00  0.00     0.200 A 
ATOM     75  F   UNL A   1      41.298  37.175  38.067  1.00  0.00    -0.200 F 
ATOM     76  F   UNL A   1      39.665  36.566  40.165  1.00  0.00    -0.200 F 
ENDBRANCH  52  66
BRANCH  53  77
ATOM     77  C   UNL A   1      40.485  28.219  28.812  1.00  0.00     0.064 A 
ATOM     78  C   UNL A   1      41.308  28.585  27.740  1.00  0.00     0.173 A 
ATOM     79  C   UNL A   1      39.764  27.021  28.705  1.00  0.00     0.173 A 
ATOM     80  F   UNL A   1      41.997  29.735  27.787  1.00  0.00    -0.203 F 
ATOM     81  C   UNL A   1      41.394  27.793  26.596  1.00  0.00     0.198 A 
ATOM     82  C   UNL A   1      39.869  26.217  27.572  1.00  0.00     0.198 A 
ATOM     83  F   UNL A   1      38.960  26.629  29.704  1.00  0.00    -0.203 F 
ATOM     84  F   UNL A   1      42.155  28.187  25.566  1.00  0.00    -0.200 F 
ATOM     85  C   UNL A   1      40.679  26.607  26.516  1.00  0.00     0.200 A 
ATOM     86  F   UNL A   1      39.184  25.068  27.502  1.00  0.00    -0.200 F 
ATOM     87  F   UNL A   1      40.764  25.845  25.417  1.00  0.00    -0.200 F 
ENDBRANCH  53  77
BRANCH  65  88
ATOM     88  C   UNL A   1      43.869  28.371  34.897  1.00  0.00     0.064 A 
ATOM     89  C   UNL A   1      43.608  27.174  35.580  1.00  0.00     0.173 A 
ATOM     90  C   UNL A   1      45.208  28.751  34.723  1.00  0.00     0.173 A 
ATOM     91  F   UNL A   1      42.344  26.776  35.785  1.00  0.00    -0.203 F 
ATOM     92  C   UNL A   1      44.648  26.402  36.091  1.00  0.00     0.198 A 
ATOM     93  C   UNL A   1      46.245  27.963  35.213  1.00  0.00     0.198 A 
ATOM     94  F   UNL A   1      45.510  29.884  34.071  1.00  0.00    -0.203 F 
ATOM     95  F   UNL A   1      44.373  25.285  36.780  1.00  0.00    -0.200 F 
ATOM     96  C   UNL A   1      45.965  26.793  35.902  1.00  0.00     0.200 A 
ATOM     97  F   UNL A   1      47.518  28.337  35.020  1.00  0.00    -0.200 F 
ATOM     98  F   UNL A   1      46.964  26.046  36.393  1.00  0.00    -0.200 F 
ENDBRANCH  65  88
ENDBRANCH  39  40
ENDBRANCH  32  34
ENDBRANCH  31  32
ENDBRANCH  30  31
ENDBRANCH  29  30
ENDBRANCH  28  29
ENDBRANCH   1  28
TORSDOF 18
ENDMDL
MODEL 3
REMARK VINA RESULT:     -11.6      1.031      2.152
REMARK SMILES Cc1ccc(N2CC[C@H]([NH+]3CCOCC3)[C@H](CCC(=O)OCCOCCOC(=O)c3ccc(-c4c5nc(c(-c6c(F)c(F)c(F)c(F)c6F)c6ccc([nH]6)c(-c6c(F)c(F)c(F)c(F)c6F)c6nc(c(-c7c(F)c(F)c(F)c(F)c7F)c7ccc4[nH]7)C=C6)C=C5)cc3)C2)nc1
REMARK SMILES IDX 23 1 22 2 21 3 19 4 20 5 18 6 17 7 16 8 6 9 7 10 93 11 8 12
REMARK SMILES IDX 9 13 5 14 1 15 2 16 3 17 95 18 4 19 94 20 10 21 11 22 15 23
REMARK SMILES IDX 12 25 14 26 13 27 24 28 25 29 26 30 27 31 28 32 29 33 30 34
REMARK SMILES IDX 31 35 92 36 32 37 91 38 33 39 34 40 35 41 85 42 36 43 90 44
REMARK SMILES IDX 84 45 86 46 37 47 89 48 83 49 82 50 38 52 70 53 50 54 69 55
REMARK SMILES IDX 51 56 54 57 68 58 87 59 52 60 53 61 67 63 88 64 55 65 39 66
REMARK SMILES IDX 40 67 48 68 41 69 42 70 46 71 49 72 43 73 44 74 47 75 45 76
REMARK SMILES IDX 71 77 72 78 80 79 73 80 74 81 78 82 81 83 75 84 76 85 79 86
REMARK SMILES IDX 77 87 56 88 57 89 65 90 58 91 59 92 63 93 66 94 60 95 61 96
REMARK SMILES IDX 64 97 62 98
REMARK H PARENT 10 24 86 51 54 62
REMARK Flexibility Score: inf
ROOT
ATOM      1  C   UNL A   1      34.573  22.154  23.810  1.00  0.00     0.202 C 
ENDROOT
BRANCH   1   2
ATOM      2  C   UNL A   1      33.220  22.422  23.148  1.00  0.00     0.261 C 
BRANCH   2   3
ATOM      3  O   UNL A   1      33.221  23.720  22.530  1.00  0.00    -0.463 OA
BRANCH   3   4
ATOM      4  C   UNL A   1      32.023  24.353  22.518  1.00  0.00     0.305 C 
ATOM      5  O   UNL A   1      31.018  23.969  23.105  1.00  0.00    -0.252 OA
BRANCH   4   6
ATOM      6  C   UNL A   1      32.090  25.700  21.833  1.00  0.00     0.123 C 
BRANCH   6   7
ATOM      7  C   UNL A   1      31.010  26.757  22.072  1.00  0.00     0.023 C 
BRANCH   7   8
ATOM      8  C   UNL A   1      31.301  28.275  22.248  1.00  0.00     0.067 C 
ATOM      9  N   UNL A   1      32.452  28.096  24.468  1.00  0.00    -0.356 N 
ATOM     10  C   UNL A   1      31.442  28.870  25.167  1.00  0.00     0.124 C 
ATOM     11  C   UNL A   1      32.651  28.376  23.048  1.00  0.00     0.127 C 
ATOM     12  C   UNL A   1      30.099  28.795  24.450  1.00  0.00     0.087 C 
ATOM     13  C   UNL A   1      30.263  29.216  22.981  1.00  0.00     0.190 C 
BRANCH   9  14
ATOM     14  C   UNL A   1      32.741  26.853  25.006  1.00  0.00     0.128 A 
ATOM     15  C   UNL A   1      33.635  23.242  27.105  1.00  0.00     0.046 C 
ATOM     16  C   UNL A   1      33.362  24.499  26.342  1.00  0.00    -0.033 A 
ATOM     17  C   UNL A   1      34.356  25.179  25.646  1.00  0.00     0.009 A 
ATOM     18  C   UNL A   1      32.085  25.035  26.295  1.00  0.00     0.117 A 
ATOM     19  C   UNL A   1      34.041  26.356  24.963  1.00  0.00     0.047 A 
ATOM     20  N   UNL A   1      31.767  26.188  25.664  1.00  0.00    -0.239 NA
ENDBRANCH   9  14
BRANCH  13  21
ATOM     21  N   UNL A   1      29.036  29.633  22.269  1.00  0.00    -0.328 N 
ATOM     22  C   UNL A   1      29.212  30.794  21.356  1.00  0.00     0.291 C 
ATOM     23  C   UNL A   1      27.783  29.829  22.993  1.00  0.00     0.291 C 
ATOM     24  H   UNL A   1      28.909  28.756  21.762  1.00  0.00     0.348 HD
ATOM     25  C   UNL A   1      28.877  32.188  21.944  1.00  0.00     0.221 C 
ATOM     26  C   UNL A   1      27.584  31.201  23.632  1.00  0.00     0.221 C 
ATOM     27  O   UNL A   1      27.622  32.215  22.628  1.00  0.00    -0.370 OA
ENDBRANCH  13  21
ENDBRANCH   7   8
ENDBRANCH   6   7
ENDBRANCH   4   6
ENDBRANCH   3   4
ENDBRANCH   2   3
ENDBRANCH   1   2
BRANCH   1  28
ATOM     28  O   UNL A   1      34.709  20.936  24.546  1.00  0.00    -0.374 OA
BRANCH  28  29
ATOM     29  C   UNL A   1      36.010  20.547  24.974  1.00  0.00     0.202 C 
BRANCH  29  30
ATOM     30  C   UNL A   1      36.870  21.592  25.703  1.00  0.00     0.261 C 
BRANCH  30  31
ATOM     31  O   UNL A   1      38.178  21.787  25.139  1.00  0.00    -0.460 OA
BRANCH  31  32
ATOM     32  C   UNL A   1      39.191  21.490  25.989  1.00  0.00     0.338 C 
ATOM     33  O   UNL A   1      39.793  20.430  26.088  1.00  0.00    -0.246 OA
BRANCH  32  34
ATOM     34  C   UNL A   1      39.610  22.678  26.751  1.00  0.00     0.060 A 
ATOM     35  C   UNL A   1      39.003  23.894  26.422  1.00  0.00     0.016 A 
ATOM     36  C   UNL A   1      40.676  22.636  27.653  1.00  0.00     0.016 A 
ATOM     37  C   UNL A   1      39.494  25.084  26.953  1.00  0.00     0.010 A 
ATOM     38  C   UNL A   1      41.174  23.835  28.181  1.00  0.00     0.010 A 
ATOM     39  C   UNL A   1      40.610  25.066  27.800  1.00  0.00    -0.014 A 
BRANCH  39  40
ATOM     40  C   UNL A   1      41.252  26.357  28.157  1.00  0.00     0.031 A 
ATOM     41  C   UNL A   1      42.661  26.630  27.705  1.00  0.00     0.074 A 
ATOM     42  C   UNL A   1      40.560  27.306  28.811  1.00  0.00     0.049 A 
ATOM     43  N   UNL A   1      43.379  27.717  27.838  1.00  0.00    -0.248 NA
ATOM     44  C   UNL A   1      43.351  25.536  27.005  1.00  0.00     0.031 C 
ATOM     45  C   UNL A   1      39.183  27.173  29.278  1.00  0.00     0.029 A 
ATOM     46  N   UNL A   1      40.923  28.577  29.183  1.00  0.00    -0.354 N 
ATOM     47  C   UNL A   1      44.600  27.440  27.236  1.00  0.00     0.074 A 
ATOM     48  C   UNL A   1      44.539  26.073  26.765  1.00  0.00     0.031 C 
ATOM     49  C   UNL A   1      38.814  28.317  29.878  1.00  0.00     0.029 A 
ATOM     50  C   UNL A   1      39.934  29.257  29.848  1.00  0.00     0.049 A 
ATOM     51  H   UNL A   1      41.808  28.963  28.992  1.00  0.00     0.167 HD
ATOM     52  C   UNL A   1      45.669  28.257  27.077  1.00  0.00     0.037 A 
ATOM     53  C   UNL A   1      39.935  30.497  30.377  1.00  0.00     0.037 A 
ATOM     54  C   UNL A   1      45.732  29.618  27.537  1.00  0.00     0.049 A 
ATOM     55  C   UNL A   1      41.155  31.367  30.227  1.00  0.00     0.074 A 
ATOM     56  C   UNL A   1      46.759  30.534  27.388  1.00  0.00     0.029 A 
ATOM     57  N   UNL A   1      44.726  30.258  28.244  1.00  0.00    -0.354 N 
ATOM     58  N   UNL A   1      42.285  31.111  29.615  1.00  0.00    -0.248 NA
ATOM     59  C   UNL A   1      41.093  32.703  30.837  1.00  0.00     0.031 C 
ATOM     60  C   UNL A   1      46.392  31.714  28.045  1.00  0.00     0.029 A 
ATOM     61  C   UNL A   1      45.120  31.548  28.565  1.00  0.00     0.049 A 
ATOM     62  H   UNL A   1      43.859  29.857  28.482  1.00  0.00     0.167 HD
ATOM     63  C   UNL A   1      43.061  32.255  29.750  1.00  0.00     0.074 A 
ATOM     64  C   UNL A   1      42.266  33.215  30.486  1.00  0.00     0.031 C 
ATOM     65  C   UNL A   1      44.320  32.489  29.305  1.00  0.00     0.037 A 
BRANCH  52  66
ATOM     66  C   UNL A   1      46.875  27.692  26.386  1.00  0.00     0.064 A 
ATOM     67  C   UNL A   1      47.897  27.048  27.101  1.00  0.00     0.173 A 
ATOM     68  C   UNL A   1      46.988  27.755  24.990  1.00  0.00     0.173 A 
ATOM     69  F   UNL A   1      47.839  26.973  28.439  1.00  0.00    -0.203 F 
ATOM     70  C   UNL A   1      48.997  26.505  26.443  1.00  0.00     0.198 A 
ATOM     71  C   UNL A   1      48.078  27.191  24.333  1.00  0.00     0.198 A 
ATOM     72  F   UNL A   1      46.036  28.357  24.261  1.00  0.00    -0.203 F 
ATOM     73  F   UNL A   1      49.978  25.925  27.148  1.00  0.00    -0.200 F 
ATOM     74  C   UNL A   1      49.083  26.570  25.060  1.00  0.00     0.200 A 
ATOM     75  F   UNL A   1      48.156  27.247  22.997  1.00  0.00    -0.200 F 
ATOM     76  F   UNL A   1      50.139  26.040  24.428  1.00  0.00    -0.200 F 
ENDBRANCH  52  66
BRANCH  53  77
ATOM     77  C   UNL A   1      38.738  30.989  31.103  1.00  0.00     0.064 A 
ATOM     78  C   UNL A   1      37.668  31.584  30.422  1.00  0.00     0.173 A 
ATOM     79  C   UNL A   1      38.647  30.884  32.499  1.00  0.00     0.173 A 
ATOM     80  F   UNL A   1      37.722  31.730  29.089  1.00  0.00    -0.203 F 
ATOM     81  C   UNL A   1      36.558  32.070  31.110  1.00  0.00     0.198 A 
ATOM     82  C   UNL A   1      37.527  31.347  33.185  1.00  0.00     0.198 A 
ATOM     83  F   UNL A   1      39.647  30.325  33.196  1.00  0.00    -0.203 F 
ATOM     84  F   UNL A   1      35.567  32.673  30.439  1.00  0.00    -0.200 F 
ATOM     85  C   UNL A   1      36.485  31.946  32.490  1.00  0.00     0.200 A 
ATOM     86  F   UNL A   1      37.457  31.218  34.516  1.00  0.00    -0.200 F 
ATOM     87  F   UNL A   1      35.417  32.411  33.151  1.00  0.00    -0.200 F 
ENDBRANCH  53  77
BRANCH  65  88
ATOM     88  C   UNL A   1      44.910  33.838  29.594  1.00  0.00     0.064 A 
ATOM     89  C   UNL A   1      45.655  34.076  30.758  1.00  0.00     0.173 A 
ATOM     90  C   UNL A   1      44.757  34.895  28.683  1.00  0.00     0.173 A 
ATOM     91  F   UNL A   1      45.818  33.102  31.666  1.00  0.00    -0.203 F 
ATOM     92  C   UNL A   1      46.205  35.330  31.012  1.00  0.00     0.198 A 
ATOM     93  C   UNL A   1      45.330  36.139  28.928  1.00  0.00     0.198 A 
ATOM     94  F   UNL A   1      44.059  34.716  27.552  1.00  0.00    -0.203 F 
ATOM     95  F   UNL A   1      46.875  35.547  32.152  1.00  0.00    -0.200 F 
ATOM     96  C   UNL A   1      46.046  36.359  30.095  1.00  0.00     0.200 A 
ATOM     97  F   UNL A   1      45.185  37.129  28.036  1.00  0.00    -0.200 F 
ATOM     98  F   UNL A   1      46.578  37.564  30.340  1.00  0.00    -0.200 F 
ENDBRANCH  65  88
ENDBRANCH  39  40
ENDBRANCH  32  34
ENDBRANCH  31  32
ENDBRANCH  30  31
ENDBRANCH  29  30
ENDBRANCH  28  29
ENDBRANCH   1  28
TORSDOF 18
ENDMDL
