MODEL 1
REMARK VINA RESULT:     -11.3      0.000      0.000
REMARK SMILES C[C@@H](C(=O)OCCOCCOC(=O)c1ccc(-c2c3nc(c(-c4c(F)c(F)c(F)c(F)c4F)c4ccc([nH]4)c(-c4c(F)c(F)c(F)c(F)c4F)c4nc(c(-c5c(F)c(F)c(F)c(F)c5F)c5ccc2[nH]5)C=C4)C=C3)cc1)c1ccc(C[C@H]2CCCC2=O)cc1
REMARK SMILES IDX 7 1 6 2 5 3 3 4 4 5 2 6 1 7 77 8 78 9 89 10 79 11 88 12
REMARK SMILES IDX 80 13 81 14 82 15 83 16 86 17 84 18 85 19 87 20 8 21 9 22
REMARK SMILES IDX 10 23 11 24 12 25 13 26 14 27 15 28 76 29 16 30 75 31 17 32
REMARK SMILES IDX 18 33 19 34 69 35 20 36 74 37 68 38 70 39 21 40 73 41 67 42
REMARK SMILES IDX 66 43 22 45 54 46 34 47 53 48 35 49 38 50 52 51 71 52 36 53
REMARK SMILES IDX 37 54 51 56 72 57 39 58 23 59 24 60 32 61 25 62 26 63 30 64
REMARK SMILES IDX 33 65 27 66 28 67 31 68 29 69 55 70 56 71 64 72 57 73 58 74
REMARK SMILES IDX 62 75 65 76 59 77 60 78 63 79 61 80 40 81 41 82 49 83 42 84
REMARK SMILES IDX 43 85 47 86 50 87 44 88 45 89 48 90 46 91
REMARK H PARENT 70 44 38 55
REMARK Flexibility Score: inf
ROOT
ATOM      1  C   UNL A   1      32.392  29.333  26.680  1.00  0.00     0.202 C 
ENDROOT
BRANCH   1   2
ATOM      2  C   UNL A   1      31.879  27.991  27.209  1.00  0.00     0.261 C 
BRANCH   2   3
ATOM      3  O   UNL A   1      32.502  26.905  26.509  1.00  0.00    -0.463 OA
BRANCH   3   4
ATOM      4  C   UNL A   1      31.671  25.897  26.124  1.00  0.00     0.313 C 
ATOM      5  O   UNL A   1      30.994  25.232  26.902  1.00  0.00    -0.252 OA
BRANCH   4   6
ATOM      6  C   UNL A   1      31.600  25.753  24.600  1.00  0.00     0.126 C 
ATOM      7  C   UNL A   1      32.996  25.488  24.009  1.00  0.00     0.025 C 
BRANCH   6   8
ATOM      8  C   UNL A   1      30.835  26.883  23.895  1.00  0.00    -0.034 A 
ATOM      9  C   UNL A   1      31.523  27.886  23.189  1.00  0.00     0.005 A 
ATOM     10  C   UNL A   1      29.432  26.910  23.831  1.00  0.00     0.005 A 
ATOM     11  C   UNL A   1      30.842  28.869  22.459  1.00  0.00     0.004 A 
ATOM     12  C   UNL A   1      28.748  27.901  23.112  1.00  0.00     0.004 A 
ATOM     13  C   UNL A   1      29.446  28.891  22.414  1.00  0.00    -0.047 A 
BRANCH  13  14
ATOM     14  C   UNL A   1      28.707  29.913  21.581  1.00  0.00     0.047 C 
BRANCH  14  15
ATOM     15  C   UNL A   1      27.903  30.986  22.322  1.00  0.00     0.060 C 
ATOM     16  C   UNL A   1      28.269  31.216  23.791  1.00  0.00     0.012 C 
ATOM     17  C   UNL A   1      28.076  32.364  21.729  1.00  0.00     0.136 C 
ATOM     18  C   UNL A   1      29.193  32.428  23.808  1.00  0.00     0.009 C 
ATOM     19  C   UNL A   1      28.679  33.340  22.704  1.00  0.00     0.076 C 
ATOM     20  O   UNL A   1      27.742  32.665  20.589  1.00  0.00    -0.299 OA
ENDBRANCH  14  15
ENDBRANCH  13  14
ENDBRANCH   6   8
ENDBRANCH   4   6
ENDBRANCH   3   4
ENDBRANCH   2   3
ENDBRANCH   1   2
BRANCH   1  21
ATOM     21  O   UNL A   1      31.828  30.500  27.277  1.00  0.00    -0.374 OA
BRANCH  21  22
ATOM     22  C   UNL A   1      31.465  31.581  26.414  1.00  0.00     0.202 C 
BRANCH  22  23
ATOM     23  C   UNL A   1      31.693  32.999  26.954  1.00  0.00     0.261 C 
BRANCH  23  24
ATOM     24  O   UNL A   1      33.077  33.399  26.905  1.00  0.00    -0.460 OA
BRANCH  24  25
ATOM     25  C   UNL A   1      33.590  33.811  28.090  1.00  0.00     0.338 C 
ATOM     26  O   UNL A   1      33.084  34.586  28.890  1.00  0.00    -0.246 OA
BRANCH  25  27
ATOM     27  C   UNL A   1      34.821  33.067  28.408  1.00  0.00     0.060 A 
ATOM     28  C   UNL A   1      34.686  31.728  28.801  1.00  0.00     0.016 A 
ATOM     29  C   UNL A   1      36.070  33.692  28.438  1.00  0.00     0.016 A 
ATOM     30  C   UNL A   1      35.793  31.022  29.268  1.00  0.00     0.010 A 
ATOM     31  C   UNL A   1      37.179  32.983  28.916  1.00  0.00     0.010 A 
ATOM     32  C   UNL A   1      37.039  31.657  29.367  1.00  0.00    -0.014 A 
BRANCH  32  33
ATOM     33  C   UNL A   1      38.150  30.974  30.075  1.00  0.00     0.031 A 
ATOM     34  C   UNL A   1      38.408  31.298  31.520  1.00  0.00     0.074 A 
ATOM     35  C   UNL A   1      38.898  30.048  29.451  1.00  0.00     0.049 A 
ATOM     36  N   UNL A   1      39.330  30.835  32.326  1.00  0.00    -0.248 NA
ATOM     37  C   UNL A   1      37.503  32.278  32.142  1.00  0.00     0.031 C 
ATOM     38  C   UNL A   1      38.724  29.616  28.066  1.00  0.00     0.029 A 
ATOM     39  N   UNL A   1      39.959  29.304  29.906  1.00  0.00    -0.354 N 
ATOM     40  C   UNL A   1      39.115  31.462  33.547  1.00  0.00     0.074 A 
ATOM     41  C   UNL A   1      37.997  32.365  33.368  1.00  0.00     0.031 C 
ATOM     42  C   UNL A   1      39.655  28.691  27.778  1.00  0.00     0.029 A 
ATOM     43  C   UNL A   1      40.506  28.486  28.949  1.00  0.00     0.049 A 
ATOM     44  H   UNL A   1      40.295  29.353  30.830  1.00  0.00     0.167 HD
ATOM     45  C   UNL A   1      39.783  31.295  34.713  1.00  0.00     0.037 A 
ATOM     46  C   UNL A   1      41.583  27.678  29.008  1.00  0.00     0.037 A 
ATOM     47  C   UNL A   1      40.897  30.402  34.892  1.00  0.00     0.049 A 
ATOM     48  C   UNL A   1      42.352  27.560  30.299  1.00  0.00     0.074 A 
ATOM     49  C   UNL A   1      41.631  30.154  36.038  1.00  0.00     0.029 A 
ATOM     50  N   UNL A   1      41.443  29.611  33.891  1.00  0.00    -0.354 N 
ATOM     51  N   UNL A   1      42.129  28.140  31.453  1.00  0.00    -0.248 NA
ATOM     52  C   UNL A   1      43.523  26.669  30.294  1.00  0.00     0.031 C 
ATOM     53  C   UNL A   1      42.650  29.249  35.720  1.00  0.00     0.029 A 
ATOM     54  C   UNL A   1      42.520  28.895  34.387  1.00  0.00     0.049 A 
ATOM     55  H   UNL A   1      41.114  29.567  32.963  1.00  0.00     0.167 HD
ATOM     56  C   UNL A   1      43.111  27.668  32.314  1.00  0.00     0.074 A 
ATOM     57  C   UNL A   1      43.926  26.744  31.555  1.00  0.00     0.031 C 
ATOM     58  C   UNL A   1      43.318  27.973  33.619  1.00  0.00     0.037 A 
BRANCH  45  59
ATOM     59  C   UNL A   1      39.337  32.115  35.887  1.00  0.00     0.064 A 
ATOM     60  C   UNL A   1      39.837  33.405  36.115  1.00  0.00     0.173 A 
ATOM     61  C   UNL A   1      38.377  31.615  36.779  1.00  0.00     0.173 A 
ATOM     62  F   UNL A   1      40.768  33.923  35.299  1.00  0.00    -0.203 F 
ATOM     63  C   UNL A   1      39.409  34.157  37.208  1.00  0.00     0.198 A 
ATOM     64  C   UNL A   1      37.931  32.380  37.855  1.00  0.00     0.198 A 
ATOM     65  F   UNL A   1      37.863  30.388  36.604  1.00  0.00    -0.203 F 
ATOM     66  F   UNL A   1      39.933  35.371  37.431  1.00  0.00    -0.200 F 
ATOM     67  C   UNL A   1      38.452  33.646  38.072  1.00  0.00     0.200 A 
ATOM     68  F   UNL A   1      36.999  31.888  38.683  1.00  0.00    -0.200 F 
ATOM     69  F   UNL A   1      38.038  34.372  39.120  1.00  0.00    -0.200 F 
ENDBRANCH  45  59
BRANCH  46  70
ATOM     70  C   UNL A   1      42.008  26.924  27.801  1.00  0.00     0.064 A 
ATOM     71  C   UNL A   1      41.566  25.614  27.570  1.00  0.00     0.173 A 
ATOM     72  C   UNL A   1      42.877  27.496  26.860  1.00  0.00     0.173 A 
ATOM     73  F   UNL A   1      40.755  25.016  28.455  1.00  0.00    -0.203 F 
ATOM     74  C   UNL A   1      41.989  24.900  26.451  1.00  0.00     0.198 A 
ATOM     75  C   UNL A   1      43.278  26.790  25.727  1.00  0.00     0.198 A 
ATOM     76  F   UNL A   1      43.332  28.746  27.038  1.00  0.00    -0.203 F 
ATOM     77  F   UNL A   1      41.585  23.635  26.275  1.00  0.00    -0.200 F 
ATOM     78  C   UNL A   1      42.839  25.491  25.527  1.00  0.00     0.200 A 
ATOM     79  F   UNL A   1      44.092  27.368  24.834  1.00  0.00    -0.200 F 
ATOM     80  F   UNL A   1      43.242  24.804  24.450  1.00  0.00    -0.200 F 
ENDBRANCH  46  70
BRANCH  58  81
ATOM     81  C   UNL A   1      44.451  27.281  34.319  1.00  0.00     0.064 A 
ATOM     82  C   UNL A   1      45.731  27.852  34.391  1.00  0.00     0.173 A 
ATOM     83  C   UNL A   1      44.243  26.051  34.964  1.00  0.00     0.173 A 
ATOM     84  F   UNL A   1      45.984  29.018  33.781  1.00  0.00    -0.203 F 
ATOM     85  C   UNL A   1      46.765  27.206  35.064  1.00  0.00     0.198 A 
ATOM     86  C   UNL A   1      45.273  25.422  35.658  1.00  0.00     0.198 A 
ATOM     87  F   UNL A   1      43.037  25.466  34.929  1.00  0.00    -0.203 F 
ATOM     88  F   UNL A   1      47.990  27.749  35.083  1.00  0.00    -0.200 F 
ATOM     89  C   UNL A   1      46.534  25.996  35.702  1.00  0.00     0.200 A 
ATOM     90  F   UNL A   1      45.044  24.260  36.284  1.00  0.00    -0.200 F 
ATOM     91  F   UNL A   1      47.529  25.380  36.353  1.00  0.00    -0.200 F 
ENDBRANCH  58  81
ENDBRANCH  32  33
ENDBRANCH  25  27
ENDBRANCH  24  25
ENDBRANCH  23  24
ENDBRANCH  22  23
ENDBRANCH  21  22
ENDBRANCH   1  21
TORSDOF 17
ENDMDL
MODEL 2
REMARK VINA RESULT:     -11.2      3.491      8.680
REMARK SMILES C[C@@H](C(=O)OCCOCCOC(=O)c1ccc(-c2c3nc(c(-c4c(F)c(F)c(F)c(F)c4F)c4ccc([nH]4)c(-c4c(F)c(F)c(F)c(F)c4F)c4nc(c(-c5c(F)c(F)c(F)c(F)c5F)c5ccc2[nH]5)C=C4)C=C3)cc1)c1ccc(C[C@H]2CCCC2=O)cc1
REMARK SMILES IDX 7 1 6 2 5 3 3 4 4 5 2 6 1 7 77 8 78 9 89 10 79 11 88 12
REMARK SMILES IDX 80 13 81 14 82 15 83 16 86 17 84 18 85 19 87 20 8 21 9 22
REMARK SMILES IDX 10 23 11 24 12 25 13 26 14 27 15 28 76 29 16 30 75 31 17 32
REMARK SMILES IDX 18 33 19 34 69 35 20 36 74 37 68 38 70 39 21 40 73 41 67 42
REMARK SMILES IDX 66 43 22 45 54 46 34 47 53 48 35 49 38 50 52 51 71 52 36 53
REMARK SMILES IDX 37 54 51 56 72 57 39 58 23 59 24 60 32 61 25 62 26 63 30 64
REMARK SMILES IDX 33 65 27 66 28 67 31 68 29 69 55 70 56 71 64 72 57 73 58 74
REMARK SMILES IDX 62 75 65 76 59 77 60 78 63 79 61 80 40 81 41 82 49 83 42 84
REMARK SMILES IDX 43 85 47 86 50 87 44 88 45 89 48 90 46 91
REMARK H PARENT 70 44 38 55
REMARK Flexibility Score: inf
ROOT
ATOM      1  C   UNL A   1      40.136  21.574  26.623  1.00  0.00     0.202 C 
ENDROOT
BRANCH   1   2
ATOM      2  C   UNL A   1      38.866  22.229  26.073  1.00  0.00     0.261 C 
BRANCH   2   3
ATOM      3  O   UNL A   1      38.005  21.241  25.490  1.00  0.00    -0.463 OA
BRANCH   3   4
ATOM      4  C   UNL A   1      36.937  21.724  24.797  1.00  0.00     0.313 C 
ATOM      5  O   UNL A   1      37.005  22.171  23.657  1.00  0.00    -0.252 OA
BRANCH   4   6
ATOM      6  C   UNL A   1      35.622  21.555  25.566  1.00  0.00     0.126 C 
ATOM      7  C   UNL A   1      34.775  20.421  24.962  1.00  0.00     0.025 C 
BRANCH   6   8
ATOM      8  C   UNL A   1      34.843  22.862  25.779  1.00  0.00    -0.034 A 
ATOM      9  C   UNL A   1      35.343  24.084  25.296  1.00  0.00     0.005 A 
ATOM     10  C   UNL A   1      33.564  22.884  26.363  1.00  0.00     0.005 A 
ATOM     11  C   UNL A   1      34.603  25.270  25.395  1.00  0.00     0.004 A 
ATOM     12  C   UNL A   1      32.829  24.073  26.474  1.00  0.00     0.004 A 
ATOM     13  C   UNL A   1      33.339  25.280  25.988  1.00  0.00    -0.047 A 
BRANCH  13  14
ATOM     14  C   UNL A   1      32.512  26.545  26.044  1.00  0.00     0.047 C 
BRANCH  14  15
ATOM     15  C   UNL A   1      31.508  26.787  24.912  1.00  0.00     0.060 C 
ATOM     16  C   UNL A   1      32.051  26.672  23.485  1.00  0.00     0.012 C 
ATOM     17  C   UNL A   1      30.378  25.785  24.906  1.00  0.00     0.136 C 
ATOM     18  C   UNL A   1      31.684  25.272  23.008  1.00  0.00     0.009 C 
ATOM     19  C   UNL A   1      30.332  24.974  23.638  1.00  0.00     0.076 C 
ATOM     20  O   UNL A   1      29.570  25.659  25.820  1.00  0.00    -0.299 OA
ENDBRANCH  14  15
ENDBRANCH  13  14
ENDBRANCH   6   8
ENDBRANCH   4   6
ENDBRANCH   3   4
ENDBRANCH   2   3
ENDBRANCH   1   2
BRANCH   1  21
ATOM     21  O   UNL A   1      41.139  21.243  25.663  1.00  0.00    -0.374 OA
BRANCH  21  22
ATOM     22  C   UNL A   1      42.479  21.071  26.132  1.00  0.00     0.202 C 
BRANCH  22  23
ATOM     23  C   UNL A   1      43.557  21.932  25.462  1.00  0.00     0.261 C 
BRANCH  23  24
ATOM     24  O   UNL A   1      43.016  23.100  24.814  1.00  0.00    -0.460 OA
BRANCH  24  25
ATOM     25  C   UNL A   1      43.734  24.234  24.997  1.00  0.00     0.338 C 
ATOM     26  O   UNL A   1      44.766  24.562  24.425  1.00  0.00    -0.246 OA
BRANCH  25  27
ATOM     27  C   UNL A   1      43.021  25.160  25.895  1.00  0.00     0.060 A 
ATOM     28  C   UNL A   1      43.616  26.404  26.147  1.00  0.00     0.016 A 
ATOM     29  C   UNL A   1      41.859  24.781  26.568  1.00  0.00     0.016 A 
ATOM     30  C   UNL A   1      43.075  27.256  27.109  1.00  0.00     0.010 A 
ATOM     31  C   UNL A   1      41.322  25.634  27.541  1.00  0.00     0.010 A 
ATOM     32  C   UNL A   1      41.947  26.859  27.840  1.00  0.00    -0.014 A 
BRANCH  32  33
ATOM     33  C   UNL A   1      41.519  27.664  29.011  1.00  0.00     0.031 A 
ATOM     34  C   UNL A   1      42.287  27.552  30.299  1.00  0.00     0.074 A 
ATOM     35  C   UNL A   1      40.481  28.514  28.919  1.00  0.00     0.049 A 
ATOM     36  N   UNL A   1      42.081  28.149  31.446  1.00  0.00    -0.248 NA
ATOM     37  C   UNL A   1      43.446  26.645  30.292  1.00  0.00     0.031 C 
ATOM     38  C   UNL A   1      39.682  28.743  27.719  1.00  0.00     0.029 A 
ATOM     39  N   UNL A   1      39.923  29.343  29.861  1.00  0.00    -0.354 N 
ATOM     40  C   UNL A   1      43.081  27.692  32.295  1.00  0.00     0.074 A 
ATOM     41  C   UNL A   1      43.875  26.743  31.542  1.00  0.00     0.031 C 
ATOM     42  C   UNL A   1      38.725  29.644  27.998  1.00  0.00     0.029 A 
ATOM     43  C   UNL A   1      38.829  30.034  29.403  1.00  0.00     0.049 A 
ATOM     44  H   UNL A   1      40.273  29.433  30.777  1.00  0.00     0.167 HD
ATOM     45  C   UNL A   1      43.323  28.040  33.581  1.00  0.00     0.037 A 
ATOM     46  C   UNL A   1      37.995  30.872  30.051  1.00  0.00     0.037 A 
ATOM     47  C   UNL A   1      42.533  28.979  34.332  1.00  0.00     0.049 A 
ATOM     48  C   UNL A   1      38.244  31.190  31.503  1.00  0.00     0.074 A 
ATOM     49  C   UNL A   1      42.706  29.405  35.638  1.00  0.00     0.029 A 
ATOM     50  N   UNL A   1      41.414  29.636  33.844  1.00  0.00    -0.354 N 
ATOM     51  N   UNL A   1      39.205  30.771  32.291  1.00  0.00    -0.248 NA
ATOM     52  C   UNL A   1      37.292  32.102  32.155  1.00  0.00     0.031 C 
ATOM     53  C   UNL A   1      41.665  30.284  35.955  1.00  0.00     0.029 A 
ATOM     54  C   UNL A   1      40.871  30.444  34.830  1.00  0.00     0.049 A 
ATOM     55  H   UNL A   1      41.056  29.541  32.931  1.00  0.00     0.167 HD
ATOM     56  C   UNL A   1      38.989  31.385  33.518  1.00  0.00     0.074 A 
ATOM     57  C   UNL A   1      37.814  32.216  33.369  1.00  0.00     0.031 C 
ATOM     58  C   UNL A   1      39.703  31.271  34.665  1.00  0.00     0.037 A 
BRANCH  45  59
ATOM     59  C   UNL A   1      44.482  27.380  34.268  1.00  0.00     0.064 A 
ATOM     60  C   UNL A   1      45.759  27.959  34.274  1.00  0.00     0.173 A 
ATOM     61  C   UNL A   1      44.307  26.169  34.953  1.00  0.00     0.173 A 
ATOM     62  F   UNL A   1      45.982  29.111  33.623  1.00  0.00    -0.203 F 
ATOM     63  C   UNL A   1      46.825  27.337  34.922  1.00  0.00     0.198 A 
ATOM     64  C   UNL A   1      45.368  25.563  35.622  1.00  0.00     0.198 A 
ATOM     65  F   UNL A   1      43.104  25.575  34.981  1.00  0.00    -0.203 F 
ATOM     66  F   UNL A   1      48.047  27.887  34.878  1.00  0.00    -0.200 F 
ATOM     67  C   UNL A   1      46.627  26.144  35.600  1.00  0.00     0.200 A 
ATOM     68  F   UNL A   1      45.172  24.415  36.285  1.00  0.00    -0.200 F 
ATOM     69  F   UNL A   1      47.652  25.549  36.225  1.00  0.00    -0.200 F 
ENDBRANCH  45  59
BRANCH  46  70
ATOM     70  C   UNL A   1      36.835  31.460  29.334  1.00  0.00     0.064 A 
ATOM     71  C   UNL A   1      35.723  30.680  28.990  1.00  0.00     0.173 A 
ATOM     72  C   UNL A   1      36.823  32.814  28.967  1.00  0.00     0.173 A 
ATOM     73  F   UNL A   1      35.701  29.375  29.295  1.00  0.00    -0.203 F 
ATOM     74  C   UNL A   1      34.649  31.229  28.292  1.00  0.00     0.198 A 
ATOM     75  C   UNL A   1      35.736  33.368  28.294  1.00  0.00     0.198 A 
ATOM     76  F   UNL A   1      37.865  33.602  29.271  1.00  0.00    -0.203 F 
ATOM     77  F   UNL A   1      33.617  30.452  27.938  1.00  0.00    -0.200 F 
ATOM     78  C   UNL A   1      34.653  32.573  27.950  1.00  0.00     0.200 A 
ATOM     79  F   UNL A   1      35.741  34.669  27.974  1.00  0.00    -0.200 F 
ATOM     80  F   UNL A   1      33.618  33.100  27.283  1.00  0.00    -0.200 F 
ENDBRANCH  46  70
BRANCH  58  81
ATOM     81  C   UNL A   1      39.252  32.085  35.843  1.00  0.00     0.064 A 
ATOM     82  C   UNL A   1      39.685  33.405  36.035  1.00  0.00     0.173 A 
ATOM     83  C   UNL A   1      38.341  31.551  36.769  1.00  0.00     0.173 A 
ATOM     84  F   UNL A   1      40.566  33.956  35.186  1.00  0.00    -0.203 F 
ATOM     85  C   UNL A   1      39.240  34.153  37.121  1.00  0.00     0.198 A 
ATOM     86  C   UNL A   1      37.878  32.311  37.839  1.00  0.00     0.198 A 
ATOM     87  F   UNL A   1      37.892  30.295  36.628  1.00  0.00    -0.203 F 
ATOM     88  F   UNL A   1      39.700  35.398  37.308  1.00  0.00    -0.200 F 
ATOM     89  C   UNL A   1      38.332  33.609  38.018  1.00  0.00     0.200 A 
ATOM     90  F   UNL A   1      36.992  31.788  38.696  1.00  0.00    -0.200 F 
ATOM     91  F   UNL A   1      37.900  34.333  39.059  1.00  0.00    -0.200 F 
ENDBRANCH  58  81
ENDBRANCH  32  33
ENDBRANCH  25  27
ENDBRANCH  24  25
ENDBRANCH  23  24
ENDBRANCH  22  23
ENDBRANCH  21  22
ENDBRANCH   1  21
TORSDOF 17
ENDMDL
MODEL 3
REMARK VINA RESULT:     -11.2      3.776      6.897
REMARK SMILES C[C@@H](C(=O)OCCOCCOC(=O)c1ccc(-c2c3nc(c(-c4c(F)c(F)c(F)c(F)c4F)c4ccc([nH]4)c(-c4c(F)c(F)c(F)c(F)c4F)c4nc(c(-c5c(F)c(F)c(F)c(F)c5F)c5ccc2[nH]5)C=C4)C=C3)cc1)c1ccc(C[C@H]2CCCC2=O)cc1
REMARK SMILES IDX 7 1 6 2 5 3 3 4 4 5 2 6 1 7 77 8 78 9 89 10 79 11 88 12
REMARK SMILES IDX 80 13 81 14 82 15 83 16 86 17 84 18 85 19 87 20 8 21 9 22
REMARK SMILES IDX 10 23 11 24 12 25 13 26 14 27 15 28 76 29 16 30 75 31 17 32
REMARK SMILES IDX 18 33 19 34 69 35 20 36 74 37 68 38 70 39 21 40 73 41 67 42
REMARK SMILES IDX 66 43 22 45 54 46 34 47 53 48 35 49 38 50 52 51 71 52 36 53
REMARK SMILES IDX 37 54 51 56 72 57 39 58 23 59 24 60 32 61 25 62 26 63 30 64
REMARK SMILES IDX 33 65 27 66 28 67 31 68 29 69 55 70 56 71 64 72 57 73 58 74
REMARK SMILES IDX 62 75 65 76 59 77 60 78 63 79 61 80 40 81 41 82 49 83 42 84
REMARK SMILES IDX 43 85 47 86 50 87 44 88 45 89 48 90 46 91
REMARK H PARENT 70 44 38 55
REMARK Flexibility Score: inf
ROOT
ATOM      1  C   UNL A   1      32.838  36.099  30.611  1.00  0.00     0.202 C 
ENDROOT
BRANCH   1   2
ATOM      2  C   UNL A   1      32.485  35.781  32.066  1.00  0.00     0.261 C 
BRANCH   2   3
ATOM      3  O   UNL A   1      33.289  34.697  32.552  1.00  0.00    -0.463 OA
BRANCH   3   4
ATOM      4  C   UNL A   1      34.566  35.019  32.898  1.00  0.00     0.313 C 
ATOM      5  O   UNL A   1      34.906  36.123  33.309  1.00  0.00    -0.252 OA
BRANCH   4   6
ATOM      6  C   UNL A   1      35.511  33.816  32.812  1.00  0.00     0.126 C 
ATOM      7  C   UNL A   1      35.856  33.288  34.215  1.00  0.00     0.025 C 
BRANCH   6   8
ATOM      8  C   UNL A   1      36.740  34.042  31.918  1.00  0.00    -0.034 A 
ATOM      9  C   UNL A   1      37.946  34.520  32.460  1.00  0.00     0.005 A 
ATOM     10  C   UNL A   1      36.751  33.688  30.558  1.00  0.00     0.005 A 
ATOM     11  C   UNL A   1      39.104  34.642  31.681  1.00  0.00     0.004 A 
ATOM     12  C   UNL A   1      37.906  33.822  29.774  1.00  0.00     0.004 A 
ATOM     13  C   UNL A   1      39.098  34.297  30.327  1.00  0.00    -0.047 A 
BRANCH  13  14
ATOM     14  C   UNL A   1      40.359  34.370  29.496  1.00  0.00     0.047 C 
BRANCH  14  15
ATOM     15  C   UNL A   1      41.698  34.215  30.224  1.00  0.00     0.060 C 
ATOM     16  C   UNL A   1      42.324  32.818  30.206  1.00  0.00     0.012 C 
ATOM     17  C   UNL A   1      42.793  35.065  29.625  1.00  0.00     0.136 C 
ATOM     18  C   UNL A   1      43.360  32.837  29.087  1.00  0.00     0.009 C 
ATOM     19  C   UNL A   1      43.941  34.243  29.102  1.00  0.00     0.076 C 
ATOM     20  O   UNL A   1      42.766  36.290  29.588  1.00  0.00    -0.299 OA
ENDBRANCH  14  15
ENDBRANCH  13  14
ENDBRANCH   6   8
ENDBRANCH   4   6
ENDBRANCH   3   4
ENDBRANCH   2   3
ENDBRANCH   1   2
BRANCH   1  21
ATOM     21  O   UNL A   1      32.596  35.058  29.665  1.00  0.00    -0.374 OA
BRANCH  21  22
ATOM     22  C   UNL A   1      33.689  34.200  29.325  1.00  0.00     0.202 C 
BRANCH  22  23
ATOM     23  C   UNL A   1      33.700  33.634  27.899  1.00  0.00     0.261 C 
BRANCH  23  24
ATOM     24  O   UNL A   1      34.792  32.721  27.669  1.00  0.00    -0.460 OA
BRANCH  24  25
ATOM     25  C   UNL A   1      34.498  31.418  27.897  1.00  0.00     0.338 C 
ATOM     26  O   UNL A   1      33.423  30.858  27.731  1.00  0.00    -0.246 OA
BRANCH  25  27
ATOM     27  C   UNL A   1      35.717  30.664  28.237  1.00  0.00     0.060 A 
ATOM     28  C   UNL A   1      35.713  29.929  29.430  1.00  0.00     0.016 A 
ATOM     29  C   UNL A   1      36.880  30.764  27.470  1.00  0.00     0.016 A 
ATOM     30  C   UNL A   1      36.885  29.328  29.886  1.00  0.00     0.010 A 
ATOM     31  C   UNL A   1      38.059  30.167  27.935  1.00  0.00     0.010 A 
ATOM     32  C   UNL A   1      38.075  29.477  29.161  1.00  0.00    -0.014 A 
BRANCH  32  33
ATOM     33  C   UNL A   1      39.356  29.032  29.765  1.00  0.00     0.031 A 
ATOM     34  C   UNL A   1      39.884  29.751  30.976  1.00  0.00     0.074 A 
ATOM     35  C   UNL A   1      40.023  27.977  29.267  1.00  0.00     0.049 A 
ATOM     36  N   UNL A   1      40.984  29.542  31.655  1.00  0.00    -0.248 NA
ATOM     37  C   UNL A   1      39.059  30.854  31.493  1.00  0.00     0.031 C 
ATOM     38  C   UNL A   1      39.597  27.173  28.124  1.00  0.00     0.029 A 
ATOM     39  N   UNL A   1      41.206  27.403  29.662  1.00  0.00    -0.354 N 
ATOM     40  C   UNL A   1      40.983  30.483  32.676  1.00  0.00     0.074 A 
ATOM     41  C   UNL A   1      39.790  31.287  32.510  1.00  0.00     0.031 C 
ATOM     42  C   UNL A   1      40.513  26.215  27.900  1.00  0.00     0.029 A 
ATOM     43  C   UNL A   1      41.601  26.356  28.867  1.00  0.00     0.049 A 
ATOM     44  H   UNL A   1      41.722  27.712  30.441  1.00  0.00     0.167 HD
ATOM     45  C   UNL A   1      41.889  30.657  33.668  1.00  0.00     0.037 A 
ATOM     46  C   UNL A   1      42.722  25.609  28.904  1.00  0.00     0.037 A 
ATOM     47  C   UNL A   1      43.077  29.862  33.832  1.00  0.00     0.049 A 
ATOM     48  C   UNL A   1      43.749  25.866  29.977  1.00  0.00     0.074 A 
ATOM     49  C   UNL A   1      44.049  29.954  34.813  1.00  0.00     0.029 A 
ATOM     50  N   UNL A   1      43.459  28.830  32.988  1.00  0.00    -0.354 N 
ATOM     51  N   UNL A   1      43.729  26.743  30.951  1.00  0.00    -0.248 NA
ATOM     52  C   UNL A   1      44.955  25.024  29.956  1.00  0.00     0.031 C 
ATOM     53  C   UNL A   1      45.042  29.008  34.536  1.00  0.00     0.029 A 
ATOM     54  C   UNL A   1      44.664  28.294  33.411  1.00  0.00     0.049 A 
ATOM     55  H   UNL A   1      42.948  28.524  32.203  1.00  0.00     0.167 HD
ATOM     56  C   UNL A   1      44.900  26.543  31.671  1.00  0.00     0.074 A 
ATOM     57  C   UNL A   1      45.604  25.453  31.030  1.00  0.00     0.031 C 
ATOM     58  C   UNL A   1      45.351  27.204  32.766  1.00  0.00     0.037 A 
BRANCH  45  59
ATOM     59  C   UNL A   1      41.638  31.767  34.645  1.00  0.00     0.064 A 
ATOM     60  C   UNL A   1      42.206  33.039  34.475  1.00  0.00     0.173 A 
ATOM     61  C   UNL A   1      40.795  31.567  35.748  1.00  0.00     0.173 A 
ATOM     62  F   UNL A   1      43.030  33.278  33.442  1.00  0.00    -0.203 F 
ATOM     63  C   UNL A   1      41.959  34.061  35.388  1.00  0.00     0.198 A 
ATOM     64  C   UNL A   1      40.529  32.599  36.644  1.00  0.00     0.198 A 
ATOM     65  F   UNL A   1      40.223  30.371  35.954  1.00  0.00    -0.203 F 
ATOM     66  F   UNL A   1      42.548  35.255  35.230  1.00  0.00    -0.200 F 
ATOM     67  C   UNL A   1      41.116  33.843  36.467  1.00  0.00     0.200 A 
ATOM     68  F   UNL A   1      39.707  32.389  37.681  1.00  0.00    -0.200 F 
ATOM     69  F   UNL A   1      40.877  34.829  37.342  1.00  0.00    -0.200 F 
ENDBRANCH  45  59
BRANCH  46  70
ATOM     70  C   UNL A   1      42.940  24.553  27.883  1.00  0.00     0.064 A 
ATOM     71  C   UNL A   1      42.539  23.230  28.110  1.00  0.00     0.173 A 
ATOM     72  C   UNL A   1      43.569  24.845  26.664  1.00  0.00     0.173 A 
ATOM     73  F   UNL A   1      41.958  22.897  29.272  1.00  0.00    -0.203 F 
ATOM     74  C   UNL A   1      42.771  22.235  27.162  1.00  0.00     0.198 A 
ATOM     75  C   UNL A   1      43.777  23.855  25.705  1.00  0.00     0.198 A 
ATOM     76  F   UNL A   1      43.977  26.096  26.400  1.00  0.00    -0.203 F 
ATOM     77  F   UNL A   1      42.415  20.970  27.421  1.00  0.00    -0.200 F 
ATOM     78  C   UNL A   1      43.383  22.550  25.957  1.00  0.00     0.200 A 
ATOM     79  F   UNL A   1      44.361  24.166  24.540  1.00  0.00    -0.200 F 
ATOM     80  F   UNL A   1      43.603  21.594  25.045  1.00  0.00    -0.200 F 
ENDBRANCH  46  70
BRANCH  58  81
ATOM     81  C   UNL A   1      46.651  26.749  33.360  1.00  0.00     0.064 A 
ATOM     82  C   UNL A   1      47.871  27.346  33.010  1.00  0.00     0.173 A 
ATOM     83  C   UNL A   1      46.673  25.729  34.326  1.00  0.00     0.173 A 
ATOM     84  F   UNL A   1      47.905  28.315  32.082  1.00  0.00    -0.203 F 
ATOM     85  C   UNL A   1      49.065  26.926  33.588  1.00  0.00     0.198 A 
ATOM     86  C   UNL A   1      47.866  25.330  34.921  1.00  0.00     0.198 A 
ATOM     87  F   UNL A   1      45.534  25.129  34.700  1.00  0.00    -0.203 F 
ATOM     88  F   UNL A   1      50.224  27.483  33.206  1.00  0.00    -0.200 F 
ATOM     89  C   UNL A   1      49.062  25.925  34.547  1.00  0.00     0.200 A 
ATOM     90  F   UNL A   1      47.859  24.372  35.856  1.00  0.00    -0.200 F 
ATOM     91  F   UNL A   1      50.213  25.526  35.106  1.00  0.00    -0.200 F 
ENDBRANCH  58  81
ENDBRANCH  32  33
ENDBRANCH  25  27
ENDBRANCH  24  25
ENDBRANCH  23  24
ENDBRANCH  22  23
ENDBRANCH  21  22
ENDBRANCH   1  21
TORSDOF 17
ENDMDL
