MODEL 1
REMARK VINA RESULT:     -12.3      0.000      0.000
REMARK SMILES O=C(OCCOCCOC(=O)c1oc2cccc3c2c1CCC3)c1ccc(-c2c3nc(c(-c4c(F)c(F)c(F)c(F)c4F)c4ccc([nH]4)c(-c4c(F)c(F)c(F)c(F)c4F)c4nc(c(-c5c(F)c(F)c(F)c(F)c5F)c5ccc2[nH]5)C=C4)C=C3)cc1
REMARK SMILES IDX 5 1 4 2 3 3 2 4 1 5 24 6 25 7 86 8 26 9 85 10 27 11 28 12
REMARK SMILES IDX 29 13 79 14 30 15 84 16 78 17 80 18 31 19 83 20 77 21 76 22
REMARK SMILES IDX 32 24 64 25 44 26 63 27 45 28 48 29 62 30 81 31 46 32 47 33
REMARK SMILES IDX 61 35 82 36 49 37 33 38 34 39 42 40 35 41 36 42 40 43 43 44
REMARK SMILES IDX 37 45 38 46 41 47 39 48 65 49 66 50 74 51 67 52 68 53 72 54
REMARK SMILES IDX 75 55 69 56 70 57 73 58 71 59 50 60 51 61 59 62 52 63 53 64
REMARK SMILES IDX 57 65 60 66 54 67 55 68 58 69 56 70 6 71 7 72 8 73 9 74
REMARK SMILES IDX 10 75 11 76 12 77 13 78 20 79 14 80 19 81 21 82 15 83 18 84
REMARK SMILES IDX 22 85 16 86 17 87 23 88
REMARK H PARENT 80 23 48 34
REMARK Flexibility Score: inf
ROOT
ATOM      1  C   UNL A   1      42.298  19.346  26.961  1.00  0.00     0.202 C 
ENDROOT
BRANCH   1   2
ATOM      2  C   UNL A   1      43.162  18.623  25.932  1.00  0.00     0.261 C 
BRANCH   2   3
ATOM      3  O   UNL A   1      43.522  19.424  24.788  1.00  0.00    -0.460 OA
BRANCH   3   4
ATOM      4  C   UNL A   1      44.710  20.055  24.643  1.00  0.00     0.338 C 
ATOM      5  O   UNL A   1      45.614  19.560  23.977  1.00  0.00    -0.246 OA
BRANCH   4   6
ATOM      6  C   UNL A   1      44.769  21.492  25.012  1.00  0.00     0.060 A 
ATOM      7  C   UNL A   1      45.517  21.990  26.073  1.00  0.00     0.016 A 
ATOM      8  C   UNL A   1      43.906  22.354  24.313  1.00  0.00     0.016 A 
ATOM      9  C   UNL A   1      45.210  23.223  26.603  1.00  0.00     0.010 A 
ATOM     10  C   UNL A   1      43.642  23.625  24.800  1.00  0.00     0.010 A 
ATOM     11  C   UNL A   1      44.227  24.007  25.998  1.00  0.00    -0.014 A 
BRANCH  11  12
ATOM     12  C   UNL A   1      43.919  25.249  26.679  1.00  0.00     0.031 A 
ATOM     13  C   UNL A   1      44.934  26.315  26.501  1.00  0.00     0.074 A 
ATOM     14  C   UNL A   1      42.847  25.402  27.475  1.00  0.00     0.049 A 
ATOM     15  N   UNL A   1      45.724  26.814  27.394  1.00  0.00    -0.248 NA
ATOM     16  C   UNL A   1      45.190  26.779  25.132  1.00  0.00     0.031 C 
ATOM     17  C   UNL A   1      41.657  24.561  27.590  1.00  0.00     0.029 A 
ATOM     18  N   UNL A   1      42.594  26.428  28.329  1.00  0.00    -0.354 N 
ATOM     19  C   UNL A   1      46.489  27.770  26.733  1.00  0.00     0.074 A 
ATOM     20  C   UNL A   1      46.203  27.622  25.330  1.00  0.00     0.031 C 
ATOM     21  C   UNL A   1      40.718  25.224  28.305  1.00  0.00     0.029 A 
ATOM     22  C   UNL A   1      41.297  26.460  28.809  1.00  0.00     0.049 A 
ATOM     23  H   UNL A   1      43.274  27.092  28.585  1.00  0.00     0.167 HD
ATOM     24  C   UNL A   1      47.151  28.740  27.419  1.00  0.00     0.037 A 
ATOM     25  C   UNL A   1      40.736  27.479  29.503  1.00  0.00     0.037 A 
ATOM     26  C   UNL A   1      47.407  28.339  28.778  1.00  0.00     0.049 A 
ATOM     27  C   UNL A   1      41.838  28.262  30.118  1.00  0.00     0.074 A 
ATOM     28  C   UNL A   1      48.123  27.312  29.366  1.00  0.00     0.029 A 
ATOM     29  N   UNL A   1      46.618  28.849  29.778  1.00  0.00    -0.354 N 
ATOM     30  N   UNL A   1      42.592  27.825  31.089  1.00  0.00    -0.248 NA
ATOM     31  C   UNL A   1      42.380  29.386  29.367  1.00  0.00     0.031 C 
ATOM     32  C   UNL A   1      47.376  26.951  30.525  1.00  0.00     0.029 A 
ATOM     33  C   UNL A   1      46.272  27.801  30.591  1.00  0.00     0.049 A 
ATOM     34  H   UNL A   1      46.351  29.790  29.890  1.00  0.00     0.167 HD
ATOM     35  C   UNL A   1      43.854  28.324  30.809  1.00  0.00     0.074 A 
ATOM     36  C   UNL A   1      43.644  29.353  29.796  1.00  0.00     0.031 C 
ATOM     37  C   UNL A   1      44.980  27.671  31.220  1.00  0.00     0.037 A 
BRANCH  24  38
ATOM     38  C   UNL A   1      47.230  30.178  26.963  1.00  0.00     0.064 A 
ATOM     39  C   UNL A   1      48.452  30.869  27.089  1.00  0.00     0.173 A 
ATOM     40  C   UNL A   1      46.100  30.990  26.712  1.00  0.00     0.173 A 
ATOM     41  F   UNL A   1      49.594  30.206  27.326  1.00  0.00    -0.203 F 
ATOM     42  C   UNL A   1      48.516  32.266  27.081  1.00  0.00     0.198 A 
ATOM     43  C   UNL A   1      46.178  32.379  26.654  1.00  0.00     0.198 A 
ATOM     44  F   UNL A   1      44.863  30.492  26.620  1.00  0.00    -0.203 F 
ATOM     45  F   UNL A   1      49.677  32.878  27.349  1.00  0.00    -0.200 F 
ATOM     46  C   UNL A   1      47.376  33.019  26.878  1.00  0.00     0.200 A 
ATOM     47  F   UNL A   1      45.057  33.091  26.466  1.00  0.00    -0.200 F 
ATOM     48  F   UNL A   1      47.421  34.356  26.946  1.00  0.00    -0.200 F 
ENDBRANCH  24  38
BRANCH  25  49
ATOM     49  C   UNL A   1      39.361  28.010  29.361  1.00  0.00     0.064 A 
ATOM     50  C   UNL A   1      38.531  28.161  30.483  1.00  0.00     0.173 A 
ATOM     51  C   UNL A   1      38.935  28.646  28.177  1.00  0.00     0.173 A 
ATOM     52  F   UNL A   1      38.884  27.627  31.661  1.00  0.00    -0.203 F 
ATOM     53  C   UNL A   1      37.364  28.930  30.432  1.00  0.00     0.198 A 
ATOM     54  C   UNL A   1      37.766  29.404  28.125  1.00  0.00     0.198 A 
ATOM     55  F   UNL A   1      39.695  28.629  27.073  1.00  0.00    -0.203 F 
ATOM     56  F   UNL A   1      36.634  29.112  31.542  1.00  0.00    -0.200 F 
ATOM     57  C   UNL A   1      36.990  29.560  29.256  1.00  0.00     0.200 A 
ATOM     58  F   UNL A   1      37.436  30.036  26.990  1.00  0.00    -0.200 F 
ATOM     59  F   UNL A   1      35.908  30.350  29.224  1.00  0.00    -0.200 F 
ENDBRANCH  25  49
BRANCH  37  60
ATOM     60  C   UNL A   1      44.822  26.552  32.208  1.00  0.00     0.064 A 
ATOM     61  C   UNL A   1      44.776  26.744  33.600  1.00  0.00     0.173 A 
ATOM     62  C   UNL A   1      44.547  25.267  31.722  1.00  0.00     0.173 A 
ATOM     63  F   UNL A   1      44.927  27.964  34.133  1.00  0.00    -0.203 F 
ATOM     64  C   UNL A   1      44.503  25.685  34.464  1.00  0.00     0.198 A 
ATOM     65  C   UNL A   1      44.240  24.219  32.586  1.00  0.00     0.198 A 
ATOM     66  F   UNL A   1      44.521  25.040  30.399  1.00  0.00    -0.203 F 
ATOM     67  F   UNL A   1      44.468  25.890  35.789  1.00  0.00    -0.200 F 
ATOM     68  C   UNL A   1      44.228  24.426  33.956  1.00  0.00     0.200 A 
ATOM     69  F   UNL A   1      43.924  23.017  32.088  1.00  0.00    -0.200 F 
ATOM     70  F   UNL A   1      43.918  23.419  34.785  1.00  0.00    -0.200 F 
ENDBRANCH  37  60
ENDBRANCH  11  12
ENDBRANCH   4   6
ENDBRANCH   3   4
ENDBRANCH   2   3
ENDBRANCH   1   2
BRANCH   1  71
ATOM     71  O   UNL A   1      41.673  20.560  26.550  1.00  0.00    -0.374 OA
BRANCH  71  72
ATOM     72  C   UNL A   1      40.245  20.519  26.402  1.00  0.00     0.202 C 
BRANCH  72  73
ATOM     73  C   UNL A   1      39.450  21.836  26.364  1.00  0.00     0.261 C 
BRANCH  73  74
ATOM     74  O   UNL A   1      38.442  21.859  25.339  1.00  0.00    -0.457 OA
BRANCH  74  75
ATOM     75  C   UNL A   1      37.470  22.802  25.510  1.00  0.00     0.374 C 
ATOM     76  O   UNL A   1      37.686  23.974  25.805  1.00  0.00    -0.242 OA
BRANCH  75  77
ATOM     77  C   UNL A   1      36.191  22.265  25.120  1.00  0.00     0.216 A 
ATOM     78  O   UNL A   1      35.975  20.912  25.345  1.00  0.00    -0.449 OA
ATOM     79  C   UNL A   1      35.054  22.817  24.564  1.00  0.00     0.014 A 
ATOM     80  C   UNL A   1      34.745  20.600  24.845  1.00  0.00     0.135 A 
ATOM     81  C   UNL A   1      34.191  21.735  24.310  1.00  0.00     0.028 A 
ATOM     82  C   UNL A   1      34.634  24.172  24.115  1.00  0.00     0.041 C 
ATOM     83  C   UNL A   1      34.108  19.369  24.807  1.00  0.00     0.048 A 
ATOM     84  C   UNL A   1      32.993  21.725  23.596  1.00  0.00    -0.037 A 
ATOM     85  C   UNL A   1      33.737  24.038  22.848  1.00  0.00     0.010 C 
ATOM     86  C   UNL A   1      32.875  19.346  24.125  1.00  0.00     0.004 A 
ATOM     87  C   UNL A   1      32.330  20.496  23.519  1.00  0.00     0.004 A 
ATOM     88  C   UNL A   1      32.549  23.027  22.985  1.00  0.00     0.036 C 
ENDBRANCH  75  77
ENDBRANCH  74  75
ENDBRANCH  73  74
ENDBRANCH  72  73
ENDBRANCH  71  72
ENDBRANCH   1  71
TORSDOF 14
ENDMDL
MODEL 2
REMARK VINA RESULT:     -12.2      3.601      6.310
REMARK SMILES O=C(OCCOCCOC(=O)c1oc2cccc3c2c1CCC3)c1ccc(-c2c3nc(c(-c4c(F)c(F)c(F)c(F)c4F)c4ccc([nH]4)c(-c4c(F)c(F)c(F)c(F)c4F)c4nc(c(-c5c(F)c(F)c(F)c(F)c5F)c5ccc2[nH]5)C=C4)C=C3)cc1
REMARK SMILES IDX 5 1 4 2 3 3 2 4 1 5 24 6 25 7 86 8 26 9 85 10 27 11 28 12
REMARK SMILES IDX 29 13 79 14 30 15 84 16 78 17 80 18 31 19 83 20 77 21 76 22
REMARK SMILES IDX 32 24 64 25 44 26 63 27 45 28 48 29 62 30 81 31 46 32 47 33
REMARK SMILES IDX 61 35 82 36 49 37 33 38 34 39 42 40 35 41 36 42 40 43 43 44
REMARK SMILES IDX 37 45 38 46 41 47 39 48 65 49 66 50 74 51 67 52 68 53 72 54
REMARK SMILES IDX 75 55 69 56 70 57 73 58 71 59 50 60 51 61 59 62 52 63 53 64
REMARK SMILES IDX 57 65 60 66 54 67 55 68 58 69 56 70 6 71 7 72 8 73 9 74
REMARK SMILES IDX 10 75 11 76 12 77 13 78 20 79 14 80 19 81 21 82 15 83 18 84
REMARK SMILES IDX 22 85 16 86 17 87 23 88
REMARK H PARENT 80 23 48 34
REMARK Flexibility Score: inf
ROOT
ATOM      1  C   UNL A   1      42.875  19.798  26.029  1.00  0.00     0.202 C 
ENDROOT
BRANCH   1   2
ATOM      2  C   UNL A   1      41.558  20.562  26.126  1.00  0.00     0.261 C 
BRANCH   2   3
ATOM      3  O   UNL A   1      41.706  21.984  26.319  1.00  0.00    -0.460 OA
BRANCH   3   4
ATOM      4  C   UNL A   1      40.687  22.822  26.620  1.00  0.00     0.338 C 
ATOM      5  O   UNL A   1      39.552  22.397  26.811  1.00  0.00    -0.246 OA
BRANCH   4   6
ATOM      6  C   UNL A   1      41.040  24.199  27.049  1.00  0.00     0.060 A 
ATOM      7  C   UNL A   1      41.241  24.570  28.374  1.00  0.00     0.016 A 
ATOM      8  C   UNL A   1      41.034  25.187  26.050  1.00  0.00     0.016 A 
ATOM      9  C   UNL A   1      41.153  25.898  28.729  1.00  0.00     0.010 A 
ATOM     10  C   UNL A   1      41.017  26.531  26.394  1.00  0.00     0.010 A 
ATOM     11  C   UNL A   1      40.978  26.865  27.740  1.00  0.00    -0.014 A 
BRANCH  11  12
ATOM     12  C   UNL A   1      40.814  28.222  28.223  1.00  0.00     0.031 A 
ATOM     13  C   UNL A   1      41.921  29.140  27.860  1.00  0.00     0.074 A 
ATOM     14  C   UNL A   1      39.789  28.604  29.003  1.00  0.00     0.049 A 
ATOM     15  N   UNL A   1      42.785  29.690  28.649  1.00  0.00    -0.248 NA
ATOM     16  C   UNL A   1      42.174  29.358  26.431  1.00  0.00     0.031 C 
ATOM     17  C   UNL A   1      38.529  27.915  29.271  1.00  0.00     0.029 A 
ATOM     18  N   UNL A   1      39.665  29.770  29.690  1.00  0.00    -0.354 N 
ATOM     19  C   UNL A   1      43.615  30.450  27.832  1.00  0.00     0.074 A 
ATOM     20  C   UNL A   1      43.270  30.116  26.475  1.00  0.00     0.031 C 
ATOM     21  C   UNL A   1      37.683  28.772  29.890  1.00  0.00     0.029 A 
ATOM     22  C   UNL A   1      38.394  30.006  30.182  1.00  0.00     0.049 A 
ATOM     23  H   UNL A   1      40.414  30.394  29.825  1.00  0.00     0.167 HD
ATOM     24  C   UNL A   1      44.391  31.443  28.344  1.00  0.00     0.037 A 
ATOM     25  C   UNL A   1      37.958  31.172  30.716  1.00  0.00     0.037 A 
ATOM     26  C   UNL A   1      44.653  31.234  29.745  1.00  0.00     0.049 A 
ATOM     27  C   UNL A   1      39.150  31.926  31.181  1.00  0.00     0.074 A 
ATOM     28  C   UNL A   1      45.286  30.243  30.474  1.00  0.00     0.029 A 
ATOM     29  N   UNL A   1      43.950  31.969  30.666  1.00  0.00    -0.354 N 
ATOM     30  N   UNL A   1      39.891  31.571  32.194  1.00  0.00    -0.248 NA
ATOM     31  C   UNL A   1      39.773  32.859  30.251  1.00  0.00     0.031 C 
ATOM     32  C   UNL A   1      44.547  30.144  31.689  1.00  0.00     0.029 A 
ATOM     33  C   UNL A   1      43.533  31.100  31.639  1.00  0.00     0.049 A 
ATOM     34  H   UNL A   1      43.779  32.938  30.633  1.00  0.00     0.167 HD
ATOM     35  C   UNL A   1      41.186  31.892  31.816  1.00  0.00     0.074 A 
ATOM     36  C   UNL A   1      41.041  32.766  30.658  1.00  0.00     0.031 C 
ATOM     37  C   UNL A   1      42.257  31.200  32.305  1.00  0.00     0.037 A 
BRANCH  24  38
ATOM     38  C   UNL A   1      44.593  32.778  27.665  1.00  0.00     0.064 A 
ATOM     39  C   UNL A   1      45.774  32.998  26.928  1.00  0.00     0.173 A 
ATOM     40  C   UNL A   1      43.844  33.938  27.968  1.00  0.00     0.173 A 
ATOM     41  F   UNL A   1      46.566  31.973  26.579  1.00  0.00    -0.203 F 
ATOM     42  C   UNL A   1      46.225  34.285  26.621  1.00  0.00     0.198 A 
ATOM     43  C   UNL A   1      44.273  35.215  27.615  1.00  0.00     0.198 A 
ATOM     44  F   UNL A   1      42.730  33.903  28.706  1.00  0.00    -0.203 F 
ATOM     45  F   UNL A   1      47.424  34.448  26.045  1.00  0.00    -0.200 F 
ATOM     46  C   UNL A   1      45.481  35.392  26.978  1.00  0.00     0.200 A 
ATOM     47  F   UNL A   1      43.541  36.277  27.981  1.00  0.00    -0.200 F 
ATOM     48  F   UNL A   1      45.946  36.628  26.754  1.00  0.00    -0.200 F 
ENDBRANCH  24  38
BRANCH  25  49
ATOM     49  C   UNL A   1      36.636  31.811  30.518  1.00  0.00     0.064 A 
ATOM     50  C   UNL A   1      35.824  32.135  31.615  1.00  0.00     0.173 A 
ATOM     51  C   UNL A   1      36.270  32.373  29.278  1.00  0.00     0.173 A 
ATOM     52  F   UNL A   1      36.128  31.678  32.838  1.00  0.00    -0.203 F 
ATOM     53  C   UNL A   1      34.732  32.999  31.488  1.00  0.00     0.198 A 
ATOM     54  C   UNL A   1      35.174  33.226  29.151  1.00  0.00     0.198 A 
ATOM     55  F   UNL A   1      37.024  32.189  28.186  1.00  0.00    -0.203 F 
ATOM     56  F   UNL A   1      34.021  33.344  32.571  1.00  0.00    -0.200 F 
ATOM     57  C   UNL A   1      34.415  33.552  30.257  1.00  0.00     0.200 A 
ATOM     58  F   UNL A   1      34.902  33.782  27.961  1.00  0.00    -0.200 F 
ATOM     59  F   UNL A   1      33.409  34.430  30.147  1.00  0.00    -0.200 F 
ENDBRANCH  25  49
BRANCH  37  60
ATOM     60  C   UNL A   1      42.024  30.270  33.460  1.00  0.00     0.064 A 
ATOM     61  C   UNL A   1      41.624  28.930  33.311  1.00  0.00     0.173 A 
ATOM     62  C   UNL A   1      42.373  30.702  34.746  1.00  0.00     0.173 A 
ATOM     63  F   UNL A   1      41.373  28.416  32.099  1.00  0.00    -0.203 F 
ATOM     64  C   UNL A   1      41.543  28.076  34.409  1.00  0.00     0.198 A 
ATOM     65  C   UNL A   1      42.325  29.837  35.836  1.00  0.00     0.198 A 
ATOM     66  F   UNL A   1      42.816  31.955  34.937  1.00  0.00    -0.203 F 
ATOM     67  F   UNL A   1      41.155  26.803  34.244  1.00  0.00    -0.200 F 
ATOM     68  C   UNL A   1      41.901  28.528  35.669  1.00  0.00     0.200 A 
ATOM     69  F   UNL A   1      42.721  30.264  37.042  1.00  0.00    -0.200 F 
ATOM     70  F   UNL A   1      41.870  27.694  36.717  1.00  0.00    -0.200 F 
ENDBRANCH  37  60
ENDBRANCH  11  12
ENDBRANCH   4   6
ENDBRANCH   3   4
ENDBRANCH   2   3
ENDBRANCH   1   2
BRANCH   1  71
ATOM     71  O   UNL A   1      43.291  19.379  24.731  1.00  0.00    -0.374 OA
BRANCH  71  72
ATOM     72  C   UNL A   1      44.707  19.387  24.487  1.00  0.00     0.202 C 
BRANCH  72  73
ATOM     73  C   UNL A   1      45.588  20.442  25.179  1.00  0.00     0.261 C 
BRANCH  73  74
ATOM     74  O   UNL A   1      45.754  21.639  24.400  1.00  0.00    -0.457 OA
BRANCH  74  75
ATOM     75  C   UNL A   1      44.725  22.531  24.490  1.00  0.00     0.374 C 
ATOM     76  O   UNL A   1      43.778  22.578  23.709  1.00  0.00    -0.242 OA
BRANCH  75  77
ATOM     77  C   UNL A   1      44.824  23.273  25.722  1.00  0.00     0.216 A 
ATOM     78  O   UNL A   1      44.610  22.574  26.902  1.00  0.00    -0.449 OA
ATOM     79  C   UNL A   1      45.123  24.587  26.023  1.00  0.00     0.014 A 
ATOM     80  C   UNL A   1      44.680  23.468  27.931  1.00  0.00     0.135 A 
ATOM     81  C   UNL A   1      44.933  24.712  27.412  1.00  0.00     0.028 A 
ATOM     82  C   UNL A   1      45.462  25.810  25.247  1.00  0.00     0.041 C 
ATOM     83  C   UNL A   1      44.500  23.247  29.288  1.00  0.00     0.048 A 
ATOM     84  C   UNL A   1      44.928  25.869  28.189  1.00  0.00    -0.037 A 
ATOM     85  C   UNL A   1      44.826  27.052  25.941  1.00  0.00     0.010 C 
ATOM     86  C   UNL A   1      44.532  24.401  30.098  1.00  0.00     0.004 A 
ATOM     87  C   UNL A   1      44.729  25.690  29.563  1.00  0.00     0.004 A 
ATOM     88  C   UNL A   1      45.129  27.177  27.473  1.00  0.00     0.036 C 
ENDBRANCH  75  77
ENDBRANCH  74  75
ENDBRANCH  73  74
ENDBRANCH  72  73
ENDBRANCH  71  72
ENDBRANCH   1  71
TORSDOF 14
ENDMDL
MODEL 3
REMARK VINA RESULT:     -12.2      5.269     11.033
REMARK SMILES O=C(OCCOCCOC(=O)c1oc2cccc3c2c1CCC3)c1ccc(-c2c3nc(c(-c4c(F)c(F)c(F)c(F)c4F)c4ccc([nH]4)c(-c4c(F)c(F)c(F)c(F)c4F)c4nc(c(-c5c(F)c(F)c(F)c(F)c5F)c5ccc2[nH]5)C=C4)C=C3)cc1
REMARK SMILES IDX 5 1 4 2 3 3 2 4 1 5 24 6 25 7 86 8 26 9 85 10 27 11 28 12
REMARK SMILES IDX 29 13 79 14 30 15 84 16 78 17 80 18 31 19 83 20 77 21 76 22
REMARK SMILES IDX 32 24 64 25 44 26 63 27 45 28 48 29 62 30 81 31 46 32 47 33
REMARK SMILES IDX 61 35 82 36 49 37 33 38 34 39 42 40 35 41 36 42 40 43 43 44
REMARK SMILES IDX 37 45 38 46 41 47 39 48 65 49 66 50 74 51 67 52 68 53 72 54
REMARK SMILES IDX 75 55 69 56 70 57 73 58 71 59 50 60 51 61 59 62 52 63 53 64
REMARK SMILES IDX 57 65 60 66 54 67 55 68 58 69 56 70 6 71 7 72 8 73 9 74
REMARK SMILES IDX 10 75 11 76 12 77 13 78 20 79 14 80 19 81 21 82 15 83 18 84
REMARK SMILES IDX 22 85 16 86 17 87 23 88
REMARK H PARENT 80 23 48 34
REMARK Flexibility Score: inf
ROOT
ATOM      1  C   UNL A   1      34.031  35.276  29.003  1.00  0.00     0.202 C 
ENDROOT
BRANCH   1   2
ATOM      2  C   UNL A   1      34.496  34.054  28.217  1.00  0.00     0.261 C 
BRANCH   2   3
ATOM      3  O   UNL A   1      34.928  32.948  29.036  1.00  0.00    -0.460 OA
BRANCH   3   4
ATOM      4  C   UNL A   1      34.995  31.665  28.610  1.00  0.00     0.338 C 
ATOM      5  O   UNL A   1      34.010  31.099  28.144  1.00  0.00    -0.246 OA
BRANCH   4   6
ATOM      6  C   UNL A   1      36.345  31.086  28.398  1.00  0.00     0.060 A 
ATOM      7  C   UNL A   1      36.582  29.903  27.708  1.00  0.00     0.016 A 
ATOM      8  C   UNL A   1      37.410  31.723  29.059  1.00  0.00     0.016 A 
ATOM      9  C   UNL A   1      37.766  29.226  27.902  1.00  0.00     0.010 A 
ATOM     10  C   UNL A   1      38.630  31.080  29.201  1.00  0.00     0.010 A 
ATOM     11  C   UNL A   1      38.759  29.792  28.701  1.00  0.00    -0.014 A 
BRANCH  11  12
ATOM     12  C   UNL A   1      39.931  28.966  28.911  1.00  0.00     0.031 A 
ATOM     13  C   UNL A   1      40.229  28.676  30.335  1.00  0.00     0.074 A 
ATOM     14  C   UNL A   1      40.732  28.561  27.912  1.00  0.00     0.049 A 
ATOM     15  N   UNL A   1      41.235  29.089  31.033  1.00  0.00    -0.248 NA
ATOM     16  C   UNL A   1      39.209  27.952  31.103  1.00  0.00     0.031 C 
ATOM     17  C   UNL A   1      40.481  28.563  26.472  1.00  0.00     0.029 A 
ATOM     18  N   UNL A   1      41.961  27.990  28.019  1.00  0.00    -0.354 N 
ATOM     19  C   UNL A   1      41.058  28.556  32.306  1.00  0.00     0.074 A 
ATOM     20  C   UNL A   1      39.744  27.969  32.324  1.00  0.00     0.031 C 
ATOM     21  C   UNL A   1      41.437  27.826  25.859  1.00  0.00     0.029 A 
ATOM     22  C   UNL A   1      42.429  27.429  26.845  1.00  0.00     0.049 A 
ATOM     23  H   UNL A   1      42.474  27.977  28.859  1.00  0.00     0.167 HD
ATOM     24  C   UNL A   1      42.092  28.472  33.185  1.00  0.00     0.037 A 
ATOM     25  C   UNL A   1      43.518  26.631  26.730  1.00  0.00     0.037 A 
ATOM     26  C   UNL A   1      43.122  29.431  32.876  1.00  0.00     0.049 A 
ATOM     27  C   UNL A   1      44.397  26.902  27.896  1.00  0.00     0.074 A 
ATOM     28  C   UNL A   1      43.172  30.812  32.815  1.00  0.00     0.029 A 
ATOM     29  N   UNL A   1      44.260  28.998  32.243  1.00  0.00    -0.354 N 
ATOM     30  N   UNL A   1      45.053  28.015  28.074  1.00  0.00    -0.248 NA
ATOM     31  C   UNL A   1      44.219  26.087  29.091  1.00  0.00     0.031 C 
ATOM     32  C   UNL A   1      44.061  31.106  31.740  1.00  0.00     0.029 A 
ATOM     33  C   UNL A   1      44.523  29.890  31.237  1.00  0.00     0.049 A 
ATOM     34  H   UNL A   1      44.788  28.198  32.470  1.00  0.00     0.167 HD
ATOM     35  C   UNL A   1      45.002  28.242  29.441  1.00  0.00     0.074 A 
ATOM     36  C   UNL A   1      44.562  26.979  30.023  1.00  0.00     0.031 C 
ATOM     37  C   UNL A   1      45.053  29.508  29.950  1.00  0.00     0.037 A 
BRANCH  24  38
ATOM     38  C   UNL A   1      42.329  27.280  34.084  1.00  0.00     0.064 A 
ATOM     39  C   UNL A   1      41.994  27.377  35.450  1.00  0.00     0.173 A 
ATOM     40  C   UNL A   1      43.150  26.183  33.740  1.00  0.00     0.173 A 
ATOM     41  F   UNL A   1      41.217  28.376  35.896  1.00  0.00    -0.203 F 
ATOM     42  C   UNL A   1      42.533  26.513  36.407  1.00  0.00     0.198 A 
ATOM     43  C   UNL A   1      43.645  25.294  34.691  1.00  0.00     0.198 A 
ATOM     44  F   UNL A   1      43.600  25.982  32.497  1.00  0.00    -0.203 F 
ATOM     45  F   UNL A   1      42.299  26.734  37.707  1.00  0.00    -0.200 F 
ATOM     46  C   UNL A   1      43.370  25.482  36.028  1.00  0.00     0.200 A 
ATOM     47  F   UNL A   1      44.463  24.306  34.303  1.00  0.00    -0.200 F 
ATOM     48  F   UNL A   1      43.949  24.699  36.948  1.00  0.00    -0.200 F 
ENDBRANCH  24  38
BRANCH  25  49
ATOM     49  C   UNL A   1      43.657  25.419  25.889  1.00  0.00     0.064 A 
ATOM     50  C   UNL A   1      44.844  25.170  25.182  1.00  0.00     0.173 A 
ATOM     51  C   UNL A   1      42.749  24.347  25.988  1.00  0.00     0.173 A 
ATOM     52  F   UNL A   1      45.781  26.123  25.079  1.00  0.00    -0.203 F 
ATOM     53  C   UNL A   1      45.120  23.912  24.637  1.00  0.00     0.198 A 
ATOM     54  C   UNL A   1      43.021  23.096  25.435  1.00  0.00     0.198 A 
ATOM     55  F   UNL A   1      41.624  24.457  26.708  1.00  0.00    -0.203 F 
ATOM     56  F   UNL A   1      46.295  23.690  24.030  1.00  0.00    -0.200 F 
ATOM     57  C   UNL A   1      44.213  22.874  24.774  1.00  0.00     0.200 A 
ATOM     58  F   UNL A   1      42.150  22.091  25.606  1.00  0.00    -0.200 F 
ATOM     59  F   UNL A   1      44.505  21.652  24.309  1.00  0.00    -0.200 F 
ENDBRANCH  25  49
BRANCH  37  60
ATOM     60  C   UNL A   1      45.437  30.623  29.022  1.00  0.00     0.064 A 
ATOM     61  C   UNL A   1      46.764  31.039  28.812  1.00  0.00     0.173 A 
ATOM     62  C   UNL A   1      44.447  31.178  28.200  1.00  0.00     0.173 A 
ATOM     63  F   UNL A   1      47.777  30.480  29.489  1.00  0.00    -0.203 F 
ATOM     64  C   UNL A   1      47.075  31.996  27.848  1.00  0.00     0.198 A 
ATOM     65  C   UNL A   1      44.766  32.107  27.213  1.00  0.00     0.198 A 
ATOM     66  F   UNL A   1      43.172  30.775  28.318  1.00  0.00    -0.203 F 
ATOM     67  F   UNL A   1      48.347  32.380  27.667  1.00  0.00    -0.200 F 
ATOM     68  C   UNL A   1      46.077  32.522  27.043  1.00  0.00     0.200 A 
ATOM     69  F   UNL A   1      43.806  32.574  26.404  1.00  0.00    -0.200 F 
ATOM     70  F   UNL A   1      46.383  33.405  26.083  1.00  0.00    -0.200 F 
ENDBRANCH  37  60
ENDBRANCH  11  12
ENDBRANCH   4   6
ENDBRANCH   3   4
ENDBRANCH   2   3
ENDBRANCH   1   2
BRANCH   1  71
ATOM     71  O   UNL A   1      32.814  35.155  29.737  1.00  0.00    -0.374 OA
BRANCH  71  72
ATOM     72  C   UNL A   1      32.685  35.998  30.892  1.00  0.00     0.202 C 
BRANCH  72  73
ATOM     73  C   UNL A   1      32.932  35.407  32.292  1.00  0.00     0.261 C 
BRANCH  73  74
ATOM     74  O   UNL A   1      34.322  35.157  32.563  1.00  0.00    -0.457 OA
BRANCH  74  75
ATOM     75  C   UNL A   1      34.687  33.842  32.523  1.00  0.00     0.374 C 
ATOM     76  O   UNL A   1      33.895  32.904  32.470  1.00  0.00    -0.242 OA
BRANCH  75  77
ATOM     77  C   UNL A   1      36.116  33.734  32.371  1.00  0.00     0.216 A 
ATOM     78  O   UNL A   1      36.711  34.515  31.390  1.00  0.00    -0.449 OA
ATOM     79  C   UNL A   1      37.093  33.010  33.026  1.00  0.00     0.014 A 
ATOM     80  C   UNL A   1      38.041  34.210  31.368  1.00  0.00     0.135 A 
ATOM     81  C   UNL A   1      38.284  33.252  32.317  1.00  0.00     0.028 A 
ATOM     82  C   UNL A   1      37.127  32.035  34.148  1.00  0.00     0.041 C 
ATOM     83  C   UNL A   1      39.033  34.707  30.536  1.00  0.00     0.048 A 
ATOM     84  C   UNL A   1      39.522  32.625  32.456  1.00  0.00    -0.037 A 
ATOM     85  C   UNL A   1      38.213  30.956  33.858  1.00  0.00     0.010 C 
ATOM     86  C   UNL A   1      40.303  34.115  30.688  1.00  0.00     0.004 A 
ATOM     87  C   UNL A   1      40.545  33.085  31.620  1.00  0.00     0.004 A 
ATOM     88  C   UNL A   1      39.623  31.524  33.478  1.00  0.00     0.036 C 
ENDBRANCH  75  77
ENDBRANCH  74  75
ENDBRANCH  73  74
ENDBRANCH  72  73
ENDBRANCH  71  72
ENDBRANCH   1  71
TORSDOF 14
ENDMDL
