MODEL 1
REMARK VINA RESULT:     -12.6      0.000      0.000
REMARK SMILES O=C(OCCOCCOC(=O)c1ccc([C@H]2CCCN(C(=O)c3ccc4[nH]ccc4c3)C2)cc1)c1ccc(-c2c3nc(c(-c4c(F)c(F)c(F)c(F)c4F)c4ccc([nH]4)c(-c4c(F)c(F)c(F)c(F)c4F)c4nc(c(-c5c(F)c(F)c(F)c(F)c5F)c5ccc2[nH]5)C=C4)C=C3)cc1
REMARK SMILES IDX 7 1 6 2 5 3 4 4 3 5 2 6 1 7 35 8 36 9 97 10 37 11 96 12
REMARK SMILES IDX 38 13 39 14 40 15 90 16 41 17 95 18 89 19 91 20 42 21 94 22
REMARK SMILES IDX 88 23 87 24 43 26 75 27 55 28 74 29 56 30 59 31 73 32 92 33
REMARK SMILES IDX 57 34 58 35 72 37 93 38 60 39 44 40 45 41 53 42 46 43 47 44
REMARK SMILES IDX 51 45 54 46 48 47 49 48 52 49 50 50 76 51 77 52 85 53 78 54
REMARK SMILES IDX 79 55 83 56 86 57 80 58 81 59 84 60 82 61 61 62 62 63 70 64
REMARK SMILES IDX 63 65 64 66 68 67 71 68 65 69 66 70 69 71 67 72 8 73 9 74
REMARK SMILES IDX 10 75 11 76 12 77 13 78 34 79 14 80 33 81 15 82 16 83 17 84
REMARK SMILES IDX 32 85 18 86 20 87 19 88 21 89 22 90 23 91 24 92 31 93 25 94
REMARK SMILES IDX 30 95 26 96 29 97 27 98 28 99
REMARK H PARENT 91 25 59 36 27 100
REMARK Flexibility Score: inf
ROOT
ATOM      1  C   UNL A   1      42.864  19.677  26.017  1.00  0.00     0.202 C 
ENDROOT
BRANCH   1   2
ATOM      2  O   UNL A   1      43.231  20.569  24.959  1.00  0.00    -0.374 OA
BRANCH   2   3
ATOM      3  C   UNL A   1      44.476  21.249  25.101  1.00  0.00     0.202 C 
BRANCH   3   4
ATOM      4  C   UNL A   1      44.584  22.535  24.279  1.00  0.00     0.261 C 
BRANCH   4   5
ATOM      5  O   UNL A   1      43.733  23.554  24.830  1.00  0.00    -0.460 OA
BRANCH   5   6
ATOM      6  C   UNL A   1      44.068  24.810  25.202  1.00  0.00     0.338 C 
ATOM      7  O   UNL A   1      44.986  25.376  24.611  1.00  0.00    -0.246 OA
BRANCH   6   8
ATOM      8  C   UNL A   1      43.401  25.553  26.316  1.00  0.00     0.060 A 
ATOM      9  C   UNL A   1      42.498  24.992  27.222  1.00  0.00     0.016 A 
ATOM     10  C   UNL A   1      43.815  26.877  26.539  1.00  0.00     0.016 A 
ATOM     11  C   UNL A   1      42.004  25.708  28.301  1.00  0.00     0.010 A 
ATOM     12  C   UNL A   1      43.353  27.597  27.644  1.00  0.00     0.010 A 
ATOM     13  C   UNL A   1      42.451  27.003  28.532  1.00  0.00    -0.014 A 
BRANCH  13  14
ATOM     14  C   UNL A   1      41.930  27.709  29.710  1.00  0.00     0.031 A 
ATOM     15  C   UNL A   1      40.644  28.456  29.585  1.00  0.00     0.074 A 
ATOM     16  C   UNL A   1      42.570  27.575  30.886  1.00  0.00     0.049 A 
ATOM     17  N   UNL A   1      40.044  29.214  30.459  1.00  0.00    -0.248 NA
ATOM     18  C   UNL A   1      39.927  28.318  28.306  1.00  0.00     0.031 C 
ATOM     19  C   UNL A   1      43.765  26.753  31.104  1.00  0.00     0.029 A 
ATOM     20  N   UNL A   1      42.305  28.108  32.118  1.00  0.00    -0.354 N 
ATOM     21  C   UNL A   1      38.900  29.676  29.825  1.00  0.00     0.074 A 
ATOM     22  C   UNL A   1      38.876  29.101  28.500  1.00  0.00     0.031 C 
ATOM     23  C   UNL A   1      44.128  26.838  32.394  1.00  0.00     0.029 A 
ATOM     24  C   UNL A   1      43.242  27.779  33.068  1.00  0.00     0.049 A 
ATOM     25  H   UNL A   1      41.521  28.673  32.305  1.00  0.00     0.167 HD
ATOM     26  C   UNL A   1      37.974  30.525  30.320  1.00  0.00     0.037 A 
ATOM     27  C   UNL A   1      43.390  28.242  34.323  1.00  0.00     0.037 A 
ATOM     28  C   UNL A   1      38.032  31.064  31.651  1.00  0.00     0.049 A 
ATOM     29  C   UNL A   1      42.392  29.261  34.809  1.00  0.00     0.074 A 
ATOM     30  C   UNL A   1      37.163  31.944  32.268  1.00  0.00     0.029 A 
ATOM     31  N   UNL A   1      39.029  30.766  32.572  1.00  0.00    -0.354 N 
ATOM     32  N   UNL A   1      41.326  29.729  34.202  1.00  0.00    -0.248 NA
ATOM     33  C   UNL A   1      42.628  29.838  36.138  1.00  0.00     0.031 C 
ATOM     34  C   UNL A   1      37.669  32.225  33.541  1.00  0.00     0.029 A 
ATOM     35  C   UNL A   1      38.822  31.479  33.738  1.00  0.00     0.049 A 
ATOM     36  H   UNL A   1      39.773  30.140  32.416  1.00  0.00     0.167 HD
ATOM     37  C   UNL A   1      40.762  30.650  35.071  1.00  0.00     0.074 A 
ATOM     38  C   UNL A   1      41.586  30.649  36.264  1.00  0.00     0.031 C 
ATOM     39  C   UNL A   1      39.674  31.439  34.901  1.00  0.00     0.037 A 
BRANCH  26  40
ATOM     40  C   UNL A   1      36.887  30.982  29.397  1.00  0.00     0.064 A 
ATOM     41  C   UNL A   1      36.882  32.257  28.815  1.00  0.00     0.173 A 
ATOM     42  C   UNL A   1      35.831  30.111  29.082  1.00  0.00     0.173 A 
ATOM     43  F   UNL A   1      37.853  33.136  29.107  1.00  0.00    -0.203 F 
ATOM     44  C   UNL A   1      35.852  32.649  27.963  1.00  0.00     0.198 A 
ATOM     45  C   UNL A   1      34.817  30.497  28.211  1.00  0.00     0.198 A 
ATOM     46  F   UNL A   1      35.785  28.883  29.621  1.00  0.00    -0.203 F 
ATOM     47  F   UNL A   1      35.843  33.887  27.449  1.00  0.00    -0.200 F 
ATOM     48  C   UNL A   1      34.826  31.767  27.655  1.00  0.00     0.200 A 
ATOM     49  F   UNL A   1      33.828  29.643  27.916  1.00  0.00    -0.200 F 
ATOM     50  F   UNL A   1      33.838  32.145  26.832  1.00  0.00    -0.200 F 
ENDBRANCH  26  40
BRANCH  27  51
ATOM     51  C   UNL A   1      44.557  27.837  35.154  1.00  0.00     0.064 A 
ATOM     52  C   UNL A   1      45.765  28.546  35.117  1.00  0.00     0.173 A 
ATOM     53  C   UNL A   1      44.504  26.696  35.973  1.00  0.00     0.173 A 
ATOM     54  F   UNL A   1      45.881  29.630  34.335  1.00  0.00    -0.203 F 
ATOM     55  C   UNL A   1      46.879  28.115  35.837  1.00  0.00     0.198 A 
ATOM     56  C   UNL A   1      45.606  26.287  36.720  1.00  0.00     0.198 A 
ATOM     57  F   UNL A   1      43.378  25.970  36.045  1.00  0.00    -0.203 F 
ATOM     58  F   UNL A   1      48.040  28.775  35.728  1.00  0.00    -0.200 F 
ATOM     59  C   UNL A   1      46.798  26.988  36.642  1.00  0.00     0.200 A 
ATOM     60  F   UNL A   1      45.516  25.204  37.505  1.00  0.00    -0.200 F 
ATOM     61  F   UNL A   1      47.871  26.570  37.326  1.00  0.00    -0.200 F 
ENDBRANCH  27  51
BRANCH  39  62
ATOM     62  C   UNL A   1      39.320  32.354  36.033  1.00  0.00     0.064 A 
ATOM     63  C   UNL A   1      38.440  31.950  37.046  1.00  0.00     0.173 A 
ATOM     64  C   UNL A   1      39.919  33.618  36.137  1.00  0.00     0.173 A 
ATOM     65  F   UNL A   1      37.831  30.757  36.976  1.00  0.00    -0.203 F 
ATOM     66  C   UNL A   1      38.163  32.787  38.121  1.00  0.00     0.198 A 
ATOM     67  C   UNL A   1      39.664  34.438  37.229  1.00  0.00     0.198 A 
ATOM     68  F   UNL A   1      40.773  34.042  35.192  1.00  0.00    -0.203 F 
ATOM     69  F   UNL A   1      37.290  32.399  39.061  1.00  0.00    -0.200 F 
ATOM     70  C   UNL A   1      38.783  34.025  38.217  1.00  0.00     0.200 A 
ATOM     71  F   UNL A   1      40.276  35.626  37.330  1.00  0.00    -0.200 F 
ATOM     72  F   UNL A   1      38.528  34.821  39.264  1.00  0.00    -0.200 F 
ENDBRANCH  39  62
ENDBRANCH  13  14
ENDBRANCH   6   8
ENDBRANCH   5   6
ENDBRANCH   4   5
ENDBRANCH   3   4
ENDBRANCH   2   3
ENDBRANCH   1   2
BRANCH   1  73
ATOM     73  C   UNL A   1      41.345  19.740  26.211  1.00  0.00     0.261 C 
BRANCH  73  74
ATOM     74  O   UNL A   1      40.910  21.070  25.894  1.00  0.00    -0.460 OA
BRANCH  74  75
ATOM     75  C   UNL A   1      40.124  21.649  26.839  1.00  0.00     0.338 C 
ATOM     76  O   UNL A   1      40.403  21.838  28.011  1.00  0.00    -0.246 OA
BRANCH  75  77
ATOM     77  C   UNL A   1      38.939  22.215  26.150  1.00  0.00     0.060 A 
ATOM     78  C   UNL A   1      38.602  23.559  26.343  1.00  0.00     0.016 A 
ATOM     79  C   UNL A   1      38.206  21.440  25.254  1.00  0.00     0.016 A 
ATOM     80  C   UNL A   1      37.499  24.108  25.678  1.00  0.00     0.005 A 
ATOM     81  C   UNL A   1      37.122  21.991  24.586  1.00  0.00     0.005 A 
ATOM     82  C   UNL A   1      36.718  23.317  24.822  1.00  0.00    -0.043 A 
BRANCH  82  83
ATOM     83  C   UNL A   1      35.397  23.848  24.285  1.00  0.00     0.039 C 
ATOM     84  C   UNL A   1      34.732  22.946  23.229  1.00  0.00     0.012 C 
ATOM     85  C   UNL A   1      34.397  24.142  25.416  1.00  0.00     0.128 C 
ATOM     86  C   UNL A   1      33.387  23.534  22.766  1.00  0.00     0.022 C 
ATOM     87  N   UNL A   1      33.170  24.713  24.910  1.00  0.00    -0.338 N 
ATOM     88  C   UNL A   1      32.463  23.883  23.936  1.00  0.00     0.120 C 
BRANCH  87  89
ATOM     89  C   UNL A   1      32.791  25.958  25.386  1.00  0.00     0.253 C 
ATOM     90  O   UNL A   1      32.742  26.264  26.574  1.00  0.00    -0.269 OA
BRANCH  89  91
ATOM     91  C   UNL A   1      32.404  26.980  24.413  1.00  0.00     0.040 A 
ATOM     92  C   UNL A   1      33.404  27.645  23.705  1.00  0.00     0.016 A 
ATOM     93  C   UNL A   1      31.045  27.288  24.265  1.00  0.00     0.024 A 
ATOM     94  C   UNL A   1      33.063  28.628  22.778  1.00  0.00     0.027 A 
ATOM     95  C   UNL A   1      30.694  28.291  23.350  1.00  0.00     0.000 A 
ATOM     96  C   UNL A   1      31.702  28.925  22.620  1.00  0.00     0.045 A 
ATOM     97  C   UNL A   1      29.460  28.882  22.964  1.00  0.00     0.028 A 
ATOM     98  N   UNL A   1      31.087  29.839  21.797  1.00  0.00    -0.361 N 
ATOM     99  C   UNL A   1      29.733  29.834  22.009  1.00  0.00     0.083 A 
ATOM    100  H   UNL A   1      31.552  30.415  21.147  1.00  0.00     0.166 HD
ENDBRANCH  89  91
ENDBRANCH  87  89
ENDBRANCH  82  83
ENDBRANCH  75  77
ENDBRANCH  74  75
ENDBRANCH  73  74
ENDBRANCH   1  73
TORSDOF 17
ENDMDL
MODEL 2
REMARK VINA RESULT:     -12.6      0.733      7.092
REMARK SMILES O=C(OCCOCCOC(=O)c1ccc([C@H]2CCCN(C(=O)c3ccc4[nH]ccc4c3)C2)cc1)c1ccc(-c2c3nc(c(-c4c(F)c(F)c(F)c(F)c4F)c4ccc([nH]4)c(-c4c(F)c(F)c(F)c(F)c4F)c4nc(c(-c5c(F)c(F)c(F)c(F)c5F)c5ccc2[nH]5)C=C4)C=C3)cc1
REMARK SMILES IDX 7 1 6 2 5 3 4 4 3 5 2 6 1 7 35 8 36 9 97 10 37 11 96 12
REMARK SMILES IDX 38 13 39 14 40 15 90 16 41 17 95 18 89 19 91 20 42 21 94 22
REMARK SMILES IDX 88 23 87 24 43 26 75 27 55 28 74 29 56 30 59 31 73 32 92 33
REMARK SMILES IDX 57 34 58 35 72 37 93 38 60 39 44 40 45 41 53 42 46 43 47 44
REMARK SMILES IDX 51 45 54 46 48 47 49 48 52 49 50 50 76 51 77 52 85 53 78 54
REMARK SMILES IDX 79 55 83 56 86 57 80 58 81 59 84 60 82 61 61 62 62 63 70 64
REMARK SMILES IDX 63 65 64 66 68 67 71 68 65 69 66 70 69 71 67 72 8 73 9 74
REMARK SMILES IDX 10 75 11 76 12 77 13 78 34 79 14 80 33 81 15 82 16 83 17 84
REMARK SMILES IDX 32 85 18 86 20 87 19 88 21 89 22 90 23 91 24 92 31 93 25 94
REMARK SMILES IDX 30 95 26 96 29 97 27 98 28 99
REMARK H PARENT 91 25 59 36 27 100
REMARK Flexibility Score: inf
ROOT
ATOM      1  C   UNL A   1      42.475  19.805  26.430  1.00  0.00     0.202 C 
ENDROOT
BRANCH   1   2
ATOM      2  O   UNL A   1      43.019  20.313  25.207  1.00  0.00    -0.374 OA
BRANCH   2   3
ATOM      3  C   UNL A   1      44.440  20.296  25.086  1.00  0.00     0.202 C 
BRANCH   3   4
ATOM      4  C   UNL A   1      45.087  21.682  25.122  1.00  0.00     0.261 C 
BRANCH   4   5
ATOM      5  O   UNL A   1      44.101  22.688  25.403  1.00  0.00    -0.460 OA
BRANCH   5   6
ATOM      6  C   UNL A   1      44.251  24.032  25.391  1.00  0.00     0.338 C 
ATOM      7  O   UNL A   1      44.964  24.538  24.525  1.00  0.00    -0.246 OA
BRANCH   6   8
ATOM      8  C   UNL A   1      43.619  24.949  26.389  1.00  0.00     0.060 A 
ATOM      9  C   UNL A   1      42.800  24.539  27.443  1.00  0.00     0.016 A 
ATOM     10  C   UNL A   1      43.983  26.304  26.331  1.00  0.00     0.016 A 
ATOM     11  C   UNL A   1      42.339  25.429  28.400  1.00  0.00     0.010 A 
ATOM     12  C   UNL A   1      43.555  27.205  27.311  1.00  0.00     0.010 A 
ATOM     13  C   UNL A   1      42.738  26.759  28.354  1.00  0.00    -0.014 A 
BRANCH  13  14
ATOM     14  C   UNL A   1      42.256  27.657  29.413  1.00  0.00     0.031 A 
ATOM     15  C   UNL A   1      43.054  27.773  30.669  1.00  0.00     0.074 A 
ATOM     16  C   UNL A   1      41.174  28.420  29.177  1.00  0.00     0.049 A 
ATOM     17  N   UNL A   1      42.779  28.431  31.760  1.00  0.00    -0.248 NA
ATOM     18  C   UNL A   1      44.344  27.063  30.695  1.00  0.00     0.031 C 
ATOM     19  C   UNL A   1      40.422  28.448  27.918  1.00  0.00     0.029 A 
ATOM     20  N   UNL A   1      40.527  29.328  29.969  1.00  0.00    -0.354 N 
ATOM     21  C   UNL A   1      43.841  28.184  32.618  1.00  0.00     0.074 A 
ATOM     22  C   UNL A   1      44.775  27.333  31.918  1.00  0.00     0.031 C 
ATOM     23  C   UNL A   1      39.416  29.330  28.026  1.00  0.00     0.029 A 
ATOM     24  C   UNL A   1      39.407  29.865  29.381  1.00  0.00     0.049 A 
ATOM     25  H   UNL A   1      40.833  29.573  30.872  1.00  0.00     0.167 HD
ATOM     26  C   UNL A   1      43.992  28.625  33.886  1.00  0.00     0.037 A 
ATOM     27  C   UNL A   1      38.454  30.655  29.912  1.00  0.00     0.037 A 
ATOM     28  C   UNL A   1      43.041  29.483  34.538  1.00  0.00     0.049 A 
ATOM     29  C   UNL A   1      38.605  31.049  31.358  1.00  0.00     0.074 A 
ATOM     30  C   UNL A   1      43.070  29.988  35.823  1.00  0.00     0.029 A 
ATOM     31  N   UNL A   1      41.880  29.959  33.941  1.00  0.00    -0.354 N 
ATOM     32  N   UNL A   1      39.591  30.791  32.186  1.00  0.00    -0.248 NA
ATOM     33  C   UNL A   1      37.506  31.817  31.954  1.00  0.00     0.031 C 
ATOM     34  C   UNL A   1      41.896  30.721  36.024  1.00  0.00     0.029 A 
ATOM     35  C   UNL A   1      41.161  30.717  34.847  1.00  0.00     0.049 A 
ATOM     36  H   UNL A   1      41.609  29.781  33.012  1.00  0.00     0.167 HD
ATOM     37  C   UNL A   1      39.236  31.365  33.396  1.00  0.00     0.074 A 
ATOM     38  C   UNL A   1      37.958  32.016  33.185  1.00  0.00     0.031 C 
ATOM     39  C   UNL A   1      39.891  31.348  34.583  1.00  0.00     0.037 A 
BRANCH  26  40
ATOM     40  C   UNL A   1      45.168  28.120  34.661  1.00  0.00     0.064 A 
ATOM     41  C   UNL A   1      45.099  26.980  35.473  1.00  0.00     0.173 A 
ATOM     42  C   UNL A   1      46.398  28.793  34.577  1.00  0.00     0.173 A 
ATOM     43  F   UNL A   1      43.940  26.317  35.610  1.00  0.00    -0.203 F 
ATOM     44  C   UNL A   1      46.214  26.540  36.183  1.00  0.00     0.198 A 
ATOM     45  C   UNL A   1      47.516  28.338  35.268  1.00  0.00     0.198 A 
ATOM     46  F   UNL A   1      46.513  29.897  33.821  1.00  0.00    -0.203 F 
ATOM     47  F   UNL A   1      46.117  25.472  36.987  1.00  0.00    -0.200 F 
ATOM     48  C   UNL A   1      47.422  27.214  36.075  1.00  0.00     0.200 A 
ATOM     49  F   UNL A   1      48.681  28.991  35.160  1.00  0.00    -0.200 F 
ATOM     50  F   UNL A   1      48.495  26.787  36.756  1.00  0.00    -0.200 F 
ENDBRANCH  26  40
BRANCH  27  51
ATOM     51  C   UNL A   1      37.247  31.031  29.124  1.00  0.00     0.064 A 
ATOM     52  C   UNL A   1      37.036  32.346  28.690  1.00  0.00     0.173 A 
ATOM     53  C   UNL A   1      36.251  30.086  28.829  1.00  0.00     0.173 A 
ATOM     54  F   UNL A   1      37.942  33.296  28.964  1.00  0.00    -0.203 F 
ATOM     55  C   UNL A   1      35.865  32.708  28.022  1.00  0.00     0.198 A 
ATOM     56  C   UNL A   1      35.099  30.439  28.130  1.00  0.00     0.198 A 
ATOM     57  F   UNL A   1      36.391  28.811  29.225  1.00  0.00    -0.203 F 
ATOM     58  F   UNL A   1      35.661  33.986  27.679  1.00  0.00    -0.200 F 
ATOM     59  C   UNL A   1      34.900  31.753  27.738  1.00  0.00     0.200 A 
ATOM     60  F   UNL A   1      34.176  29.509  27.848  1.00  0.00    -0.200 F 
ATOM     61  F   UNL A   1      33.772  32.103  27.105  1.00  0.00    -0.200 F 
ENDBRANCH  27  51
BRANCH  39  62
ATOM     62  C   UNL A   1      39.235  32.056  35.728  1.00  0.00     0.064 A 
ATOM     63  C   UNL A   1      38.393  31.374  36.616  1.00  0.00     0.173 A 
ATOM     64  C   UNL A   1      39.506  33.409  35.974  1.00  0.00     0.173 A 
ATOM     65  F   UNL A   1      38.091  30.084  36.406  1.00  0.00    -0.203 F 
ATOM     66  C   UNL A   1      37.833  32.028  37.708  1.00  0.00     0.198 A 
ATOM     67  C   UNL A   1      38.971  34.051  37.085  1.00  0.00     0.198 A 
ATOM     68  F   UNL A   1      40.313  34.099  35.153  1.00  0.00    -0.203 F 
ATOM     69  F   UNL A   1      37.000  31.370  38.526  1.00  0.00    -0.200 F 
ATOM     70  C   UNL A   1      38.131  33.362  37.948  1.00  0.00     0.200 A 
ATOM     71  F   UNL A   1      39.273  35.334  37.325  1.00  0.00    -0.200 F 
ATOM     72  F   UNL A   1      37.607  33.984  39.012  1.00  0.00    -0.200 F 
ENDBRANCH  39  62
ENDBRANCH  13  14
ENDBRANCH   6   8
ENDBRANCH   5   6
ENDBRANCH   4   5
ENDBRANCH   3   4
ENDBRANCH   2   3
ENDBRANCH   1   2
BRANCH   1  73
ATOM     73  C   UNL A   1      40.949  19.950  26.388  1.00  0.00     0.261 C 
BRANCH  73  74
ATOM     74  O   UNL A   1      40.640  21.257  25.883  1.00  0.00    -0.460 OA
BRANCH  74  75
ATOM     75  C   UNL A   1      39.962  22.053  26.749  1.00  0.00     0.338 C 
ATOM     76  O   UNL A   1      40.393  22.562  27.771  1.00  0.00    -0.246 OA
BRANCH  75  77
ATOM     77  C   UNL A   1      38.656  22.380  26.128  1.00  0.00     0.060 A 
ATOM     78  C   UNL A   1      38.123  23.667  26.271  1.00  0.00     0.016 A 
ATOM     79  C   UNL A   1      37.994  21.442  25.340  1.00  0.00     0.016 A 
ATOM     80  C   UNL A   1      36.903  23.992  25.668  1.00  0.00     0.005 A 
ATOM     81  C   UNL A   1      36.790  21.773  24.731  1.00  0.00     0.005 A 
ATOM     82  C   UNL A   1      36.198  23.033  24.925  1.00  0.00    -0.043 A 
BRANCH  82  83
ATOM     83  C   UNL A   1      34.775  23.316  24.467  1.00  0.00     0.039 C 
ATOM     84  C   UNL A   1      34.179  22.239  23.542  1.00  0.00     0.012 C 
ATOM     85  C   UNL A   1      33.829  23.556  25.656  1.00  0.00     0.128 C 
ATOM     86  C   UNL A   1      32.729  22.581  23.156  1.00  0.00     0.022 C 
ATOM     87  N   UNL A   1      32.495  23.895  25.218  1.00  0.00    -0.338 N 
ATOM     88  C   UNL A   1      31.852  22.889  24.373  1.00  0.00     0.120 C 
BRANCH  87  89
ATOM     89  C   UNL A   1      31.966  25.106  25.633  1.00  0.00     0.253 C 
ATOM     90  O   UNL A   1      31.530  25.327  26.759  1.00  0.00    -0.269 OA
BRANCH  89  91
ATOM     91  C   UNL A   1      31.903  26.199  24.662  1.00  0.00     0.040 A 
ATOM     92  C   UNL A   1      33.065  26.561  23.983  1.00  0.00     0.016 A 
ATOM     93  C   UNL A   1      30.689  26.875  24.488  1.00  0.00     0.024 A 
ATOM     94  C   UNL A   1      33.035  27.604  23.059  1.00  0.00     0.027 A 
ATOM     95  C   UNL A   1      30.654  27.941  23.576  1.00  0.00     0.000 A 
ATOM     96  C   UNL A   1      31.816  28.271  22.875  1.00  0.00     0.045 A 
ATOM     97  C   UNL A   1      29.644  28.854  23.170  1.00  0.00     0.028 A 
ATOM     98  N   UNL A   1      31.500  29.324  22.048  1.00  0.00    -0.361 N 
ATOM     99  C   UNL A   1      30.194  29.696  22.231  1.00  0.00     0.083 A 
ATOM    100  H   UNL A   1      32.122  29.749  21.414  1.00  0.00     0.166 HD
ENDBRANCH  89  91
ENDBRANCH  87  89
ENDBRANCH  82  83
ENDBRANCH  75  77
ENDBRANCH  74  75
ENDBRANCH  73  74
ENDBRANCH   1  73
TORSDOF 17
ENDMDL
MODEL 3
REMARK VINA RESULT:     -12.5      1.973      7.802
REMARK SMILES O=C(OCCOCCOC(=O)c1ccc([C@H]2CCCN(C(=O)c3ccc4[nH]ccc4c3)C2)cc1)c1ccc(-c2c3nc(c(-c4c(F)c(F)c(F)c(F)c4F)c4ccc([nH]4)c(-c4c(F)c(F)c(F)c(F)c4F)c4nc(c(-c5c(F)c(F)c(F)c(F)c5F)c5ccc2[nH]5)C=C4)C=C3)cc1
REMARK SMILES IDX 7 1 6 2 5 3 4 4 3 5 2 6 1 7 35 8 36 9 97 10 37 11 96 12
REMARK SMILES IDX 38 13 39 14 40 15 90 16 41 17 95 18 89 19 91 20 42 21 94 22
REMARK SMILES IDX 88 23 87 24 43 26 75 27 55 28 74 29 56 30 59 31 73 32 92 33
REMARK SMILES IDX 57 34 58 35 72 37 93 38 60 39 44 40 45 41 53 42 46 43 47 44
REMARK SMILES IDX 51 45 54 46 48 47 49 48 52 49 50 50 76 51 77 52 85 53 78 54
REMARK SMILES IDX 79 55 83 56 86 57 80 58 81 59 84 60 82 61 61 62 62 63 70 64
REMARK SMILES IDX 63 65 64 66 68 67 71 68 65 69 66 70 69 71 67 72 8 73 9 74
REMARK SMILES IDX 10 75 11 76 12 77 13 78 34 79 14 80 33 81 15 82 16 83 17 84
REMARK SMILES IDX 32 85 18 86 20 87 19 88 21 89 22 90 23 91 24 92 31 93 25 94
REMARK SMILES IDX 30 95 26 96 29 97 27 98 28 99
REMARK H PARENT 91 25 59 36 27 100
REMARK Flexibility Score: inf
ROOT
ATOM      1  C   UNL A   1      43.074  18.801  25.602  1.00  0.00     0.202 C 
ENDROOT
BRANCH   1   2
ATOM      2  O   UNL A   1      43.419  19.910  24.765  1.00  0.00    -0.374 OA
BRANCH   2   3
ATOM      3  C   UNL A   1      44.547  20.684  25.165  1.00  0.00     0.202 C 
BRANCH   3   4
ATOM      4  C   UNL A   1      44.578  22.096  24.575  1.00  0.00     0.261 C 
BRANCH   4   5
ATOM      5  O   UNL A   1      44.068  23.047  25.525  1.00  0.00    -0.460 OA
BRANCH   5   6
ATOM      6  C   UNL A   1      44.092  24.396  25.451  1.00  0.00     0.338 C 
ATOM      7  O   UNL A   1      44.678  24.925  24.508  1.00  0.00    -0.246 OA
BRANCH   6   8
ATOM      8  C   UNL A   1      43.465  25.296  26.467  1.00  0.00     0.060 A 
ATOM      9  C   UNL A   1      42.608  24.875  27.486  1.00  0.00     0.016 A 
ATOM     10  C   UNL A   1      43.872  26.641  26.467  1.00  0.00     0.016 A 
ATOM     11  C   UNL A   1      42.152  25.745  28.465  1.00  0.00     0.010 A 
ATOM     12  C   UNL A   1      43.448  27.519  27.469  1.00  0.00     0.010 A 
ATOM     13  C   UNL A   1      42.593  27.062  28.477  1.00  0.00    -0.014 A 
BRANCH  13  14
ATOM     14  C   UNL A   1      42.114  27.936  29.556  1.00  0.00     0.031 A 
ATOM     15  C   UNL A   1      42.906  28.012  30.819  1.00  0.00     0.074 A 
ATOM     16  C   UNL A   1      41.041  28.716  29.335  1.00  0.00     0.049 A 
ATOM     17  N   UNL A   1      42.632  28.643  31.926  1.00  0.00    -0.248 NA
ATOM     18  C   UNL A   1      44.190  27.289  30.833  1.00  0.00     0.031 C 
ATOM     19  C   UNL A   1      40.296  28.784  28.073  1.00  0.00     0.029 A 
ATOM     20  N   UNL A   1      40.398  29.609  30.147  1.00  0.00    -0.354 N 
ATOM     21  C   UNL A   1      43.687  28.364  32.782  1.00  0.00     0.074 A 
ATOM     22  C   UNL A   1      44.617  27.522  32.065  1.00  0.00     0.031 C 
ATOM     23  C   UNL A   1      39.297  29.673  28.199  1.00  0.00     0.029 A 
ATOM     24  C   UNL A   1      39.286  30.173  29.568  1.00  0.00     0.049 A 
ATOM     25  H   UNL A   1      40.701  29.827  31.059  1.00  0.00     0.167 HD
ATOM     26  C   UNL A   1      43.835  28.770  34.062  1.00  0.00     0.037 A 
ATOM     27  C   UNL A   1      38.338  30.957  30.115  1.00  0.00     0.037 A 
ATOM     28  C   UNL A   1      42.888  29.619  34.732  1.00  0.00     0.049 A 
ATOM     29  C   UNL A   1      38.485  31.311  31.572  1.00  0.00     0.074 A 
ATOM     30  C   UNL A   1      42.915  30.090  36.030  1.00  0.00     0.029 A 
ATOM     31  N   UNL A   1      41.735  30.122  34.142  1.00  0.00    -0.354 N 
ATOM     32  N   UNL A   1      39.464  31.022  32.397  1.00  0.00    -0.248 NA
ATOM     33  C   UNL A   1      37.390  32.074  32.182  1.00  0.00     0.031 C 
ATOM     34  C   UNL A   1      41.747  30.829  36.244  1.00  0.00     0.029 A 
ATOM     35  C   UNL A   1      41.018  30.863  35.063  1.00  0.00     0.049 A 
ATOM     36  H   UNL A   1      41.467  29.972  33.207  1.00  0.00     0.167 HD
ATOM     37  C   UNL A   1      39.107  31.568  33.621  1.00  0.00     0.074 A 
ATOM     38  C   UNL A   1      37.837  32.236  33.420  1.00  0.00     0.031 C 
ATOM     39  C   UNL A   1      39.757  31.513  34.809  1.00  0.00     0.037 A 
BRANCH  26  40
ATOM     40  C   UNL A   1      45.002  28.234  34.830  1.00  0.00     0.064 A 
ATOM     41  C   UNL A   1      46.232  28.904  34.892  1.00  0.00     0.173 A 
ATOM     42  C   UNL A   1      44.878  27.022  35.529  1.00  0.00     0.173 A 
ATOM     43  F   UNL A   1      46.411  30.051  34.219  1.00  0.00    -0.203 F 
ATOM     44  C   UNL A   1      47.298  28.374  35.615  1.00  0.00     0.198 A 
ATOM     45  C   UNL A   1      45.938  26.507  36.269  1.00  0.00     0.198 A 
ATOM     46  F   UNL A   1      43.725  26.337  35.492  1.00  0.00    -0.203 F 
ATOM     47  F   UNL A   1      48.479  29.009  35.628  1.00  0.00    -0.200 F 
ATOM     48  C   UNL A   1      47.149  27.181  36.308  1.00  0.00     0.200 A 
ATOM     49  F   UNL A   1      45.789  25.356  36.938  1.00  0.00    -0.200 F 
ATOM     50  F   UNL A   1      48.175  26.675  37.006  1.00  0.00    -0.200 F 
ENDBRANCH  26  40
BRANCH  27  51
ATOM     51  C   UNL A   1      37.139  31.365  29.331  1.00  0.00     0.064 A 
ATOM     52  C   UNL A   1      36.950  32.690  28.917  1.00  0.00     0.173 A 
ATOM     53  C   UNL A   1      36.128  30.441  29.019  1.00  0.00     0.173 A 
ATOM     54  F   UNL A   1      37.871  33.620  29.209  1.00  0.00    -0.203 F 
ATOM     55  C   UNL A   1      35.787  33.081  28.254  1.00  0.00     0.198 A 
ATOM     56  C   UNL A   1      34.983  30.825  28.324  1.00  0.00     0.198 A 
ATOM     57  F   UNL A   1      36.247  29.158  29.394  1.00  0.00    -0.203 F 
ATOM     58  F   UNL A   1      35.604  34.369  27.931  1.00  0.00    -0.200 F 
ATOM     59  C   UNL A   1      34.807  32.147  27.953  1.00  0.00     0.200 A 
ATOM     60  F   UNL A   1      34.046  29.914  28.026  1.00  0.00    -0.200 F 
ATOM     61  F   UNL A   1      33.686  32.526  27.324  1.00  0.00    -0.200 F 
ENDBRANCH  27  51
BRANCH  39  62
ATOM     62  C   UNL A   1      39.101  32.197  35.970  1.00  0.00     0.064 A 
ATOM     63  C   UNL A   1      38.246  31.500  36.835  1.00  0.00     0.173 A 
ATOM     64  C   UNL A   1      39.385  33.540  36.254  1.00  0.00     0.173 A 
ATOM     65  F   UNL A   1      37.933  30.219  36.588  1.00  0.00    -0.203 F 
ATOM     66  C   UNL A   1      37.687  32.130  37.941  1.00  0.00     0.198 A 
ATOM     67  C   UNL A   1      38.849  34.157  37.379  1.00  0.00     0.198 A 
ATOM     68  F   UNL A   1      40.203  34.243  35.456  1.00  0.00    -0.203 F 
ATOM     69  F   UNL A   1      36.842  31.459  38.735  1.00  0.00    -0.200 F 
ATOM     70  C   UNL A   1      37.998  33.454  38.218  1.00  0.00     0.200 A 
ATOM     71  F   UNL A   1      39.164  35.430  37.655  1.00  0.00    -0.200 F 
ATOM     72  F   UNL A   1      37.473  34.053  39.295  1.00  0.00    -0.200 F 
ENDBRANCH  39  62
ENDBRANCH  13  14
ENDBRANCH   6   8
ENDBRANCH   5   6
ENDBRANCH   4   5
ENDBRANCH   3   4
ENDBRANCH   2   3
ENDBRANCH   1   2
BRANCH   1  73
ATOM     73  C   UNL A   1      41.908  19.210  26.508  1.00  0.00     0.261 C 
BRANCH  73  74
ATOM     74  O   UNL A   1      41.216  20.298  25.879  1.00  0.00    -0.460 OA
BRANCH  74  75
ATOM     75  C   UNL A   1      40.928  21.338  26.703  1.00  0.00     0.338 C 
ATOM     76  O   UNL A   1      41.691  21.903  27.469  1.00  0.00    -0.246 OA
BRANCH  75  77
ATOM     77  C   UNL A   1      39.568  21.820  26.358  1.00  0.00     0.060 A 
ATOM     78  C   UNL A   1      39.225  23.156  26.596  1.00  0.00     0.016 A 
ATOM     79  C   UNL A   1      38.658  20.974  25.728  1.00  0.00     0.016 A 
ATOM     80  C   UNL A   1      37.952  23.625  26.251  1.00  0.00     0.005 A 
ATOM     81  C   UNL A   1      37.402  21.447  25.375  1.00  0.00     0.005 A 
ATOM     82  C   UNL A   1      37.008  22.763  25.674  1.00  0.00    -0.043 A 
BRANCH  82  83
ATOM     83  C   UNL A   1      35.562  23.212  25.513  1.00  0.00     0.039 C 
ATOM     84  C   UNL A   1      35.399  24.643  24.968  1.00  0.00     0.012 C 
ATOM     85  C   UNL A   1      34.754  22.233  24.644  1.00  0.00     0.128 C 
ATOM     86  C   UNL A   1      33.913  25.004  24.800  1.00  0.00     0.022 C 
ATOM     87  N   UNL A   1      33.367  22.623  24.550  1.00  0.00    -0.338 N 
ATOM     88  C   UNL A   1      33.139  23.956  23.995  1.00  0.00     0.120 C 
BRANCH  87  89
ATOM     89  C   UNL A   1      32.410  21.718  24.981  1.00  0.00     0.253 C 
ATOM     90  O   UNL A   1      31.460  22.000  25.706  1.00  0.00    -0.269 OA
BRANCH  89  91
ATOM     91  C   UNL A   1      32.543  20.322  24.562  1.00  0.00     0.040 A 
ATOM     92  C   UNL A   1      32.308  19.997  23.227  1.00  0.00     0.016 A 
ATOM     93  C   UNL A   1      32.851  19.356  25.529  1.00  0.00     0.024 A 
ATOM     94  C   UNL A   1      32.420  18.674  22.803  1.00  0.00     0.027 A 
ATOM     95  C   UNL A   1      32.945  18.018  25.116  1.00  0.00     0.000 A 
ATOM     96  C   UNL A   1      32.743  17.710  23.769  1.00  0.00     0.045 A 
ATOM     97  C   UNL A   1      33.199  16.796  25.794  1.00  0.00     0.028 A 
ATOM     98  N   UNL A   1      32.909  16.350  23.639  1.00  0.00    -0.361 N 
ATOM     99  C   UNL A   1      33.167  15.786  24.860  1.00  0.00     0.083 A 
ATOM    100  H   UNL A   1      32.851  15.854  22.791  1.00  0.00     0.166 HD
ENDBRANCH  89  91
ENDBRANCH  87  89
ENDBRANCH  82  83
ENDBRANCH  75  77
ENDBRANCH  74  75
ENDBRANCH  73  74
ENDBRANCH   1  73
TORSDOF 17
ENDMDL
