MODEL 1
REMARK VINA RESULT:     -11.9      0.000      0.000
REMARK SMILES Cc1cc2c(c(C)c1Br)C=C(C(=O)OCCOCCOC(=O)c1ccc(-c3c4nc(c(-c5c(F)c(F)c(F)c(F)c5F)c5ccc([nH]5)c(-c5c(F)c(F)c(F)c(F)c5F)c5nc(c(-c6c(F)c(F)c(F)c(F)c6F)c6ccc3[nH]6)C=C5)C=C4)cc1)[C@@H](C(F)(F)F)O2
REMARK SMILES IDX 18 1 17 2 16 3 15 4 14 5 12 6 13 7 11 8 1 9 2 10 3 11 8 12
REMARK SMILES IDX 4 13 6 14 9 15 5 16 91 17 7 18 10 19 86 20 87 21 88 22 89 23
REMARK SMILES IDX 90 24 19 25 20 26 21 27 22 28 23 29 24 30 85 31 25 32 84 33
REMARK SMILES IDX 26 34 27 35 28 36 78 37 29 38 83 39 77 40 79 41 30 42 82 43
REMARK SMILES IDX 76 44 75 45 31 47 63 48 43 49 62 50 44 51 47 52 61 53 80 54
REMARK SMILES IDX 45 55 46 56 60 58 81 59 48 60 32 61 33 62 41 63 34 64 35 65
REMARK SMILES IDX 39 66 42 67 36 68 37 69 40 70 38 71 64 72 65 73 73 74 66 75
REMARK SMILES IDX 67 76 71 77 74 78 68 79 69 80 72 81 70 82 49 83 50 84 58 85
REMARK SMILES IDX 51 86 52 87 56 88 59 89 53 90 54 91 57 92 55 93
REMARK H PARENT 79 46 47 57
REMARK Flexibility Score: inf
ROOT
ATOM      1  C   UNL A   1      31.514  31.642  26.491  1.00  0.00     0.202 C 
ENDROOT
BRANCH   1   2
ATOM      2  O   UNL A   1      32.495  30.621  26.677  1.00  0.00    -0.374 OA
BRANCH   2   3
ATOM      3  C   UNL A   1      32.064  29.371  27.210  1.00  0.00     0.202 C 
BRANCH   3   4
ATOM      4  C   UNL A   1      31.913  28.217  26.214  1.00  0.00     0.261 C 
BRANCH   4   5
ATOM      5  O   UNL A   1      32.966  27.250  26.357  1.00  0.00    -0.460 OA
BRANCH   5   6
ATOM      6  C   UNL A   1      33.403  26.725  25.189  1.00  0.00     0.338 C 
ATOM      7  O   UNL A   1      33.853  27.338  24.232  1.00  0.00    -0.246 OA
BRANCH   6   8
ATOM      8  C   UNL A   1      33.383  25.253  25.262  1.00  0.00     0.087 C 
ATOM      9  C   UNL A   1      34.644  18.944  24.588  1.00  0.00     0.046 C 
ATOM     10  C   UNL A   1      34.692  20.419  24.888  1.00  0.00    -0.033 A 
ATOM     11  C   UNL A   1      33.481  21.118  24.988  1.00  0.00     0.051 A 
ATOM     12  C   UNL A   1      35.903  21.125  25.050  1.00  0.00     0.024 A 
ATOM     13  C   UNL A   1      33.464  22.497  25.177  1.00  0.00     0.128 A 
ATOM     14  C   UNL A   1      35.905  22.523  25.270  1.00  0.00    -0.026 A 
ATOM     15  Br  UNL A   1      37.548  20.149  24.934  1.00  0.00    -0.050 Br
ATOM     16  C   UNL A   1      34.663  23.210  25.283  1.00  0.00     0.021 A 
ATOM     17  O   UNL A   1      32.219  23.059  25.244  1.00  0.00    -0.475 OA
ATOM     18  C   UNL A   1      37.181  23.309  25.481  1.00  0.00     0.046 C 
ATOM     19  C   UNL A   1      34.584  24.666  25.335  1.00  0.00     0.027 C 
ATOM     20  C   UNL A   1      32.086  24.506  25.224  1.00  0.00     0.316 C 
BRANCH  20  21
ATOM     21  C   UNL A   1      31.209  24.893  24.025  1.00  0.00     0.430 C 
ATOM     22  F   UNL A   1      31.966  25.167  22.934  1.00  0.00    -0.167 F 
ATOM     23  F   UNL A   1      30.374  23.888  23.669  1.00  0.00    -0.167 F 
ATOM     24  F   UNL A   1      30.450  25.982  24.277  1.00  0.00    -0.167 F 
ENDBRANCH  20  21
ENDBRANCH   6   8
ENDBRANCH   5   6
ENDBRANCH   4   5
ENDBRANCH   3   4
ENDBRANCH   2   3
ENDBRANCH   1   2
BRANCH   1  25
ATOM     25  C   UNL A   1      31.905  33.069  26.896  1.00  0.00     0.261 C 
BRANCH  25  26
ATOM     26  O   UNL A   1      32.722  33.086  28.083  1.00  0.00    -0.460 OA
BRANCH  26  27
ATOM     27  C   UNL A   1      33.818  33.876  28.011  1.00  0.00     0.338 C 
ATOM     28  O   UNL A   1      33.854  35.089  27.846  1.00  0.00    -0.246 OA
BRANCH  27  29
ATOM     29  C   UNL A   1      35.020  33.097  28.350  1.00  0.00     0.060 A 
ATOM     30  C   UNL A   1      34.836  31.805  28.861  1.00  0.00     0.016 A 
ATOM     31  C   UNL A   1      36.296  33.652  28.260  1.00  0.00     0.016 A 
ATOM     32  C   UNL A   1      35.929  31.078  29.321  1.00  0.00     0.010 A 
ATOM     33  C   UNL A   1      37.392  32.925  28.736  1.00  0.00     0.010 A 
ATOM     34  C   UNL A   1      37.208  31.649  29.299  1.00  0.00    -0.014 A 
BRANCH  34  35
ATOM     35  C   UNL A   1      38.317  30.965  30.006  1.00  0.00     0.031 A 
ATOM     36  C   UNL A   1      38.568  31.291  31.452  1.00  0.00     0.074 A 
ATOM     37  C   UNL A   1      39.048  30.023  29.387  1.00  0.00     0.049 A 
ATOM     38  N   UNL A   1      39.464  30.801  32.270  1.00  0.00    -0.248 NA
ATOM     39  C   UNL A   1      37.687  32.303  32.060  1.00  0.00     0.031 C 
ATOM     40  C   UNL A   1      38.864  29.587  28.005  1.00  0.00     0.029 A 
ATOM     41  N   UNL A   1      40.089  29.256  29.849  1.00  0.00    -0.354 N 
ATOM     42  C   UNL A   1      39.248  31.433  33.487  1.00  0.00     0.074 A 
ATOM     43  C   UNL A   1      38.165  32.371  33.294  1.00  0.00     0.031 C 
ATOM     44  C   UNL A   1      39.761  28.625  27.730  1.00  0.00     0.029 A 
ATOM     45  C   UNL A   1      40.597  28.396  28.907  1.00  0.00     0.049 A 
ATOM     46  H   UNL A   1      40.438  29.317  30.767  1.00  0.00     0.167 HD
ATOM     47  C   UNL A   1      39.887  31.235  34.665  1.00  0.00     0.037 A 
ATOM     48  C   UNL A   1      41.627  27.531  28.987  1.00  0.00     0.037 A 
ATOM     49  C   UNL A   1      40.966  30.304  34.855  1.00  0.00     0.049 A 
ATOM     50  C   UNL A   1      42.385  27.400  30.284  1.00  0.00     0.074 A 
ATOM     51  C   UNL A   1      41.672  30.027  36.012  1.00  0.00     0.029 A 
ATOM     52  N   UNL A   1      41.500  29.501  33.858  1.00  0.00    -0.354 N 
ATOM     53  N   UNL A   1      42.164  27.988  31.434  1.00  0.00    -0.248 NA
ATOM     54  C   UNL A   1      43.538  26.487  30.290  1.00  0.00     0.031 C 
ATOM     55  C   UNL A   1      42.664  29.091  35.706  1.00  0.00     0.029 A 
ATOM     56  C   UNL A   1      42.546  28.748  34.367  1.00  0.00     0.049 A 
ATOM     57  H   UNL A   1      41.182  29.469  32.926  1.00  0.00     0.167 HD
ATOM     58  C   UNL A   1      43.131  27.503  32.305  1.00  0.00     0.074 A 
ATOM     59  C   UNL A   1      43.935  26.561  31.554  1.00  0.00     0.031 C 
ATOM     60  C   UNL A   1      43.335  27.812  33.608  1.00  0.00     0.037 A 
BRANCH  47  61
ATOM     61  C   UNL A   1      39.439  32.044  35.844  1.00  0.00     0.064 A 
ATOM     62  C   UNL A   1      39.946  33.329  36.084  1.00  0.00     0.173 A 
ATOM     63  C   UNL A   1      38.450  31.554  36.710  1.00  0.00     0.173 A 
ATOM     64  F   UNL A   1      40.903  33.836  35.292  1.00  0.00    -0.203 F 
ATOM     65  C   UNL A   1      39.487  34.091  37.156  1.00  0.00     0.198 A 
ATOM     66  C   UNL A   1      37.975  32.328  37.765  1.00  0.00     0.198 A 
ATOM     67  F   UNL A   1      37.930  30.332  36.521  1.00  0.00    -0.203 F 
ATOM     68  F   UNL A   1      40.007  35.304  37.385  1.00  0.00    -0.200 F 
ATOM     69  C   UNL A   1      38.496  33.593  37.990  1.00  0.00     0.200 A 
ATOM     70  F   UNL A   1      37.009  31.850  38.562  1.00  0.00    -0.200 F 
ATOM     71  F   UNL A   1      38.046  34.333  39.012  1.00  0.00    -0.200 F 
ENDBRANCH  47  61
BRANCH  48  72
ATOM     72  C   UNL A   1      41.998  26.714  27.804  1.00  0.00     0.064 A 
ATOM     73  C   UNL A   1      41.394  25.472  27.566  1.00  0.00     0.173 A 
ATOM     74  C   UNL A   1      42.960  27.159  26.884  1.00  0.00     0.173 A 
ATOM     75  F   UNL A   1      40.488  24.992  28.432  1.00  0.00    -0.203 F 
ATOM     76  C   UNL A   1      41.742  24.703  26.459  1.00  0.00     0.198 A 
ATOM     77  C   UNL A   1      43.289  26.400  25.763  1.00  0.00     0.198 A 
ATOM     78  F   UNL A   1      43.570  28.338  27.069  1.00  0.00    -0.203 F 
ATOM     79  F   UNL A   1      41.175  23.503  26.274  1.00  0.00    -0.200 F 
ATOM     80  C   UNL A   1      42.684  25.170  25.554  1.00  0.00     0.200 A 
ATOM     81  F   UNL A   1      44.192  26.860  24.887  1.00  0.00    -0.200 F 
ATOM     82  F   UNL A   1      43.013  24.434  24.484  1.00  0.00    -0.200 F 
ENDBRANCH  48  72
BRANCH  60  83
ATOM     83  C   UNL A   1      44.462  27.125  34.323  1.00  0.00     0.064 A 
ATOM     84  C   UNL A   1      45.725  27.723  34.438  1.00  0.00     0.173 A 
ATOM     85  C   UNL A   1      44.249  25.902  34.977  1.00  0.00     0.173 A 
ATOM     86  F   UNL A   1      45.979  28.886  33.820  1.00  0.00    -0.203 F 
ATOM     87  C   UNL A   1      46.738  27.116  35.175  1.00  0.00     0.198 A 
ATOM     88  C   UNL A   1      45.256  25.313  35.736  1.00  0.00     0.198 A 
ATOM     89  F   UNL A   1      43.055  25.295  34.905  1.00  0.00    -0.203 F 
ATOM     90  F   UNL A   1      47.945  27.692  35.250  1.00  0.00    -0.200 F 
ATOM     91  C   UNL A   1      46.499  25.918  35.833  1.00  0.00     0.200 A 
ATOM     92  F   UNL A   1      45.019  24.163  36.384  1.00  0.00    -0.200 F 
ATOM     93  F   UNL A   1      47.470  25.348  36.560  1.00  0.00    -0.200 F 
ENDBRANCH  60  83
ENDBRANCH  34  35
ENDBRANCH  27  29
ENDBRANCH  26  27
ENDBRANCH  25  26
ENDBRANCH   1  25
TORSDOF 15
ENDMDL
MODEL 2
REMARK VINA RESULT:     -11.6      0.515      2.031
REMARK SMILES Cc1cc2c(c(C)c1Br)C=C(C(=O)OCCOCCOC(=O)c1ccc(-c3c4nc(c(-c5c(F)c(F)c(F)c(F)c5F)c5ccc([nH]5)c(-c5c(F)c(F)c(F)c(F)c5F)c5nc(c(-c6c(F)c(F)c(F)c(F)c6F)c6ccc3[nH]6)C=C5)C=C4)cc1)[C@@H](C(F)(F)F)O2
REMARK SMILES IDX 18 1 17 2 16 3 15 4 14 5 12 6 13 7 11 8 1 9 2 10 3 11 8 12
REMARK SMILES IDX 4 13 6 14 9 15 5 16 91 17 7 18 10 19 86 20 87 21 88 22 89 23
REMARK SMILES IDX 90 24 19 25 20 26 21 27 22 28 23 29 24 30 85 31 25 32 84 33
REMARK SMILES IDX 26 34 27 35 28 36 78 37 29 38 83 39 77 40 79 41 30 42 82 43
REMARK SMILES IDX 76 44 75 45 31 47 63 48 43 49 62 50 44 51 47 52 61 53 80 54
REMARK SMILES IDX 45 55 46 56 60 58 81 59 48 60 32 61 33 62 41 63 34 64 35 65
REMARK SMILES IDX 39 66 42 67 36 68 37 69 40 70 38 71 64 72 65 73 73 74 66 75
REMARK SMILES IDX 67 76 71 77 74 78 68 79 69 80 72 81 70 82 49 83 50 84 58 85
REMARK SMILES IDX 51 86 52 87 56 88 59 89 53 90 54 91 57 92 55 93
REMARK H PARENT 79 46 47 57
REMARK Flexibility Score: inf
ROOT
ATOM      1  C   UNL A   1      31.428  32.176  26.376  1.00  0.00     0.202 C 
ENDROOT
BRANCH   1   2
ATOM      2  O   UNL A   1      31.710  30.860  26.854  1.00  0.00    -0.374 OA
BRANCH   2   3
ATOM      3  C   UNL A   1      32.617  30.056  26.103  1.00  0.00     0.202 C 
BRANCH   3   4
ATOM      4  C   UNL A   1      31.999  29.015  25.166  1.00  0.00     0.261 C 
BRANCH   4   5
ATOM      5  O   UNL A   1      32.446  27.686  25.478  1.00  0.00    -0.460 OA
BRANCH   5   6
ATOM      6  C   UNL A   1      33.107  27.069  24.471  1.00  0.00     0.338 C 
ATOM      7  O   UNL A   1      33.732  27.604  23.567  1.00  0.00    -0.246 OA
BRANCH   6   8
ATOM      8  C   UNL A   1      33.081  25.610  24.675  1.00  0.00     0.087 C 
ATOM      9  C   UNL A   1      34.359  19.268  24.626  1.00  0.00     0.046 C 
ATOM     10  C   UNL A   1      34.397  20.764  24.795  1.00  0.00    -0.033 A 
ATOM     11  C   UNL A   1      33.184  21.466  24.776  1.00  0.00     0.051 A 
ATOM     12  C   UNL A   1      35.600  21.484  24.948  1.00  0.00     0.024 A 
ATOM     13  C   UNL A   1      33.160  22.857  24.841  1.00  0.00     0.128 A 
ATOM     14  C   UNL A   1      35.595  22.896  25.043  1.00  0.00    -0.026 A 
ATOM     15  Br  UNL A   1      37.247  20.505  24.996  1.00  0.00    -0.050 Br
ATOM     16  C   UNL A   1      34.355  23.579  24.937  1.00  0.00     0.021 A 
ATOM     17  O   UNL A   1      31.915  23.420  24.800  1.00  0.00    -0.475 OA
ATOM     18  C   UNL A   1      36.861  23.701  25.240  1.00  0.00     0.046 C 
ATOM     19  C   UNL A   1      34.276  25.034  24.855  1.00  0.00     0.027 C 
ATOM     20  C   UNL A   1      31.785  24.859  24.645  1.00  0.00     0.316 C 
BRANCH  20  21
ATOM     21  C   UNL A   1      30.965  25.135  23.377  1.00  0.00     0.430 C 
ATOM     22  F   UNL A   1      30.113  24.113  23.112  1.00  0.00    -0.167 F 
ATOM     23  F   UNL A   1      30.202  26.246  23.505  1.00  0.00    -0.167 F 
ATOM     24  F   UNL A   1      31.748  25.303  22.288  1.00  0.00    -0.167 F 
ENDBRANCH  20  21
ENDBRANCH   6   8
ENDBRANCH   5   6
ENDBRANCH   4   5
ENDBRANCH   3   4
ENDBRANCH   2   3
ENDBRANCH   1   2
BRANCH   1  25
ATOM     25  C   UNL A   1      31.983  33.349  27.193  1.00  0.00     0.261 C 
BRANCH  25  26
ATOM     26  O   UNL A   1      33.117  32.959  27.992  1.00  0.00    -0.460 OA
BRANCH  26  27
ATOM     27  C   UNL A   1      34.201  33.760  27.873  1.00  0.00     0.338 C 
ATOM     28  O   UNL A   1      34.219  34.963  27.643  1.00  0.00    -0.246 OA
BRANCH  27  29
ATOM     29  C   UNL A   1      35.415  33.019  28.250  1.00  0.00     0.060 A 
ATOM     30  C   UNL A   1      35.281  31.656  28.545  1.00  0.00     0.016 A 
ATOM     31  C   UNL A   1      36.643  33.664  28.405  1.00  0.00     0.016 A 
ATOM     32  C   UNL A   1      36.369  30.940  29.034  1.00  0.00     0.010 A 
ATOM     33  C   UNL A   1      37.732  32.946  28.911  1.00  0.00     0.010 A 
ATOM     34  C   UNL A   1      37.590  31.590  29.258  1.00  0.00    -0.014 A 
BRANCH  34  35
ATOM     35  C   UNL A   1      38.660  30.880  29.999  1.00  0.00     0.031 A 
ATOM     36  C   UNL A   1      38.871  31.196  31.453  1.00  0.00     0.074 A 
ATOM     37  C   UNL A   1      39.392  29.926  29.399  1.00  0.00     0.049 A 
ATOM     38  N   UNL A   1      39.729  30.684  32.297  1.00  0.00    -0.248 NA
ATOM     39  C   UNL A   1      37.992  32.224  32.036  1.00  0.00     0.031 C 
ATOM     40  C   UNL A   1      39.244  29.499  28.010  1.00  0.00     0.029 A 
ATOM     41  N   UNL A   1      40.401  29.136  29.891  1.00  0.00    -0.354 N 
ATOM     42  C   UNL A   1      39.488  31.316  33.510  1.00  0.00     0.074 A 
ATOM     43  C   UNL A   1      38.430  32.278  33.286  1.00  0.00     0.031 C 
ATOM     44  C   UNL A   1      40.129  28.519  27.760  1.00  0.00     0.029 A 
ATOM     45  C   UNL A   1      40.921  28.269  28.963  1.00  0.00     0.049 A 
ATOM     46  H   UNL A   1      40.721  29.186  30.820  1.00  0.00     0.167 HD
ATOM     47  C   UNL A   1      40.083  31.100  34.706  1.00  0.00     0.037 A 
ATOM     48  C   UNL A   1      41.930  27.382  29.073  1.00  0.00     0.037 A 
ATOM     49  C   UNL A   1      41.136  30.146  34.927  1.00  0.00     0.049 A 
ATOM     50  C   UNL A   1      42.642  27.231  30.392  1.00  0.00     0.074 A 
ATOM     51  C   UNL A   1      41.798  29.851  36.105  1.00  0.00     0.029 A 
ATOM     52  N   UNL A   1      41.685  29.336  33.945  1.00  0.00    -0.354 N 
ATOM     53  N   UNL A   1      42.396  27.819  31.538  1.00  0.00    -0.248 NA
ATOM     54  C   UNL A   1      43.776  26.293  30.432  1.00  0.00     0.031 C 
ATOM     55  C   UNL A   1      42.780  28.895  35.828  1.00  0.00     0.029 A 
ATOM     56  C   UNL A   1      42.698  28.560  34.484  1.00  0.00     0.049 A 
ATOM     57  H   UNL A   1      41.397  29.314  33.003  1.00  0.00     0.167 HD
ATOM     58  C   UNL A   1      43.324  27.311  32.437  1.00  0.00     0.074 A 
ATOM     59  C   UNL A   1      44.133  26.355  31.709  1.00  0.00     0.031 C 
ATOM     60  C   UNL A   1      43.492  27.611  33.748  1.00  0.00     0.037 A 
BRANCH  47  61
ATOM     61  C   UNL A   1      39.614  31.914  35.874  1.00  0.00     0.064 A 
ATOM     62  C   UNL A   1      38.509  31.521  36.643  1.00  0.00     0.173 A 
ATOM     63  C   UNL A   1      40.312  33.067  36.265  1.00  0.00     0.173 A 
ATOM     64  F   UNL A   1      37.801  30.435  36.301  1.00  0.00    -0.203 F 
ATOM     65  C   UNL A   1      38.112  32.260  37.755  1.00  0.00     0.198 A 
ATOM     66  C   UNL A   1      39.928  33.788  37.392  1.00  0.00     0.198 A 
ATOM     67  F   UNL A   1      41.378  33.483  35.565  1.00  0.00    -0.203 F 
ATOM     68  F   UNL A   1      37.035  31.883  38.457  1.00  0.00    -0.200 F 
ATOM     69  C   UNL A   1      38.827  33.387  38.134  1.00  0.00     0.200 A 
ATOM     70  F   UNL A   1      40.627  34.870  37.763  1.00  0.00    -0.200 F 
ATOM     71  F   UNL A   1      38.452  34.088  39.211  1.00  0.00    -0.200 F 
ENDBRANCH  47  61
BRANCH  48  72
ATOM     72  C   UNL A   1      42.323  26.562  27.898  1.00  0.00     0.064 A 
ATOM     73  C   UNL A   1      43.311  27.004  27.008  1.00  0.00     0.173 A 
ATOM     74  C   UNL A   1      41.724  25.319  27.644  1.00  0.00     0.173 A 
ATOM     75  F   UNL A   1      43.894  28.198  27.195  1.00  0.00    -0.203 F 
ATOM     76  C   UNL A   1      43.680  26.238  25.905  1.00  0.00     0.198 A 
ATOM     77  C   UNL A   1      42.111  24.542  26.554  1.00  0.00     0.198 A 
ATOM     78  F   UNL A   1      40.769  24.854  28.463  1.00  0.00    -0.203 F 
ATOM     79  F   UNL A   1      44.602  26.699  25.050  1.00  0.00    -0.200 F 
ATOM     80  C   UNL A   1      43.085  25.005  25.682  1.00  0.00     0.200 A 
ATOM     81  F   UNL A   1      41.540  23.348  26.348  1.00  0.00    -0.200 F 
ATOM     82  F   UNL A   1      43.446  24.264  24.625  1.00  0.00    -0.200 F 
ENDBRANCH  48  72
BRANCH  60  83
ATOM     83  C   UNL A   1      44.580  26.898  34.496  1.00  0.00     0.064 A 
ATOM     84  C   UNL A   1      44.366  25.636  35.069  1.00  0.00     0.173 A 
ATOM     85  C   UNL A   1      45.873  27.440  34.560  1.00  0.00     0.173 A 
ATOM     86  F   UNL A   1      43.144  25.083  35.043  1.00  0.00    -0.203 F 
ATOM     87  C   UNL A   1      45.405  24.947  35.687  1.00  0.00     0.198 A 
ATOM     88  C   UNL A   1      46.915  26.735  35.155  1.00  0.00     0.198 A 
ATOM     89  F   UNL A   1      46.131  28.640  34.019  1.00  0.00    -0.203 F 
ATOM     90  F   UNL A   1      45.172  23.754  36.251  1.00  0.00    -0.200 F 
ATOM     91  C   UNL A   1      46.681  25.491  35.719  1.00  0.00     0.200 A 
ATOM     92  F   UNL A   1      48.151  27.255  35.172  1.00  0.00    -0.200 F 
ATOM     93  F   UNL A   1      47.684  24.814  36.296  1.00  0.00    -0.200 F 
ENDBRANCH  60  83
ENDBRANCH  34  35
ENDBRANCH  27  29
ENDBRANCH  26  27
ENDBRANCH  25  26
ENDBRANCH   1  25
TORSDOF 15
ENDMDL
MODEL 3
REMARK VINA RESULT:     -11.6      4.619     10.297
REMARK SMILES Cc1cc2c(c(C)c1Br)C=C(C(=O)OCCOCCOC(=O)c1ccc(-c3c4nc(c(-c5c(F)c(F)c(F)c(F)c5F)c5ccc([nH]5)c(-c5c(F)c(F)c(F)c(F)c5F)c5nc(c(-c6c(F)c(F)c(F)c(F)c6F)c6ccc3[nH]6)C=C5)C=C4)cc1)[C@@H](C(F)(F)F)O2
REMARK SMILES IDX 18 1 17 2 16 3 15 4 14 5 12 6 13 7 11 8 1 9 2 10 3 11 8 12
REMARK SMILES IDX 4 13 6 14 9 15 5 16 91 17 7 18 10 19 86 20 87 21 88 22 89 23
REMARK SMILES IDX 90 24 19 25 20 26 21 27 22 28 23 29 24 30 85 31 25 32 84 33
REMARK SMILES IDX 26 34 27 35 28 36 78 37 29 38 83 39 77 40 79 41 30 42 82 43
REMARK SMILES IDX 76 44 75 45 31 47 63 48 43 49 62 50 44 51 47 52 61 53 80 54
REMARK SMILES IDX 45 55 46 56 60 58 81 59 48 60 32 61 33 62 41 63 34 64 35 65
REMARK SMILES IDX 39 66 42 67 36 68 37 69 40 70 38 71 64 72 65 73 73 74 66 75
REMARK SMILES IDX 67 76 71 77 74 78 68 79 69 80 72 81 70 82 49 83 50 84 58 85
REMARK SMILES IDX 51 86 52 87 56 88 59 89 53 90 54 91 57 92 55 93
REMARK H PARENT 79 46 47 57
REMARK Flexibility Score: inf
ROOT
ATOM      1  C   UNL A   1      37.840  19.694  24.993  1.00  0.00     0.202 C 
ENDROOT
BRANCH   1   2
ATOM      2  O   UNL A   1      37.243  20.911  25.441  1.00  0.00    -0.374 OA
BRANCH   2   3
ATOM      3  C   UNL A   1      36.372  21.598  24.545  1.00  0.00     0.202 C 
BRANCH   3   4
ATOM      4  C   UNL A   1      36.628  23.095  24.352  1.00  0.00     0.261 C 
BRANCH   4   5
ATOM      5  O   UNL A   1      36.236  23.855  25.507  1.00  0.00    -0.460 OA
BRANCH   5   6
ATOM      6  C   UNL A   1      34.932  23.723  25.845  1.00  0.00     0.338 C 
ATOM      7  O   UNL A   1      34.462  22.954  26.670  1.00  0.00    -0.246 OA
BRANCH   6   8
ATOM      8  C   UNL A   1      34.129  24.747  25.153  1.00  0.00     0.087 C 
ATOM      9  C   UNL A   1      30.156  29.639  23.692  1.00  0.00     0.046 C 
ATOM     10  C   UNL A   1      31.261  28.764  24.221  1.00  0.00    -0.033 A 
ATOM     11  C   UNL A   1      31.521  27.552  23.565  1.00  0.00     0.051 A 
ATOM     12  C   UNL A   1      32.026  29.104  25.357  1.00  0.00     0.024 A 
ATOM     13  C   UNL A   1      32.471  26.661  24.058  1.00  0.00     0.128 A 
ATOM     14  C   UNL A   1      33.015  28.224  25.856  1.00  0.00    -0.026 A 
ATOM     15  Br  UNL A   1      31.673  30.775  26.224  1.00  0.00    -0.050 Br
ATOM     16  C   UNL A   1      33.194  26.970  25.216  1.00  0.00     0.021 A 
ATOM     17  O   UNL A   1      32.619  25.510  23.334  1.00  0.00    -0.475 OA
ATOM     18  C   UNL A   1      33.877  28.567  27.051  1.00  0.00     0.046 C 
ATOM     19  C   UNL A   1      34.068  25.938  25.763  1.00  0.00     0.027 C 
ATOM     20  C   UNL A   1      33.421  24.426  23.873  1.00  0.00     0.316 C 
BRANCH  20  21
ATOM     21  C   UNL A   1      32.534  23.177  23.979  1.00  0.00     0.430 C 
ATOM     22  F   UNL A   1      31.606  23.151  22.991  1.00  0.00    -0.167 F 
ATOM     23  F   UNL A   1      33.255  22.038  23.857  1.00  0.00    -0.167 F 
ATOM     24  F   UNL A   1      31.876  23.117  25.158  1.00  0.00    -0.167 F 
ENDBRANCH  20  21
ENDBRANCH   6   8
ENDBRANCH   5   6
ENDBRANCH   4   5
ENDBRANCH   3   4
ENDBRANCH   2   3
ENDBRANCH   1   2
BRANCH   1  25
ATOM     25  C   UNL A   1      39.190  19.309  25.609  1.00  0.00     0.261 C 
BRANCH  25  26
ATOM     26  O   UNL A   1      40.038  20.457  25.805  1.00  0.00    -0.460 OA
BRANCH  26  27
ATOM     27  C   UNL A   1      40.740  20.457  26.962  1.00  0.00     0.338 C 
ATOM     28  O   UNL A   1      41.271  19.501  27.513  1.00  0.00    -0.246 OA
BRANCH  27  29
ATOM     29  C   UNL A   1      40.959  21.840  27.415  1.00  0.00     0.060 A 
ATOM     30  C   UNL A   1      40.373  22.871  26.667  1.00  0.00     0.016 A 
ATOM     31  C   UNL A   1      41.797  22.130  28.492  1.00  0.00     0.016 A 
ATOM     32  C   UNL A   1      40.657  24.198  26.972  1.00  0.00     0.010 A 
ATOM     33  C   UNL A   1      42.092  23.465  28.788  1.00  0.00     0.010 A 
ATOM     34  C   UNL A   1      41.550  24.502  28.008  1.00  0.00    -0.014 A 
BRANCH  34  35
ATOM     35  C   UNL A   1      42.025  25.897  28.165  1.00  0.00     0.031 A 
ATOM     36  C   UNL A   1      43.355  26.283  27.578  1.00  0.00     0.074 A 
ATOM     37  C   UNL A   1      41.257  26.820  28.767  1.00  0.00     0.049 A 
ATOM     38  N   UNL A   1      43.955  27.445  27.577  1.00  0.00    -0.248 NA
ATOM     39  C   UNL A   1      44.106  25.216  26.897  1.00  0.00     0.031 C 
ATOM     40  C   UNL A   1      39.931  26.576  29.329  1.00  0.00     0.029 A 
ATOM     41  N   UNL A   1      41.482  28.155  28.997  1.00  0.00    -0.354 N 
ATOM     42  C   UNL A   1      45.145  27.254  26.888  1.00  0.00     0.074 A 
ATOM     43  C   UNL A   1      45.203  25.856  26.519  1.00  0.00     0.031 C 
ATOM     44  C   UNL A   1      39.455  27.726  29.837  1.00  0.00     0.029 A 
ATOM     45  C   UNL A   1      40.453  28.779  29.658  1.00  0.00     0.049 A 
ATOM     46  H   UNL A   1      42.302  28.620  28.715  1.00  0.00     0.167 HD
ATOM     47  C   UNL A   1      46.095  28.167  26.575  1.00  0.00     0.037 A 
ATOM     48  C   UNL A   1      40.338  30.054  30.079  1.00  0.00     0.037 A 
ATOM     49  C   UNL A   1      46.037  29.556  26.945  1.00  0.00     0.049 A 
ATOM     50  C   UNL A   1      41.455  31.028  29.804  1.00  0.00     0.074 A 
ATOM     51  C   UNL A   1      46.947  30.559  26.668  1.00  0.00     0.029 A 
ATOM     52  N   UNL A   1      45.011  30.135  27.677  1.00  0.00    -0.354 N 
ATOM     53  N   UNL A   1      42.568  30.843  29.137  1.00  0.00    -0.248 NA
ATOM     54  C   UNL A   1      41.299  32.388  30.344  1.00  0.00     0.031 C 
ATOM     55  C   UNL A   1      46.497  31.737  27.273  1.00  0.00     0.029 A 
ATOM     56  C   UNL A   1      45.281  31.477  27.886  1.00  0.00     0.049 A 
ATOM     57  H   UNL A   1      44.209  29.663  27.999  1.00  0.00     0.167 HD
ATOM     58  C   UNL A   1      43.234  32.062  29.157  1.00  0.00     0.074 A 
ATOM     59  C   UNL A   1      42.394  32.985  29.892  1.00  0.00     0.031 C 
ATOM     60  C   UNL A   1      44.434  32.385  28.617  1.00  0.00     0.037 A 
BRANCH  47  61
ATOM     61  C   UNL A   1      47.285  27.694  25.798  1.00  0.00     0.064 A 
ATOM     62  C   UNL A   1      47.304  27.729  24.396  1.00  0.00     0.173 A 
ATOM     63  C   UNL A   1      48.442  27.259  26.461  1.00  0.00     0.173 A 
ATOM     64  F   UNL A   1      46.217  28.124  23.716  1.00  0.00    -0.203 F 
ATOM     65  C   UNL A   1      48.434  27.332  23.685  1.00  0.00     0.198 A 
ATOM     66  C   UNL A   1      49.579  26.887  25.748  1.00  0.00     0.198 A 
ATOM     67  F   UNL A   1      48.477  27.211  27.801  1.00  0.00    -0.203 F 
ATOM     68  F   UNL A   1      48.419  27.344  22.345  1.00  0.00    -0.200 F 
ATOM     69  C   UNL A   1      49.573  26.920  24.362  1.00  0.00     0.200 A 
ATOM     70  F   UNL A   1      50.683  26.501  26.404  1.00  0.00    -0.200 F 
ATOM     71  F   UNL A   1      50.664  26.553  23.677  1.00  0.00    -0.200 F 
ENDBRANCH  47  61
BRANCH  48  72
ATOM     72  C   UNL A   1      39.114  30.485  30.802  1.00  0.00     0.064 A 
ATOM     73  C   UNL A   1      39.019  30.364  32.195  1.00  0.00     0.173 A 
ATOM     74  C   UNL A   1      38.018  31.031  30.118  1.00  0.00     0.173 A 
ATOM     75  F   UNL A   1      40.031  29.824  32.890  1.00  0.00    -0.203 F 
ATOM     76  C   UNL A   1      37.871  30.766  32.875  1.00  0.00     0.198 A 
ATOM     77  C   UNL A   1      36.881  31.455  30.801  1.00  0.00     0.198 A 
ATOM     78  F   UNL A   1      38.058  31.163  28.784  1.00  0.00    -0.203 F 
ATOM     79  F   UNL A   1      37.792  30.607  34.203  1.00  0.00    -0.200 F 
ATOM     80  C   UNL A   1      36.806  31.318  32.179  1.00  0.00     0.200 A 
ATOM     81  F   UNL A   1      35.858  31.996  30.125  1.00  0.00    -0.200 F 
ATOM     82  F   UNL A   1      35.706  31.712  32.834  1.00  0.00    -0.200 F 
ENDBRANCH  48  72
BRANCH  60  83
ATOM     83  C   UNL A   1      44.919  33.796  28.781  1.00  0.00     0.064 A 
ATOM     84  C   UNL A   1      45.784  34.152  29.826  1.00  0.00     0.173 A 
ATOM     85  C   UNL A   1      44.590  34.777  27.834  1.00  0.00     0.173 A 
ATOM     86  F   UNL A   1      46.117  33.251  30.763  1.00  0.00    -0.203 F 
ATOM     87  C   UNL A   1      46.295  35.443  29.921  1.00  0.00     0.198 A 
ATOM     88  C   UNL A   1      45.126  36.059  27.917  1.00  0.00     0.198 A 
ATOM     89  F   UNL A   1      43.774  34.483  26.811  1.00  0.00    -0.203 F 
ATOM     90  F   UNL A   1      47.099  35.770  30.941  1.00  0.00    -0.200 F 
ATOM     91  C   UNL A   1      45.975  36.392  28.960  1.00  0.00     0.200 A 
ATOM     92  F   UNL A   1      44.828  36.970  26.979  1.00  0.00    -0.200 F 
ATOM     93  F   UNL A   1      46.487  37.628  29.042  1.00  0.00    -0.200 F 
ENDBRANCH  60  83
ENDBRANCH  34  35
ENDBRANCH  27  29
ENDBRANCH  26  27
ENDBRANCH  25  26
ENDBRANCH   1  25
TORSDOF 15
ENDMDL
