MODEL 1
REMARK VINA RESULT:     -12.6      0.000      0.000
REMARK SMILES O=C(OCCOCCOC(=O)[C@H]1[C@H]2CC[C@H](C2)[C@@H]1C(=O)N1CCN(c2cccc(Cl)c2)CC1)c1ccc(-c2c3nc(c(-c4c(F)c(F)c(F)c(F)c4F)c4ccc([nH]4)c(-c4c(F)c(F)c(F)c(F)c4F)c4nc(c(-c5c(F)c(F)c(F)c(F)c5F)c5ccc2[nH]5)C=C4)C=C3)cc1
REMARK SMILES IDX 6 1 5 2 4 3 3 4 2 5 1 6 34 7 35 8 96 9 36 10 95 11 37 12
REMARK SMILES IDX 38 13 39 14 89 15 40 16 94 17 88 18 90 19 41 20 93 21 87 22
REMARK SMILES IDX 86 23 42 25 74 26 54 27 73 28 55 29 58 30 72 31 91 32 56 33
REMARK SMILES IDX 57 34 71 36 92 37 59 38 43 39 44 40 52 41 45 42 46 43 50 44
REMARK SMILES IDX 53 45 47 46 48 47 51 48 49 49 75 50 76 51 84 52 77 53 78 54
REMARK SMILES IDX 82 55 85 56 79 57 80 58 83 59 81 60 60 61 61 62 69 63 62 64
REMARK SMILES IDX 63 65 67 66 70 67 64 68 65 69 68 70 66 71 7 72 8 73 9 74
REMARK SMILES IDX 10 75 11 76 12 77 13 78 18 79 14 80 17 81 16 82 15 83 19 84
REMARK SMILES IDX 20 85 21 86 22 87 33 88 23 89 32 90 24 91 25 92 26 93 31 94
REMARK SMILES IDX 27 95 29 96 28 97 30 98
REMARK H PARENT 90 24 58 35
REMARK Flexibility Score: inf
ROOT
ATOM      1  O   UNL A   1      40.388  19.618  25.713  1.00  0.00    -0.374 OA
ENDROOT
BRANCH   1   2
ATOM      2  C   UNL A   1      41.037  20.639  26.471  1.00  0.00     0.202 C 
BRANCH   2   3
ATOM      3  C   UNL A   1      42.405  21.068  25.936  1.00  0.00     0.261 C 
BRANCH   3   4
ATOM      4  O   UNL A   1      42.284  22.278  25.178  1.00  0.00    -0.460 OA
BRANCH   4   5
ATOM      5  C   UNL A   1      42.978  23.426  25.337  1.00  0.00     0.338 C 
ATOM      6  O   UNL A   1      43.929  23.645  24.588  1.00  0.00    -0.246 OA
BRANCH   5   7
ATOM      7  C   UNL A   1      42.642  24.470  26.353  1.00  0.00     0.060 A 
ATOM      8  C   UNL A   1      43.218  25.740  26.436  1.00  0.00     0.016 A 
ATOM      9  C   UNL A   1      41.579  24.171  27.222  1.00  0.00     0.016 A 
ATOM     10  C   UNL A   1      42.768  26.688  27.332  1.00  0.00     0.010 A 
ATOM     11  C   UNL A   1      41.117  25.117  28.137  1.00  0.00     0.010 A 
ATOM     12  C   UNL A   1      41.721  26.376  28.184  1.00  0.00    -0.014 A 
BRANCH  12  13
ATOM     13  C   UNL A   1      41.405  27.357  29.223  1.00  0.00     0.031 A 
ATOM     14  C   UNL A   1      42.327  27.436  30.393  1.00  0.00     0.074 A 
ATOM     15  C   UNL A   1      40.413  28.235  29.017  1.00  0.00     0.049 A 
ATOM     16  N   UNL A   1      42.235  28.159  31.472  1.00  0.00    -0.248 NA
ATOM     17  C   UNL A   1      43.530  26.587  30.328  1.00  0.00     0.031 C 
ATOM     18  C   UNL A   1      39.590  28.305  27.807  1.00  0.00     0.029 A 
ATOM     19  N   UNL A   1      39.942  29.245  29.806  1.00  0.00    -0.354 N 
ATOM     20  C   UNL A   1      43.344  27.825  32.232  1.00  0.00     0.074 A 
ATOM     21  C   UNL A   1      44.101  26.841  31.492  1.00  0.00     0.031 C 
ATOM     22  C   UNL A   1      38.702  29.301  27.942  1.00  0.00     0.029 A 
ATOM     23  C   UNL A   1      38.851  29.882  29.272  1.00  0.00     0.049 A 
ATOM     24  H   UNL A   1      40.345  29.491  30.669  1.00  0.00     0.167 HD
ATOM     25  C   UNL A   1      43.674  28.297  33.455  1.00  0.00     0.037 A 
ATOM     26  C   UNL A   1      38.037  30.789  29.839  1.00  0.00     0.037 A 
ATOM     27  C   UNL A   1      42.873  29.268  34.146  1.00  0.00     0.049 A 
ATOM     28  C   UNL A   1      38.359  31.224  31.243  1.00  0.00     0.074 A 
ATOM     29  C   UNL A   1      43.043  29.795  35.410  1.00  0.00     0.029 A 
ATOM     30  N   UNL A   1      41.729  29.856  33.612  1.00  0.00    -0.354 N 
ATOM     31  N   UNL A   1      39.362  30.858  32.008  1.00  0.00    -0.248 NA
ATOM     32  C   UNL A   1      37.440  32.177  31.871  1.00  0.00     0.031 C 
ATOM     33  C   UNL A   1      41.967  30.654  35.664  1.00  0.00     0.029 A 
ATOM     34  C   UNL A   1      41.163  30.717  34.533  1.00  0.00     0.049 A 
ATOM     35  H   UNL A   1      41.375  29.682  32.710  1.00  0.00     0.167 HD
ATOM     36  C   UNL A   1      39.209  31.546  33.202  1.00  0.00     0.074 A 
ATOM     37  C   UNL A   1      38.017  32.361  33.051  1.00  0.00     0.031 C 
ATOM     38  C   UNL A   1      39.974  31.510  34.322  1.00  0.00     0.037 A 
BRANCH  25  39
ATOM     39  C   UNL A   1      44.862  27.671  34.124  1.00  0.00     0.064 A 
ATOM     40  C   UNL A   1      46.159  28.192  33.995  1.00  0.00     0.173 A 
ATOM     41  C   UNL A   1      44.708  26.471  34.836  1.00  0.00     0.173 A 
ATOM     42  F   UNL A   1      46.369  29.317  33.295  1.00  0.00    -0.203 F 
ATOM     43  C   UNL A   1      47.260  27.509  34.510  1.00  0.00     0.198 A 
ATOM     44  C   UNL A   1      45.806  25.810  35.379  1.00  0.00     0.198 A 
ATOM     45  F   UNL A   1      43.492  25.922  34.981  1.00  0.00    -0.203 F 
ATOM     46  F   UNL A   1      48.498  27.979  34.299  1.00  0.00    -0.200 F 
ATOM     47  C   UNL A   1      47.082  26.320  35.202  1.00  0.00     0.200 A 
ATOM     48  F   UNL A   1      45.631  24.662  36.048  1.00  0.00    -0.200 F 
ATOM     49  F   UNL A   1      48.143  25.655  35.679  1.00  0.00    -0.200 F 
ENDBRANCH  25  39
BRANCH  26  50
ATOM     50  C   UNL A   1      36.831  31.260  29.108  1.00  0.00     0.064 A 
ATOM     51  C   UNL A   1      35.734  30.420  28.880  1.00  0.00     0.173 A 
ATOM     52  C   UNL A   1      36.742  32.584  28.645  1.00  0.00     0.173 A 
ATOM     53  F   UNL A   1      35.774  29.143  29.284  1.00  0.00    -0.203 F 
ATOM     54  C   UNL A   1      34.598  30.884  28.214  1.00  0.00     0.198 A 
ATOM     55  C   UNL A   1      35.595  33.054  28.007  1.00  0.00     0.198 A 
ATOM     56  F   UNL A   1      37.762  33.434  28.834  1.00  0.00    -0.203 F 
ATOM     57  F   UNL A   1      33.576  30.050  27.979  1.00  0.00    -0.200 F 
ATOM     58  C   UNL A   1      34.526  32.202  27.787  1.00  0.00     0.200 A 
ATOM     59  F   UNL A   1      35.526  34.334  27.613  1.00  0.00    -0.200 F 
ATOM     60  F   UNL A   1      33.430  32.648  27.158  1.00  0.00    -0.200 F 
ENDBRANCH  26  50
BRANCH  38  61
ATOM     61  C   UNL A   1      39.561  32.405  35.451  1.00  0.00     0.064 A 
ATOM     62  C   UNL A   1      39.943  33.752  35.497  1.00  0.00     0.173 A 
ATOM     63  C   UNL A   1      38.701  31.923  36.447  1.00  0.00     0.173 A 
ATOM     64  F   UNL A   1      40.777  34.251  34.573  1.00  0.00    -0.203 F 
ATOM     65  C   UNL A   1      39.484  34.585  36.512  1.00  0.00     0.198 A 
ATOM     66  C   UNL A   1      38.218  32.767  37.441  1.00  0.00     0.198 A 
ATOM     67  F   UNL A   1      38.303  30.641  36.437  1.00  0.00    -0.203 F 
ATOM     68  F   UNL A   1      39.886  35.862  36.560  1.00  0.00    -0.200 F 
ATOM     69  C   UNL A   1      38.613  34.095  37.474  1.00  0.00     0.200 A 
ATOM     70  F   UNL A   1      37.361  32.296  38.358  1.00  0.00    -0.200 F 
ATOM     71  F   UNL A   1      38.154  34.905  38.438  1.00  0.00    -0.200 F 
ENDBRANCH  38  61
ENDBRANCH  12  13
ENDBRANCH   5   7
ENDBRANCH   4   5
ENDBRANCH   3   4
ENDBRANCH   2   3
ENDBRANCH   1   2
BRANCH   1  72
ATOM     72  C   UNL A   1      39.005  19.818  25.402  1.00  0.00     0.202 C 
BRANCH  72  73
ATOM     73  C   UNL A   1      38.610  21.240  25.793  1.00  0.00     0.261 C 
BRANCH  73  74
ATOM     74  O   UNL A   1      37.595  21.648  24.872  1.00  0.00    -0.463 OA
BRANCH  74  75
ATOM     75  C   UNL A   1      36.921  22.787  25.207  1.00  0.00     0.310 C 
ATOM     76  O   UNL A   1      37.413  23.780  25.724  1.00  0.00    -0.252 OA
BRANCH  75  77
ATOM     77  C   UNL A   1      35.505  22.671  24.685  1.00  0.00     0.115 C 
ATOM     78  C   UNL A   1      34.746  21.450  25.263  1.00  0.00     0.004 C 
ATOM     79  C   UNL A   1      34.602  23.882  25.011  1.00  0.00     0.096 C 
ATOM     80  C   UNL A   1      34.786  21.441  26.791  1.00  0.00     0.005 C 
ATOM     81  C   UNL A   1      33.303  21.858  25.030  1.00  0.00     0.009 C 
ATOM     82  C   UNL A   1      33.454  23.191  25.768  1.00  0.00     0.003 C 
ATOM     83  C   UNL A   1      33.995  22.707  27.141  1.00  0.00     0.005 C 
BRANCH  79  84
ATOM     84  C   UNL A   1      34.380  24.687  23.704  1.00  0.00     0.226 C 
ATOM     85  O   UNL A   1      34.993  24.321  22.693  1.00  0.00    -0.275 OA
ATOM     86  N   UNL A   1      33.349  25.600  23.575  1.00  0.00    -0.339 N 
ATOM     87  C   UNL A   1      32.756  25.799  22.237  1.00  0.00     0.141 C 
ATOM     88  C   UNL A   1      33.157  26.768  24.443  1.00  0.00     0.141 C 
ATOM     89  C   UNL A   1      31.259  26.182  22.317  1.00  0.00     0.138 C 
ATOM     90  C   UNL A   1      31.673  27.156  24.567  1.00  0.00     0.138 C 
ATOM     91  N   UNL A   1      31.083  27.322  23.229  1.00  0.00    -0.368 N 
BRANCH  91  92
ATOM     92  C   UNL A   1      29.990  28.168  23.149  1.00  0.00     0.038 A 
ATOM     93  C   UNL A   1      28.715  27.649  23.433  1.00  0.00     0.026 A 
ATOM     94  C   UNL A   1      30.080  29.513  22.778  1.00  0.00     0.046 A 
ATOM     95  C   UNL A   1      27.565  28.433  23.345  1.00  0.00     0.004 A 
ATOM     96  C   UNL A   1      28.925  30.297  22.677  1.00  0.00     0.043 A 
ATOM     97  C   UNL A   1      27.670  29.764  22.959  1.00  0.00     0.020 A 
ATOM     98  Cl  UNL A   1      29.051  31.941  22.178  1.00  0.00    -0.084 Cl
ENDBRANCH  91  92
ENDBRANCH  79  84
ENDBRANCH  75  77
ENDBRANCH  74  75
ENDBRANCH  73  74
ENDBRANCH  72  73
ENDBRANCH   1  72
TORSDOF 16
ENDMDL
MODEL 2
REMARK VINA RESULT:     -12.5      3.733      9.176
REMARK SMILES O=C(OCCOCCOC(=O)[C@H]1[C@H]2CC[C@H](C2)[C@@H]1C(=O)N1CCN(c2cccc(Cl)c2)CC1)c1ccc(-c2c3nc(c(-c4c(F)c(F)c(F)c(F)c4F)c4ccc([nH]4)c(-c4c(F)c(F)c(F)c(F)c4F)c4nc(c(-c5c(F)c(F)c(F)c(F)c5F)c5ccc2[nH]5)C=C4)C=C3)cc1
REMARK SMILES IDX 6 1 5 2 4 3 3 4 2 5 1 6 34 7 35 8 96 9 36 10 95 11 37 12
REMARK SMILES IDX 38 13 39 14 89 15 40 16 94 17 88 18 90 19 41 20 93 21 87 22
REMARK SMILES IDX 86 23 42 25 74 26 54 27 73 28 55 29 58 30 72 31 91 32 56 33
REMARK SMILES IDX 57 34 71 36 92 37 59 38 43 39 44 40 52 41 45 42 46 43 50 44
REMARK SMILES IDX 53 45 47 46 48 47 51 48 49 49 75 50 76 51 84 52 77 53 78 54
REMARK SMILES IDX 82 55 85 56 79 57 80 58 83 59 81 60 60 61 61 62 69 63 62 64
REMARK SMILES IDX 63 65 67 66 70 67 64 68 65 69 68 70 66 71 7 72 8 73 9 74
REMARK SMILES IDX 10 75 11 76 12 77 13 78 18 79 14 80 17 81 16 82 15 83 19 84
REMARK SMILES IDX 20 85 21 86 22 87 33 88 23 89 32 90 24 91 25 92 26 93 31 94
REMARK SMILES IDX 27 95 29 96 28 97 30 98
REMARK H PARENT 90 24 58 35
REMARK Flexibility Score: inf
ROOT
ATOM      1  O   UNL A   1      33.550  31.097  26.876  1.00  0.00    -0.374 OA
ENDROOT
BRANCH   1   2
ATOM      2  C   UNL A   1      32.208  31.414  27.246  1.00  0.00     0.202 C 
BRANCH   2   3
ATOM      3  C   UNL A   1      31.772  32.844  26.923  1.00  0.00     0.261 C 
BRANCH   3   4
ATOM      4  O   UNL A   1      32.835  33.763  27.205  1.00  0.00    -0.460 OA
BRANCH   4   5
ATOM      5  C   UNL A   1      33.230  34.226  28.411  1.00  0.00     0.338 C 
ATOM      6  O   UNL A   1      32.556  35.100  28.953  1.00  0.00    -0.246 OA
BRANCH   5   7
ATOM      7  C   UNL A   1      34.427  33.717  29.147  1.00  0.00     0.060 A 
ATOM      8  C   UNL A   1      35.734  34.187  28.999  1.00  0.00     0.016 A 
ATOM      9  C   UNL A   1      34.182  32.760  30.146  1.00  0.00     0.016 A 
ATOM     10  C   UNL A   1      36.766  33.744  29.802  1.00  0.00     0.010 A 
ATOM     11  C   UNL A   1      35.214  32.298  30.962  1.00  0.00     0.010 A 
ATOM     12  C   UNL A   1      36.507  32.797  30.780  1.00  0.00    -0.014 A 
BRANCH  12  13
ATOM     13  C   UNL A   1      37.665  32.243  31.480  1.00  0.00     0.031 A 
ATOM     14  C   UNL A   1      38.464  31.205  30.767  1.00  0.00     0.074 A 
ATOM     15  C   UNL A   1      38.051  32.785  32.645  1.00  0.00     0.049 A 
ATOM     16  N   UNL A   1      39.482  30.509  31.187  1.00  0.00    -0.248 NA
ATOM     17  C   UNL A   1      38.064  30.922  29.377  1.00  0.00     0.031 C 
ATOM     18  C   UNL A   1      37.397  33.920  33.301  1.00  0.00     0.029 A 
ATOM     19  N   UNL A   1      39.092  32.471  33.470  1.00  0.00    -0.354 N 
ATOM     20  C   UNL A   1      39.819  29.679  30.129  1.00  0.00     0.074 A 
ATOM     21  C   UNL A   1      38.907  29.959  29.045  1.00  0.00     0.031 C 
ATOM     22  C   UNL A   1      38.049  34.198  34.439  1.00  0.00     0.029 A 
ATOM     23  C   UNL A   1      39.111  33.217  34.621  1.00  0.00     0.049 A 
ATOM     24  H   UNL A   1      39.761  31.781  33.260  1.00  0.00     0.167 HD
ATOM     25  C   UNL A   1      40.801  28.751  30.096  1.00  0.00     0.037 A 
ATOM     26  C   UNL A   1      39.873  33.064  35.718  1.00  0.00     0.037 A 
ATOM     27  C   UNL A   1      41.671  28.511  31.213  1.00  0.00     0.049 A 
ATOM     28  C   UNL A   1      40.890  31.955  35.703  1.00  0.00     0.074 A 
ATOM     29  C   UNL A   1      42.668  27.567  31.352  1.00  0.00     0.029 A 
ATOM     30  N   UNL A   1      41.631  29.237  32.401  1.00  0.00    -0.354 N 
ATOM     31  N   UNL A   1      41.171  31.107  34.739  1.00  0.00    -0.248 NA
ATOM     32  C   UNL A   1      41.685  31.765  36.920  1.00  0.00     0.031 C 
ATOM     33  C   UNL A   1      43.189  27.682  32.646  1.00  0.00     0.029 A 
ATOM     34  C   UNL A   1      42.564  28.741  33.291  1.00  0.00     0.049 A 
ATOM     35  H   UNL A   1      41.025  29.991  32.580  1.00  0.00     0.167 HD
ATOM     36  C   UNL A   1      42.182  30.293  35.222  1.00  0.00     0.074 A 
ATOM     37  C   UNL A   1      42.474  30.759  36.565  1.00  0.00     0.031 C 
ATOM     38  C   UNL A   1      42.815  29.253  34.619  1.00  0.00     0.037 A 
BRANCH  25  39
ATOM     39  C   UNL A   1      40.873  27.887  28.872  1.00  0.00     0.064 A 
ATOM     40  C   UNL A   1      41.668  28.218  27.762  1.00  0.00     0.173 A 
ATOM     41  C   UNL A   1      40.059  26.748  28.775  1.00  0.00     0.173 A 
ATOM     42  F   UNL A   1      42.439  29.316  27.787  1.00  0.00    -0.203 F 
ATOM     43  C   UNL A   1      41.604  27.471  26.587  1.00  0.00     0.198 A 
ATOM     44  C   UNL A   1      40.024  25.985  27.611  1.00  0.00     0.198 A 
ATOM     45  F   UNL A   1      39.271  26.391  29.800  1.00  0.00    -0.203 F 
ATOM     46  F   UNL A   1      42.304  27.857  25.511  1.00  0.00    -0.200 F 
ATOM     47  C   UNL A   1      40.784  26.356  26.513  1.00  0.00     0.200 A 
ATOM     48  F   UNL A   1      39.231  24.906  27.543  1.00  0.00    -0.200 F 
ATOM     49  F   UNL A   1      40.709  25.650  25.376  1.00  0.00    -0.200 F 
ENDBRANCH  25  39
BRANCH  26  50
ATOM     50  C   UNL A   1      39.638  33.922  36.908  1.00  0.00     0.064 A 
ATOM     51  C   UNL A   1      40.213  35.193  37.024  1.00  0.00     0.173 A 
ATOM     52  C   UNL A   1      38.800  33.492  37.951  1.00  0.00     0.173 A 
ATOM     53  F   UNL A   1      41.036  35.646  36.067  1.00  0.00    -0.203 F 
ATOM     54  C   UNL A   1      39.962  35.999  38.136  1.00  0.00     0.198 A 
ATOM     55  C   UNL A   1      38.526  34.309  39.047  1.00  0.00     0.198 A 
ATOM     56  F   UNL A   1      38.222  32.282  37.895  1.00  0.00    -0.203 F 
ATOM     57  F   UNL A   1      40.552  37.197  38.239  1.00  0.00    -0.200 F 
ATOM     58  C   UNL A   1      39.113  35.560  39.142  1.00  0.00     0.200 A 
ATOM     59  F   UNL A   1      37.691  33.884  40.005  1.00  0.00    -0.200 F 
ATOM     60  F   UNL A   1      38.865  36.339  40.203  1.00  0.00    -0.200 F 
ENDBRANCH  26  50
BRANCH  38  61
ATOM     61  C   UNL A   1      43.904  28.582  35.399  1.00  0.00     0.064 A 
ATOM     62  C   UNL A   1      43.636  27.507  36.258  1.00  0.00     0.173 A 
ATOM     63  C   UNL A   1      45.239  28.965  35.210  1.00  0.00     0.173 A 
ATOM     64  F   UNL A   1      42.372  27.117  36.479  1.00  0.00    -0.203 F 
ATOM     65  C   UNL A   1      44.671  26.848  36.912  1.00  0.00     0.198 A 
ATOM     66  C   UNL A   1      46.273  28.282  35.839  1.00  0.00     0.198 A 
ATOM     67  F   UNL A   1      45.542  29.984  34.389  1.00  0.00    -0.203 F 
ATOM     68  F   UNL A   1      44.394  25.846  37.756  1.00  0.00    -0.200 F 
ATOM     69  C   UNL A   1      45.987  27.226  36.692  1.00  0.00     0.200 A 
ATOM     70  F   UNL A   1      47.544  28.637  35.611  1.00  0.00    -0.200 F 
ATOM     71  F   UNL A   1      46.984  26.574  37.306  1.00  0.00    -0.200 F 
ENDBRANCH  38  61
ENDBRANCH  12  13
ENDBRANCH   5   7
ENDBRANCH   4   5
ENDBRANCH   3   4
ENDBRANCH   2   3
ENDBRANCH   1   2
BRANCH   1  72
ATOM     72  C   UNL A   1      34.143  29.951  27.499  1.00  0.00     0.202 C 
BRANCH  72  73
ATOM     73  C   UNL A   1      33.887  28.725  26.627  1.00  0.00     0.261 C 
BRANCH  73  74
ATOM     74  O   UNL A   1      33.916  29.176  25.271  1.00  0.00    -0.463 OA
BRANCH  74  75
ATOM     75  C   UNL A   1      33.554  28.251  24.335  1.00  0.00     0.310 C 
ATOM     76  O   UNL A   1      34.196  27.960  23.337  1.00  0.00    -0.252 OA
BRANCH  75  77
ATOM     77  C   UNL A   1      32.313  27.537  24.828  1.00  0.00     0.115 C 
ATOM     78  C   UNL A   1      31.006  28.303  24.500  1.00  0.00     0.004 C 
ATOM     79  C   UNL A   1      32.103  26.130  24.226  1.00  0.00     0.096 C 
ATOM     80  C   UNL A   1      30.913  28.633  23.010  1.00  0.00     0.005 C 
ATOM     81  C   UNL A   1      29.977  27.192  24.598  1.00  0.00     0.009 C 
ATOM     82  C   UNL A   1      30.706  26.290  23.599  1.00  0.00     0.003 C 
ATOM     83  C   UNL A   1      30.825  27.240  22.376  1.00  0.00     0.005 C 
BRANCH  79  84
ATOM     84  C   UNL A   1      32.414  25.081  25.326  1.00  0.00     0.226 C 
ATOM     85  O   UNL A   1      32.184  25.395  26.501  1.00  0.00    -0.275 OA
ATOM     86  N   UNL A   1      32.675  23.758  25.019  1.00  0.00    -0.339 N 
ATOM     87  C   UNL A   1      32.285  22.724  26.000  1.00  0.00     0.141 C 
ATOM     88  C   UNL A   1      33.760  23.304  24.141  1.00  0.00     0.141 C 
ATOM     89  C   UNL A   1      31.914  21.386  25.315  1.00  0.00     0.138 C 
ATOM     90  C   UNL A   1      33.409  21.990  23.423  1.00  0.00     0.138 C 
ATOM     91  N   UNL A   1      32.993  20.976  24.405  1.00  0.00    -0.368 N 
BRANCH  91  92
ATOM     92  C   UNL A   1      33.177  19.656  24.028  1.00  0.00     0.038 A 
ATOM     93  C   UNL A   1      32.410  19.145  22.967  1.00  0.00     0.026 A 
ATOM     94  C   UNL A   1      34.073  18.790  24.663  1.00  0.00     0.046 A 
ATOM     95  C   UNL A   1      32.520  17.818  22.553  1.00  0.00     0.004 A 
ATOM     96  C   UNL A   1      34.174  17.455  24.257  1.00  0.00     0.043 A 
ATOM     97  C   UNL A   1      33.403  16.966  23.205  1.00  0.00     0.020 A 
ATOM     98  Cl  UNL A   1      35.254  16.392  25.077  1.00  0.00    -0.084 Cl
ENDBRANCH  91  92
ENDBRANCH  79  84
ENDBRANCH  75  77
ENDBRANCH  74  75
ENDBRANCH  73  74
ENDBRANCH  72  73
ENDBRANCH   1  72
TORSDOF 16
ENDMDL
MODEL 3
REMARK VINA RESULT:     -12.4      3.886      9.800
REMARK SMILES O=C(OCCOCCOC(=O)[C@H]1[C@H]2CC[C@H](C2)[C@@H]1C(=O)N1CCN(c2cccc(Cl)c2)CC1)c1ccc(-c2c3nc(c(-c4c(F)c(F)c(F)c(F)c4F)c4ccc([nH]4)c(-c4c(F)c(F)c(F)c(F)c4F)c4nc(c(-c5c(F)c(F)c(F)c(F)c5F)c5ccc2[nH]5)C=C4)C=C3)cc1
REMARK SMILES IDX 6 1 5 2 4 3 3 4 2 5 1 6 34 7 35 8 96 9 36 10 95 11 37 12
REMARK SMILES IDX 38 13 39 14 89 15 40 16 94 17 88 18 90 19 41 20 93 21 87 22
REMARK SMILES IDX 86 23 42 25 74 26 54 27 73 28 55 29 58 30 72 31 91 32 56 33
REMARK SMILES IDX 57 34 71 36 92 37 59 38 43 39 44 40 52 41 45 42 46 43 50 44
REMARK SMILES IDX 53 45 47 46 48 47 51 48 49 49 75 50 76 51 84 52 77 53 78 54
REMARK SMILES IDX 82 55 85 56 79 57 80 58 83 59 81 60 60 61 61 62 69 63 62 64
REMARK SMILES IDX 63 65 67 66 70 67 64 68 65 69 68 70 66 71 7 72 8 73 9 74
REMARK SMILES IDX 10 75 11 76 12 77 13 78 18 79 14 80 17 81 16 82 15 83 19 84
REMARK SMILES IDX 20 85 21 86 22 87 33 88 23 89 32 90 24 91 25 92 26 93 31 94
REMARK SMILES IDX 27 95 29 96 28 97 30 98
REMARK H PARENT 90 24 58 35
REMARK Flexibility Score: inf
ROOT
ATOM      1  O   UNL A   1      31.808  33.139  27.153  1.00  0.00    -0.374 OA
ENDROOT
BRANCH   1   2
ATOM      2  C   UNL A   1      32.966  33.269  27.979  1.00  0.00     0.202 C 
BRANCH   2   3
ATOM      3  C   UNL A   1      33.278  34.696  28.431  1.00  0.00     0.261 C 
BRANCH   3   4
ATOM      4  O   UNL A   1      32.513  35.025  29.598  1.00  0.00    -0.460 OA
BRANCH   4   5
ATOM      5  C   UNL A   1      32.925  35.026  30.884  1.00  0.00     0.338 C 
ATOM      6  O   UNL A   1      32.239  35.612  31.719  1.00  0.00    -0.246 OA
BRANCH   5   7
ATOM      7  C   UNL A   1      34.156  34.327  31.365  1.00  0.00     0.060 A 
ATOM      8  C   UNL A   1      34.183  33.210  32.203  1.00  0.00     0.016 A 
ATOM      9  C   UNL A   1      35.375  34.780  30.832  1.00  0.00     0.016 A 
ATOM     10  C   UNL A   1      35.358  32.552  32.506  1.00  0.00     0.010 A 
ATOM     11  C   UNL A   1      36.572  34.129  31.133  1.00  0.00     0.010 A 
ATOM     12  C   UNL A   1      36.552  33.014  31.975  1.00  0.00    -0.014 A 
BRANCH  12  13
ATOM     13  C   UNL A   1      37.777  32.384  32.468  1.00  0.00     0.031 A 
ATOM     14  C   UNL A   1      38.415  31.355  31.598  1.00  0.00     0.074 A 
ATOM     15  C   UNL A   1      38.354  32.853  33.584  1.00  0.00     0.049 A 
ATOM     16  N   UNL A   1      39.453  30.604  31.829  1.00  0.00    -0.248 NA
ATOM     17  C   UNL A   1      37.802  31.157  30.272  1.00  0.00     0.031 C 
ATOM     18  C   UNL A   1      37.854  33.976  34.380  1.00  0.00     0.029 A 
ATOM     19  N   UNL A   1      39.491  32.461  34.229  1.00  0.00    -0.354 N 
ATOM     20  C   UNL A   1      39.595  29.816  30.697  1.00  0.00     0.074 A 
ATOM     21  C   UNL A   1      38.544  30.182  29.775  1.00  0.00     0.031 C 
ATOM     22  C   UNL A   1      38.678  34.174  35.419  1.00  0.00     0.029 A 
ATOM     23  C   UNL A   1      39.713  33.147  35.396  1.00  0.00     0.049 A 
ATOM     24  H   UNL A   1      40.092  31.759  33.891  1.00  0.00     0.167 HD
ATOM     25  C   UNL A   1      40.520  28.856  30.475  1.00  0.00     0.037 A 
ATOM     26  C   UNL A   1      40.622  32.912  36.358  1.00  0.00     0.037 A 
ATOM     27  C   UNL A   1      41.535  28.529  31.437  1.00  0.00     0.049 A 
ATOM     28  C   UNL A   1      41.577  31.769  36.142  1.00  0.00     0.074 A 
ATOM     29  C   UNL A   1      42.500  27.544  31.383  1.00  0.00     0.029 A 
ATOM     30  N   UNL A   1      41.703  29.195  32.649  1.00  0.00    -0.354 N 
ATOM     31  N   UNL A   1      41.675  30.962  35.110  1.00  0.00    -0.248 NA
ATOM     32  C   UNL A   1      42.534  31.490  37.216  1.00  0.00     0.031 C 
ATOM     33  C   UNL A   1      43.211  27.575  32.588  1.00  0.00     0.029 A 
ATOM     34  C   UNL A   1      42.736  28.623  33.366  1.00  0.00     0.049 A 
ATOM     35  H   UNL A   1      41.163  29.961  32.950  1.00  0.00     0.167 HD
ATOM     36  C   UNL A   1      42.711  30.088  35.399  1.00  0.00     0.074 A 
ATOM     37  C   UNL A   1      43.219  30.476  36.702  1.00  0.00     0.031 C 
ATOM     38  C   UNL A   1      43.202  29.059  34.662  1.00  0.00     0.037 A 
BRANCH  25  39
ATOM     39  C   UNL A   1      40.373  28.053  29.217  1.00  0.00     0.064 A 
ATOM     40  C   UNL A   1      39.602  26.881  29.158  1.00  0.00     0.173 A 
ATOM     41  C   UNL A   1      41.093  28.418  28.069  1.00  0.00     0.173 A 
ATOM     42  F   UNL A   1      38.921  26.465  30.237  1.00  0.00    -0.203 F 
ATOM     43  C   UNL A   1      39.600  26.081  28.016  1.00  0.00     0.198 A 
ATOM     44  C   UNL A   1      41.061  27.635  26.919  1.00  0.00     0.198 A 
ATOM     45  F   UNL A   1      41.856  29.522  28.073  1.00  0.00    -0.203 F 
ATOM     46  F   UNL A   1      38.927  24.921  28.013  1.00  0.00    -0.200 F 
ATOM     47  C   UNL A   1      40.328  26.460  26.898  1.00  0.00     0.200 A 
ATOM     48  F   UNL A   1      41.765  28.004  25.840  1.00  0.00    -0.200 F 
ATOM     49  F   UNL A   1      40.340  25.680  25.808  1.00  0.00    -0.200 F 
ENDBRANCH  25  39
BRANCH  26  50
ATOM     50  C   UNL A   1      40.603  33.717  37.607  1.00  0.00     0.064 A 
ATOM     51  C   UNL A   1      41.455  34.813  37.789  1.00  0.00     0.173 A 
ATOM     52  C   UNL A   1      39.700  33.418  38.642  1.00  0.00     0.173 A 
ATOM     53  F   UNL A   1      42.349  35.131  36.842  1.00  0.00    -0.203 F 
ATOM     54  C   UNL A   1      41.409  35.576  38.958  1.00  0.00     0.198 A 
ATOM     55  C   UNL A   1      39.633  34.199  39.795  1.00  0.00     0.198 A 
ATOM     56  F   UNL A   1      38.859  32.380  38.523  1.00  0.00    -0.203 F 
ATOM     57  F   UNL A   1      42.258  36.598  39.121  1.00  0.00    -0.200 F 
ATOM     58  C   UNL A   1      40.492  35.274  39.955  1.00  0.00     0.200 A 
ATOM     59  F   UNL A   1      38.733  33.911  40.746  1.00  0.00    -0.200 F 
ATOM     60  F   UNL A   1      40.441  36.014  41.071  1.00  0.00    -0.200 F 
ENDBRANCH  26  50
BRANCH  38  61
ATOM     61  C   UNL A   1      44.365  28.310  35.239  1.00  0.00     0.064 A 
ATOM     62  C   UNL A   1      44.182  27.170  36.034  1.00  0.00     0.173 A 
ATOM     63  C   UNL A   1      45.674  28.692  34.914  1.00  0.00     0.173 A 
ATOM     64  F   UNL A   1      42.947  26.778  36.382  1.00  0.00    -0.203 F 
ATOM     65  C   UNL A   1      45.276  26.445  36.495  1.00  0.00     0.198 A 
ATOM     66  C   UNL A   1      46.763  27.945  35.349  1.00  0.00     0.198 A 
ATOM     67  F   UNL A   1      45.894  29.772  34.148  1.00  0.00    -0.203 F 
ATOM     68  F   UNL A   1      45.085  25.379  37.282  1.00  0.00    -0.200 F 
ATOM     69  C   UNL A   1      46.562  26.825  36.141  1.00  0.00     0.200 A 
ATOM     70  F   UNL A   1      48.003  28.303  34.990  1.00  0.00    -0.200 F 
ATOM     71  F   UNL A   1      47.614  26.111  36.567  1.00  0.00    -0.200 F 
ENDBRANCH  38  61
ENDBRANCH  12  13
ENDBRANCH   5   7
ENDBRANCH   4   5
ENDBRANCH   3   4
ENDBRANCH   2   3
ENDBRANCH   1   2
BRANCH   1  72
ATOM     72  C   UNL A   1      31.459  31.818  26.725  1.00  0.00     0.202 C 
BRANCH  72  73
ATOM     73  C   UNL A   1      32.656  30.895  26.939  1.00  0.00     0.261 C 
BRANCH  73  74
ATOM     74  O   UNL A   1      32.130  29.574  27.087  1.00  0.00    -0.463 OA
BRANCH  74  75
ATOM     75  C   UNL A   1      32.955  28.564  26.685  1.00  0.00     0.310 C 
ATOM     76  O   UNL A   1      34.100  28.382  27.076  1.00  0.00    -0.252 OA
BRANCH  75  77
ATOM     77  C   UNL A   1      32.161  27.623  25.805  1.00  0.00     0.115 C 
ATOM     78  C   UNL A   1      31.692  28.283  24.484  1.00  0.00     0.004 C 
ATOM     79  C   UNL A   1      32.932  26.361  25.358  1.00  0.00     0.096 C 
ATOM     80  C   UNL A   1      32.863  28.910  23.727  1.00  0.00     0.005 C 
ATOM     81  C   UNL A   1      31.427  27.066  23.619  1.00  0.00     0.009 C 
ATOM     82  C   UNL A   1      32.829  26.487  23.828  1.00  0.00     0.003 C 
ATOM     83  C   UNL A   1      33.712  27.683  23.375  1.00  0.00     0.005 C 
BRANCH  79  84
ATOM     84  C   UNL A   1      32.368  25.146  26.140  1.00  0.00     0.226 C 
ATOM     85  O   UNL A   1      31.510  25.367  27.005  1.00  0.00    -0.275 OA
ATOM     86  N   UNL A   1      32.588  23.845  25.725  1.00  0.00    -0.339 N 
ATOM     87  C   UNL A   1      31.551  22.834  26.016  1.00  0.00     0.141 C 
ATOM     88  C   UNL A   1      33.914  23.240  25.548  1.00  0.00     0.141 C 
ATOM     89  C   UNL A   1      31.508  21.722  24.940  1.00  0.00     0.138 C 
ATOM     90  C   UNL A   1      33.910  22.150  24.464  1.00  0.00     0.138 C 
ATOM     91  N   UNL A   1      32.854  21.164  24.745  1.00  0.00    -0.368 N 
BRANCH  91  92
ATOM     92  C   UNL A   1      33.058  19.894  24.232  1.00  0.00     0.038 A 
ATOM     93  C   UNL A   1      32.290  19.481  23.130  1.00  0.00     0.026 A 
ATOM     94  C   UNL A   1      33.975  18.984  24.767  1.00  0.00     0.046 A 
ATOM     95  C   UNL A   1      32.419  18.207  22.579  1.00  0.00     0.004 A 
ATOM     96  C   UNL A   1      34.097  17.700  24.223  1.00  0.00     0.043 A 
ATOM     97  C   UNL A   1      33.324  17.309  23.132  1.00  0.00     0.020 A 
ATOM     98  Cl  UNL A   1      35.202  16.579  24.920  1.00  0.00    -0.084 Cl
ENDBRANCH  91  92
ENDBRANCH  79  84
ENDBRANCH  75  77
ENDBRANCH  74  75
ENDBRANCH  73  74
ENDBRANCH  72  73
ENDBRANCH   1  72
TORSDOF 16
ENDMDL
