MODEL 1
REMARK VINA RESULT:     -11.1      0.000      0.000
REMARK SMILES O=C(OCCOCCOC(=O)c1[nH]nc2c1CCC2)c1ccc(-c2c3nc(c(-c4c(F)c(F)c(F)c(F)c4F)c4ccc([nH]4)c(-c4c(F)c(F)c(F)c(F)c4F)c4nc(c(-c5c(F)c(F)c(F)c(F)c5F)c5ccc2[nH]5)C=C4)C=C3)cc1
REMARK SMILES IDX 5 1 4 2 3 3 2 4 1 5 20 6 21 7 82 8 22 9 81 10 23 11 24 12
REMARK SMILES IDX 25 13 75 14 26 15 80 16 74 17 76 18 27 19 79 20 73 21 72 22
REMARK SMILES IDX 28 24 60 25 40 26 59 27 41 28 44 29 58 30 77 31 42 32 43 33
REMARK SMILES IDX 57 35 78 36 45 37 29 38 30 39 38 40 31 41 32 42 36 43 39 44
REMARK SMILES IDX 33 45 34 46 37 47 35 48 61 49 62 50 70 51 63 52 64 53 68 54
REMARK SMILES IDX 71 55 65 56 66 57 69 58 67 59 46 60 47 61 55 62 48 63 49 64
REMARK SMILES IDX 53 65 56 66 50 67 51 68 54 69 52 70 6 71 7 72 8 73 9 74
REMARK SMILES IDX 10 75 11 76 12 77 13 78 16 79 14 80 15 82 17 83 19 84 18 85
REMARK H PARENT 76 23 44 34 13 81
REMARK Flexibility Score: inf
ROOT
ATOM      1  C   UNL A   1      34.247  34.376  29.317  1.00  0.00     0.202 C 
ENDROOT
BRANCH   1   2
ATOM      2  C   UNL A   1      34.474  32.862  29.334  1.00  0.00     0.261 C 
BRANCH   2   3
ATOM      3  O   UNL A   1      35.313  32.368  28.271  1.00  0.00    -0.460 OA
BRANCH   3   4
ATOM      4  C   UNL A   1      35.624  31.053  28.201  1.00  0.00     0.338 C 
ATOM      5  O   UNL A   1      35.216  30.322  27.309  1.00  0.00    -0.246 OA
BRANCH   4   6
ATOM      6  C   UNL A   1      36.758  30.662  29.073  1.00  0.00     0.060 A 
ATOM      7  C   UNL A   1      37.885  31.467  29.258  1.00  0.00     0.016 A 
ATOM      8  C   UNL A   1      36.727  29.371  29.608  1.00  0.00     0.016 A 
ATOM      9  C   UNL A   1      39.064  30.912  29.690  1.00  0.00     0.010 A 
ATOM     10  C   UNL A   1      37.892  28.825  30.115  1.00  0.00     0.010 A 
ATOM     11  C   UNL A   1      39.073  29.564  30.013  1.00  0.00    -0.014 A 
BRANCH  11  12
ATOM     12  C   UNL A   1      40.381  28.942  30.132  1.00  0.00     0.031 A 
ATOM     13  C   UNL A   1      40.958  28.869  31.504  1.00  0.00     0.074 A 
ATOM     14  C   UNL A   1      40.944  28.426  29.022  1.00  0.00     0.049 A 
ATOM     15  N   UNL A   1      42.171  29.101  31.899  1.00  0.00    -0.248 NA
ATOM     16  C   UNL A   1      40.024  28.552  32.600  1.00  0.00     0.031 C 
ATOM     17  C   UNL A   1      40.343  28.293  27.686  1.00  0.00     0.029 A 
ATOM     18  N   UNL A   1      42.123  27.769  28.885  1.00  0.00    -0.354 N 
ATOM     19  C   UNL A   1      42.190  28.800  33.260  1.00  0.00     0.074 A 
ATOM     20  C   UNL A   1      40.827  28.570  33.660  1.00  0.00     0.031 C 
ATOM     21  C   UNL A   1      41.020  27.358  26.990  1.00  0.00     0.029 A 
ATOM     22  C   UNL A   1      42.159  26.934  27.782  1.00  0.00     0.049 A 
ATOM     23  H   UNL A   1      42.878  27.876  29.508  1.00  0.00     0.167 HD
ATOM     24  C   UNL A   1      43.341  28.546  33.939  1.00  0.00     0.037 A 
ATOM     25  C   UNL A   1      42.974  25.868  27.618  1.00  0.00     0.037 A 
ATOM     26  C   UNL A   1      44.480  29.174  33.339  1.00  0.00     0.049 A 
ATOM     27  C   UNL A   1      44.104  26.017  28.570  1.00  0.00     0.074 A 
ATOM     28  C   UNL A   1      44.850  30.486  33.112  1.00  0.00     0.029 A 
ATOM     29  N   UNL A   1      45.344  28.418  32.588  1.00  0.00    -0.354 N 
ATOM     30  N   UNL A   1      45.007  26.955  28.492  1.00  0.00    -0.248 NA
ATOM     31  C   UNL A   1      43.974  25.384  29.876  1.00  0.00     0.031 C 
ATOM     32  C   UNL A   1      45.565  30.463  31.880  1.00  0.00     0.029 A 
ATOM     33  C   UNL A   1      45.601  29.137  31.448  1.00  0.00     0.049 A 
ATOM     34  H   UNL A   1      45.706  27.533  32.820  1.00  0.00     0.167 HD
ATOM     35  C   UNL A   1      45.284  27.298  29.808  1.00  0.00     0.074 A 
ATOM     36  C   UNL A   1      44.685  26.239  30.614  1.00  0.00     0.031 C 
ATOM     37  C   UNL A   1      45.728  28.546  30.139  1.00  0.00     0.037 A 
BRANCH  24  38
ATOM     38  C   UNL A   1      43.446  27.457  34.973  1.00  0.00     0.064 A 
ATOM     39  C   UNL A   1      43.745  27.779  36.309  1.00  0.00     0.173 A 
ATOM     40  C   UNL A   1      43.545  26.089  34.633  1.00  0.00     0.173 A 
ATOM     41  F   UNL A   1      43.717  29.053  36.727  1.00  0.00    -0.203 F 
ATOM     42  C   UNL A   1      44.161  26.806  37.222  1.00  0.00     0.198 A 
ATOM     43  C   UNL A   1      43.909  25.116  35.559  1.00  0.00     0.198 A 
ATOM     44  F   UNL A   1      43.400  25.661  33.372  1.00  0.00    -0.203 F 
ATOM     45  F   UNL A   1      44.544  27.169  38.454  1.00  0.00    -0.200 F 
ATOM     46  C   UNL A   1      44.246  25.476  36.846  1.00  0.00     0.200 A 
ATOM     47  F   UNL A   1      44.005  23.836  35.168  1.00  0.00    -0.200 F 
ATOM     48  F   UNL A   1      44.697  24.552  37.703  1.00  0.00    -0.200 F 
ENDBRANCH  24  38
BRANCH  25  49
ATOM     49  C   UNL A   1      42.584  24.583  26.991  1.00  0.00     0.064 A 
ATOM     50  C   UNL A   1      43.305  24.049  25.916  1.00  0.00     0.173 A 
ATOM     51  C   UNL A   1      41.611  23.742  27.574  1.00  0.00     0.173 A 
ATOM     52  F   UNL A   1      44.290  24.760  25.349  1.00  0.00    -0.203 F 
ATOM     53  C   UNL A   1      43.056  22.756  25.442  1.00  0.00     0.198 A 
ATOM     54  C   UNL A   1      41.351  22.462  27.089  1.00  0.00     0.198 A 
ATOM     55  F   UNL A   1      40.949  24.112  28.680  1.00  0.00    -0.203 F 
ATOM     56  F   UNL A   1      43.795  22.259  24.440  1.00  0.00    -0.200 F 
ATOM     57  C   UNL A   1      42.080  21.965  26.027  1.00  0.00     0.200 A 
ATOM     58  F   UNL A   1      40.428  21.698  27.690  1.00  0.00    -0.200 F 
ATOM     59  F   UNL A   1      41.867  20.714  25.595  1.00  0.00    -0.200 F 
ENDBRANCH  25  49
BRANCH  37  60
ATOM     60  C   UNL A   1      46.091  29.475  29.016  1.00  0.00     0.064 A 
ATOM     61  C   UNL A   1      45.155  30.324  28.398  1.00  0.00     0.173 A 
ATOM     62  C   UNL A   1      47.436  29.644  28.672  1.00  0.00     0.173 A 
ATOM     63  F   UNL A   1      43.871  30.309  28.767  1.00  0.00    -0.203 F 
ATOM     64  C   UNL A   1      45.542  31.258  27.441  1.00  0.00     0.198 A 
ATOM     65  C   UNL A   1      47.826  30.605  27.742  1.00  0.00     0.198 A 
ATOM     66  F   UNL A   1      48.382  28.915  29.285  1.00  0.00    -0.203 F 
ATOM     67  F   UNL A   1      44.624  32.050  26.865  1.00  0.00    -0.200 F 
ATOM     68  C   UNL A   1      46.880  31.403  27.118  1.00  0.00     0.200 A 
ATOM     69  F   UNL A   1      49.128  30.782  27.473  1.00  0.00    -0.200 F 
ATOM     70  F   UNL A   1      47.260  32.336  26.234  1.00  0.00    -0.200 F 
ENDBRANCH  37  60
ENDBRANCH  11  12
ENDBRANCH   4   6
ENDBRANCH   3   4
ENDBRANCH   2   3
ENDBRANCH   1   2
BRANCH   1  71
ATOM     71  O   UNL A   1      32.973  34.822  29.786  1.00  0.00    -0.374 OA
BRANCH  71  72
ATOM     72  C   UNL A   1      32.698  36.222  29.612  1.00  0.00     0.202 C 
BRANCH  72  73
ATOM     73  C   UNL A   1      33.261  37.189  30.664  1.00  0.00     0.261 C 
BRANCH  73  74
ATOM     74  O   UNL A   1      32.727  36.932  31.974  1.00  0.00    -0.459 OA
BRANCH  74  75
ATOM     75  C   UNL A   1      33.668  36.694  32.939  1.00  0.00     0.356 C 
ATOM     76  O   UNL A   1      34.015  37.476  33.788  1.00  0.00    -0.244 OA
BRANCH  75  77
ATOM     77  C   UNL A   1      33.998  35.293  32.945  1.00  0.00     0.146 A 
ATOM     78  N   UNL A   1      33.013  34.331  33.052  1.00  0.00    -0.271 N 
ATOM     79  C   UNL A   1      35.157  34.573  32.835  1.00  0.00     0.008 A 
ATOM     80  N   UNL A   1      33.466  33.055  32.996  1.00  0.00    -0.180 NA
ATOM     81  H   UNL A   1      32.061  34.553  33.161  1.00  0.00     0.190 HD
ATOM     82  C   UNL A   1      34.774  33.236  32.892  1.00  0.00     0.066 A 
ATOM     83  C   UNL A   1      36.618  34.731  32.757  1.00  0.00     0.040 C 
ATOM     84  C   UNL A   1      35.905  32.296  32.901  1.00  0.00     0.059 C 
ATOM     85  C   UNL A   1      37.113  33.248  32.607  1.00  0.00     0.011 C 
ENDBRANCH  75  77
ENDBRANCH  74  75
ENDBRANCH  73  74
ENDBRANCH  72  73
ENDBRANCH  71  72
ENDBRANCH   1  71
TORSDOF 14
ENDMDL
MODEL 2
REMARK VINA RESULT:     -10.9      2.377      3.540
REMARK SMILES O=C(OCCOCCOC(=O)c1[nH]nc2c1CCC2)c1ccc(-c2c3nc(c(-c4c(F)c(F)c(F)c(F)c4F)c4ccc([nH]4)c(-c4c(F)c(F)c(F)c(F)c4F)c4nc(c(-c5c(F)c(F)c(F)c(F)c5F)c5ccc2[nH]5)C=C4)C=C3)cc1
REMARK SMILES IDX 5 1 4 2 3 3 2 4 1 5 20 6 21 7 82 8 22 9 81 10 23 11 24 12
REMARK SMILES IDX 25 13 75 14 26 15 80 16 74 17 76 18 27 19 79 20 73 21 72 22
REMARK SMILES IDX 28 24 60 25 40 26 59 27 41 28 44 29 58 30 77 31 42 32 43 33
REMARK SMILES IDX 57 35 78 36 45 37 29 38 30 39 38 40 31 41 32 42 36 43 39 44
REMARK SMILES IDX 33 45 34 46 37 47 35 48 61 49 62 50 70 51 63 52 64 53 68 54
REMARK SMILES IDX 71 55 65 56 66 57 69 58 67 59 46 60 47 61 55 62 48 63 49 64
REMARK SMILES IDX 53 65 56 66 50 67 51 68 54 69 52 70 6 71 7 72 8 73 9 74
REMARK SMILES IDX 10 75 11 76 12 77 13 78 16 79 14 80 15 82 17 83 19 84 18 85
REMARK H PARENT 76 23 44 34 13 81
REMARK Flexibility Score: inf
ROOT
ATOM      1  C   UNL A   1      34.033  31.681  27.974  1.00  0.00     0.202 C 
ENDROOT
BRANCH   1   2
ATOM      2  C   UNL A   1      35.527  31.725  27.645  1.00  0.00     0.261 C 
BRANCH   2   3
ATOM      3  O   UNL A   1      36.199  30.452  27.724  1.00  0.00    -0.460 OA
BRANCH   3   4
ATOM      4  C   UNL A   1      37.229  30.275  28.583  1.00  0.00     0.338 C 
ATOM      5  O   UNL A   1      37.190  30.643  29.749  1.00  0.00    -0.246 OA
BRANCH   4   6
ATOM      6  C   UNL A   1      38.244  29.306  28.104  1.00  0.00     0.060 A 
ATOM      7  C   UNL A   1      38.197  27.943  28.413  1.00  0.00     0.016 A 
ATOM      8  C   UNL A   1      39.352  29.831  27.434  1.00  0.00     0.016 A 
ATOM      9  C   UNL A   1      39.336  27.181  28.340  1.00  0.00     0.010 A 
ATOM     10  C   UNL A   1      40.482  29.049  27.287  1.00  0.00     0.010 A 
ATOM     11  C   UNL A   1      40.496  27.781  27.874  1.00  0.00    -0.014 A 
BRANCH  11  12
ATOM     12  C   UNL A   1      41.734  27.065  28.127  1.00  0.00     0.031 A 
ATOM     13  C   UNL A   1      42.390  27.317  29.442  1.00  0.00     0.074 A 
ATOM     14  C   UNL A   1      42.165  26.189  27.198  1.00  0.00     0.049 A 
ATOM     15  N   UNL A   1      43.644  27.504  29.713  1.00  0.00    -0.248 NA
ATOM     16  C   UNL A   1      41.501  27.442  30.612  1.00  0.00     0.031 C 
ATOM     17  C   UNL A   1      41.467  25.754  25.979  1.00  0.00     0.029 A 
ATOM     18  N   UNL A   1      43.256  25.383  27.222  1.00  0.00    -0.354 N 
ATOM     19  C   UNL A   1      43.720  27.605  31.101  1.00  0.00     0.074 A 
ATOM     20  C   UNL A   1      42.370  27.666  31.594  1.00  0.00     0.031 C 
ATOM     21  C   UNL A   1      41.993  24.584  25.565  1.00  0.00     0.029 A 
ATOM     22  C   UNL A   1      43.130  24.269  26.410  1.00  0.00     0.049 A 
ATOM     23  H   UNL A   1      44.057  25.572  27.762  1.00  0.00     0.167 HD
ATOM     24  C   UNL A   1      44.879  27.418  31.788  1.00  0.00     0.037 A 
ATOM     25  C   UNL A   1      43.814  23.110  26.536  1.00  0.00     0.037 A 
ATOM     26  C   UNL A   1      46.037  27.705  30.994  1.00  0.00     0.049 A 
ATOM     27  C   UNL A   1      45.014  23.387  27.368  1.00  0.00     0.074 A 
ATOM     28  C   UNL A   1      46.529  28.843  30.383  1.00  0.00     0.029 A 
ATOM     29  N   UNL A   1      46.764  26.668  30.470  1.00  0.00    -0.354 N 
ATOM     30  N   UNL A   1      46.005  24.148  26.991  1.00  0.00    -0.248 NA
ATOM     31  C   UNL A   1      44.904  23.174  28.804  1.00  0.00     0.031 C 
ATOM     32  C   UNL A   1      47.155  28.383  29.189  1.00  0.00     0.029 A 
ATOM     33  C   UNL A   1      47.021  26.995  29.162  1.00  0.00     0.049 A 
ATOM     34  H   UNL A   1      47.044  25.849  30.938  1.00  0.00     0.167 HD
ATOM     35  C   UNL A   1      46.402  24.816  28.140  1.00  0.00     0.074 A 
ATOM     36  C   UNL A   1      45.749  24.112  29.238  1.00  0.00     0.031 C 
ATOM     37  C   UNL A   1      46.998  26.043  28.078  1.00  0.00     0.037 A 
BRANCH  24  38
ATOM     38  C   UNL A   1      44.935  26.666  33.090  1.00  0.00     0.064 A 
ATOM     39  C   UNL A   1      44.601  25.301  33.132  1.00  0.00     0.173 A 
ATOM     40  C   UNL A   1      45.029  27.314  34.342  1.00  0.00     0.173 A 
ATOM     41  F   UNL A   1      44.450  24.600  31.998  1.00  0.00    -0.203 F 
ATOM     42  C   UNL A   1      44.332  24.648  34.338  1.00  0.00     0.198 A 
ATOM     43  C   UNL A   1      44.812  26.648  35.545  1.00  0.00     0.198 A 
ATOM     44  F   UNL A   1      45.227  28.635  34.442  1.00  0.00    -0.203 F 
ATOM     45  F   UNL A   1      43.909  23.377  34.327  1.00  0.00    -0.200 F 
ATOM     46  C   UNL A   1      44.435  25.322  35.543  1.00  0.00     0.200 A 
ATOM     47  F   UNL A   1      44.897  27.325  36.699  1.00  0.00    -0.200 F 
ATOM     48  F   UNL A   1      44.124  24.713  36.694  1.00  0.00    -0.200 F 
ENDBRANCH  24  38
BRANCH  25  49
ATOM     49  C   UNL A   1      43.249  21.757  26.324  1.00  0.00     0.064 A 
ATOM     50  C   UNL A   1      43.813  20.869  25.400  1.00  0.00     0.173 A 
ATOM     51  C   UNL A   1      42.261  21.226  27.182  1.00  0.00     0.173 A 
ATOM     52  F   UNL A   1      44.803  21.279  24.594  1.00  0.00    -0.203 F 
ATOM     53  C   UNL A   1      43.402  19.533  25.327  1.00  0.00     0.198 A 
ATOM     54  C   UNL A   1      41.839  19.902  27.096  1.00  0.00     0.198 A 
ATOM     55  F   UNL A   1      41.743  21.959  28.179  1.00  0.00    -0.203 F 
ATOM     56  F   UNL A   1      43.994  18.699  24.461  1.00  0.00    -0.200 F 
ATOM     57  C   UNL A   1      42.415  19.052  26.173  1.00  0.00     0.200 A 
ATOM     58  F   UNL A   1      40.909  19.443  27.946  1.00  0.00    -0.200 F 
ATOM     59  F   UNL A   1      42.047  17.764  26.126  1.00  0.00    -0.200 F 
ENDBRANCH  25  49
BRANCH  37  60
ATOM     60  C   UNL A   1      47.383  26.562  26.722  1.00  0.00     0.064 A 
ATOM     61  C   UNL A   1      48.608  26.248  26.107  1.00  0.00     0.173 A 
ATOM     62  C   UNL A   1      46.433  27.241  25.951  1.00  0.00     0.173 A 
ATOM     63  F   UNL A   1      49.514  25.493  26.735  1.00  0.00    -0.203 F 
ATOM     64  C   UNL A   1      48.890  26.644  24.803  1.00  0.00     0.198 A 
ATOM     65  C   UNL A   1      46.702  27.604  24.633  1.00  0.00     0.198 A 
ATOM     66  F   UNL A   1      45.217  27.499  26.459  1.00  0.00    -0.203 F 
ATOM     67  F   UNL A   1      50.071  26.335  24.246  1.00  0.00    -0.200 F 
ATOM     68  C   UNL A   1      47.933  27.317  24.063  1.00  0.00     0.200 A 
ATOM     69  F   UNL A   1      45.753  28.204  23.901  1.00  0.00    -0.200 F 
ATOM     70  F   UNL A   1      48.183  27.656  22.791  1.00  0.00    -0.200 F 
ENDBRANCH  37  60
ENDBRANCH  11  12
ENDBRANCH   4   6
ENDBRANCH   3   4
ENDBRANCH   2   3
ENDBRANCH   1   2
BRANCH   1  71
ATOM     71  O   UNL A   1      33.366  32.944  28.016  1.00  0.00    -0.374 OA
BRANCH  71  72
ATOM     72  C   UNL A   1      34.218  34.102  27.997  1.00  0.00     0.202 C 
BRANCH  72  73
ATOM     73  C   UNL A   1      33.753  35.335  28.784  1.00  0.00     0.261 C 
BRANCH  73  74
ATOM     74  O   UNL A   1      32.893  34.982  29.882  1.00  0.00    -0.459 OA
BRANCH  74  75
ATOM     75  C   UNL A   1      32.903  35.870  30.924  1.00  0.00     0.356 C 
ATOM     76  O   UNL A   1      32.152  36.803  31.057  1.00  0.00    -0.244 OA
BRANCH  75  77
ATOM     77  C   UNL A   1      33.775  35.379  31.958  1.00  0.00     0.146 A 
ATOM     78  N   UNL A   1      34.065  36.149  33.068  1.00  0.00    -0.271 N 
ATOM     79  C   UNL A   1      34.455  34.212  32.176  1.00  0.00     0.008 A 
ATOM     80  N   UNL A   1      34.861  35.541  33.980  1.00  0.00    -0.180 NA
ATOM     81  H   UNL A   1      33.722  37.064  33.186  1.00  0.00     0.190 HD
ATOM     82  C   UNL A   1      35.103  34.377  33.397  1.00  0.00     0.066 A 
ATOM     83  C   UNL A   1      34.778  32.922  31.545  1.00  0.00     0.040 C 
ATOM     84  C   UNL A   1      35.985  33.256  33.755  1.00  0.00     0.059 C 
ATOM     85  C   UNL A   1      35.628  32.204  32.652  1.00  0.00     0.011 C 
ENDBRANCH  75  77
ENDBRANCH  74  75
ENDBRANCH  73  74
ENDBRANCH  72  73
ENDBRANCH  71  72
ENDBRANCH   1  71
TORSDOF 14
ENDMDL
MODEL 3
REMARK VINA RESULT:     -10.5      5.188     10.814
REMARK SMILES O=C(OCCOCCOC(=O)c1[nH]nc2c1CCC2)c1ccc(-c2c3nc(c(-c4c(F)c(F)c(F)c(F)c4F)c4ccc([nH]4)c(-c4c(F)c(F)c(F)c(F)c4F)c4nc(c(-c5c(F)c(F)c(F)c(F)c5F)c5ccc2[nH]5)C=C4)C=C3)cc1
REMARK SMILES IDX 5 1 4 2 3 3 2 4 1 5 20 6 21 7 82 8 22 9 81 10 23 11 24 12
REMARK SMILES IDX 25 13 75 14 26 15 80 16 74 17 76 18 27 19 79 20 73 21 72 22
REMARK SMILES IDX 28 24 60 25 40 26 59 27 41 28 44 29 58 30 77 31 42 32 43 33
REMARK SMILES IDX 57 35 78 36 45 37 29 38 30 39 38 40 31 41 32 42 36 43 39 44
REMARK SMILES IDX 33 45 34 46 37 47 35 48 61 49 62 50 70 51 63 52 64 53 68 54
REMARK SMILES IDX 71 55 65 56 66 57 69 58 67 59 46 60 47 61 55 62 48 63 49 64
REMARK SMILES IDX 53 65 56 66 50 67 51 68 54 69 52 70 6 71 7 72 8 73 9 74
REMARK SMILES IDX 10 75 11 76 12 77 13 78 16 79 14 80 15 82 17 83 19 84 18 85
REMARK H PARENT 76 23 44 34 13 81
REMARK Flexibility Score: inf
ROOT
ATOM      1  C   UNL A   1      36.983  22.109  24.288  1.00  0.00     0.202 C 
ENDROOT
BRANCH   1   2
ATOM      2  C   UNL A   1      38.002  21.717  25.360  1.00  0.00     0.261 C 
BRANCH   2   3
ATOM      3  O   UNL A   1      38.608  22.829  26.050  1.00  0.00    -0.460 OA
BRANCH   3   4
ATOM      4  C   UNL A   1      39.736  22.650  26.775  1.00  0.00     0.338 C 
ATOM      5  O   UNL A   1      40.231  21.548  26.970  1.00  0.00    -0.246 OA
BRANCH   4   6
ATOM      6  C   UNL A   1      40.497  23.901  27.011  1.00  0.00     0.060 A 
ATOM      7  C   UNL A   1      41.542  23.989  27.936  1.00  0.00     0.016 A 
ATOM      8  C   UNL A   1      40.038  25.051  26.365  1.00  0.00     0.016 A 
ATOM      9  C   UNL A   1      41.915  25.211  28.437  1.00  0.00     0.010 A 
ATOM     10  C   UNL A   1      40.462  26.288  26.812  1.00  0.00     0.010 A 
ATOM     11  C   UNL A   1      41.288  26.342  27.938  1.00  0.00    -0.014 A 
BRANCH  11  12
ATOM     12  C   UNL A   1      41.451  27.561  28.713  1.00  0.00     0.031 A 
ATOM     13  C   UNL A   1      42.671  28.369  28.430  1.00  0.00     0.074 A 
ATOM     14  C   UNL A   1      40.473  27.903  29.575  1.00  0.00     0.049 A 
ATOM     15  N   UNL A   1      43.478  28.957  29.257  1.00  0.00    -0.248 NA
ATOM     16  C   UNL A   1      43.079  28.479  27.017  1.00  0.00     0.031 C 
ATOM     17  C   UNL A   1      39.165  27.255  29.755  1.00  0.00     0.029 A 
ATOM     18  N   UNL A   1      40.377  28.997  30.371  1.00  0.00    -0.354 N 
ATOM     19  C   UNL A   1      44.396  29.645  28.465  1.00  0.00     0.074 A 
ATOM     20  C   UNL A   1      44.171  29.234  27.105  1.00  0.00     0.031 C 
ATOM     21  C   UNL A   1      38.325  28.121  30.358  1.00  0.00     0.029 A 
ATOM     22  C   UNL A   1      39.073  29.313  30.710  1.00  0.00     0.049 A 
ATOM     23  H   UNL A   1      41.157  29.514  30.677  1.00  0.00     0.167 HD
ATOM     24  C   UNL A   1      45.149  30.673  28.940  1.00  0.00     0.037 A 
ATOM     25  C   UNL A   1      38.625  30.526  31.103  1.00  0.00     0.037 A 
ATOM     26  C   UNL A   1      45.360  30.589  30.355  1.00  0.00     0.049 A 
ATOM     27  C   UNL A   1      39.802  31.317  31.547  1.00  0.00     0.074 A 
ATOM     28  C   UNL A   1      45.994  29.682  31.182  1.00  0.00     0.029 A 
ATOM     29  N   UNL A   1      44.630  31.394  31.190  1.00  0.00    -0.354 N 
ATOM     30  N   UNL A   1      40.518  31.033  32.600  1.00  0.00    -0.248 NA
ATOM     31  C   UNL A   1      40.453  32.168  30.561  1.00  0.00     0.031 C 
ATOM     32  C   UNL A   1      45.231  29.678  32.385  1.00  0.00     0.029 A 
ATOM     33  C   UNL A   1      44.194  30.596  32.218  1.00  0.00     0.049 A 
ATOM     34  H   UNL A   1      44.452  32.355  31.075  1.00  0.00     0.167 HD
ATOM     35  C   UNL A   1      41.823  31.338  32.240  1.00  0.00     0.074 A 
ATOM     36  C   UNL A   1      41.709  32.113  31.010  1.00  0.00     0.031 C 
ATOM     37  C   UNL A   1      42.885  30.701  32.815  1.00  0.00     0.037 A 
BRANCH  24  38
ATOM     38  C   UNL A   1      45.416  31.918  28.137  1.00  0.00     0.064 A 
ATOM     39  C   UNL A   1      44.349  32.740  27.735  1.00  0.00     0.173 A 
ATOM     40  C   UNL A   1      46.657  32.170  27.510  1.00  0.00     0.173 A 
ATOM     41  F   UNL A   1      43.119  32.560  28.241  1.00  0.00    -0.203 F 
ATOM     42  C   UNL A   1      44.505  33.710  26.740  1.00  0.00     0.198 A 
ATOM     43  C   UNL A   1      46.821  33.172  26.558  1.00  0.00     0.198 A 
ATOM     44  F   UNL A   1      47.725  31.389  27.715  1.00  0.00    -0.203 F 
ATOM     45  F   UNL A   1      43.439  34.396  26.306  1.00  0.00    -0.200 F 
ATOM     46  C   UNL A   1      45.739  33.923  26.151  1.00  0.00     0.200 A 
ATOM     47  F   UNL A   1      48.020  33.348  25.985  1.00  0.00    -0.200 F 
ATOM     48  F   UNL A   1      45.877  34.813  25.160  1.00  0.00    -0.200 F 
ENDBRANCH  24  38
BRANCH  25  49
ATOM     49  C   UNL A   1      37.326  31.124  30.714  1.00  0.00     0.064 A 
ATOM     50  C   UNL A   1      36.360  31.453  31.673  1.00  0.00     0.173 A 
ATOM     51  C   UNL A   1      37.087  31.581  29.400  1.00  0.00     0.173 A 
ATOM     52  F   UNL A   1      36.544  31.111  32.956  1.00  0.00    -0.203 F 
ATOM     53  C   UNL A   1      35.214  32.182  31.333  1.00  0.00     0.198 A 
ATOM     54  C   UNL A   1      35.938  32.291  29.059  1.00  0.00     0.198 A 
ATOM     55  F   UNL A   1      38.004  31.423  28.434  1.00  0.00    -0.203 F 
ATOM     56  F   UNL A   1      34.331  32.518  32.284  1.00  0.00    -0.200 F 
ATOM     57  C   UNL A   1      35.004  32.598  30.028  1.00  0.00     0.200 A 
ATOM     58  F   UNL A   1      35.768  32.717  27.800  1.00  0.00    -0.200 F 
ATOM     59  F   UNL A   1      33.924  33.327  29.712  1.00  0.00    -0.200 F 
ENDBRANCH  25  49
BRANCH  37  60
ATOM     60  C   UNL A   1      42.607  29.800  33.984  1.00  0.00     0.064 A 
ATOM     61  C   UNL A   1      42.144  28.481  33.834  1.00  0.00     0.173 A 
ATOM     62  C   UNL A   1      42.977  30.209  35.269  1.00  0.00     0.173 A 
ATOM     63  F   UNL A   1      41.892  27.978  32.621  1.00  0.00    -0.203 F 
ATOM     64  C   UNL A   1      42.007  27.630  34.927  1.00  0.00     0.198 A 
ATOM     65  C   UNL A   1      42.875  29.344  36.357  1.00  0.00     0.198 A 
ATOM     66  F   UNL A   1      43.497  31.432  35.461  1.00  0.00    -0.203 F 
ATOM     67  F   UNL A   1      41.558  26.378  34.753  1.00  0.00    -0.200 F 
ATOM     68  C   UNL A   1      42.380  28.060  36.189  1.00  0.00     0.200 A 
ATOM     69  F   UNL A   1      43.290  29.745  37.567  1.00  0.00    -0.200 F 
ATOM     70  F   UNL A   1      42.295  27.227  37.235  1.00  0.00    -0.200 F 
ENDBRANCH  37  60
ENDBRANCH  11  12
ENDBRANCH   4   6
ENDBRANCH   3   4
ENDBRANCH   2   3
ENDBRANCH   1   2
BRANCH   1  71
ATOM     71  O   UNL A   1      35.613  22.103  24.695  1.00  0.00    -0.374 OA
BRANCH  71  72
ATOM     72  C   UNL A   1      35.181  23.247  25.451  1.00  0.00     0.202 C 
BRANCH  72  73
ATOM     73  C   UNL A   1      33.676  23.390  25.720  1.00  0.00     0.261 C 
BRANCH  73  74
ATOM     74  O   UNL A   1      32.888  22.599  24.813  1.00  0.00    -0.459 OA
BRANCH  74  75
ATOM     75  C   UNL A   1      31.996  21.755  25.417  1.00  0.00     0.356 C 
ATOM     76  O   UNL A   1      30.952  22.084  25.922  1.00  0.00    -0.244 OA
BRANCH  75  77
ATOM     77  C   UNL A   1      32.368  20.393  25.141  1.00  0.00     0.146 A 
ATOM     78  N   UNL A   1      32.787  19.552  26.154  1.00  0.00    -0.271 N 
ATOM     79  C   UNL A   1      32.400  19.608  24.021  1.00  0.00     0.008 A 
ATOM     80  N   UNL A   1      33.061  18.286  25.754  1.00  0.00    -0.180 NA
ATOM     81  H   UNL A   1      32.882  19.847  27.087  1.00  0.00     0.190 HD
ATOM     82  C   UNL A   1      32.842  18.359  24.451  1.00  0.00     0.066 A 
ATOM     83  C   UNL A   1      32.204  19.657  22.563  1.00  0.00     0.040 C 
ATOM     84  C   UNL A   1      33.049  17.396  23.358  1.00  0.00     0.059 C 
ATOM     85  C   UNL A   1      32.442  18.165  22.136  1.00  0.00     0.011 C 
ENDBRANCH  75  77
ENDBRANCH  74  75
ENDBRANCH  73  74
ENDBRANCH  72  73
ENDBRANCH  71  72
ENDBRANCH   1  71
TORSDOF 14
ENDMDL
