MODEL 1
REMARK VINA RESULT:     -12.2      0.000      0.000
REMARK SMILES Cc1ccccc1C(=O)Nc1cc(C(=O)OCCOCCOC(=O)c2ccc(-c3c4nc(c(-c5c(F)c(F)c(F)c(F)c5F)c5ccc([nH]5)c(-c5c(F)c(F)c(F)c(F)c5F)c5nc(c(-c6c(F)c(F)c(F)c(F)c6F)c6ccc3[nH]6)C=C5)C=C4)cc2)ccc1N1CC[NH+](CC(=O)Nc2ccc(F)cc2)CC1
REMARK SMILES IDX 18 1 17 2 16 3 14 4 15 5 13 6 11 7 12 8 90 9 89 10 88 11
REMARK SMILES IDX 10 12 8 13 9 14 7 16 1 17 2 18 3 19 4 20 6 21 5 22 91 23
REMARK SMILES IDX 92 24 107 25 93 26 106 27 94 28 95 30 96 31 97 32 98 33
REMARK SMILES IDX 99 35 100 36 105 37 101 38 104 39 102 40 103 41 19 42 20 43
REMARK SMILES IDX 21 44 22 45 23 46 24 47 25 48 26 49 87 50 27 51 86 52 28 53
REMARK SMILES IDX 29 54 30 55 80 56 31 57 85 58 79 59 81 60 32 61 84 62 78 63
REMARK SMILES IDX 77 64 33 66 65 67 45 68 64 69 46 70 49 71 63 72 82 73 47 74
REMARK SMILES IDX 48 75 62 77 83 78 50 79 34 80 35 81 43 82 36 83 37 84 41 85
REMARK SMILES IDX 44 86 38 87 39 88 42 89 40 90 66 91 67 92 75 93 68 94 69 95
REMARK SMILES IDX 73 96 76 97 70 98 71 99 74 100 72 101 51 102 52 103 60 104
REMARK SMILES IDX 53 105 54 106 58 107 61 108 55 109 56 110 59 111 57 112
REMARK H PARENT 10 15 94 29 98 34 81 65 49 76
REMARK Flexibility Score: inf
ROOT
ATOM      1  C   UNL A   1      32.732  33.817  28.085  1.00  0.00     0.202 C 
ENDROOT
BRANCH   1   2
ATOM      2  C   UNL A   1      32.321  32.937  26.939  1.00  0.00     0.261 C 
BRANCH   2   3
ATOM      3  O   UNL A   1      32.015  31.545  27.199  1.00  0.00    -0.460 OA
BRANCH   3   4
ATOM      4  C   UNL A   1      32.901  30.571  26.864  1.00  0.00     0.338 C 
ATOM      5  O   UNL A   1      34.061  30.774  26.540  1.00  0.00    -0.246 OA
BRANCH   4   6
ATOM      6  C   UNL A   1      32.199  29.292  26.604  1.00  0.00     0.062 A 
ATOM      7  C   UNL A   1      31.768  27.586  24.989  1.00  0.00     0.065 A 
ATOM      8  C   UNL A   1      32.049  28.899  25.285  1.00  0.00     0.044 A 
ATOM      9  C   UNL A   1      31.474  26.618  25.991  1.00  0.00     0.061 A 
ATOM     10  C   UNL A   1      31.497  27.078  27.321  1.00  0.00     0.029 A 
ATOM     11  C   UNL A   1      31.900  28.392  27.631  1.00  0.00     0.018 A 
BRANCH   7  12
ATOM     12  N   UNL A   1      31.915  27.236  23.650  1.00  0.00    -0.320 N 
ATOM     13  C   UNL A   1      31.079  27.532  22.582  1.00  0.00     0.255 C 
ATOM     14  O   UNL A   1      31.518  27.193  21.474  1.00  0.00    -0.269 OA
ATOM     15  H   UNL A   1      32.717  26.708  23.432  1.00  0.00     0.170 HD
BRANCH  13  16
ATOM     16  C   UNL A   1      29.759  28.297  22.607  1.00  0.00     0.043 A 
ATOM     17  C   UNL A   1      28.037  26.753  23.876  1.00  0.00     0.045 C 
ATOM     18  C   UNL A   1      28.478  27.976  23.129  1.00  0.00    -0.038 A 
ATOM     19  C   UNL A   1      27.430  28.928  23.041  1.00  0.00     0.004 A 
ATOM     20  C   UNL A   1      27.648  30.225  22.605  1.00  0.00     0.000 A 
ATOM     21  C   UNL A   1      29.930  29.627  22.149  1.00  0.00     0.014 A 
ATOM     22  C   UNL A   1      28.909  30.583  22.176  1.00  0.00     0.001 A 
ENDBRANCH  13  16
ENDBRANCH   7  12
BRANCH   9  23
ATOM     23  N   UNL A   1      31.363  25.259  25.672  1.00  0.00    -0.359 N 
ATOM     24  C   UNL A   1      30.600  24.288  26.506  1.00  0.00     0.178 C 
ATOM     25  C   UNL A   1      32.588  24.630  25.164  1.00  0.00     0.178 C 
ATOM     26  C   UNL A   1      30.554  22.855  25.849  1.00  0.00     0.284 C 
ATOM     27  C   UNL A   1      32.206  23.465  24.263  1.00  0.00     0.284 C 
ATOM     28  N   UNL A   1      31.730  22.369  25.086  1.00  0.00    -0.324 N 
ATOM     29  H   UNL A   1      31.366  21.583  24.546  1.00  0.00     0.348 HD
BRANCH  28  30
ATOM     30  C   UNL A   1      32.831  21.642  25.773  1.00  0.00     0.364 C 
BRANCH  30  31
ATOM     31  C   UNL A   1      33.753  20.706  24.981  1.00  0.00     0.279 C 
ATOM     32  O   UNL A   1      33.254  19.720  24.413  1.00  0.00    -0.268 OA
ATOM     33  N   UNL A   1      35.095  20.889  24.751  1.00  0.00    -0.321 N 
ATOM     34  H   UNL A   1      35.363  20.401  23.939  1.00  0.00     0.170 HD
BRANCH  33  35
ATOM     35  C   UNL A   1      36.218  21.555  25.305  1.00  0.00     0.041 A 
ATOM     36  C   UNL A   1      36.014  22.894  25.692  1.00  0.00     0.029 A 
ATOM     37  C   UNL A   1      37.523  21.078  25.383  1.00  0.00     0.029 A 
ATOM     38  C   UNL A   1      37.071  23.714  26.123  1.00  0.00     0.041 A 
ATOM     39  C   UNL A   1      38.598  21.908  25.757  1.00  0.00     0.041 A 
ATOM     40  C   UNL A   1      38.362  23.218  26.134  1.00  0.00     0.123 A 
ATOM     41  F   UNL A   1      39.379  24.004  26.511  1.00  0.00    -0.207 F 
ENDBRANCH  33  35
ENDBRANCH  30  31
ENDBRANCH  28  30
ENDBRANCH   9  23
ENDBRANCH   4   6
ENDBRANCH   3   4
ENDBRANCH   2   3
ENDBRANCH   1   2
BRANCH   1  42
ATOM     42  O   UNL A   1      34.125  33.639  28.270  1.00  0.00    -0.374 OA
BRANCH  42  43
ATOM     43  C   UNL A   1      34.485  32.805  29.358  1.00  0.00     0.202 C 
BRANCH  43  44
ATOM     44  C   UNL A   1      35.821  32.087  29.129  1.00  0.00     0.261 C 
BRANCH  44  45
ATOM     45  O   UNL A   1      35.681  30.695  29.488  1.00  0.00    -0.460 OA
BRANCH  45  46
ATOM     46  C   UNL A   1      36.541  29.831  28.868  1.00  0.00     0.338 C 
ATOM     47  O   UNL A   1      36.224  28.955  28.103  1.00  0.00    -0.246 OA
BRANCH  46  48
ATOM     48  C   UNL A   1      37.894  29.935  29.506  1.00  0.00     0.060 A 
ATOM     49  C   UNL A   1      39.008  30.310  28.729  1.00  0.00     0.016 A 
ATOM     50  C   UNL A   1      38.087  29.333  30.744  1.00  0.00     0.016 A 
ATOM     51  C   UNL A   1      40.303  29.929  29.121  1.00  0.00     0.010 A 
ATOM     52  C   UNL A   1      39.335  28.840  31.047  1.00  0.00     0.010 A 
ATOM     53  C   UNL A   1      40.448  29.102  30.228  1.00  0.00    -0.014 A 
BRANCH  53  54
ATOM     54  C   UNL A   1      41.643  28.354  30.629  1.00  0.00     0.031 A 
ATOM     55  C   UNL A   1      41.943  27.129  29.848  1.00  0.00     0.074 A 
ATOM     56  C   UNL A   1      42.626  28.937  31.364  1.00  0.00     0.049 A 
ATOM     57  N   UNL A   1      43.068  26.518  29.879  1.00  0.00    -0.248 NA
ATOM     58  C   UNL A   1      41.008  26.503  28.915  1.00  0.00     0.031 C 
ATOM     59  C   UNL A   1      44.055  28.617  31.359  1.00  0.00     0.029 A 
ATOM     60  N   UNL A   1      42.563  29.949  32.341  1.00  0.00    -0.354 N 
ATOM     61  C   UNL A   1      43.142  25.659  28.817  1.00  0.00     0.074 A 
ATOM     62  C   UNL A   1      41.807  25.638  28.278  1.00  0.00     0.031 C 
ATOM     63  C   UNL A   1      44.621  29.064  32.487  1.00  0.00     0.029 A 
ATOM     64  C   UNL A   1      43.559  29.633  33.284  1.00  0.00     0.049 A 
ATOM     65  H   UNL A   1      41.949  30.719  32.359  1.00  0.00     0.167 HD
ATOM     66  C   UNL A   1      44.378  25.163  28.525  1.00  0.00     0.037 A 
ATOM     67  C   UNL A   1      43.248  29.320  34.565  1.00  0.00     0.037 A 
ATOM     68  C   UNL A   1      45.280  25.394  29.673  1.00  0.00     0.049 A 
ATOM     69  C   UNL A   1      43.755  27.932  34.807  1.00  0.00     0.074 A 
ATOM     70  C   UNL A   1      46.376  26.204  29.915  1.00  0.00     0.029 A 
ATOM     71  N   UNL A   1      44.853  24.944  30.931  1.00  0.00    -0.354 N 
ATOM     72  N   UNL A   1      43.757  27.001  33.878  1.00  0.00    -0.248 NA
ATOM     73  C   UNL A   1      44.593  27.608  35.955  1.00  0.00     0.031 C 
ATOM     74  C   UNL A   1      46.536  26.306  31.337  1.00  0.00     0.029 A 
ATOM     75  C   UNL A   1      45.547  25.552  31.960  1.00  0.00     0.049 A 
ATOM     76  H   UNL A   1      44.143  24.276  31.065  1.00  0.00     0.167 HD
ATOM     77  C   UNL A   1      44.725  26.087  34.199  1.00  0.00     0.074 A 
ATOM     78  C   UNL A   1      45.182  26.480  35.527  1.00  0.00     0.031 C 
ATOM     79  C   UNL A   1      45.296  25.179  33.351  1.00  0.00     0.037 A 
BRANCH  66  80
ATOM     80  C   UNL A   1      44.810  24.553  27.203  1.00  0.00     0.064 A 
ATOM     81  C   UNL A   1      44.283  23.311  26.781  1.00  0.00     0.173 A 
ATOM     82  C   UNL A   1      45.791  25.084  26.336  1.00  0.00     0.173 A 
ATOM     83  F   UNL A   1      43.373  22.656  27.515  1.00  0.00    -0.203 F 
ATOM     84  C   UNL A   1      44.685  22.677  25.596  1.00  0.00     0.198 A 
ATOM     85  C   UNL A   1      46.168  24.467  25.135  1.00  0.00     0.198 A 
ATOM     86  F   UNL A   1      46.469  26.197  26.617  1.00  0.00    -0.203 F 
ATOM     87  F   UNL A   1      44.166  21.485  25.269  1.00  0.00    -0.200 F 
ATOM     88  C   UNL A   1      45.617  23.263  24.765  1.00  0.00     0.200 A 
ATOM     89  F   UNL A   1      47.085  25.053  24.350  1.00  0.00    -0.200 F 
ATOM     90  F   UNL A   1      45.994  22.666  23.627  1.00  0.00    -0.200 F 
ENDBRANCH  66  80
BRANCH  67  91
ATOM     91  C   UNL A   1      42.086  30.118  35.049  1.00  0.00     0.064 A 
ATOM     92  C   UNL A   1      42.404  31.463  35.360  1.00  0.00     0.173 A 
ATOM     93  C   UNL A   1      40.775  29.866  34.618  1.00  0.00     0.173 A 
ATOM     94  F   UNL A   1      43.635  31.768  35.803  1.00  0.00    -0.203 F 
ATOM     95  C   UNL A   1      41.550  32.515  35.028  1.00  0.00     0.198 A 
ATOM     96  C   UNL A   1      39.901  30.928  34.330  1.00  0.00     0.198 A 
ATOM     97  F   UNL A   1      40.390  28.621  34.306  1.00  0.00    -0.203 F 
ATOM     98  F   UNL A   1      41.974  33.783  35.135  1.00  0.00    -0.200 F 
ATOM     99  C   UNL A   1      40.315  32.246  34.470  1.00  0.00     0.200 A 
ATOM    100  F   UNL A   1      38.693  30.681  33.802  1.00  0.00    -0.200 F 
ATOM    101  F   UNL A   1      39.553  33.250  34.012  1.00  0.00    -0.200 F 
ENDBRANCH  67  91
BRANCH  79 102
ATOM    102  C   UNL A   1      45.728  23.816  33.843  1.00  0.00     0.064 A 
ATOM    103  C   UNL A   1      47.004  23.557  34.377  1.00  0.00     0.173 A 
ATOM    104  C   UNL A   1      44.794  22.761  33.972  1.00  0.00     0.173 A 
ATOM    105  F   UNL A   1      47.953  24.501  34.441  1.00  0.00    -0.203 F 
ATOM    106  C   UNL A   1      47.342  22.321  34.925  1.00  0.00     0.198 A 
ATOM    107  C   UNL A   1      45.114  21.554  34.585  1.00  0.00     0.198 A 
ATOM    108  F   UNL A   1      43.526  22.875  33.552  1.00  0.00    -0.203 F 
ATOM    109  F   UNL A   1      48.590  22.118  35.368  1.00  0.00    -0.200 F 
ATOM    110  C   UNL A   1      46.394  21.327  35.042  1.00  0.00     0.200 A 
ATOM    111  F   UNL A   1      44.164  20.624  34.754  1.00  0.00    -0.200 F 
ATOM    112  F   UNL A   1      46.709  20.159  35.615  1.00  0.00    -0.200 F 
ENDBRANCH  79 102
ENDBRANCH  53  54
ENDBRANCH  46  48
ENDBRANCH  45  46
ENDBRANCH  44  45
ENDBRANCH  43  44
ENDBRANCH  42  43
ENDBRANCH   1  42
TORSDOF 20
ENDMDL
MODEL 2
REMARK VINA RESULT:     -11.7      5.608      7.822
REMARK SMILES Cc1ccccc1C(=O)Nc1cc(C(=O)OCCOCCOC(=O)c2ccc(-c3c4nc(c(-c5c(F)c(F)c(F)c(F)c5F)c5ccc([nH]5)c(-c5c(F)c(F)c(F)c(F)c5F)c5nc(c(-c6c(F)c(F)c(F)c(F)c6F)c6ccc3[nH]6)C=C5)C=C4)cc2)ccc1N1CC[NH+](CC(=O)Nc2ccc(F)cc2)CC1
REMARK SMILES IDX 18 1 17 2 16 3 14 4 15 5 13 6 11 7 12 8 90 9 89 10 88 11
REMARK SMILES IDX 10 12 8 13 9 14 7 16 1 17 2 18 3 19 4 20 6 21 5 22 91 23
REMARK SMILES IDX 92 24 107 25 93 26 106 27 94 28 95 30 96 31 97 32 98 33
REMARK SMILES IDX 99 35 100 36 105 37 101 38 104 39 102 40 103 41 19 42 20 43
REMARK SMILES IDX 21 44 22 45 23 46 24 47 25 48 26 49 87 50 27 51 86 52 28 53
REMARK SMILES IDX 29 54 30 55 80 56 31 57 85 58 79 59 81 60 32 61 84 62 78 63
REMARK SMILES IDX 77 64 33 66 65 67 45 68 64 69 46 70 49 71 63 72 82 73 47 74
REMARK SMILES IDX 48 75 62 77 83 78 50 79 34 80 35 81 43 82 36 83 37 84 41 85
REMARK SMILES IDX 44 86 38 87 39 88 42 89 40 90 66 91 67 92 75 93 68 94 69 95
REMARK SMILES IDX 73 96 76 97 70 98 71 99 74 100 72 101 51 102 52 103 60 104
REMARK SMILES IDX 53 105 54 106 58 107 61 108 55 109 56 110 59 111 57 112
REMARK H PARENT 10 15 94 29 98 34 81 65 49 76
REMARK Flexibility Score: inf
ROOT
ATOM      1  C   UNL A   1      34.699  32.722  29.570  1.00  0.00     0.202 C 
ENDROOT
BRANCH   1   2
ATOM      2  C   UNL A   1      34.962  31.799  28.414  1.00  0.00     0.261 C 
BRANCH   2   3
ATOM      3  O   UNL A   1      33.973  30.794  28.080  1.00  0.00    -0.460 OA
BRANCH   3   4
ATOM      4  C   UNL A   1      32.901  31.114  27.308  1.00  0.00     0.338 C 
ATOM      5  O   UNL A   1      32.310  32.181  27.353  1.00  0.00    -0.246 OA
BRANCH   4   6
ATOM      6  C   UNL A   1      32.336  29.900  26.671  1.00  0.00     0.062 A 
ATOM      7  C   UNL A   1      31.888  28.803  24.598  1.00  0.00     0.065 A 
ATOM      8  C   UNL A   1      32.041  29.963  25.321  1.00  0.00     0.044 A 
ATOM      9  C   UNL A   1      31.874  27.516  25.205  1.00  0.00     0.061 A 
ATOM     10  C   UNL A   1      32.037  27.488  26.603  1.00  0.00     0.029 A 
ATOM     11  C   UNL A   1      32.312  28.666  27.327  1.00  0.00     0.018 A 
BRANCH   7  12
ATOM     12  N   UNL A   1      31.876  28.963  23.216  1.00  0.00    -0.320 N 
ATOM     13  C   UNL A   1      30.843  29.420  22.407  1.00  0.00     0.255 C 
ATOM     14  O   UNL A   1      31.149  29.574  21.217  1.00  0.00    -0.269 OA
ATOM     15  H   UNL A   1      32.708  28.721  22.750  1.00  0.00     0.170 HD
BRANCH  13  16
ATOM     16  C   UNL A   1      29.436  29.835  22.827  1.00  0.00     0.043 A 
ATOM     17  C   UNL A   1      28.147  27.605  23.396  1.00  0.00     0.045 C 
ATOM     18  C   UNL A   1      28.297  29.086  23.225  1.00  0.00    -0.038 A 
ATOM     19  C   UNL A   1      27.114  29.768  23.609  1.00  0.00     0.004 A 
ATOM     20  C   UNL A   1      27.073  31.145  23.762  1.00  0.00     0.000 A 
ATOM     21  C   UNL A   1      29.342  31.241  22.976  1.00  0.00     0.014 A 
ATOM     22  C   UNL A   1      28.199  31.884  23.464  1.00  0.00     0.001 A 
ENDBRANCH  13  16
ENDBRANCH   7  12
BRANCH   9  23
ATOM     23  N   UNL A   1      31.890  26.350  24.429  1.00  0.00    -0.359 N 
ATOM     24  C   UNL A   1      31.010  25.178  24.701  1.00  0.00     0.178 C 
ATOM     25  C   UNL A   1      33.220  25.892  24.010  1.00  0.00     0.178 C 
ATOM     26  C   UNL A   1      31.165  24.057  23.603  1.00  0.00     0.284 C 
ATOM     27  C   UNL A   1      33.086  25.115  22.708  1.00  0.00     0.284 C 
ATOM     28  N   UNL A   1      32.494  23.821  22.989  1.00  0.00    -0.324 N 
ATOM     29  H   UNL A   1      32.286  23.278  22.151  1.00  0.00     0.348 HD
BRANCH  28  30
ATOM     30  C   UNL A   1      33.455  22.869  23.606  1.00  0.00     0.364 C 
BRANCH  30  31
ATOM     31  C   UNL A   1      33.118  22.180  24.934  1.00  0.00     0.279 C 
ATOM     32  O   UNL A   1      33.012  22.878  25.957  1.00  0.00    -0.268 OA
ATOM     33  N   UNL A   1      32.824  20.849  25.109  1.00  0.00    -0.321 N 
ATOM     34  H   UNL A   1      32.287  20.731  25.925  1.00  0.00     0.170 HD
BRANCH  33  35
ATOM     35  C   UNL A   1      33.046  19.591  24.493  1.00  0.00     0.041 A 
ATOM     36  C   UNL A   1      34.211  18.906  24.890  1.00  0.00     0.029 A 
ATOM     37  C   UNL A   1      32.318  19.025  23.451  1.00  0.00     0.029 A 
ATOM     38  C   UNL A   1      34.628  17.719  24.263  1.00  0.00     0.041 A 
ATOM     39  C   UNL A   1      32.758  17.870  22.776  1.00  0.00     0.041 A 
ATOM     40  C   UNL A   1      33.906  17.219  23.194  1.00  0.00     0.123 A 
ATOM     41  F   UNL A   1      34.316  16.108  22.568  1.00  0.00    -0.207 F 
ENDBRANCH  33  35
ENDBRANCH  30  31
ENDBRANCH  28  30
ENDBRANCH   9  23
ENDBRANCH   4   6
ENDBRANCH   3   4
ENDBRANCH   2   3
ENDBRANCH   1   2
BRANCH   1  42
ATOM     42  O   UNL A   1      34.935  31.983  30.756  1.00  0.00    -0.374 OA
BRANCH  42  43
ATOM     43  C   UNL A   1      36.294  31.890  31.146  1.00  0.00     0.202 C 
BRANCH  43  44
ATOM     44  C   UNL A   1      36.478  32.012  32.663  1.00  0.00     0.261 C 
BRANCH  44  45
ATOM     45  O   UNL A   1      36.898  33.356  32.986  1.00  0.00    -0.460 OA
BRANCH  45  46
ATOM     46  C   UNL A   1      38.142  33.473  33.545  1.00  0.00     0.338 C 
ATOM     47  O   UNL A   1      38.419  33.232  34.693  1.00  0.00    -0.246 OA
BRANCH  46  48
ATOM     48  C   UNL A   1      39.037  34.227  32.610  1.00  0.00     0.060 A 
ATOM     49  C   UNL A   1      38.623  34.469  31.284  1.00  0.00     0.016 A 
ATOM     50  C   UNL A   1      40.378  34.367  32.950  1.00  0.00     0.016 A 
ATOM     51  C   UNL A   1      39.577  34.684  30.274  1.00  0.00     0.010 A 
ATOM     52  C   UNL A   1      41.308  34.434  31.938  1.00  0.00     0.010 A 
ATOM     53  C   UNL A   1      40.923  34.561  30.592  1.00  0.00    -0.014 A 
BRANCH  53  54
ATOM     54  C   UNL A   1      42.050  34.447  29.661  1.00  0.00     0.031 A 
ATOM     55  C   UNL A   1      42.610  33.085  29.472  1.00  0.00     0.074 A 
ATOM     56  C   UNL A   1      42.297  35.406  28.732  1.00  0.00     0.049 A 
ATOM     57  N   UNL A   1      43.396  32.762  28.515  1.00  0.00    -0.248 NA
ATOM     58  C   UNL A   1      42.293  31.943  30.328  1.00  0.00     0.031 C 
ATOM     59  C   UNL A   1      42.920  35.239  27.417  1.00  0.00     0.029 A 
ATOM     60  N   UNL A   1      42.077  36.797  28.770  1.00  0.00    -0.354 N 
ATOM     61  C   UNL A   1      43.451  31.398  28.420  1.00  0.00     0.074 A 
ATOM     62  C   UNL A   1      42.795  30.928  29.613  1.00  0.00     0.031 C 
ATOM     63  C   UNL A   1      43.390  36.418  26.989  1.00  0.00     0.029 A 
ATOM     64  C   UNL A   1      43.138  37.372  28.044  1.00  0.00     0.049 A 
ATOM     65  H   UNL A   1      41.336  37.269  29.213  1.00  0.00     0.167 HD
ATOM     66  C   UNL A   1      43.989  30.891  27.275  1.00  0.00     0.037 A 
ATOM     67  C   UNL A   1      44.045  38.184  28.637  1.00  0.00     0.037 A 
ATOM     68  C   UNL A   1      44.726  31.961  26.569  1.00  0.00     0.049 A 
ATOM     69  C   UNL A   1      45.384  37.536  28.467  1.00  0.00     0.074 A 
ATOM     70  C   UNL A   1      44.541  32.674  25.396  1.00  0.00     0.029 A 
ATOM     71  N   UNL A   1      45.694  32.669  27.296  1.00  0.00    -0.354 N 
ATOM     72  N   UNL A   1      45.553  36.233  28.480  1.00  0.00    -0.248 NA
ATOM     73  C   UNL A   1      46.528  38.264  27.931  1.00  0.00     0.031 C 
ATOM     74  C   UNL A   1      45.339  33.863  25.479  1.00  0.00     0.029 A 
ATOM     75  C   UNL A   1      46.016  33.870  26.694  1.00  0.00     0.049 A 
ATOM     76  H   UNL A   1      46.093  32.349  28.137  1.00  0.00     0.167 HD
ATOM     77  C   UNL A   1      46.698  35.948  27.786  1.00  0.00     0.074 A 
ATOM     78  C   UNL A   1      47.297  37.249  27.509  1.00  0.00     0.031 C 
ATOM     79  C   UNL A   1      47.049  34.735  27.261  1.00  0.00     0.037 A 
BRANCH  66  80
ATOM     80  C   UNL A   1      43.797  29.484  26.739  1.00  0.00     0.064 A 
ATOM     81  C   UNL A   1      44.914  28.652  26.493  1.00  0.00     0.173 A 
ATOM     82  C   UNL A   1      42.561  28.908  26.369  1.00  0.00     0.173 A 
ATOM     83  F   UNL A   1      46.161  29.069  26.750  1.00  0.00    -0.203 F 
ATOM     84  C   UNL A   1      44.798  27.364  25.950  1.00  0.00     0.198 A 
ATOM     85  C   UNL A   1      42.443  27.608  25.860  1.00  0.00     0.198 A 
ATOM     86  F   UNL A   1      41.410  29.577  26.437  1.00  0.00    -0.203 F 
ATOM     87  F   UNL A   1      45.901  26.639  25.714  1.00  0.00    -0.200 F 
ATOM     88  C   UNL A   1      43.560  26.836  25.647  1.00  0.00     0.200 A 
ATOM     89  F   UNL A   1      41.228  27.122  25.562  1.00  0.00    -0.200 F 
ATOM     90  F   UNL A   1      43.446  25.601  25.140  1.00  0.00    -0.200 F 
ENDBRANCH  66  80
BRANCH  67  91
ATOM     91  C   UNL A   1      43.407  39.028  29.687  1.00  0.00     0.064 A 
ATOM     92  C   UNL A   1      43.771  38.671  31.009  1.00  0.00     0.173 A 
ATOM     93  C   UNL A   1      43.081  40.375  29.468  1.00  0.00     0.173 A 
ATOM     94  F   UNL A   1      44.070  37.392  31.292  1.00  0.00    -0.203 F 
ATOM     95  C   UNL A   1      44.029  39.634  31.985  1.00  0.00     0.198 A 
ATOM     96  C   UNL A   1      43.298  41.335  30.470  1.00  0.00     0.198 A 
ATOM     97  F   UNL A   1      42.722  40.796  28.246  1.00  0.00    -0.203 F 
ATOM     98  F   UNL A   1      44.580  39.274  33.154  1.00  0.00    -0.200 F 
ATOM     99  C   UNL A   1      43.835  40.971  31.697  1.00  0.00     0.200 A 
ATOM    100  F   UNL A   1      43.098  42.636  30.209  1.00  0.00    -0.200 F 
ATOM    101  F   UNL A   1      44.221  41.909  32.575  1.00  0.00    -0.200 F 
ENDBRANCH  67  91
BRANCH  79 102
ATOM    102  C   UNL A   1      48.496  34.298  27.203  1.00  0.00     0.064 A 
ATOM    103  C   UNL A   1      49.158  33.674  28.277  1.00  0.00     0.173 A 
ATOM    104  C   UNL A   1      49.213  34.320  25.983  1.00  0.00     0.173 A 
ATOM    105  F   UNL A   1      48.558  33.467  29.457  1.00  0.00    -0.203 F 
ATOM    106  C   UNL A   1      50.456  33.183  28.163  1.00  0.00     0.198 A 
ATOM    107  C   UNL A   1      50.481  33.763  25.855  1.00  0.00     0.198 A 
ATOM    108  F   UNL A   1      48.695  34.838  24.860  1.00  0.00    -0.203 F 
ATOM    109  F   UNL A   1      51.053  32.649  29.237  1.00  0.00    -0.200 F 
ATOM    110  C   UNL A   1      51.111  33.213  26.950  1.00  0.00     0.200 A 
ATOM    111  F   UNL A   1      51.075  33.738  24.654  1.00  0.00    -0.200 F 
ATOM    112  F   UNL A   1      52.338  32.694  26.832  1.00  0.00    -0.200 F 
ENDBRANCH  79 102
ENDBRANCH  53  54
ENDBRANCH  46  48
ENDBRANCH  45  46
ENDBRANCH  44  45
ENDBRANCH  43  44
ENDBRANCH  42  43
ENDBRANCH   1  42
TORSDOF 20
ENDMDL
MODEL 3
REMARK VINA RESULT:     -11.1      6.249     14.057
REMARK SMILES Cc1ccccc1C(=O)Nc1cc(C(=O)OCCOCCOC(=O)c2ccc(-c3c4nc(c(-c5c(F)c(F)c(F)c(F)c5F)c5ccc([nH]5)c(-c5c(F)c(F)c(F)c(F)c5F)c5nc(c(-c6c(F)c(F)c(F)c(F)c6F)c6ccc3[nH]6)C=C5)C=C4)cc2)ccc1N1CC[NH+](CC(=O)Nc2ccc(F)cc2)CC1
REMARK SMILES IDX 18 1 17 2 16 3 14 4 15 5 13 6 11 7 12 8 90 9 89 10 88 11
REMARK SMILES IDX 10 12 8 13 9 14 7 16 1 17 2 18 3 19 4 20 6 21 5 22 91 23
REMARK SMILES IDX 92 24 107 25 93 26 106 27 94 28 95 30 96 31 97 32 98 33
REMARK SMILES IDX 99 35 100 36 105 37 101 38 104 39 102 40 103 41 19 42 20 43
REMARK SMILES IDX 21 44 22 45 23 46 24 47 25 48 26 49 87 50 27 51 86 52 28 53
REMARK SMILES IDX 29 54 30 55 80 56 31 57 85 58 79 59 81 60 32 61 84 62 78 63
REMARK SMILES IDX 77 64 33 66 65 67 45 68 64 69 46 70 49 71 63 72 82 73 47 74
REMARK SMILES IDX 48 75 62 77 83 78 50 79 34 80 35 81 43 82 36 83 37 84 41 85
REMARK SMILES IDX 44 86 38 87 39 88 42 89 40 90 66 91 67 92 75 93 68 94 69 95
REMARK SMILES IDX 73 96 76 97 70 98 71 99 74 100 72 101 51 102 52 103 60 104
REMARK SMILES IDX 53 105 54 106 58 107 61 108 55 109 56 110 59 111 57 112
REMARK H PARENT 10 15 94 29 98 34 81 65 49 76
REMARK Flexibility Score: inf
ROOT
ATOM      1  C   UNL A   1      51.397  25.465  31.445  1.00  0.00     0.202 C 
ENDROOT
BRANCH   1   2
ATOM      2  C   UNL A   1      50.977  26.456  30.397  1.00  0.00     0.261 C 
BRANCH   2   3
ATOM      3  O   UNL A   1      51.011  26.059  29.003  1.00  0.00    -0.460 OA
BRANCH   3   4
ATOM      4  C   UNL A   1      49.956  25.409  28.448  1.00  0.00     0.338 C 
ATOM      5  O   UNL A   1      49.949  24.222  28.159  1.00  0.00    -0.246 OA
BRANCH   4   6
ATOM      6  C   UNL A   1      48.963  26.376  27.922  1.00  0.00     0.062 A 
ATOM      7  C   UNL A   1      46.860  27.436  28.318  1.00  0.00     0.065 A 
ATOM      8  C   UNL A   1      47.691  26.351  28.468  1.00  0.00     0.044 A 
ATOM      9  C   UNL A   1      47.188  28.547  27.492  1.00  0.00     0.061 A 
ATOM     10  C   UNL A   1      48.432  28.485  26.835  1.00  0.00     0.029 A 
ATOM     11  C   UNL A   1      49.333  27.431  27.083  1.00  0.00     0.018 A 
BRANCH   7  12
ATOM     12  N   UNL A   1      45.729  27.432  29.129  1.00  0.00    -0.320 N 
ATOM     13  C   UNL A   1      44.638  26.573  29.089  1.00  0.00     0.255 C 
ATOM     14  O   UNL A   1      43.825  26.727  30.011  1.00  0.00    -0.269 OA
ATOM     15  H   UNL A   1      45.698  28.130  29.822  1.00  0.00     0.170 HD
BRANCH  13  16
ATOM     16  C   UNL A   1      44.384  25.424  28.117  1.00  0.00     0.043 A 
ATOM     17  C   UNL A   1      44.600  26.447  25.695  1.00  0.00     0.045 C 
ATOM     18  C   UNL A   1      44.348  25.363  26.699  1.00  0.00    -0.038 A 
ATOM     19  C   UNL A   1      44.126  24.115  26.061  1.00  0.00     0.004 A 
ATOM     20  C   UNL A   1      44.098  22.922  26.765  1.00  0.00     0.000 A 
ATOM     21  C   UNL A   1      44.327  24.183  28.797  1.00  0.00     0.014 A 
ATOM     22  C   UNL A   1      44.220  22.953  28.138  1.00  0.00     0.001 A 
ENDBRANCH  13  16
ENDBRANCH   7  12
BRANCH   9  23
ATOM     23  N   UNL A   1      46.403  29.707  27.496  1.00  0.00    -0.359 N 
ATOM     24  C   UNL A   1      45.042  29.771  26.891  1.00  0.00     0.178 C 
ATOM     25  C   UNL A   1      47.127  30.957  27.235  1.00  0.00     0.178 C 
ATOM     26  C   UNL A   1      44.351  31.166  27.139  1.00  0.00     0.284 C 
ATOM     27  C   UNL A   1      46.387  32.105  27.908  1.00  0.00     0.284 C 
ATOM     28  N   UNL A   1      45.182  32.395  27.154  1.00  0.00    -0.324 N 
ATOM     29  H   UNL A   1      44.583  33.092  27.597  1.00  0.00     0.348 HD
BRANCH  28  30
ATOM     30  C   UNL A   1      45.454  33.140  25.896  1.00  0.00     0.364 C 
BRANCH  30  31
ATOM     31  C   UNL A   1      44.321  33.882  25.174  1.00  0.00     0.279 C 
ATOM     32  O   UNL A   1      44.145  33.664  23.964  1.00  0.00    -0.268 OA
ATOM     33  N   UNL A   1      43.397  34.716  25.753  1.00  0.00    -0.321 N 
ATOM     34  H   UNL A   1      42.586  34.752  25.197  1.00  0.00     0.170 HD
BRANCH  33  35
ATOM     35  C   UNL A   1      43.234  35.544  26.893  1.00  0.00     0.041 A 
ATOM     36  C   UNL A   1      43.923  36.773  26.868  1.00  0.00     0.029 A 
ATOM     37  C   UNL A   1      42.585  35.222  28.080  1.00  0.00     0.029 A 
ATOM     38  C   UNL A   1      43.965  37.627  27.983  1.00  0.00     0.041 A 
ATOM     39  C   UNL A   1      42.671  36.041  29.223  1.00  0.00     0.041 A 
ATOM     40  C   UNL A   1      43.353  37.243  29.162  1.00  0.00     0.123 A 
ATOM     41  F   UNL A   1      43.418  38.035  30.241  1.00  0.00    -0.207 F 
ENDBRANCH  33  35
ENDBRANCH  30  31
ENDBRANCH  28  30
ENDBRANCH   9  23
ENDBRANCH   4   6
ENDBRANCH   3   4
ENDBRANCH   2   3
ENDBRANCH   1   2
BRANCH   1  42
ATOM     42  O   UNL A   1      50.287  25.270  32.304  1.00  0.00    -0.374 OA
BRANCH  42  43
ATOM     43  C   UNL A   1      49.113  25.973  31.938  1.00  0.00     0.202 C 
BRANCH  43  44
ATOM     44  C   UNL A   1      47.996  25.831  32.979  1.00  0.00     0.261 C 
BRANCH  44  45
ATOM     45  O   UNL A   1      46.718  26.026  32.335  1.00  0.00    -0.460 OA
BRANCH  45  46
ATOM     46  C   UNL A   1      45.646  25.434  32.947  1.00  0.00     0.338 C 
ATOM     47  O   UNL A   1      45.374  24.260  32.899  1.00  0.00    -0.246 OA
BRANCH  46  48
ATOM     48  C   UNL A   1      44.703  26.493  33.429  1.00  0.00     0.060 A 
ATOM     49  C   UNL A   1      43.351  26.172  33.668  1.00  0.00     0.016 A 
ATOM     50  C   UNL A   1      45.083  27.824  33.299  1.00  0.00     0.016 A 
ATOM     51  C   UNL A   1      42.366  27.172  33.608  1.00  0.00     0.010 A 
ATOM     52  C   UNL A   1      44.104  28.770  33.101  1.00  0.00     0.010 A 
ATOM     53  C   UNL A   1      42.739  28.453  33.220  1.00  0.00    -0.014 A 
BRANCH  53  54
ATOM     54  C   UNL A   1      41.858  29.550  32.807  1.00  0.00     0.031 A 
ATOM     55  C   UNL A   1      41.324  30.407  33.894  1.00  0.00     0.074 A 
ATOM     56  C   UNL A   1      41.860  30.011  31.529  1.00  0.00     0.049 A 
ATOM     57  N   UNL A   1      40.776  31.548  33.701  1.00  0.00    -0.248 NA
ATOM     58  C   UNL A   1      41.404  30.073  35.314  1.00  0.00     0.031 C 
ATOM     59  C   UNL A   1      41.557  31.368  31.069  1.00  0.00     0.029 A 
ATOM     60  N   UNL A   1      42.099  29.344  30.313  1.00  0.00    -0.354 N 
ATOM     61  C   UNL A   1      40.710  32.221  34.890  1.00  0.00     0.074 A 
ATOM     62  C   UNL A   1      41.057  31.236  35.881  1.00  0.00     0.031 C 
ATOM     63  C   UNL A   1      41.230  31.341  29.771  1.00  0.00     0.029 A 
ATOM     64  C   UNL A   1      41.253  29.954  29.368  1.00  0.00     0.049 A 
ATOM     65  H   UNL A   1      42.729  28.603  30.157  1.00  0.00     0.167 HD
ATOM     66  C   UNL A   1      40.441  33.556  34.816  1.00  0.00     0.037 A 
ATOM     67  C   UNL A   1      40.252  29.267  28.764  1.00  0.00     0.037 A 
ATOM     68  C   UNL A   1      39.917  33.873  33.470  1.00  0.00     0.049 A 
ATOM     69  C   UNL A   1      38.974  29.963  29.119  1.00  0.00     0.074 A 
ATOM     70  C   UNL A   1      40.389  34.568  32.370  1.00  0.00     0.029 A 
ATOM     71  N   UNL A   1      38.825  33.125  33.009  1.00  0.00    -0.354 N 
ATOM     72  N   UNL A   1      38.775  30.538  30.284  1.00  0.00    -0.248 NA
ATOM     73  C   UNL A   1      38.006  30.356  28.103  1.00  0.00     0.031 C 
ATOM     74  C   UNL A   1      39.624  34.150  31.231  1.00  0.00     0.029 A 
ATOM     75  C   UNL A   1      38.682  33.211  31.637  1.00  0.00     0.049 A 
ATOM     76  H   UNL A   1      38.232  32.599  33.593  1.00  0.00     0.167 HD
ATOM     77  C   UNL A   1      37.816  31.502  30.120  1.00  0.00     0.074 A 
ATOM     78  C   UNL A   1      37.331  31.315  28.756  1.00  0.00     0.031 C 
ATOM     79  C   UNL A   1      37.567  32.551  30.961  1.00  0.00     0.037 A 
BRANCH  66  80
ATOM     80  C   UNL A   1      40.718  34.587  35.895  1.00  0.00     0.064 A 
ATOM     81  C   UNL A   1      39.758  34.848  36.900  1.00  0.00     0.173 A 
ATOM     82  C   UNL A   1      41.861  35.415  35.966  1.00  0.00     0.173 A 
ATOM     83  F   UNL A   1      38.599  34.177  36.945  1.00  0.00    -0.203 F 
ATOM     84  C   UNL A   1      39.938  35.826  37.889  1.00  0.00     0.198 A 
ATOM     85  C   UNL A   1      42.057  36.368  36.975  1.00  0.00     0.198 A 
ATOM     86  F   UNL A   1      42.828  35.382  35.048  1.00  0.00    -0.203 F 
ATOM     87  F   UNL A   1      38.975  36.042  38.796  1.00  0.00    -0.200 F 
ATOM     88  C   UNL A   1      41.095  36.576  37.936  1.00  0.00     0.200 A 
ATOM     89  F   UNL A   1      43.186  37.092  36.991  1.00  0.00    -0.200 F 
ATOM     90  F   UNL A   1      41.276  37.502  38.887  1.00  0.00    -0.200 F 
ENDBRANCH  66  80
BRANCH  67  91
ATOM     91  C   UNL A   1      40.649  27.854  28.506  1.00  0.00     0.064 A 
ATOM     92  C   UNL A   1      39.835  26.901  29.168  1.00  0.00     0.173 A 
ATOM     93  C   UNL A   1      41.232  27.450  27.296  1.00  0.00     0.173 A 
ATOM     94  F   UNL A   1      39.267  27.215  30.344  1.00  0.00    -0.203 F 
ATOM     95  C   UNL A   1      39.435  25.719  28.543  1.00  0.00     0.198 A 
ATOM     96  C   UNL A   1      40.861  26.237  26.694  1.00  0.00     0.198 A 
ATOM     97  F   UNL A   1      42.018  28.290  26.608  1.00  0.00    -0.203 F 
ATOM     98  F   UNL A   1      38.493  24.948  29.108  1.00  0.00    -0.200 F 
ATOM     99  C   UNL A   1      39.914  25.411  27.285  1.00  0.00     0.200 A 
ATOM    100  F   UNL A   1      41.331  25.918  25.478  1.00  0.00    -0.200 F 
ATOM    101  F   UNL A   1      39.420  24.357  26.618  1.00  0.00    -0.200 F 
ENDBRANCH  67  91
BRANCH  79 102
ATOM    102  C   UNL A   1      36.164  33.079  31.156  1.00  0.00     0.064 A 
ATOM    103  C   UNL A   1      35.401  32.834  32.314  1.00  0.00     0.173 A 
ATOM    104  C   UNL A   1      35.609  34.020  30.256  1.00  0.00     0.173 A 
ATOM    105  F   UNL A   1      35.855  32.065  33.313  1.00  0.00    -0.203 F 
ATOM    106  C   UNL A   1      34.155  33.421  32.518  1.00  0.00     0.198 A 
ATOM    107  C   UNL A   1      34.398  34.658  30.499  1.00  0.00     0.198 A 
ATOM    108  F   UNL A   1      36.240  34.390  29.133  1.00  0.00    -0.203 F 
ATOM    109  F   UNL A   1      33.452  33.106  33.615  1.00  0.00    -0.200 F 
ATOM    110  C   UNL A   1      33.660  34.343  31.620  1.00  0.00     0.200 A 
ATOM    111  F   UNL A   1      33.964  35.602  29.652  1.00  0.00    -0.200 F 
ATOM    112  F   UNL A   1      32.486  34.943  31.846  1.00  0.00    -0.200 F 
ENDBRANCH  79 102
ENDBRANCH  53  54
ENDBRANCH  46  48
ENDBRANCH  45  46
ENDBRANCH  44  45
ENDBRANCH  43  44
ENDBRANCH  42  43
ENDBRANCH   1  42
TORSDOF 20
ENDMDL
