MODEL 1
REMARK VINA RESULT:     -10.9      0.000      0.000
REMARK SMILES COc1ccc(/C=C2\SC(=S)N=C2OCCOCCOC(=O)c2ccc(-c3c4nc(c(-c5c(F)c(F)c(F)c(F)c5F)c5ccc([nH]5)c(-c5c(F)c(F)c(F)c(F)c5F)c5nc(c(-c6c(F)c(F)c(F)c(F)c6F)c6ccc3[nH]6)C=C5)C=C4)cc2)c(C(=O)[O-])c1OC
REMARK SMILES IDX 18 1 17 2 16 3 15 4 14 5 13 6 7 7 8 8 9 9 10 10 12 11 11 12
REMARK SMILES IDX 6 13 3 14 4 15 90 16 5 17 86 18 2 19 1 20 91 21 92 22 87 23
REMARK SMILES IDX 88 24 89 25 19 26 20 27 21 28 22 29 23 30 24 31 85 32 25 33
REMARK SMILES IDX 84 34 26 35 27 36 28 37 78 38 29 39 83 40 77 41 79 42 30 43
REMARK SMILES IDX 82 44 76 45 75 46 31 48 63 49 43 50 62 51 44 52 47 53 61 54
REMARK SMILES IDX 80 55 45 56 46 57 60 59 81 60 48 61 32 62 33 63 41 64 34 65
REMARK SMILES IDX 35 66 39 67 42 68 36 69 37 70 40 71 38 72 64 73 65 74 73 75
REMARK SMILES IDX 66 76 67 77 71 78 74 79 68 80 69 81 72 82 70 83 49 84 50 85
REMARK SMILES IDX 58 86 51 87 52 88 56 89 59 90 53 91 54 92 57 93 55 94
REMARK H PARENT 79 47 47 58
REMARK Flexibility Score: inf
ROOT
ATOM      1  C   UNL A   1      32.307  31.578  27.076  1.00  0.00     0.202 C 
ENDROOT
BRANCH   1   2
ATOM      2  O   UNL A   1      33.336  31.051  27.923  1.00  0.00    -0.374 OA
BRANCH   2   3
ATOM      3  C   UNL A   1      34.456  30.462  27.258  1.00  0.00     0.202 C 
BRANCH   3   4
ATOM      4  C   UNL A   1      34.445  28.938  27.071  1.00  0.00     0.260 C 
BRANCH   4   5
ATOM      5  O   UNL A   1      33.167  28.416  26.668  1.00  0.00    -0.474 OA
BRANCH   5   6
ATOM      6  C   UNL A   1      32.836  27.752  25.555  1.00  0.00     0.229 C 
ATOM      7  C   UNL A   1      34.131  25.567  25.800  1.00  0.00     0.030 C 
ATOM      8  C   UNL A   1      33.331  26.413  25.127  1.00  0.00     0.077 C 
ATOM      9  S   UNL A   1      32.556  26.103  23.602  1.00  0.00    -0.053 SA
ATOM     10  C   UNL A   1      31.567  27.560  23.759  1.00  0.00     0.168 C 
ATOM     11  N   UNL A   1      31.935  28.340  24.824  1.00  0.00    -0.194 NA
ATOM     12  S   UNL A   1      30.268  27.868  22.751  1.00  0.00    -0.050 S 
BRANCH   7  13
ATOM     13  C   UNL A   1      34.580  24.163  25.628  1.00  0.00    -0.011 A 
ATOM     14  C   UNL A   1      35.472  21.529  25.096  1.00  0.00     0.161 A 
ATOM     15  C   UNL A   1      36.283  22.628  24.814  1.00  0.00     0.051 A 
ATOM     16  C   UNL A   1      34.202  21.712  25.662  1.00  0.00     0.170 A 
ATOM     17  C   UNL A   1      35.843  23.921  25.071  1.00  0.00     0.013 A 
ATOM     18  C   UNL A   1      33.724  23.039  25.855  1.00  0.00     0.050 A 
BRANCH  14  19
ATOM     19  O   UNL A   1      36.019  20.287  24.905  1.00  0.00    -0.493 OA
ATOM     20  C   UNL A   1      37.445  20.318  25.000  1.00  0.00     0.278 C 
ENDBRANCH  14  19
BRANCH  16  21
ATOM     21  O   UNL A   1      33.391  20.714  26.140  1.00  0.00    -0.492 OA
ATOM     22  C   UNL A   1      32.654  19.897  25.247  1.00  0.00     0.278 C 
ENDBRANCH  16  21
BRANCH  18  23
ATOM     23  C   UNL A   1      32.293  23.246  26.277  1.00  0.00     0.076 C 
ATOM     24  O   UNL A   1      31.315  23.316  25.552  1.00  0.00    -0.545 OA
ATOM     25  O   UNL A   1      32.117  23.245  27.614  1.00  0.00    -0.545 OA
ENDBRANCH  18  23
ENDBRANCH   7  13
ENDBRANCH   5   6
ENDBRANCH   4   5
ENDBRANCH   3   4
ENDBRANCH   2   3
ENDBRANCH   1   2
BRANCH   1  26
ATOM     26  C   UNL A   1      32.099  33.092  27.163  1.00  0.00     0.261 C 
BRANCH  26  27
ATOM     27  O   UNL A   1      33.344  33.769  27.375  1.00  0.00    -0.460 OA
BRANCH  27  28
ATOM     28  C   UNL A   1      33.357  34.593  28.451  1.00  0.00     0.338 C 
ATOM     29  O   UNL A   1      32.531  35.431  28.755  1.00  0.00    -0.246 OA
BRANCH  28  30
ATOM     30  C   UNL A   1      34.458  34.185  29.344  1.00  0.00     0.060 A 
ATOM     31  C   UNL A   1      35.765  34.473  28.930  1.00  0.00     0.016 A 
ATOM     32  C   UNL A   1      34.220  33.530  30.553  1.00  0.00     0.016 A 
ATOM     33  C   UNL A   1      36.846  34.052  29.698  1.00  0.00     0.010 A 
ATOM     34  C   UNL A   1      35.305  33.102  31.320  1.00  0.00     0.010 A 
ATOM     35  C   UNL A   1      36.619  33.325  30.872  1.00  0.00    -0.014 A 
BRANCH  35  36
ATOM     36  C   UNL A   1      37.748  32.636  31.537  1.00  0.00     0.031 A 
ATOM     37  C   UNL A   1      38.407  31.492  30.817  1.00  0.00     0.074 A 
ATOM     38  C   UNL A   1      38.189  33.037  32.741  1.00  0.00     0.049 A 
ATOM     39  N   UNL A   1      39.357  30.691  31.222  1.00  0.00    -0.248 NA
ATOM     40  C   UNL A   1      37.924  31.212  29.453  1.00  0.00     0.031 C 
ATOM     41  C   UNL A   1      37.655  34.161  33.506  1.00  0.00     0.029 A 
ATOM     42  N   UNL A   1      39.186  32.530  33.536  1.00  0.00    -0.354 N 
ATOM     43  C   UNL A   1      39.582  29.814  30.169  1.00  0.00     0.074 A 
ATOM     44  C   UNL A   1      38.646  30.152  29.122  1.00  0.00     0.031 C 
ATOM     45  C   UNL A   1      38.321  34.252  34.670  1.00  0.00     0.029 A 
ATOM     46  C   UNL A   1      39.301  33.170  34.746  1.00  0.00     0.049 A 
ATOM     47  H   UNL A   1      39.763  31.781  33.265  1.00  0.00     0.167 HD
ATOM     48  C   UNL A   1      40.501  28.825  30.081  1.00  0.00     0.037 A 
ATOM     49  C   UNL A   1      40.089  32.887  35.800  1.00  0.00     0.037 A 
ATOM     50  C   UNL A   1      41.430  28.494  31.130  1.00  0.00     0.049 A 
ATOM     51  C   UNL A   1      41.041  31.718  35.707  1.00  0.00     0.074 A 
ATOM     52  C   UNL A   1      42.397  27.506  31.147  1.00  0.00     0.029 A 
ATOM     53  N   UNL A   1      41.501  29.148  32.351  1.00  0.00    -0.354 N 
ATOM     54  N   UNL A   1      41.260  30.903  34.704  1.00  0.00    -0.248 NA
ATOM     55  C   UNL A   1      41.858  31.435  36.895  1.00  0.00     0.031 C 
ATOM     56  C   UNL A   1      43.021  27.530  32.397  1.00  0.00     0.029 A 
ATOM     57  C   UNL A   1      42.486  28.573  33.136  1.00  0.00     0.049 A 
ATOM     58  H   UNL A   1      40.935  29.908  32.620  1.00  0.00     0.167 HD
ATOM     59  C   UNL A   1      42.267  30.041  35.124  1.00  0.00     0.074 A 
ATOM     60  C   UNL A   1      42.624  30.443  36.467  1.00  0.00     0.031 C 
ATOM     61  C   UNL A   1      42.843  29.009  34.461  1.00  0.00     0.037 A 
BRANCH  48  62
ATOM     62  C   UNL A   1      40.546  28.021  28.814  1.00  0.00     0.064 A 
ATOM     63  C   UNL A   1      41.320  28.424  27.716  1.00  0.00     0.173 A 
ATOM     64  C   UNL A   1      39.854  26.805  28.718  1.00  0.00     0.173 A 
ATOM     65  F   UNL A   1      41.988  29.587  27.751  1.00  0.00    -0.203 F 
ATOM     66  C   UNL A   1      41.388  27.646  26.563  1.00  0.00     0.198 A 
ATOM     67  C   UNL A   1      39.948  26.014  27.575  1.00  0.00     0.198 A 
ATOM     68  F   UNL A   1      39.098  26.373  29.739  1.00  0.00    -0.203 F 
ATOM     69  F   UNL A   1      42.104  28.069  25.511  1.00  0.00    -0.200 F 
ATOM     70  C   UNL A   1      40.711  26.437  26.498  1.00  0.00     0.200 A 
ATOM     71  F   UNL A   1      39.303  24.840  27.520  1.00  0.00    -0.200 F 
ATOM     72  F   UNL A   1      40.792  25.681  25.394  1.00  0.00    -0.200 F 
ENDBRANCH  48  62
BRANCH  49  73
ATOM     73  C   UNL A   1      40.008  33.696  37.046  1.00  0.00     0.064 A 
ATOM     74  C   UNL A   1      39.090  33.377  38.058  1.00  0.00     0.173 A 
ATOM     75  C   UNL A   1      40.800  34.839  37.226  1.00  0.00     0.173 A 
ATOM     76  F   UNL A   1      38.293  32.307  37.925  1.00  0.00    -0.203 F 
ATOM     77  C   UNL A   1      38.939  34.192  39.178  1.00  0.00     0.198 A 
ATOM     78  C   UNL A   1      40.674  35.634  38.364  1.00  0.00     0.198 A 
ATOM     79  F   UNL A   1      41.694  35.192  36.292  1.00  0.00    -0.203 F 
ATOM     80  F   UNL A   1      38.003  33.903  40.092  1.00  0.00    -0.200 F 
ATOM     81  C   UNL A   1      39.733  35.319  39.332  1.00  0.00     0.200 A 
ATOM     82  F   UNL A   1      41.453  36.713  38.515  1.00  0.00    -0.200 F 
ATOM     83  F   UNL A   1      39.580  36.107  40.404  1.00  0.00    -0.200 F 
ENDBRANCH  49  73
BRANCH  61  84
ATOM     84  C   UNL A   1      43.964  28.284  35.151  1.00  0.00     0.064 A 
ATOM     85  C   UNL A   1      43.734  27.162  35.960  1.00  0.00     0.173 A 
ATOM     86  C   UNL A   1      45.292  28.696  34.962  1.00  0.00     0.173 A 
ATOM     87  F   UNL A   1      42.482  26.734  36.183  1.00  0.00    -0.203 F 
ATOM     88  C   UNL A   1      44.790  26.501  36.583  1.00  0.00     0.198 A 
ATOM     89  C   UNL A   1      46.349  28.011  35.556  1.00  0.00     0.198 A 
ATOM     90  F   UNL A   1      45.569  29.756  34.189  1.00  0.00    -0.203 F 
ATOM     91  F   UNL A   1      44.542  25.467  37.399  1.00  0.00    -0.200 F 
ATOM     92  C   UNL A   1      46.096  26.920  36.373  1.00  0.00     0.200 A 
ATOM     93  F   UNL A   1      47.610  28.407  35.337  1.00  0.00    -0.200 F 
ATOM     94  F   UNL A   1      47.111  26.277  36.967  1.00  0.00    -0.200 F 
ENDBRANCH  61  84
ENDBRANCH  35  36
ENDBRANCH  28  30
ENDBRANCH  27  28
ENDBRANCH  26  27
ENDBRANCH   1  26
TORSDOF 17
ENDMDL
MODEL 2
REMARK VINA RESULT:     -10.7      2.972      8.852
REMARK SMILES COc1ccc(/C=C2\SC(=S)N=C2OCCOCCOC(=O)c2ccc(-c3c4nc(c(-c5c(F)c(F)c(F)c(F)c5F)c5ccc([nH]5)c(-c5c(F)c(F)c(F)c(F)c5F)c5nc(c(-c6c(F)c(F)c(F)c(F)c6F)c6ccc3[nH]6)C=C5)C=C4)cc2)c(C(=O)[O-])c1OC
REMARK SMILES IDX 18 1 17 2 16 3 15 4 14 5 13 6 7 7 8 8 9 9 10 10 12 11 11 12
REMARK SMILES IDX 6 13 3 14 4 15 90 16 5 17 86 18 2 19 1 20 91 21 92 22 87 23
REMARK SMILES IDX 88 24 89 25 19 26 20 27 21 28 22 29 23 30 24 31 85 32 25 33
REMARK SMILES IDX 84 34 26 35 27 36 28 37 78 38 29 39 83 40 77 41 79 42 30 43
REMARK SMILES IDX 82 44 76 45 75 46 31 48 63 49 43 50 62 51 44 52 47 53 61 54
REMARK SMILES IDX 80 55 45 56 46 57 60 59 81 60 48 61 32 62 33 63 41 64 34 65
REMARK SMILES IDX 35 66 39 67 42 68 36 69 37 70 40 71 38 72 64 73 65 74 73 75
REMARK SMILES IDX 66 76 67 77 71 78 74 79 68 80 69 81 72 82 70 83 49 84 50 85
REMARK SMILES IDX 58 86 51 87 52 88 56 89 59 90 53 91 54 92 57 93 55 94
REMARK H PARENT 79 47 47 58
REMARK Flexibility Score: inf
ROOT
ATOM      1  C   UNL A   1      40.603  20.739  26.417  1.00  0.00     0.202 C 
ENDROOT
BRANCH   1   2
ATOM      2  O   UNL A   1      39.770  21.616  25.648  1.00  0.00    -0.374 OA
BRANCH   2   3
ATOM      3  C   UNL A   1      38.369  21.546  25.916  1.00  0.00     0.202 C 
BRANCH   3   4
ATOM      4  C   UNL A   1      37.470  20.946  24.825  1.00  0.00     0.260 C 
BRANCH   4   5
ATOM      5  O   UNL A   1      36.345  20.216  25.343  1.00  0.00    -0.474 OA
BRANCH   5   6
ATOM      6  C   UNL A   1      35.064  20.248  24.959  1.00  0.00     0.229 C 
ATOM      7  C   UNL A   1      34.452  22.708  25.253  1.00  0.00     0.030 C 
ATOM      8  C   UNL A   1      34.156  21.431  24.958  1.00  0.00     0.077 C 
ATOM      9  S   UNL A   1      32.631  20.838  24.372  1.00  0.00    -0.053 SA
ATOM     10  C   UNL A   1      33.335  19.256  24.012  1.00  0.00     0.168 C 
ATOM     11  N   UNL A   1      34.615  19.125  24.481  1.00  0.00    -0.194 NA
ATOM     12  S   UNL A   1      32.525  18.105  23.108  1.00  0.00    -0.050 S 
BRANCH   7  13
ATOM     13  C   UNL A   1      33.757  24.016  25.146  1.00  0.00    -0.011 A 
ATOM     14  C   UNL A   1      32.613  26.602  25.000  1.00  0.00     0.161 A 
ATOM     15  C   UNL A   1      33.755  26.283  24.264  1.00  0.00     0.051 A 
ATOM     16  C   UNL A   1      32.005  25.638  25.817  1.00  0.00     0.170 A 
ATOM     17  C   UNL A   1      34.318  25.015  24.340  1.00  0.00     0.013 A 
ATOM     18  C   UNL A   1      32.626  24.364  25.951  1.00  0.00     0.050 A 
BRANCH  14  19
ATOM     19  O   UNL A   1      32.066  27.840  24.792  1.00  0.00    -0.493 OA
ATOM     20  C   UNL A   1      32.878  28.877  25.350  1.00  0.00     0.278 C 
ENDBRANCH  14  19
BRANCH  16  21
ATOM     21  O   UNL A   1      30.794  25.777  26.446  1.00  0.00    -0.492 OA
ATOM     22  C   UNL A   1      29.592  25.794  25.696  1.00  0.00     0.278 C 
ENDBRANCH  16  21
BRANCH  18  23
ATOM     23  C   UNL A   1      32.091  23.394  26.972  1.00  0.00     0.076 C 
ATOM     24  O   UNL A   1      31.122  22.665  26.856  1.00  0.00    -0.545 OA
ATOM     25  O   UNL A   1      32.862  23.289  28.074  1.00  0.00    -0.545 OA
ENDBRANCH  18  23
ENDBRANCH   7  13
ENDBRANCH   5   6
ENDBRANCH   4   5
ENDBRANCH   3   4
ENDBRANCH   2   3
ENDBRANCH   1   2
BRANCH   1  26
ATOM     26  C   UNL A   1      42.095  20.786  26.077  1.00  0.00     0.261 C 
BRANCH  26  27
ATOM     27  O   UNL A   1      42.715  21.941  26.656  1.00  0.00    -0.460 OA
BRANCH  27  28
ATOM     28  C   UNL A   1      42.755  23.022  25.840  1.00  0.00     0.338 C 
ATOM     29  O   UNL A   1      43.002  23.047  24.650  1.00  0.00    -0.246 OA
BRANCH  28  30
ATOM     30  C   UNL A   1      42.249  24.192  26.582  1.00  0.00     0.060 A 
ATOM     31  C   UNL A   1      42.891  25.419  26.369  1.00  0.00     0.016 A 
ATOM     32  C   UNL A   1      41.178  24.092  27.472  1.00  0.00     0.016 A 
ATOM     33  C   UNL A   1      42.501  26.543  27.091  1.00  0.00     0.010 A 
ATOM     34  C   UNL A   1      40.793  25.217  28.202  1.00  0.00     0.010 A 
ATOM     35  C   UNL A   1      41.481  26.433  28.043  1.00  0.00    -0.014 A 
BRANCH  35  36
ATOM     36  C   UNL A   1      41.256  27.535  29.006  1.00  0.00     0.031 A 
ATOM     37  C   UNL A   1      42.199  27.668  30.169  1.00  0.00     0.074 A 
ATOM     38  C   UNL A   1      40.251  28.410  28.831  1.00  0.00     0.049 A 
ATOM     39  N   UNL A   1      42.164  28.498  31.178  1.00  0.00    -0.248 NA
ATOM     40  C   UNL A   1      43.336  26.731  30.200  1.00  0.00     0.031 C 
ATOM     41  C   UNL A   1      39.307  28.402  27.716  1.00  0.00     0.029 A 
ATOM     42  N   UNL A   1      39.852  29.470  29.605  1.00  0.00    -0.354 N 
ATOM     43  C   UNL A   1      43.267  28.183  31.961  1.00  0.00     0.074 A 
ATOM     44  C   UNL A   1      43.930  27.062  31.337  1.00  0.00     0.031 C 
ATOM     45  C   UNL A   1      38.427  29.404  27.883  1.00  0.00     0.029 A 
ATOM     46  C   UNL A   1      38.724  30.097  29.135  1.00  0.00     0.049 A 
ATOM     47  H   UNL A   1      40.329  29.755  30.417  1.00  0.00     0.167 HD
ATOM     48  C   UNL A   1      43.694  28.789  33.094  1.00  0.00     0.037 A 
ATOM     49  C   UNL A   1      38.002  31.096  29.679  1.00  0.00     0.037 A 
ATOM     50  C   UNL A   1      43.026  29.905  33.710  1.00  0.00     0.049 A 
ATOM     51  C   UNL A   1      38.452  31.691  30.991  1.00  0.00     0.074 A 
ATOM     52  C   UNL A   1      43.370  30.588  34.861  1.00  0.00     0.029 A 
ATOM     53  N   UNL A   1      41.872  30.498  33.219  1.00  0.00    -0.354 N 
ATOM     54  N   UNL A   1      39.503  31.400  31.719  1.00  0.00    -0.248 NA
ATOM     55  C   UNL A   1      37.614  32.759  31.555  1.00  0.00     0.031 C 
ATOM     56  C   UNL A   1      42.397  31.564  35.095  1.00  0.00     0.029 A 
ATOM     57  C   UNL A   1      41.482  31.529  34.056  1.00  0.00     0.049 A 
ATOM     58  H   UNL A   1      41.401  30.225  32.399  1.00  0.00     0.167 HD
ATOM     59  C   UNL A   1      39.476  32.274  32.799  1.00  0.00     0.074 A 
ATOM     60  C   UNL A   1      38.312  33.115  32.623  1.00  0.00     0.031 C 
ATOM     61  C   UNL A   1      40.333  32.373  33.845  1.00  0.00     0.037 A 
BRANCH  48  62
ATOM     62  C   UNL A   1      44.936  28.256  33.747  1.00  0.00     0.064 A 
ATOM     63  C   UNL A   1      46.186  28.861  33.553  1.00  0.00     0.173 A 
ATOM     64  C   UNL A   1      44.865  27.162  34.623  1.00  0.00     0.173 A 
ATOM     65  F   UNL A   1      46.310  29.900  32.713  1.00  0.00    -0.203 F 
ATOM     66  C   UNL A   1      47.322  28.384  34.201  1.00  0.00     0.198 A 
ATOM     67  C   UNL A   1      45.998  26.705  35.293  1.00  0.00     0.198 A 
ATOM     68  F   UNL A   1      43.695  26.545  34.844  1.00  0.00    -0.203 F 
ATOM     69  F   UNL A   1      48.513  28.955  33.972  1.00  0.00    -0.200 F 
ATOM     70  C   UNL A   1      47.225  27.314  35.078  1.00  0.00     0.200 A 
ATOM     71  F   UNL A   1      45.900  25.680  36.150  1.00  0.00    -0.200 F 
ATOM     72  F   UNL A   1      48.317  26.866  35.714  1.00  0.00    -0.200 F 
ENDBRANCH  48  62
BRANCH  49  73
ATOM     73  C   UNL A   1      36.768  31.590  29.010  1.00  0.00     0.064 A 
ATOM     74  C   UNL A   1      36.675  32.911  28.547  1.00  0.00     0.173 A 
ATOM     75  C   UNL A   1      35.635  30.773  28.874  1.00  0.00     0.173 A 
ATOM     76  F   UNL A   1      37.722  33.739  28.674  1.00  0.00    -0.203 F 
ATOM     77  C   UNL A   1      35.486  33.407  28.016  1.00  0.00     0.198 A 
ATOM     78  C   UNL A   1      34.459  31.259  28.308  1.00  0.00     0.198 A 
ATOM     79  F   UNL A   1      35.668  29.502  29.298  1.00  0.00    -0.203 F 
ATOM     80  F   UNL A   1      35.404  34.693  27.651  1.00  0.00    -0.200 F 
ATOM     81  C   UNL A   1      34.379  32.580  27.894  1.00  0.00     0.200 A 
ATOM     82  F   UNL A   1      33.396  30.453  28.180  1.00  0.00    -0.200 F 
ATOM     83  F   UNL A   1      33.234  33.061  27.391  1.00  0.00    -0.200 F 
ENDBRANCH  49  73
BRANCH  61  84
ATOM     84  C   UNL A   1      40.083  33.467  34.843  1.00  0.00     0.064 A 
ATOM     85  C   UNL A   1      39.373  33.240  36.031  1.00  0.00     0.173 A 
ATOM     86  C   UNL A   1      40.601  34.753  34.624  1.00  0.00     0.173 A 
ATOM     87  F   UNL A   1      38.847  32.032  36.283  1.00  0.00    -0.203 F 
ATOM     88  C   UNL A   1      39.161  34.268  36.946  1.00  0.00     0.198 A 
ATOM     89  C   UNL A   1      40.419  35.770  35.557  1.00  0.00     0.198 A 
ATOM     90  F   UNL A   1      41.297  35.022  33.509  1.00  0.00    -0.203 F 
ATOM     91  F   UNL A   1      38.430  34.042  38.046  1.00  0.00    -0.200 F 
ATOM     92  C   UNL A   1      39.691  35.528  36.712  1.00  0.00     0.200 A 
ATOM     93  F   UNL A   1      40.947  36.981  35.339  1.00  0.00    -0.200 F 
ATOM     94  F   UNL A   1      39.493  36.514  37.598  1.00  0.00    -0.200 F 
ENDBRANCH  61  84
ENDBRANCH  35  36
ENDBRANCH  28  30
ENDBRANCH  27  28
ENDBRANCH  26  27
ENDBRANCH   1  26
TORSDOF 17
ENDMDL
MODEL 3
REMARK VINA RESULT:     -10.7      5.604     10.172
REMARK SMILES COc1ccc(/C=C2\SC(=S)N=C2OCCOCCOC(=O)c2ccc(-c3c4nc(c(-c5c(F)c(F)c(F)c(F)c5F)c5ccc([nH]5)c(-c5c(F)c(F)c(F)c(F)c5F)c5nc(c(-c6c(F)c(F)c(F)c(F)c6F)c6ccc3[nH]6)C=C5)C=C4)cc2)c(C(=O)[O-])c1OC
REMARK SMILES IDX 18 1 17 2 16 3 15 4 14 5 13 6 7 7 8 8 9 9 10 10 12 11 11 12
REMARK SMILES IDX 6 13 3 14 4 15 90 16 5 17 86 18 2 19 1 20 91 21 92 22 87 23
REMARK SMILES IDX 88 24 89 25 19 26 20 27 21 28 22 29 23 30 24 31 85 32 25 33
REMARK SMILES IDX 84 34 26 35 27 36 28 37 78 38 29 39 83 40 77 41 79 42 30 43
REMARK SMILES IDX 82 44 76 45 75 46 31 48 63 49 43 50 62 51 44 52 47 53 61 54
REMARK SMILES IDX 80 55 45 56 46 57 60 59 81 60 48 61 32 62 33 63 41 64 34 65
REMARK SMILES IDX 35 66 39 67 42 68 36 69 37 70 40 71 38 72 64 73 65 74 73 75
REMARK SMILES IDX 66 76 67 77 71 78 74 79 68 80 69 81 72 82 70 83 49 84 50 85
REMARK SMILES IDX 58 86 51 87 52 88 56 89 59 90 53 91 54 92 57 93 55 94
REMARK H PARENT 79 47 47 58
REMARK Flexibility Score: inf
ROOT
ATOM      1  C   UNL A   1      38.531  19.499  25.290  1.00  0.00     0.202 C 
ENDROOT
BRANCH   1   2
ATOM      2  O   UNL A   1      37.893  20.729  24.924  1.00  0.00    -0.374 OA
BRANCH   2   3
ATOM      3  C   UNL A   1      38.182  21.857  25.751  1.00  0.00     0.202 C 
BRANCH   3   4
ATOM      4  C   UNL A   1      37.196  23.034  25.710  1.00  0.00     0.260 C 
BRANCH   4   5
ATOM      5  O   UNL A   1      35.926  22.743  26.320  1.00  0.00    -0.474 OA
BRANCH   5   6
ATOM      6  C   UNL A   1      34.808  22.267  25.763  1.00  0.00     0.229 C 
ATOM      7  C   UNL A   1      33.675  24.378  24.887  1.00  0.00     0.030 C 
ATOM      8  C   UNL A   1      33.719  23.055  25.119  1.00  0.00     0.077 C 
ATOM      9  S   UNL A   1      32.542  21.881  24.610  1.00  0.00    -0.053 SA
ATOM     10  C   UNL A   1      33.609  20.548  25.070  1.00  0.00     0.168 C 
ATOM     11  N   UNL A   1      34.724  20.969  25.744  1.00  0.00    -0.194 NA
ATOM     12  S   UNL A   1      33.300  18.966  24.625  1.00  0.00    -0.050 S 
BRANCH   7  13
ATOM     13  C   UNL A   1      32.790  25.298  24.127  1.00  0.00    -0.011 A 
ATOM     14  C   UNL A   1      31.270  27.184  22.661  1.00  0.00     0.161 A 
ATOM     15  C   UNL A   1      32.450  26.655  22.136  1.00  0.00     0.051 A 
ATOM     16  C   UNL A   1      30.811  26.778  23.922  1.00  0.00     0.170 A 
ATOM     17  C   UNL A   1      33.198  25.732  22.859  1.00  0.00     0.013 A 
ATOM     18  C   UNL A   1      31.617  25.891  24.691  1.00  0.00     0.050 A 
BRANCH  14  19
ATOM     19  O   UNL A   1      30.544  28.010  21.845  1.00  0.00    -0.493 OA
ATOM     20  C   UNL A   1      30.632  29.375  22.261  1.00  0.00     0.278 C 
ENDBRANCH  14  19
BRANCH  16  21
ATOM     21  O   UNL A   1      29.590  27.092  24.464  1.00  0.00    -0.492 OA
ATOM     22  C   UNL A   1      28.396  26.605  23.876  1.00  0.00     0.278 C 
ENDBRANCH  16  21
BRANCH  18  23
ATOM     23  C   UNL A   1      31.230  25.605  26.119  1.00  0.00     0.076 C 
ATOM     24  O   UNL A   1      31.404  26.327  27.086  1.00  0.00    -0.545 OA
ATOM     25  O   UNL A   1      30.531  24.462  26.272  1.00  0.00    -0.545 OA
ENDBRANCH  18  23
ENDBRANCH   7  13
ENDBRANCH   5   6
ENDBRANCH   4   5
ENDBRANCH   3   4
ENDBRANCH   2   3
ENDBRANCH   1   2
BRANCH   1  26
ATOM     26  C   UNL A   1      39.812  19.645  26.115  1.00  0.00     0.261 C 
BRANCH  26  27
ATOM     27  O   UNL A   1      40.952  19.190  25.376  1.00  0.00    -0.460 OA
BRANCH  27  28
ATOM     28  C   UNL A   1      42.079  19.053  26.116  1.00  0.00     0.338 C 
ATOM     29  O   UNL A   1      42.648  18.022  26.418  1.00  0.00    -0.246 OA
BRANCH  28  30
ATOM     30  C   UNL A   1      42.653  20.391  26.353  1.00  0.00     0.060 A 
ATOM     31  C   UNL A   1      42.556  20.914  27.650  1.00  0.00     0.016 A 
ATOM     32  C   UNL A   1      43.266  21.120  25.333  1.00  0.00     0.016 A 
ATOM     33  C   UNL A   1      43.019  22.198  27.918  1.00  0.00     0.010 A 
ATOM     34  C   UNL A   1      43.723  22.411  25.600  1.00  0.00     0.010 A 
ATOM     35  C   UNL A   1      43.563  22.968  26.882  1.00  0.00    -0.014 A 
BRANCH  35  36
ATOM     36  C   UNL A   1      43.792  24.415  27.088  1.00  0.00     0.031 A 
ATOM     37  C   UNL A   1      45.173  24.958  26.850  1.00  0.00     0.074 A 
ATOM     38  C   UNL A   1      42.786  25.229  27.452  1.00  0.00     0.049 A 
ATOM     39  N   UNL A   1      45.635  26.167  27.035  1.00  0.00    -0.248 NA
ATOM     40  C   UNL A   1      46.172  24.004  26.338  1.00  0.00     0.031 C 
ATOM     41  C   UNL A   1      41.400  24.817  27.664  1.00  0.00     0.029 A 
ATOM     42  N   UNL A   1      42.784  26.574  27.720  1.00  0.00    -0.354 N 
ATOM     43  C   UNL A   1      46.973  26.118  26.666  1.00  0.00     0.074 A 
ATOM     44  C   UNL A   1      47.263  24.754  26.285  1.00  0.00     0.031 C 
ATOM     45  C   UNL A   1      40.681  25.888  28.043  1.00  0.00     0.029 A 
ATOM     46  C   UNL A   1      41.564  27.048  28.138  1.00  0.00     0.049 A 
ATOM     47  H   UNL A   1      43.580  27.145  27.622  1.00  0.00     0.167 HD
ATOM     48  C   UNL A   1      47.875  27.127  26.634  1.00  0.00     0.037 A 
ATOM     49  C   UNL A   1      41.219  28.274  28.574  1.00  0.00     0.037 A 
ATOM     50  C   UNL A   1      47.577  28.482  27.017  1.00  0.00     0.049 A 
ATOM     51  C   UNL A   1      42.269  29.357  28.615  1.00  0.00     0.074 A 
ATOM     52  C   UNL A   1      48.419  29.579  27.030  1.00  0.00     0.029 A 
ATOM     53  N   UNL A   1      46.337  28.920  27.458  1.00  0.00    -0.354 N 
ATOM     54  N   UNL A   1      43.527  29.309  28.250  1.00  0.00    -0.248 NA
ATOM     55  C   UNL A   1      41.846  30.669  29.125  1.00  0.00     0.031 C 
ATOM     56  C   UNL A   1      47.701  30.671  27.525  1.00  0.00     0.029 A 
ATOM     57  C   UNL A   1      46.396  30.269  27.761  1.00  0.00     0.049 A 
ATOM     58  H   UNL A   1      45.535  28.355  27.543  1.00  0.00     0.167 HD
ATOM     59  C   UNL A   1      44.033  30.589  28.446  1.00  0.00     0.074 A 
ATOM     60  C   UNL A   1      42.941  31.394  28.948  1.00  0.00     0.031 C 
ATOM     61  C   UNL A   1      45.287  31.058  28.233  1.00  0.00     0.037 A 
BRANCH  48  62
ATOM     62  C   UNL A   1      49.269  26.807  26.179  1.00  0.00     0.064 A 
ATOM     63  C   UNL A   1      49.657  26.959  24.840  1.00  0.00     0.173 A 
ATOM     64  C   UNL A   1      50.242  26.398  27.103  1.00  0.00     0.173 A 
ATOM     65  F   UNL A   1      48.760  27.331  23.915  1.00  0.00    -0.203 F 
ATOM     66  C   UNL A   1      50.966  26.702  24.440  1.00  0.00     0.198 A 
ATOM     67  C   UNL A   1      51.558  26.171  26.705  1.00  0.00     0.198 A 
ATOM     68  F   UNL A   1      49.924  26.236  28.396  1.00  0.00    -0.203 F 
ATOM     69  F   UNL A   1      51.306  26.819  23.149  1.00  0.00    -0.200 F 
ATOM     70  C   UNL A   1      51.917  26.319  25.374  1.00  0.00     0.200 A 
ATOM     71  F   UNL A   1      52.478  25.813  27.611  1.00  0.00    -0.200 F 
ATOM     72  F   UNL A   1      53.180  26.088  24.990  1.00  0.00    -0.200 F 
ENDBRANCH  48  62
BRANCH  49  73
ATOM     73  C   UNL A   1      39.830  28.552  29.031  1.00  0.00     0.064 A 
ATOM     74  C   UNL A   1      38.874  29.090  28.157  1.00  0.00     0.173 A 
ATOM     75  C   UNL A   1      39.446  28.344  30.364  1.00  0.00     0.173 A 
ATOM     76  F   UNL A   1      39.197  29.329  26.878  1.00  0.00    -0.203 F 
ATOM     77  C   UNL A   1      37.605  29.449  28.607  1.00  0.00     0.198 A 
ATOM     78  C   UNL A   1      38.164  28.668  30.805  1.00  0.00     0.198 A 
ATOM     79  F   UNL A   1      40.318  27.831  31.244  1.00  0.00    -0.203 F 
ATOM     80  F   UNL A   1      36.739  30.030  27.767  1.00  0.00    -0.200 F 
ATOM     81  C   UNL A   1      37.250  29.235  29.931  1.00  0.00     0.200 A 
ATOM     82  F   UNL A   1      37.821  28.447  32.082  1.00  0.00    -0.200 F 
ATOM     83  F   UNL A   1      36.033  29.589  30.366  1.00  0.00    -0.200 F 
ENDBRANCH  49  73
BRANCH  61  84
ATOM     84  C   UNL A   1      45.530  32.520  28.479  1.00  0.00     0.064 A 
ATOM     85  C   UNL A   1      45.934  33.005  29.731  1.00  0.00     0.173 A 
ATOM     86  C   UNL A   1      45.395  33.443  27.430  1.00  0.00     0.173 A 
ATOM     87  F   UNL A   1      46.066  32.166  30.770  1.00  0.00    -0.203 F 
ATOM     88  C   UNL A   1      46.162  34.364  29.933  1.00  0.00     0.198 A 
ATOM     89  C   UNL A   1      45.659  34.796  27.625  1.00  0.00     0.198 A 
ATOM     90  F   UNL A   1      45.021  33.031  26.209  1.00  0.00    -0.203 F 
ATOM     91  F   UNL A   1      46.491  34.812  31.152  1.00  0.00    -0.200 F 
ATOM     92  C   UNL A   1      46.032  35.256  28.878  1.00  0.00     0.200 A 
ATOM     93  F   UNL A   1      45.551  35.653  26.601  1.00  0.00    -0.200 F 
ATOM     94  F   UNL A   1      46.260  36.562  29.072  1.00  0.00    -0.200 F 
ENDBRANCH  61  84
ENDBRANCH  35  36
ENDBRANCH  28  30
ENDBRANCH  27  28
ENDBRANCH  26  27
ENDBRANCH   1  26
TORSDOF 17
ENDMDL
