MODEL 1
REMARK VINA RESULT:     -10.7      0.000      0.000
REMARK SMILES C=CCCCn1cc(C(=O)OCCOCCOC(=O)c2ccc(-c3c4nc(c(-c5c(F)c(F)c(F)c(F)c5F)c5ccc([nH]5)c(-c5c(F)c(F)c(F)c(F)c5F)c5nc(c(-c6c(F)c(F)c(F)c(F)c6F)c6ccc3[nH]6)C=C5)C=C4)cc2)cc1Br
REMARK SMILES IDX 13 1 12 2 11 3 9 4 10 5 8 6 6 7 7 8 84 9 83 10 85 11 5 12
REMARK SMILES IDX 4 13 3 14 2 15 1 16 14 17 15 18 16 19 17 20 18 21 19 22
REMARK SMILES IDX 20 23 21 24 82 25 22 26 81 27 23 28 24 29 25 30 75 31 26 32
REMARK SMILES IDX 80 33 74 34 76 35 27 36 79 37 73 38 72 39 28 41 60 42 40 43
REMARK SMILES IDX 59 44 41 45 44 46 58 47 77 48 42 49 43 50 57 52 78 53 45 54
REMARK SMILES IDX 29 55 30 56 38 57 31 58 32 59 36 60 39 61 33 62 34 63 37 64
REMARK SMILES IDX 35 65 61 66 62 67 70 68 63 69 64 70 68 71 71 72 65 73 66 74
REMARK SMILES IDX 69 75 67 76 46 77 47 78 55 79 48 80 49 81 53 82 56 83 50 84
REMARK SMILES IDX 51 85 54 86 52 87
REMARK H PARENT 76 40 44 51
REMARK Flexibility Score: inf
ROOT
ATOM      1  C   UNL A   1      40.455  20.704  26.953  1.00  0.00     0.202 C 
ENDROOT
BRANCH   1   2
ATOM      2  C   UNL A   1      39.862  21.833  26.107  1.00  0.00     0.261 C 
BRANCH   2   3
ATOM      3  O   UNL A   1      38.598  21.490  25.519  1.00  0.00    -0.460 OA
BRANCH   3   4
ATOM      4  C   UNL A   1      37.696  22.511  25.530  1.00  0.00     0.339 C 
ATOM      5  O   UNL A   1      37.963  23.671  25.852  1.00  0.00    -0.246 OA
BRANCH   4   6
ATOM      6  C   UNL A   1      36.392  22.166  24.984  1.00  0.00     0.078 A 
ATOM      7  N   UNL A   1      34.360  21.265  24.567  1.00  0.00    -0.341 N 
ATOM      8  C   UNL A   1      35.556  21.100  25.268  1.00  0.00     0.102 A 
ATOM      9  C   UNL A   1      34.457  22.425  23.840  1.00  0.00     0.085 A 
ATOM     10  C   UNL A   1      35.720  22.936  24.001  1.00  0.00     0.051 A 
ATOM     11  Br  UNL A   1      33.189  23.362  22.833  1.00  0.00    -0.031 Br
BRANCH   7  12
ATOM     12  C   UNL A   1      33.255  20.336  24.763  1.00  0.00     0.123 C 
BRANCH  12  13
ATOM     13  C   UNL A   1      32.594  19.630  23.577  1.00  0.00     0.026 C 
BRANCH  13  14
ATOM     14  C   UNL A   1      32.374  18.123  23.751  1.00  0.00     0.028 C 
BRANCH  14  15
ATOM     15  C   UNL A   1      33.478  17.272  23.194  1.00  0.00    -0.035 C 
ATOM     16  C   UNL A   1      34.440  16.732  23.953  1.00  0.00     0.004 C 
ENDBRANCH  14  15
ENDBRANCH  13  14
ENDBRANCH  12  13
ENDBRANCH   7  12
ENDBRANCH   4   6
ENDBRANCH   3   4
ENDBRANCH   2   3
ENDBRANCH   1   2
BRANCH   1  17
ATOM     17  O   UNL A   1      41.022  19.576  26.289  1.00  0.00    -0.374 OA
BRANCH  17  18
ATOM     18  C   UNL A   1      42.241  19.006  26.753  1.00  0.00     0.202 C 
BRANCH  18  19
ATOM     19  C   UNL A   1      43.394  18.847  25.775  1.00  0.00     0.261 C 
BRANCH  19  20
ATOM     20  O   UNL A   1      43.383  19.836  24.759  1.00  0.00    -0.460 OA
BRANCH  20  21
ATOM     21  C   UNL A   1      44.609  20.193  24.331  1.00  0.00     0.338 C 
ATOM     22  O   UNL A   1      45.472  19.469  23.842  1.00  0.00    -0.246 OA
BRANCH  21  23
ATOM     23  C   UNL A   1      44.833  21.595  24.665  1.00  0.00     0.060 A 
ATOM     24  C   UNL A   1      45.827  21.873  25.607  1.00  0.00     0.016 A 
ATOM     25  C   UNL A   1      43.880  22.548  24.276  1.00  0.00     0.016 A 
ATOM     26  C   UNL A   1      45.733  23.043  26.324  1.00  0.00     0.010 A 
ATOM     27  C   UNL A   1      43.776  23.702  25.004  1.00  0.00     0.010 A 
ATOM     28  C   UNL A   1      44.651  23.889  26.072  1.00  0.00    -0.014 A 
BRANCH  28  29
ATOM     29  C   UNL A   1      44.480  25.055  26.907  1.00  0.00     0.031 A 
ATOM     30  C   UNL A   1      45.558  26.049  26.720  1.00  0.00     0.074 A 
ATOM     31  C   UNL A   1      43.373  25.228  27.652  1.00  0.00     0.049 A 
ATOM     32  N   UNL A   1      46.425  26.438  27.592  1.00  0.00    -0.248 NA
ATOM     33  C   UNL A   1      45.815  26.538  25.354  1.00  0.00     0.031 C 
ATOM     34  C   UNL A   1      42.158  24.408  27.682  1.00  0.00     0.029 A 
ATOM     35  N   UNL A   1      43.063  26.258  28.480  1.00  0.00    -0.354 N 
ATOM     36  C   UNL A   1      47.216  27.374  26.936  1.00  0.00     0.074 A 
ATOM     37  C   UNL A   1      46.929  27.247  25.532  1.00  0.00     0.031 C 
ATOM     38  C   UNL A   1      41.173  25.094  28.306  1.00  0.00     0.029 A 
ATOM     39  C   UNL A   1      41.718  26.339  28.818  1.00  0.00     0.049 A 
ATOM     40  H   UNL A   1      43.736  26.894  28.814  1.00  0.00     0.167 HD
ATOM     41  C   UNL A   1      47.836  28.364  27.630  1.00  0.00     0.037 A 
ATOM     42  C   UNL A   1      41.114  27.406  29.401  1.00  0.00     0.037 A 
ATOM     43  C   UNL A   1      47.940  28.029  29.028  1.00  0.00     0.049 A 
ATOM     44  C   UNL A   1      42.185  28.245  30.005  1.00  0.00     0.074 A 
ATOM     45  C   UNL A   1      48.542  27.001  29.727  1.00  0.00     0.029 A 
ATOM     46  N   UNL A   1      47.034  28.589  29.895  1.00  0.00    -0.354 N 
ATOM     47  N   UNL A   1      42.878  27.881  31.049  1.00  0.00    -0.248 NA
ATOM     48  C   UNL A   1      42.816  29.248  29.157  1.00  0.00     0.031 C 
ATOM     49  C   UNL A   1      47.636  26.689  30.782  1.00  0.00     0.029 A 
ATOM     50  C   UNL A   1      46.574  27.590  30.715  1.00  0.00     0.049 A 
ATOM     51  H   UNL A   1      46.763  29.535  29.924  1.00  0.00     0.167 HD
ATOM     52  C   UNL A   1      44.180  28.257  30.754  1.00  0.00     0.074 A 
ATOM     53  C   UNL A   1      44.070  29.159  29.610  1.00  0.00     0.031 C 
ATOM     54  C   UNL A   1      45.241  27.567  31.267  1.00  0.00     0.037 A 
BRANCH  41  55
ATOM     55  C   UNL A   1      47.974  29.776  27.118  1.00  0.00     0.064 A 
ATOM     56  C   UNL A   1      49.234  30.399  27.178  1.00  0.00     0.173 A 
ATOM     57  C   UNL A   1      46.880  30.634  26.861  1.00  0.00     0.173 A 
ATOM     58  F   UNL A   1      50.338  29.682  27.434  1.00  0.00    -0.203 F 
ATOM     59  C   UNL A   1      49.375  31.785  27.073  1.00  0.00     0.198 A 
ATOM     60  C   UNL A   1      47.032  32.009  26.701  1.00  0.00     0.198 A 
ATOM     61  F   UNL A   1      45.612  30.208  26.868  1.00  0.00    -0.203 F 
ATOM     62  F   UNL A   1      50.575  32.346  27.270  1.00  0.00    -0.200 F 
ATOM     63  C   UNL A   1      48.273  32.589  26.842  1.00  0.00     0.200 A 
ATOM     64  F   UNL A   1      45.949  32.770  26.495  1.00  0.00    -0.200 F 
ATOM     65  F   UNL A   1      48.397  33.921  26.807  1.00  0.00    -0.200 F 
ENDBRANCH  41  55
BRANCH  42  66
ATOM     66  C   UNL A   1      39.733  27.913  29.208  1.00  0.00     0.064 A 
ATOM     67  C   UNL A   1      38.844  28.029  30.289  1.00  0.00     0.173 A 
ATOM     68  C   UNL A   1      39.348  28.552  28.013  1.00  0.00     0.173 A 
ATOM     69  F   UNL A   1      39.153  27.489  31.478  1.00  0.00    -0.203 F 
ATOM     70  C   UNL A   1      37.656  28.763  30.191  1.00  0.00     0.198 A 
ATOM     71  C   UNL A   1      38.160  29.279  27.913  1.00  0.00     0.198 A 
ATOM     72  F   UNL A   1      40.161  28.570  26.948  1.00  0.00    -0.203 F 
ATOM     73  F   UNL A   1      36.865  28.904  31.263  1.00  0.00    -0.200 F 
ATOM     74  C   UNL A   1      37.322  29.396  29.006  1.00  0.00     0.200 A 
ATOM     75  F   UNL A   1      37.868  29.918  26.771  1.00  0.00    -0.200 F 
ATOM     76  F   UNL A   1      36.217  30.153  28.927  1.00  0.00    -0.200 F 
ENDBRANCH  42  66
BRANCH  54  77
ATOM     77  C   UNL A   1      44.957  26.548  32.336  1.00  0.00     0.064 A 
ATOM     78  C   UNL A   1      44.839  26.853  33.705  1.00  0.00     0.173 A 
ATOM     79  C   UNL A   1      44.678  25.233  31.946  1.00  0.00     0.173 A 
ATOM     80  F   UNL A   1      44.976  28.109  34.147  1.00  0.00    -0.203 F 
ATOM     81  C   UNL A   1      44.522  25.870  34.641  1.00  0.00     0.198 A 
ATOM     82  C   UNL A   1      44.320  24.263  32.877  1.00  0.00     0.198 A 
ATOM     83  F   UNL A   1      44.712  24.897  30.647  1.00  0.00    -0.203 F 
ATOM     84  F   UNL A   1      44.442  26.182  35.944  1.00  0.00    -0.200 F 
ATOM     85  C   UNL A   1      44.259  24.576  34.225  1.00  0.00     0.200 A 
ATOM     86  F   UNL A   1      44.013  23.026  32.463  1.00  0.00    -0.200 F 
ATOM     87  F   UNL A   1      43.920  23.637  35.120  1.00  0.00    -0.200 F 
ENDBRANCH  54  77
ENDBRANCH  28  29
ENDBRANCH  21  23
ENDBRANCH  20  21
ENDBRANCH  19  20
ENDBRANCH  18  19
ENDBRANCH  17  18
ENDBRANCH   1  17
TORSDOF 18
ENDMDL
MODEL 2
REMARK VINA RESULT:     -10.3      3.666      6.771
REMARK SMILES C=CCCCn1cc(C(=O)OCCOCCOC(=O)c2ccc(-c3c4nc(c(-c5c(F)c(F)c(F)c(F)c5F)c5ccc([nH]5)c(-c5c(F)c(F)c(F)c(F)c5F)c5nc(c(-c6c(F)c(F)c(F)c(F)c6F)c6ccc3[nH]6)C=C5)C=C4)cc2)cc1Br
REMARK SMILES IDX 13 1 12 2 11 3 9 4 10 5 8 6 6 7 7 8 84 9 83 10 85 11 5 12
REMARK SMILES IDX 4 13 3 14 2 15 1 16 14 17 15 18 16 19 17 20 18 21 19 22
REMARK SMILES IDX 20 23 21 24 82 25 22 26 81 27 23 28 24 29 25 30 75 31 26 32
REMARK SMILES IDX 80 33 74 34 76 35 27 36 79 37 73 38 72 39 28 41 60 42 40 43
REMARK SMILES IDX 59 44 41 45 44 46 58 47 77 48 42 49 43 50 57 52 78 53 45 54
REMARK SMILES IDX 29 55 30 56 38 57 31 58 32 59 36 60 39 61 33 62 34 63 37 64
REMARK SMILES IDX 35 65 61 66 62 67 70 68 63 69 64 70 68 71 71 72 65 73 66 74
REMARK SMILES IDX 69 75 67 76 46 77 47 78 55 79 48 80 49 81 53 82 56 83 50 84
REMARK SMILES IDX 51 85 54 86 52 87
REMARK H PARENT 76 40 44 51
REMARK Flexibility Score: inf
ROOT
ATOM      1  C   UNL A   1      43.775  21.126  25.561  1.00  0.00     0.202 C 
ENDROOT
BRANCH   1   2
ATOM      2  C   UNL A   1      45.041  20.838  24.749  1.00  0.00     0.261 C 
BRANCH   2   3
ATOM      3  O   UNL A   1      46.193  21.543  25.236  1.00  0.00    -0.460 OA
BRANCH   3   4
ATOM      4  C   UNL A   1      46.108  22.894  25.087  1.00  0.00     0.339 C 
ATOM      5  O   UNL A   1      45.692  23.457  24.072  1.00  0.00    -0.246 OA
BRANCH   4   6
ATOM      6  C   UNL A   1      46.414  23.651  26.291  1.00  0.00     0.078 A 
ATOM      7  N   UNL A   1      47.276  25.068  27.828  1.00  0.00    -0.341 N 
ATOM      8  C   UNL A   1      47.486  24.478  26.581  1.00  0.00     0.102 A 
ATOM      9  C   UNL A   1      46.082  24.600  28.318  1.00  0.00     0.085 A 
ATOM     10  C   UNL A   1      45.591  23.663  27.446  1.00  0.00     0.051 A 
ATOM     11  Br  UNL A   1      45.086  25.093  29.824  1.00  0.00    -0.031 Br
BRANCH   7  12
ATOM     12  C   UNL A   1      48.204  26.070  28.337  1.00  0.00     0.123 C 
BRANCH  12  13
ATOM     13  C   UNL A   1      48.389  27.412  27.625  1.00  0.00     0.026 C 
BRANCH  13  14
ATOM     14  C   UNL A   1      47.255  27.810  26.673  1.00  0.00     0.028 C 
BRANCH  14  15
ATOM     15  C   UNL A   1      47.645  27.825  25.223  1.00  0.00    -0.035 C 
ATOM     16  C   UNL A   1      46.752  27.884  24.227  1.00  0.00     0.004 C 
ENDBRANCH  14  15
ENDBRANCH  13  14
ENDBRANCH  12  13
ENDBRANCH   7  12
ENDBRANCH   4   6
ENDBRANCH   3   4
ENDBRANCH   2   3
ENDBRANCH   1   2
BRANCH   1  17
ATOM     17  O   UNL A   1      42.650  20.263  25.405  1.00  0.00    -0.374 OA
BRANCH  17  18
ATOM     18  C   UNL A   1      42.144  19.535  26.518  1.00  0.00     0.202 C 
BRANCH  18  19
ATOM     19  C   UNL A   1      40.810  19.948  27.120  1.00  0.00     0.261 C 
BRANCH  19  20
ATOM     20  O   UNL A   1      40.819  21.286  27.588  1.00  0.00    -0.460 OA
BRANCH  20  21
ATOM     21  C   UNL A   1      40.032  22.117  26.879  1.00  0.00     0.338 C 
ATOM     22  O   UNL A   1      39.078  21.819  26.167  1.00  0.00    -0.246 OA
BRANCH  21  23
ATOM     23  C   UNL A   1      40.572  23.469  26.971  1.00  0.00     0.060 A 
ATOM     24  C   UNL A   1      41.664  23.660  27.823  1.00  0.00     0.016 A 
ATOM     25  C   UNL A   1      39.820  24.539  26.464  1.00  0.00     0.016 A 
ATOM     26  C   UNL A   1      41.870  24.917  28.341  1.00  0.00     0.010 A 
ATOM     27  C   UNL A   1      40.013  25.785  26.997  1.00  0.00     0.010 A 
ATOM     28  C   UNL A   1      40.978  25.934  27.990  1.00  0.00    -0.014 A 
BRANCH  28  29
ATOM     29  C   UNL A   1      41.117  27.221  28.629  1.00  0.00     0.031 A 
ATOM     30  C   UNL A   1      42.262  27.995  28.104  1.00  0.00     0.074 A 
ATOM     31  C   UNL A   1      40.198  27.674  29.501  1.00  0.00     0.049 A 
ATOM     32  N   UNL A   1      43.318  28.365  28.745  1.00  0.00    -0.248 NA
ATOM     33  C   UNL A   1      42.325  28.231  26.651  1.00  0.00     0.031 C 
ATOM     34  C   UNL A   1      38.914  27.070  29.866  1.00  0.00     0.029 A 
ATOM     35  N   UNL A   1      40.183  28.850  30.179  1.00  0.00    -0.354 N 
ATOM     36  C   UNL A   1      44.090  29.058  27.819  1.00  0.00     0.074 A 
ATOM     37  C   UNL A   1      43.535  28.773  26.523  1.00  0.00     0.031 C 
ATOM     38  C   UNL A   1      38.157  27.987  30.513  1.00  0.00     0.029 A 
ATOM     39  C   UNL A   1      38.944  29.192  30.710  1.00  0.00     0.049 A 
ATOM     40  H   UNL A   1      40.982  29.415  30.286  1.00  0.00     0.167 HD
ATOM     41  C   UNL A   1      44.950  30.029  28.225  1.00  0.00     0.037 A 
ATOM     42  C   UNL A   1      38.602  30.415  31.189  1.00  0.00     0.037 A 
ATOM     43  C   UNL A   1      45.265  29.890  29.624  1.00  0.00     0.049 A 
ATOM     44  C   UNL A   1      39.865  31.153  31.461  1.00  0.00     0.074 A 
ATOM     45  C   UNL A   1      45.847  28.894  30.384  1.00  0.00     0.029 A 
ATOM     46  N   UNL A   1      44.614  30.707  30.517  1.00  0.00    -0.354 N 
ATOM     47  N   UNL A   1      40.685  30.841  32.426  1.00  0.00    -0.248 NA
ATOM     48  C   UNL A   1      40.455  31.908  30.363  1.00  0.00     0.031 C 
ATOM     49  C   UNL A   1      45.117  28.886  31.608  1.00  0.00     0.029 A 
ATOM     50  C   UNL A   1      44.187  29.924  31.559  1.00  0.00     0.049 A 
ATOM     51  H   UNL A   1      44.479  31.678  30.425  1.00  0.00     0.167 HD
ATOM     52  C   UNL A   1      41.949  30.960  31.867  1.00  0.00     0.074 A 
ATOM     53  C   UNL A   1      41.749  31.690  30.618  1.00  0.00     0.031 C 
ATOM     54  C   UNL A   1      42.987  30.194  32.313  1.00  0.00     0.037 A 
BRANCH  41  55
ATOM     55  C   UNL A   1      45.174  31.311  27.463  1.00  0.00     0.064 A 
ATOM     56  C   UNL A   1      46.488  31.668  27.107  1.00  0.00     0.173 A 
ATOM     57  C   UNL A   1      44.208  32.335  27.337  1.00  0.00     0.173 A 
ATOM     58  F   UNL A   1      47.487  30.778  27.205  1.00  0.00    -0.203 F 
ATOM     59  C   UNL A   1      46.820  32.973  26.737  1.00  0.00     0.198 A 
ATOM     60  C   UNL A   1      44.534  33.621  26.913  1.00  0.00     0.198 A 
ATOM     61  F   UNL A   1      42.937  32.179  27.725  1.00  0.00    -0.203 F 
ATOM     62  F   UNL A   1      48.104  33.300  26.538  1.00  0.00    -0.200 F 
ATOM     63  C   UNL A   1      45.845  33.950  26.648  1.00  0.00     0.200 A 
ATOM     64  F   UNL A   1      43.575  34.555  26.851  1.00  0.00    -0.200 F 
ATOM     65  F   UNL A   1      46.171  35.215  26.358  1.00  0.00    -0.200 F 
ENDBRANCH  41  55
BRANCH  42  66
ATOM     66  C   UNL A   1      37.287  31.099  31.137  1.00  0.00     0.064 A 
ATOM     67  C   UNL A   1      36.617  31.476  32.312  1.00  0.00     0.173 A 
ATOM     68  C   UNL A   1      36.793  31.644  29.935  1.00  0.00     0.173 A 
ATOM     69  F   UNL A   1      37.048  31.040  33.504  1.00  0.00    -0.203 F 
ATOM     70  C   UNL A   1      35.536  32.366  32.290  1.00  0.00     0.198 A 
ATOM     71  C   UNL A   1      35.711  32.526  29.913  1.00  0.00     0.198 A 
ATOM     72  F   UNL A   1      37.410  31.412  28.768  1.00  0.00    -0.203 F 
ATOM     73  F   UNL A   1      34.962  32.752  33.438  1.00  0.00    -0.200 F 
ATOM     74  C   UNL A   1      35.092  32.898  31.091  1.00  0.00     0.200 A 
ATOM     75  F   UNL A   1      35.317  33.063  28.749  1.00  0.00    -0.200 F 
ATOM     76  F   UNL A   1      34.099  33.799  31.073  1.00  0.00    -0.200 F 
ENDBRANCH  42  66
BRANCH  54  77
ATOM     77  C   UNL A   1      42.774  29.400  33.573  1.00  0.00     0.064 A 
ATOM     78  C   UNL A   1      42.206  28.113  33.609  1.00  0.00     0.173 A 
ATOM     79  C   UNL A   1      43.271  29.915  34.777  1.00  0.00     0.173 A 
ATOM     80  F   UNL A   1      41.811  27.502  32.485  1.00  0.00    -0.203 F 
ATOM     81  C   UNL A   1      42.083  27.408  34.805  1.00  0.00     0.198 A 
ATOM     82  C   UNL A   1      43.186  29.192  35.962  1.00  0.00     0.198 A 
ATOM     83  F   UNL A   1      43.881  31.110  34.794  1.00  0.00    -0.203 F 
ATOM     84  F   UNL A   1      41.513  26.194  34.815  1.00  0.00    -0.200 F 
ATOM     85  C   UNL A   1      42.578  27.947  35.980  1.00  0.00     0.200 A 
ATOM     86  F   UNL A   1      43.716  29.694  37.086  1.00  0.00    -0.200 F 
ATOM     87  F   UNL A   1      42.492  27.256  37.126  1.00  0.00    -0.200 F 
ENDBRANCH  54  77
ENDBRANCH  28  29
ENDBRANCH  21  23
ENDBRANCH  20  21
ENDBRANCH  19  20
ENDBRANCH  18  19
ENDBRANCH  17  18
ENDBRANCH   1  17
TORSDOF 18
ENDMDL
MODEL 3
REMARK VINA RESULT:     -10.2      0.793      2.155
REMARK SMILES C=CCCCn1cc(C(=O)OCCOCCOC(=O)c2ccc(-c3c4nc(c(-c5c(F)c(F)c(F)c(F)c5F)c5ccc([nH]5)c(-c5c(F)c(F)c(F)c(F)c5F)c5nc(c(-c6c(F)c(F)c(F)c(F)c6F)c6ccc3[nH]6)C=C5)C=C4)cc2)cc1Br
REMARK SMILES IDX 13 1 12 2 11 3 9 4 10 5 8 6 6 7 7 8 84 9 83 10 85 11 5 12
REMARK SMILES IDX 4 13 3 14 2 15 1 16 14 17 15 18 16 19 17 20 18 21 19 22
REMARK SMILES IDX 20 23 21 24 82 25 22 26 81 27 23 28 24 29 25 30 75 31 26 32
REMARK SMILES IDX 80 33 74 34 76 35 27 36 79 37 73 38 72 39 28 41 60 42 40 43
REMARK SMILES IDX 59 44 41 45 44 46 58 47 77 48 42 49 43 50 57 52 78 53 45 54
REMARK SMILES IDX 29 55 30 56 38 57 31 58 32 59 36 60 39 61 33 62 34 63 37 64
REMARK SMILES IDX 35 65 61 66 62 67 70 68 63 69 64 70 68 71 71 72 65 73 66 74
REMARK SMILES IDX 69 75 67 76 46 77 47 78 55 79 48 80 49 81 53 82 56 83 50 84
REMARK SMILES IDX 51 85 54 86 52 87
REMARK H PARENT 76 40 44 51
REMARK Flexibility Score: inf
ROOT
ATOM      1  C   UNL A   1      40.860  20.692  27.350  1.00  0.00     0.202 C 
ENDROOT
BRANCH   1   2
ATOM      2  C   UNL A   1      40.414  21.960  26.618  1.00  0.00     0.261 C 
BRANCH   2   3
ATOM      3  O   UNL A   1      39.260  21.754  25.789  1.00  0.00    -0.460 OA
BRANCH   3   4
ATOM      4  C   UNL A   1      38.297  22.705  25.947  1.00  0.00     0.339 C 
ATOM      5  O   UNL A   1      38.490  23.810  26.462  1.00  0.00    -0.246 OA
BRANCH   4   6
ATOM      6  C   UNL A   1      37.024  22.380  25.325  1.00  0.00     0.078 A 
ATOM      7  N   UNL A   1      34.986  21.544  24.812  1.00  0.00    -0.341 N 
ATOM      8  C   UNL A   1      36.114  21.378  25.617  1.00  0.00     0.102 A 
ATOM      9  C   UNL A   1      35.199  22.640  24.013  1.00  0.00     0.085 A 
ATOM     10  C   UNL A   1      36.470  23.103  24.237  1.00  0.00     0.051 A 
ATOM     11  Br  UNL A   1      34.063  23.554  22.840  1.00  0.00    -0.031 Br
BRANCH   7  12
ATOM     12  C   UNL A   1      33.822  20.685  24.984  1.00  0.00     0.123 C 
BRANCH  12  13
ATOM     13  C   UNL A   1      33.915  19.173  24.769  1.00  0.00     0.026 C 
BRANCH  13  14
ATOM     14  C   UNL A   1      32.708  18.536  24.069  1.00  0.00     0.028 C 
BRANCH  14  15
ATOM     15  C   UNL A   1      33.069  17.507  23.037  1.00  0.00    -0.035 C 
ATOM     16  C   UNL A   1      34.039  16.602  23.214  1.00  0.00     0.004 C 
ENDBRANCH  14  15
ENDBRANCH  13  14
ENDBRANCH  12  13
ENDBRANCH   7  12
ENDBRANCH   4   6
ENDBRANCH   3   4
ENDBRANCH   2   3
ENDBRANCH   1   2
BRANCH   1  17
ATOM     17  O   UNL A   1      41.114  19.514  26.586  1.00  0.00    -0.374 OA
BRANCH  17  18
ATOM     18  C   UNL A   1      42.353  18.825  26.720  1.00  0.00     0.202 C 
BRANCH  18  19
ATOM     19  C   UNL A   1      43.425  19.032  25.662  1.00  0.00     0.261 C 
BRANCH  19  20
ATOM     20  O   UNL A   1      43.242  20.236  24.934  1.00  0.00    -0.460 OA
BRANCH  20  21
ATOM     21  C   UNL A   1      44.339  20.643  24.269  1.00  0.00     0.338 C 
ATOM     22  O   UNL A   1      45.011  20.000  23.468  1.00  0.00    -0.246 OA
BRANCH  21  23
ATOM     23  C   UNL A   1      44.716  21.968  24.751  1.00  0.00     0.060 A 
ATOM     24  C   UNL A   1      45.673  22.026  25.767  1.00  0.00     0.016 A 
ATOM     25  C   UNL A   1      43.917  23.069  24.409  1.00  0.00     0.016 A 
ATOM     26  C   UNL A   1      45.681  23.128  26.590  1.00  0.00     0.010 A 
ATOM     27  C   UNL A   1      43.911  24.156  25.241  1.00  0.00     0.010 A 
ATOM     28  C   UNL A   1      44.732  24.128  26.366  1.00  0.00    -0.014 A 
BRANCH  28  29
ATOM     29  C   UNL A   1      44.655  25.225  27.302  1.00  0.00     0.031 A 
ATOM     30  C   UNL A   1      45.873  26.062  27.296  1.00  0.00     0.074 A 
ATOM     31  C   UNL A   1      43.524  25.491  27.980  1.00  0.00     0.049 A 
ATOM     32  N   UNL A   1      46.709  26.238  28.262  1.00  0.00    -0.248 NA
ATOM     33  C   UNL A   1      46.312  26.631  26.009  1.00  0.00     0.031 C 
ATOM     34  C   UNL A   1      42.208  24.860  27.840  1.00  0.00     0.029 A 
ATOM     35  N   UNL A   1      43.292  26.475  28.886  1.00  0.00    -0.354 N 
ATOM     36  C   UNL A   1      47.676  27.103  27.764  1.00  0.00     0.074 A 
ATOM     37  C   UNL A   1      47.495  27.148  26.338  1.00  0.00     0.031 C 
ATOM     38  C   UNL A   1      41.279  25.624  28.459  1.00  0.00     0.029 A 
ATOM     39  C   UNL A   1      41.947  26.723  29.134  1.00  0.00     0.049 A 
ATOM     40  H   UNL A   1      44.015  26.972  29.331  1.00  0.00     0.167 HD
ATOM     41  C   UNL A   1      48.367  27.924  28.599  1.00  0.00     0.037 A 
ATOM     42  C   UNL A   1      41.450  27.810  29.778  1.00  0.00     0.037 A 
ATOM     43  C   UNL A   1      48.303  27.450  29.959  1.00  0.00     0.049 A 
ATOM     44  C   UNL A   1      42.572  28.422  30.541  1.00  0.00     0.074 A 
ATOM     45  C   UNL A   1      48.694  26.285  30.590  1.00  0.00     0.029 A 
ATOM     46  N   UNL A   1      47.413  28.056  30.812  1.00  0.00    -0.354 N 
ATOM     47  N   UNL A   1      43.116  27.866  31.588  1.00  0.00    -0.248 NA
ATOM     48  C   UNL A   1      43.408  29.394  29.847  1.00  0.00     0.031 C 
ATOM     49  C   UNL A   1      47.666  26.015  31.540  1.00  0.00     0.029 A 
ATOM     50  C   UNL A   1      46.750  27.065  31.491  1.00  0.00     0.049 A 
ATOM     51  H   UNL A   1      47.276  29.025  30.918  1.00  0.00     0.167 HD
ATOM     52  C   UNL A   1      44.478  28.072  31.427  1.00  0.00     0.074 A 
ATOM     53  C   UNL A   1      44.594  29.081  30.377  1.00  0.00     0.031 C 
ATOM     54  C   UNL A   1      45.385  27.189  31.940  1.00  0.00     0.037 A 
BRANCH  41  55
ATOM     55  C   UNL A   1      48.744  29.340  28.246  1.00  0.00     0.064 A 
ATOM     56  C   UNL A   1      47.721  30.265  27.965  1.00  0.00     0.173 A 
ATOM     57  C   UNL A   1      50.048  29.743  27.878  1.00  0.00     0.173 A 
ATOM     58  F   UNL A   1      46.443  29.977  28.256  1.00  0.00    -0.203 F 
ATOM     59  C   UNL A   1      47.976  31.462  27.291  1.00  0.00     0.198 A 
ATOM     60  C   UNL A   1      50.305  30.963  27.258  1.00  0.00     0.198 A 
ATOM     61  F   UNL A   1      51.110  28.938  27.993  1.00  0.00    -0.203 F 
ATOM     62  F   UNL A   1      46.955  32.248  26.926  1.00  0.00    -0.200 F 
ATOM     63  C   UNL A   1      49.266  31.806  26.932  1.00  0.00     0.200 A 
ATOM     64  F   UNL A   1      51.561  31.267  26.903  1.00  0.00    -0.200 F 
ATOM     65  F   UNL A   1      49.504  32.920  26.229  1.00  0.00    -0.200 F 
ENDBRANCH  41  55
BRANCH  42  66
ATOM     66  C   UNL A   1      40.176  28.530  29.541  1.00  0.00     0.064 A 
ATOM     67  C   UNL A   1      39.846  29.023  28.268  1.00  0.00     0.173 A 
ATOM     68  C   UNL A   1      39.135  28.507  30.490  1.00  0.00     0.173 A 
ATOM     69  F   UNL A   1      40.765  29.038  27.291  1.00  0.00    -0.203 F 
ATOM     70  C   UNL A   1      38.547  29.441  27.954  1.00  0.00     0.198 A 
ATOM     71  C   UNL A   1      37.841  28.931  30.178  1.00  0.00     0.198 A 
ATOM     72  F   UNL A   1      39.323  27.982  31.709  1.00  0.00    -0.203 F 
ATOM     73  F   UNL A   1      38.256  29.845  26.709  1.00  0.00    -0.200 F 
ATOM     74  C   UNL A   1      37.544  29.384  28.907  1.00  0.00     0.200 A 
ATOM     75  F   UNL A   1      36.872  28.834  31.099  1.00  0.00    -0.200 F 
ATOM     76  F   UNL A   1      36.286  29.724  28.591  1.00  0.00    -0.200 F 
ENDBRANCH  42  66
BRANCH  54  77
ATOM     77  C   UNL A   1      44.871  26.130  32.877  1.00  0.00     0.064 A 
ATOM     78  C   UNL A   1      44.404  24.869  32.462  1.00  0.00     0.173 A 
ATOM     79  C   UNL A   1      44.963  26.357  34.255  1.00  0.00     0.173 A 
ATOM     80  F   UNL A   1      44.392  24.529  31.166  1.00  0.00    -0.203 F 
ATOM     81  C   UNL A   1      43.989  23.910  33.384  1.00  0.00     0.198 A 
ATOM     82  C   UNL A   1      44.588  25.383  35.175  1.00  0.00     0.198 A 
ATOM     83  F   UNL A   1      45.461  27.517  34.712  1.00  0.00    -0.203 F 
ATOM     84  F   UNL A   1      43.523  22.725  32.960  1.00  0.00    -0.200 F 
ATOM     85  C   UNL A   1      44.085  24.167  34.741  1.00  0.00     0.200 A 
ATOM     86  F   UNL A   1      44.735  25.616  36.487  1.00  0.00    -0.200 F 
ATOM     87  F   UNL A   1      43.718  23.233  35.630  1.00  0.00    -0.200 F 
ENDBRANCH  54  77
ENDBRANCH  28  29
ENDBRANCH  21  23
ENDBRANCH  20  21
ENDBRANCH  19  20
ENDBRANCH  18  19
ENDBRANCH  17  18
ENDBRANCH   1  17
TORSDOF 18
ENDMDL
