MODEL 1
REMARK VINA RESULT:     -12.9      0.000      0.000
REMARK SMILES Cc1ccnc(C(=O)c2[nH]c3cc(Cl)c(F)cc3c2CC(=O)OCCOCCOC(=O)c2ccc(-c3c4nc(c(-c5c(F)c(F)c(F)c(F)c5F)c5ccc([nH]5)c(-c5c(F)c(F)c(F)c(F)c5F)c5nc(c(-c6c(F)c(F)c(F)c(F)c6F)c6ccc3[nH]6)C=C5)C=C4)cc2)c1
REMARK SMILES IDX 25 1 24 2 23 3 21 4 22 5 20 6 19 7 9 8 10 9 11 10 18 12
REMARK SMILES IDX 12 13 17 14 13 15 15 16 14 17 16 18 7 19 8 20 6 21 1 22 2 23
REMARK SMILES IDX 3 24 95 25 4 26 5 27 26 28 27 29 28 30 29 31 30 32 31 33
REMARK SMILES IDX 32 34 33 35 94 36 34 37 93 38 35 39 36 40 37 41 87 42 38 43
REMARK SMILES IDX 92 44 86 45 88 46 39 47 91 48 85 49 84 50 40 52 72 53 52 54
REMARK SMILES IDX 71 55 53 56 56 57 70 58 89 59 54 60 55 61 69 63 90 64 57 65
REMARK SMILES IDX 41 66 42 67 50 68 43 69 44 70 48 71 51 72 45 73 46 74 49 75
REMARK SMILES IDX 47 76 73 77 74 78 82 79 75 80 76 81 80 82 83 83 77 84 78 85
REMARK SMILES IDX 81 86 79 87 58 88 59 89 67 90 60 91 61 92 65 93 68 94 62 95
REMARK SMILES IDX 63 96 66 97 64 98
REMARK H PARENT 10 11 88 51 56 62
REMARK Flexibility Score: inf
ROOT
ATOM      1  C   UNL A   1      31.712  28.268  27.610  1.00  0.00     0.202 C 
ENDROOT
BRANCH   1   2
ATOM      2  C   UNL A   1      31.884  27.056  26.689  1.00  0.00     0.261 C 
BRANCH   2   3
ATOM      3  O   UNL A   1      30.617  26.350  26.502  1.00  0.00    -0.463 OA
BRANCH   3   4
ATOM      4  C   UNL A   1      30.711  25.120  25.936  1.00  0.00     0.310 C 
ATOM      5  O   UNL A   1      31.049  24.130  26.582  1.00  0.00    -0.252 OA
BRANCH   4   6
ATOM      6  C   UNL A   1      30.289  25.009  24.465  1.00  0.00     0.161 C 
BRANCH   6   7
ATOM      7  C   UNL A   1      30.636  26.075  23.418  1.00  0.00     0.000 A 
ATOM      8  C   UNL A   1      31.843  26.355  22.705  1.00  0.00     0.093 A 
ATOM      9  N   UNL A   1      31.687  27.653  22.236  1.00  0.00    -0.351 N 
ATOM     10  C   UNL A   1      30.427  28.147  22.452  1.00  0.00     0.048 A 
ATOM     11  H   UNL A   1      32.405  28.164  21.796  1.00  0.00     0.167 HD
ATOM     12  C   UNL A   1      29.722  27.173  23.147  1.00  0.00     0.007 A 
ATOM     13  C   UNL A   1      29.885  29.399  22.117  1.00  0.00     0.050 A 
ATOM     14  C   UNL A   1      28.380  27.452  23.498  1.00  0.00     0.051 A 
ATOM     15  C   UNL A   1      28.556  29.648  22.472  1.00  0.00     0.078 A 
ATOM     16  C   UNL A   1      27.814  28.681  23.141  1.00  0.00     0.142 A 
ATOM     17  Cl  UNL A   1      27.855  31.171  22.074  1.00  0.00    -0.081 Cl
ATOM     18  F   UNL A   1      26.535  28.915  23.471  1.00  0.00    -0.205 F 
BRANCH   8  19
ATOM     19  C   UNL A   1      33.208  25.773  22.594  1.00  0.00     0.227 C 
ATOM     20  O   UNL A   1      33.895  26.098  21.624  1.00  0.00    -0.285 OA
BRANCH  19  21
ATOM     21  C   UNL A   1      33.810  24.679  23.502  1.00  0.00     0.113 A 
ATOM     22  C   UNL A   1      33.572  21.001  24.382  1.00  0.00     0.044 C 
ATOM     23  C   UNL A   1      34.085  22.422  24.353  1.00  0.00    -0.047 A 
ATOM     24  C   UNL A   1      34.546  22.943  25.553  1.00  0.00     0.023 A 
ATOM     25  C   UNL A   1      33.868  23.302  23.252  1.00  0.00     0.036 A 
ATOM     26  C   UNL A   1      34.673  24.311  25.646  1.00  0.00     0.112 A 
ATOM     27  N   UNL A   1      34.271  25.176  24.683  1.00  0.00    -0.253 NA
ENDBRANCH  19  21
ENDBRANCH   8  19
ENDBRANCH   6   7
ENDBRANCH   4   6
ENDBRANCH   3   4
ENDBRANCH   2   3
ENDBRANCH   1   2
BRANCH   1  28
ATOM     28  O   UNL A   1      32.904  29.044  27.558  1.00  0.00    -0.374 OA
BRANCH  28  29
ATOM     29  C   UNL A   1      32.700  30.284  26.891  1.00  0.00     0.202 C 
BRANCH  29  30
ATOM     30  C   UNL A   1      33.417  31.463  27.554  1.00  0.00     0.261 C 
BRANCH  30  31
ATOM     31  O   UNL A   1      34.756  31.081  27.736  1.00  0.00    -0.460 OA
BRANCH  31  32
ATOM     32  C   UNL A   1      35.746  31.926  28.079  1.00  0.00     0.338 C 
ATOM     33  O   UNL A   1      35.962  33.068  27.733  1.00  0.00    -0.246 OA
BRANCH  32  34
ATOM     34  C   UNL A   1      36.440  31.034  29.031  1.00  0.00     0.060 A 
ATOM     35  C   UNL A   1      37.623  31.639  29.487  1.00  0.00     0.016 A 
ATOM     36  C   UNL A   1      36.416  29.687  28.626  1.00  0.00     0.016 A 
ATOM     37  C   UNL A   1      38.813  31.013  29.176  1.00  0.00     0.010 A 
ATOM     38  C   UNL A   1      37.621  29.039  28.372  1.00  0.00     0.010 A 
ATOM     39  C   UNL A   1      38.813  29.731  28.585  1.00  0.00    -0.014 A 
BRANCH  39  40
ATOM     40  C   UNL A   1      40.105  29.064  28.631  1.00  0.00     0.031 A 
ATOM     41  C   UNL A   1      40.458  28.808  30.051  1.00  0.00     0.074 A 
ATOM     42  C   UNL A   1      40.937  28.675  27.653  1.00  0.00     0.049 A 
ATOM     43  N   UNL A   1      41.346  29.425  30.756  1.00  0.00    -0.248 NA
ATOM     44  C   UNL A   1      39.544  27.946  30.817  1.00  0.00     0.031 C 
ATOM     45  C   UNL A   1      40.724  28.533  26.218  1.00  0.00     0.029 A 
ATOM     46  N   UNL A   1      42.222  28.248  27.823  1.00  0.00    -0.354 N 
ATOM     47  C   UNL A   1      41.175  28.954  32.048  1.00  0.00     0.074 A 
ATOM     48  C   UNL A   1      39.963  28.175  32.058  1.00  0.00     0.031 C 
ATOM     49  C   UNL A   1      41.773  27.853  25.686  1.00  0.00     0.029 A 
ATOM     50  C   UNL A   1      42.780  27.634  26.717  1.00  0.00     0.049 A 
ATOM     51  H   UNL A   1      42.713  28.368  28.667  1.00  0.00     0.167 HD
ATOM     52  C   UNL A   1      42.140  29.078  32.992  1.00  0.00     0.037 A 
ATOM     53  C   UNL A   1      43.942  26.930  26.717  1.00  0.00     0.037 A 
ATOM     54  C   UNL A   1      43.097  30.097  32.663  1.00  0.00     0.049 A 
ATOM     55  C   UNL A   1      44.730  27.345  27.910  1.00  0.00     0.074 A 
ATOM     56  C   UNL A   1      43.023  31.466  32.480  1.00  0.00     0.029 A 
ATOM     57  N   UNL A   1      44.292  29.718  32.106  1.00  0.00    -0.354 N 
ATOM     58  N   UNL A   1      45.311  28.503  28.042  1.00  0.00    -0.248 NA
ATOM     59  C   UNL A   1      44.532  26.602  29.149  1.00  0.00     0.031 C 
ATOM     60  C   UNL A   1      43.929  31.754  31.418  1.00  0.00     0.029 A 
ATOM     61  C   UNL A   1      44.515  30.548  31.034  1.00  0.00     0.049 A 
ATOM     62  H   UNL A   1      44.879  28.990  32.414  1.00  0.00     0.167 HD
ATOM     63  C   UNL A   1      45.170  28.819  29.385  1.00  0.00     0.074 A 
ATOM     64  C   UNL A   1      44.764  27.576  30.031  1.00  0.00     0.031 C 
ATOM     65  C   UNL A   1      45.130  30.116  29.804  1.00  0.00     0.037 A 
BRANCH  52  66
ATOM     66  C   UNL A   1      42.354  28.034  34.043  1.00  0.00     0.064 A 
ATOM     67  C   UNL A   1      43.026  26.846  33.725  1.00  0.00     0.173 A 
ATOM     68  C   UNL A   1      41.695  28.058  35.294  1.00  0.00     0.173 A 
ATOM     69  F   UNL A   1      43.640  26.705  32.541  1.00  0.00    -0.203 F 
ATOM     70  C   UNL A   1      43.012  25.748  34.589  1.00  0.00     0.198 A 
ATOM     71  C   UNL A   1      41.738  26.990  36.179  1.00  0.00     0.198 A 
ATOM     72  F   UNL A   1      40.894  29.071  35.656  1.00  0.00    -0.203 F 
ATOM     73  F   UNL A   1      43.572  24.594  34.204  1.00  0.00    -0.200 F 
ATOM     74  C   UNL A   1      42.375  25.823  35.816  1.00  0.00     0.200 A 
ATOM     75  F   UNL A   1      41.092  27.078  37.351  1.00  0.00    -0.200 F 
ATOM     76  F   UNL A   1      42.324  24.757  36.624  1.00  0.00    -0.200 F 
ENDBRANCH  52  66
BRANCH  53  77
ATOM     77  C   UNL A   1      44.278  25.694  25.972  1.00  0.00     0.064 A 
ATOM     78  C   UNL A   1      45.488  25.585  25.266  1.00  0.00     0.173 A 
ATOM     79  C   UNL A   1      43.574  24.494  26.196  1.00  0.00     0.173 A 
ATOM     80  F   UNL A   1      46.242  26.672  25.045  1.00  0.00    -0.203 F 
ATOM     81  C   UNL A   1      45.986  24.347  24.847  1.00  0.00     0.198 A 
ATOM     82  C   UNL A   1      44.068  23.261  25.769  1.00  0.00     0.198 A 
ATOM     83  F   UNL A   1      42.449  24.481  26.922  1.00  0.00    -0.203 F 
ATOM     84  F   UNL A   1      47.181  24.275  24.243  1.00  0.00    -0.200 F 
ATOM     85  C   UNL A   1      45.282  23.185  25.111  1.00  0.00     0.200 A 
ATOM     86  F   UNL A   1      43.395  22.140  26.064  1.00  0.00    -0.200 F 
ATOM     87  F   UNL A   1      45.790  21.992  24.774  1.00  0.00    -0.200 F 
ENDBRANCH  53  77
BRANCH  65  88
ATOM     88  C   UNL A   1      45.517  31.179  28.816  1.00  0.00     0.064 A 
ATOM     89  C   UNL A   1      46.827  31.668  28.663  1.00  0.00     0.173 A 
ATOM     90  C   UNL A   1      44.550  31.631  27.908  1.00  0.00     0.173 A 
ATOM     91  F   UNL A   1      47.831  31.203  29.420  1.00  0.00    -0.203 F 
ATOM     92  C   UNL A   1      47.136  32.609  27.683  1.00  0.00     0.198 A 
ATOM     93  C   UNL A   1      44.870  32.541  26.906  1.00  0.00     0.198 A 
ATOM     94  F   UNL A   1      43.296  31.155  27.968  1.00  0.00    -0.203 F 
ATOM     95  F   UNL A   1      48.389  33.072  27.568  1.00  0.00    -0.200 F 
ATOM     96  C   UNL A   1      46.158  33.040  26.802  1.00  0.00     0.200 A 
ATOM     97  F   UNL A   1      43.934  32.917  26.022  1.00  0.00    -0.200 F 
ATOM     98  F   UNL A   1      46.464  33.916  25.834  1.00  0.00    -0.200 F 
ENDBRANCH  65  88
ENDBRANCH  39  40
ENDBRANCH  32  34
ENDBRANCH  31  32
ENDBRANCH  30  31
ENDBRANCH  29  30
ENDBRANCH  28  29
ENDBRANCH   1  28
TORSDOF 17
ENDMDL
MODEL 2
REMARK VINA RESULT:     -12.7      3.761      9.061
REMARK SMILES Cc1ccnc(C(=O)c2[nH]c3cc(Cl)c(F)cc3c2CC(=O)OCCOCCOC(=O)c2ccc(-c3c4nc(c(-c5c(F)c(F)c(F)c(F)c5F)c5ccc([nH]5)c(-c5c(F)c(F)c(F)c(F)c5F)c5nc(c(-c6c(F)c(F)c(F)c(F)c6F)c6ccc3[nH]6)C=C5)C=C4)cc2)c1
REMARK SMILES IDX 25 1 24 2 23 3 21 4 22 5 20 6 19 7 9 8 10 9 11 10 18 12
REMARK SMILES IDX 12 13 17 14 13 15 15 16 14 17 16 18 7 19 8 20 6 21 1 22 2 23
REMARK SMILES IDX 3 24 95 25 4 26 5 27 26 28 27 29 28 30 29 31 30 32 31 33
REMARK SMILES IDX 32 34 33 35 94 36 34 37 93 38 35 39 36 40 37 41 87 42 38 43
REMARK SMILES IDX 92 44 86 45 88 46 39 47 91 48 85 49 84 50 40 52 72 53 52 54
REMARK SMILES IDX 71 55 53 56 56 57 70 58 89 59 54 60 55 61 69 63 90 64 57 65
REMARK SMILES IDX 41 66 42 67 50 68 43 69 44 70 48 71 51 72 45 73 46 74 49 75
REMARK SMILES IDX 47 76 73 77 74 78 82 79 75 80 76 81 80 82 83 83 77 84 78 85
REMARK SMILES IDX 81 86 79 87 58 88 59 89 67 90 60 91 61 92 65 93 68 94 62 95
REMARK SMILES IDX 63 96 66 97 64 98
REMARK H PARENT 10 11 88 51 56 62
REMARK Flexibility Score: inf
ROOT
ATOM      1  C   UNL A   1      36.631  22.952  23.123  1.00  0.00     0.202 C 
ENDROOT
BRANCH   1   2
ATOM      2  C   UNL A   1      35.149  23.045  23.499  1.00  0.00     0.261 C 
BRANCH   2   3
ATOM      3  O   UNL A   1      34.326  23.350  22.330  1.00  0.00    -0.463 OA
BRANCH   3   4
ATOM      4  C   UNL A   1      33.212  24.086  22.577  1.00  0.00     0.310 C 
ATOM      5  O   UNL A   1      33.191  25.306  22.429  1.00  0.00    -0.252 OA
BRANCH   4   6
ATOM      6  C   UNL A   1      31.949  23.307  22.967  1.00  0.00     0.161 C 
BRANCH   6   7
ATOM      7  C   UNL A   1      31.915  22.304  24.128  1.00  0.00     0.000 A 
ATOM      8  C   UNL A   1      31.905  22.487  25.545  1.00  0.00     0.093 A 
ATOM      9  N   UNL A   1      32.296  21.259  26.066  1.00  0.00    -0.351 N 
ATOM     10  C   UNL A   1      32.388  20.284  25.108  1.00  0.00     0.048 A 
ATOM     11  H   UNL A   1      32.486  21.107  27.020  1.00  0.00     0.167 HD
ATOM     12  C   UNL A   1      32.111  20.884  23.887  1.00  0.00     0.007 A 
ATOM     13  C   UNL A   1      32.737  18.929  25.239  1.00  0.00     0.050 A 
ATOM     14  C   UNL A   1      32.150  20.074  22.728  1.00  0.00     0.051 A 
ATOM     15  C   UNL A   1      32.765  18.150  24.079  1.00  0.00     0.078 A 
ATOM     16  C   UNL A   1      32.462  18.715  22.845  1.00  0.00     0.142 A 
ATOM     17  Cl  UNL A   1      33.185  16.482  24.201  1.00  0.00    -0.081 Cl
ATOM     18  F   UNL A   1      32.477  17.964  21.733  1.00  0.00    -0.205 F 
BRANCH   8  19
ATOM     19  C   UNL A   1      31.869  23.627  26.501  1.00  0.00     0.227 C 
ATOM     20  O   UNL A   1      31.453  23.409  27.640  1.00  0.00    -0.285 OA
BRANCH  19  21
ATOM     21  C   UNL A   1      32.167  25.105  26.170  1.00  0.00     0.113 A 
ATOM     22  C   UNL A   1      30.826  28.125  24.314  1.00  0.00     0.044 C 
ATOM     23  C   UNL A   1      31.705  27.290  25.216  1.00  0.00    -0.047 A 
ATOM     24  C   UNL A   1      33.068  27.544  25.168  1.00  0.00     0.023 A 
ATOM     25  C   UNL A   1      31.241  26.116  25.879  1.00  0.00     0.036 A 
ATOM     26  C   UNL A   1      33.913  26.585  25.682  1.00  0.00     0.112 A 
ATOM     27  N   UNL A   1      33.501  25.372  26.124  1.00  0.00    -0.253 NA
ENDBRANCH  19  21
ENDBRANCH   8  19
ENDBRANCH   6   7
ENDBRANCH   4   6
ENDBRANCH   3   4
ENDBRANCH   2   3
ENDBRANCH   1   2
BRANCH   1  28
ATOM     28  O   UNL A   1      37.244  21.970  23.951  1.00  0.00    -0.374 OA
BRANCH  28  29
ATOM     29  C   UNL A   1      37.427  22.438  25.281  1.00  0.00     0.202 C 
BRANCH  29  30
ATOM     30  C   UNL A   1      38.673  21.872  25.967  1.00  0.00     0.261 C 
BRANCH  30  31
ATOM     31  O   UNL A   1      39.202  22.896  26.769  1.00  0.00    -0.460 OA
BRANCH  31  32
ATOM     32  C   UNL A   1      40.436  22.878  27.307  1.00  0.00     0.338 C 
ATOM     33  O   UNL A   1      41.049  21.978  27.840  1.00  0.00    -0.246 OA
BRANCH  32  34
ATOM     34  C   UNL A   1      40.802  24.276  26.999  1.00  0.00     0.060 A 
ATOM     35  C   UNL A   1      41.868  24.689  27.815  1.00  0.00     0.016 A 
ATOM     36  C   UNL A   1      39.679  25.096  26.791  1.00  0.00     0.016 A 
ATOM     37  C   UNL A   1      41.625  25.725  28.694  1.00  0.00     0.010 A 
ATOM     38  C   UNL A   1      39.468  26.178  27.641  1.00  0.00     0.010 A 
ATOM     39  C   UNL A   1      40.412  26.445  28.633  1.00  0.00    -0.014 A 
BRANCH  39  40
ATOM     40  C   UNL A   1      40.436  27.700  29.369  1.00  0.00     0.031 A 
ATOM     41  C   UNL A   1      41.532  28.545  28.830  1.00  0.00     0.074 A 
ATOM     42  C   UNL A   1      39.666  28.157  30.367  1.00  0.00     0.049 A 
ATOM     43  N   UNL A   1      42.665  28.805  29.394  1.00  0.00    -0.248 NA
ATOM     44  C   UNL A   1      41.442  28.925  27.412  1.00  0.00     0.031 C 
ATOM     45  C   UNL A   1      38.383  27.688  30.875  1.00  0.00     0.029 A 
ATOM     46  N   UNL A   1      39.917  29.264  31.125  1.00  0.00    -0.354 N 
ATOM     47  C   UNL A   1      43.403  29.476  28.433  1.00  0.00     0.074 A 
ATOM     48  C   UNL A   1      42.672  29.383  27.195  1.00  0.00     0.031 C 
ATOM     49  C   UNL A   1      37.873  28.630  31.710  1.00  0.00     0.029 A 
ATOM     50  C   UNL A   1      38.851  29.697  31.891  1.00  0.00     0.049 A 
ATOM     51  H   UNL A   1      40.789  29.720  31.125  1.00  0.00     0.167 HD
ATOM     52  C   UNL A   1      44.483  30.229  28.752  1.00  0.00     0.037 A 
ATOM     53  C   UNL A   1      38.784  30.890  32.535  1.00  0.00     0.037 A 
ATOM     54  C   UNL A   1      45.020  29.894  30.042  1.00  0.00     0.049 A 
ATOM     55  C   UNL A   1      40.173  31.402  32.699  1.00  0.00     0.074 A 
ATOM     56  C   UNL A   1      45.586  28.754  30.584  1.00  0.00     0.029 A 
ATOM     57  N   UNL A   1      44.690  30.683  31.114  1.00  0.00    -0.354 N 
ATOM     58  N   UNL A   1      41.053  30.894  33.514  1.00  0.00    -0.248 NA
ATOM     59  C   UNL A   1      40.716  32.246  31.643  1.00  0.00     0.031 C 
ATOM     60  C   UNL A   1      45.129  28.712  31.933  1.00  0.00     0.029 A 
ATOM     61  C   UNL A   1      44.333  29.839  32.137  1.00  0.00     0.049 A 
ATOM     62  H   UNL A   1      44.704  31.668  31.145  1.00  0.00     0.167 HD
ATOM     63  C   UNL A   1      42.261  31.000  32.842  1.00  0.00     0.074 A 
ATOM     64  C   UNL A   1      42.006  31.919  31.738  1.00  0.00     0.031 C 
ATOM     65  C   UNL A   1      43.280  30.125  33.080  1.00  0.00     0.037 A 
BRANCH  52  66
ATOM     66  C   UNL A   1      44.826  31.478  28.001  1.00  0.00     0.064 A 
ATOM     67  C   UNL A   1      46.043  31.570  27.312  1.00  0.00     0.173 A 
ATOM     68  C   UNL A   1      44.105  32.685  28.149  1.00  0.00     0.173 A 
ATOM     69  F   UNL A   1      46.826  30.490  27.162  1.00  0.00    -0.203 F 
ATOM     70  C   UNL A   1      46.517  32.793  26.830  1.00  0.00     0.198 A 
ATOM     71  C   UNL A   1      44.546  33.887  27.613  1.00  0.00     0.198 A 
ATOM     72  F   UNL A   1      43.006  32.767  28.912  1.00  0.00    -0.203 F 
ATOM     73  F   UNL A   1      47.733  32.860  26.273  1.00  0.00    -0.200 F 
ATOM     74  C   UNL A   1      45.766  33.947  26.975  1.00  0.00     0.200 A 
ATOM     75  F   UNL A   1      43.813  34.996  27.787  1.00  0.00    -0.200 F 
ATOM     76  F   UNL A   1      46.240  35.125  26.552  1.00  0.00    -0.200 F 
ENDBRANCH  52  66
BRANCH  53  77
ATOM     77  C   UNL A   1      37.615  31.783  32.716  1.00  0.00     0.064 A 
ATOM     78  C   UNL A   1      37.217  32.197  33.999  1.00  0.00     0.173 A 
ATOM     79  C   UNL A   1      37.067  32.494  31.631  1.00  0.00     0.173 A 
ATOM     80  F   UNL A   1      37.723  31.602  35.089  1.00  0.00    -0.203 F 
ATOM     81  C   UNL A   1      36.356  33.283  34.187  1.00  0.00     0.198 A 
ATOM     82  C   UNL A   1      36.201  33.572  31.820  1.00  0.00     0.198 A 
ATOM     83  F   UNL A   1      37.440  32.225  30.373  1.00  0.00    -0.203 F 
ATOM     84  F   UNL A   1      36.060  33.697  35.427  1.00  0.00    -0.200 F 
ATOM     85  C   UNL A   1      35.860  33.978  33.097  1.00  0.00     0.200 A 
ATOM     86  F   UNL A   1      35.758  34.259  30.757  1.00  0.00    -0.200 F 
ATOM     87  F   UNL A   1      35.093  35.062  33.275  1.00  0.00    -0.200 F 
ENDBRANCH  53  77
BRANCH  65  88
ATOM     88  C   UNL A   1      43.159  29.224  34.275  1.00  0.00     0.064 A 
ATOM     89  C   UNL A   1      42.423  28.025  34.281  1.00  0.00     0.173 A 
ATOM     90  C   UNL A   1      43.915  29.523  35.416  1.00  0.00     0.173 A 
ATOM     91  F   UNL A   1      41.762  27.614  33.189  1.00  0.00    -0.203 F 
ATOM     92  C   UNL A   1      42.402  27.198  35.403  1.00  0.00     0.198 A 
ATOM     93  C   UNL A   1      43.923  28.676  36.520  1.00  0.00     0.198 A 
ATOM     94  F   UNL A   1      44.683  30.624  35.445  1.00  0.00    -0.203 F 
ATOM     95  F   UNL A   1      41.679  26.068  35.390  1.00  0.00    -0.200 F 
ATOM     96  C   UNL A   1      43.156  27.522  36.518  1.00  0.00     0.200 A 
ATOM     97  F   UNL A   1      44.695  28.965  37.577  1.00  0.00    -0.200 F 
ATOM     98  F   UNL A   1      43.168  26.706  37.582  1.00  0.00    -0.200 F 
ENDBRANCH  65  88
ENDBRANCH  39  40
ENDBRANCH  32  34
ENDBRANCH  31  32
ENDBRANCH  30  31
ENDBRANCH  29  30
ENDBRANCH  28  29
ENDBRANCH   1  28
TORSDOF 17
ENDMDL
MODEL 3
REMARK VINA RESULT:     -12.4      2.696      4.265
REMARK SMILES Cc1ccnc(C(=O)c2[nH]c3cc(Cl)c(F)cc3c2CC(=O)OCCOCCOC(=O)c2ccc(-c3c4nc(c(-c5c(F)c(F)c(F)c(F)c5F)c5ccc([nH]5)c(-c5c(F)c(F)c(F)c(F)c5F)c5nc(c(-c6c(F)c(F)c(F)c(F)c6F)c6ccc3[nH]6)C=C5)C=C4)cc2)c1
REMARK SMILES IDX 25 1 24 2 23 3 21 4 22 5 20 6 19 7 9 8 10 9 11 10 18 12
REMARK SMILES IDX 12 13 17 14 13 15 15 16 14 17 16 18 7 19 8 20 6 21 1 22 2 23
REMARK SMILES IDX 3 24 95 25 4 26 5 27 26 28 27 29 28 30 29 31 30 32 31 33
REMARK SMILES IDX 32 34 33 35 94 36 34 37 93 38 35 39 36 40 37 41 87 42 38 43
REMARK SMILES IDX 92 44 86 45 88 46 39 47 91 48 85 49 84 50 40 52 72 53 52 54
REMARK SMILES IDX 71 55 53 56 56 57 70 58 89 59 54 60 55 61 69 63 90 64 57 65
REMARK SMILES IDX 41 66 42 67 50 68 43 69 44 70 48 71 51 72 45 73 46 74 49 75
REMARK SMILES IDX 47 76 73 77 74 78 82 79 75 80 76 81 80 82 83 83 77 84 78 85
REMARK SMILES IDX 81 86 79 87 58 88 59 89 67 90 60 91 61 92 65 93 68 94 62 95
REMARK SMILES IDX 63 96 66 97 64 98
REMARK H PARENT 10 11 88 51 56 62
REMARK Flexibility Score: inf
ROOT
ATOM      1  C   UNL A   1      32.884  28.746  25.123  1.00  0.00     0.202 C 
ENDROOT
BRANCH   1   2
ATOM      2  C   UNL A   1      32.098  27.516  24.660  1.00  0.00     0.261 C 
BRANCH   2   3
ATOM      3  O   UNL A   1      32.344  26.371  25.537  1.00  0.00    -0.463 OA
BRANCH   3   4
ATOM      4  C   UNL A   1      33.182  25.425  25.041  1.00  0.00     0.310 C 
ATOM      5  O   UNL A   1      33.669  25.511  23.915  1.00  0.00    -0.252 OA
BRANCH   4   6
ATOM      6  C   UNL A   1      33.563  24.282  25.990  1.00  0.00     0.161 C 
BRANCH   6   7
ATOM      7  C   UNL A   1      34.394  23.072  25.543  1.00  0.00     0.000 A 
ATOM      8  C   UNL A   1      34.019  21.747  25.158  1.00  0.00     0.093 A 
ATOM      9  N   UNL A   1      35.184  20.999  25.273  1.00  0.00    -0.351 N 
ATOM     10  C   UNL A   1      36.285  21.771  25.535  1.00  0.00     0.048 A 
ATOM     11  H   UNL A   1      35.216  20.020  25.176  1.00  0.00     0.167 HD
ATOM     12  C   UNL A   1      35.843  23.081  25.664  1.00  0.00     0.007 A 
ATOM     13  C   UNL A   1      37.627  21.391  25.707  1.00  0.00     0.050 A 
ATOM     14  C   UNL A   1      36.805  24.080  25.947  1.00  0.00     0.051 A 
ATOM     15  C   UNL A   1      38.558  22.398  25.981  1.00  0.00     0.078 A 
ATOM     16  C   UNL A   1      38.150  23.723  26.086  1.00  0.00     0.142 A 
ATOM     17  Cl  UNL A   1      40.214  21.970  26.194  1.00  0.00    -0.081 Cl
ATOM     18  F   UNL A   1      39.045  24.690  26.338  1.00  0.00    -0.205 F 
BRANCH   8  19
ATOM     19  C   UNL A   1      32.759  20.979  24.965  1.00  0.00     0.227 C 
ATOM     20  O   UNL A   1      31.698  21.527  25.268  1.00  0.00    -0.285 OA
BRANCH  19  21
ATOM     21  C   UNL A   1      32.650  19.495  24.554  1.00  0.00     0.113 A 
ATOM     22  C   UNL A   1      33.713  15.992  25.535  1.00  0.00     0.044 C 
ATOM     23  C   UNL A   1      33.006  17.105  24.798  1.00  0.00    -0.047 A 
ATOM     24  C   UNL A   1      32.874  16.958  23.424  1.00  0.00     0.023 A 
ATOM     25  C   UNL A   1      32.727  18.372  25.389  1.00  0.00     0.036 A 
ATOM     26  C   UNL A   1      32.576  18.084  22.689  1.00  0.00     0.112 A 
ATOM     27  N   UNL A   1      32.516  19.333  23.209  1.00  0.00    -0.253 NA
ENDBRANCH  19  21
ENDBRANCH   8  19
ENDBRANCH   6   7
ENDBRANCH   4   6
ENDBRANCH   3   4
ENDBRANCH   2   3
ENDBRANCH   1   2
BRANCH   1  28
ATOM     28  O   UNL A   1      32.030  29.544  25.936  1.00  0.00    -0.374 OA
BRANCH  28  29
ATOM     29  C   UNL A   1      32.620  29.836  27.197  1.00  0.00     0.202 C 
BRANCH  29  30
ATOM     30  C   UNL A   1      33.457  31.117  27.202  1.00  0.00     0.261 C 
BRANCH  30  31
ATOM     31  O   UNL A   1      34.721  30.781  27.714  1.00  0.00    -0.460 OA
BRANCH  31  32
ATOM     32  C   UNL A   1      35.679  31.676  28.017  1.00  0.00     0.338 C 
ATOM     33  O   UNL A   1      35.850  32.810  27.624  1.00  0.00    -0.246 OA
BRANCH  32  34
ATOM     34  C   UNL A   1      36.411  30.851  29.001  1.00  0.00     0.060 A 
ATOM     35  C   UNL A   1      37.612  31.481  29.363  1.00  0.00     0.016 A 
ATOM     36  C   UNL A   1      36.367  29.479  28.694  1.00  0.00     0.016 A 
ATOM     37  C   UNL A   1      38.788  30.828  29.049  1.00  0.00     0.010 A 
ATOM     38  C   UNL A   1      37.560  28.808  28.436  1.00  0.00     0.010 A 
ATOM     39  C   UNL A   1      38.761  29.507  28.550  1.00  0.00    -0.014 A 
BRANCH  39  40
ATOM     40  C   UNL A   1      40.052  28.839  28.590  1.00  0.00     0.031 A 
ATOM     41  C   UNL A   1      40.429  28.616  30.010  1.00  0.00     0.074 A 
ATOM     42  C   UNL A   1      40.867  28.425  27.608  1.00  0.00     0.049 A 
ATOM     43  N   UNL A   1      41.330  29.248  30.685  1.00  0.00    -0.248 NA
ATOM     44  C   UNL A   1      39.527  27.774  30.812  1.00  0.00     0.031 C 
ATOM     45  C   UNL A   1      40.629  28.249  26.181  1.00  0.00     0.029 A 
ATOM     46  N   UNL A   1      42.154  28.000  27.766  1.00  0.00    -0.354 N 
ATOM     47  C   UNL A   1      41.180  28.808  31.990  1.00  0.00     0.074 A 
ATOM     48  C   UNL A   1      39.967  28.033  32.040  1.00  0.00     0.031 C 
ATOM     49  C   UNL A   1      41.668  27.555  25.647  1.00  0.00     0.029 A 
ATOM     50  C   UNL A   1      42.692  27.358  26.666  1.00  0.00     0.049 A 
ATOM     51  H   UNL A   1      42.660  28.139  28.598  1.00  0.00     0.167 HD
ATOM     52  C   UNL A   1      42.161  28.953  32.914  1.00  0.00     0.037 A 
ATOM     53  C   UNL A   1      43.852  26.652  26.663  1.00  0.00     0.037 A 
ATOM     54  C   UNL A   1      43.114  29.962  32.545  1.00  0.00     0.049 A 
ATOM     55  C   UNL A   1      44.661  27.093  27.832  1.00  0.00     0.074 A 
ATOM     56  C   UNL A   1      43.039  31.326  32.331  1.00  0.00     0.029 A 
ATOM     57  N   UNL A   1      44.299  29.567  31.977  1.00  0.00    -0.354 N 
ATOM     58  N   UNL A   1      45.247  28.253  27.927  1.00  0.00    -0.248 NA
ATOM     59  C   UNL A   1      44.483  26.381  29.091  1.00  0.00     0.031 C 
ATOM     60  C   UNL A   1      43.927  31.587  31.247  1.00  0.00     0.029 A 
ATOM     61  C   UNL A   1      44.505  30.371  30.882  1.00  0.00     0.049 A 
ATOM     62  H   UNL A   1      44.890  28.845  32.293  1.00  0.00     0.167 HD
ATOM     63  C   UNL A   1      45.129  28.601  29.264  1.00  0.00     0.074 A 
ATOM     64  C   UNL A   1      44.732  27.375  29.946  1.00  0.00     0.031 C 
ATOM     65  C   UNL A   1      45.099  29.909  29.652  1.00  0.00     0.037 A 
BRANCH  52  66
ATOM     66  C   UNL A   1      42.392  27.934  33.987  1.00  0.00     0.064 A 
ATOM     67  C   UNL A   1      43.076  26.747  33.691  1.00  0.00     0.173 A 
ATOM     68  C   UNL A   1      41.737  27.977  35.240  1.00  0.00     0.173 A 
ATOM     69  F   UNL A   1      43.687  26.589  32.507  1.00  0.00    -0.203 F 
ATOM     70  C   UNL A   1      43.078  25.667  34.577  1.00  0.00     0.198 A 
ATOM     71  C   UNL A   1      41.796  26.928  36.147  1.00  0.00     0.198 A 
ATOM     72  F   UNL A   1      40.926  28.988  35.584  1.00  0.00    -0.203 F 
ATOM     73  F   UNL A   1      43.650  24.512  34.214  1.00  0.00    -0.200 F 
ATOM     74  C   UNL A   1      42.445  25.761  35.805  1.00  0.00     0.200 A 
ATOM     75  F   UNL A   1      41.154  27.033  37.319  1.00  0.00    -0.200 F 
ATOM     76  F   UNL A   1      42.410  24.712  36.636  1.00  0.00    -0.200 F 
ENDBRANCH  52  66
BRANCH  53  77
ATOM     77  C   UNL A   1      44.173  25.397  25.942  1.00  0.00     0.064 A 
ATOM     78  C   UNL A   1      45.330  25.298  25.150  1.00  0.00     0.173 A 
ATOM     79  C   UNL A   1      43.530  24.187  26.265  1.00  0.00     0.173 A 
ATOM     80  F   UNL A   1      46.027  26.399  24.831  1.00  0.00    -0.203 F 
ATOM     81  C   UNL A   1      45.837  24.061  24.741  1.00  0.00     0.198 A 
ATOM     82  C   UNL A   1      44.033  22.953  25.849  1.00  0.00     0.198 A 
ATOM     83  F   UNL A   1      42.464  24.168  27.075  1.00  0.00    -0.203 F 
ATOM     84  F   UNL A   1      46.985  24.002  24.051  1.00  0.00    -0.200 F 
ATOM     85  C   UNL A   1      45.195  22.888  25.103  1.00  0.00     0.200 A 
ATOM     86  F   UNL A   1      43.422  21.825  26.237  1.00  0.00    -0.200 F 
ATOM     87  F   UNL A   1      45.717  21.699  24.774  1.00  0.00    -0.200 F 
ENDBRANCH  53  77
BRANCH  65  88
ATOM     88  C   UNL A   1      45.470  30.947  28.632  1.00  0.00     0.064 A 
ATOM     89  C   UNL A   1      44.594  31.418  27.639  1.00  0.00     0.173 A 
ATOM     90  C   UNL A   1      46.719  31.573  28.742  1.00  0.00     0.173 A 
ATOM     91  F   UNL A   1      43.343  30.947  27.540  1.00  0.00    -0.203 F 
ATOM     92  C   UNL A   1      44.977  32.431  26.761  1.00  0.00     0.198 A 
ATOM     93  C   UNL A   1      47.084  32.610  27.889  1.00  0.00     0.198 A 
ATOM     94  F   UNL A   1      47.575  31.204  29.709  1.00  0.00    -0.203 F 
ATOM     95  F   UNL A   1      44.129  32.853  25.812  1.00  0.00    -0.200 F 
ATOM     96  C   UNL A   1      46.220  33.029  26.891  1.00  0.00     0.200 A 
ATOM     97  F   UNL A   1      48.266  33.222  28.051  1.00  0.00    -0.200 F 
ATOM     98  F   UNL A   1      46.573  34.030  26.072  1.00  0.00    -0.200 F 
ENDBRANCH  65  88
ENDBRANCH  39  40
ENDBRANCH  32  34
ENDBRANCH  31  32
ENDBRANCH  30  31
ENDBRANCH  29  30
ENDBRANCH  28  29
ENDBRANCH   1  28
TORSDOF 17
ENDMDL
